REMARK VINA RESULT:    -4.315      3.424      9.985
REMARK INTER + INTRA:         -14.470
REMARK INTER:                 -10.562
REMARK INTRA:                  -3.908
REMARK UNBOUND:                -6.624
REMARK SMILES CC(=O)N[C@@H]1[C@@H](O)C[C@](O)(C(=O)O)O[C@H]1C(O)[C@H](O)CNC(=O)OCc1cn(-c2cccc(S(N)(=O)=O)c2)nn1
REMARK SMILES IDX 21 1 22 2 23 3 20 5 18 6 16 7 15 8 9 9 8 10 14 11 6 12 5 13
REMARK SMILES IDX 10 14 11 16 12 17 13 18 7 20 4 22 2 23 1 25 3 26 17 27 19 29
REMARK SMILES IDX 24 31 25 32 26 33 27 34 40 35 28 36 39 37 29 38 38 39 30 40
REMARK SMILES IDX 33 41 31 42 32 43 34 44 36 45 37 46 35 47
REMARK H PARENT 21 4 10 15 13 19 7 21 4 24 17 28 19 30 35 48 35 49
REMARK Flexibility Score: inf
ROOT
ATOM      1  N   UNL     1      25.269  32.545  15.163  1.00  0.00    -0.319 N 
ATOM      2  C   UNL     1      25.979  33.718  14.801  1.00  0.00     0.407 C 
ATOM      3  O   UNL     1      26.672  34.289  15.660  1.00  0.00    -0.225 OA
ATOM      4  H   UNL     1      24.702  32.113  14.384  1.00  0.00     0.167 HD
ENDROOT
BRANCH   1   5
ATOM      5  C   UNL     1      25.312  31.982  16.488  1.00  0.00     0.154 C 
BRANCH   5   6
ATOM      6  C   UNL     1      25.661  30.510  16.441  1.00  0.00     0.165 C 
BRANCH   6   7
ATOM      7  C   UNL     1      27.147  30.357  16.149  1.00  0.00     0.176 C 
BRANCH   7   8
ATOM      8  C   UNL     1      27.919  31.285  17.085  1.00  0.00     0.178 C 
ATOM      9  C   UNL     1      30.180  31.649  16.724  1.00  0.00     0.269 C 
ATOM     10  C   UNL     1      30.476  31.813  18.197  1.00  0.00     0.112 C 
ATOM     11  O   UNL     1      28.876  31.968  16.400  1.00  0.00    -0.332 OA
ATOM     12  C   UNL     1      29.338  31.407  19.071  1.00  0.00     0.145 C 
ATOM     13  C   UNL     1      28.409  30.500  18.263  1.00  0.00     0.142 C 
BRANCH   9  14
ATOM     14  O   UNL     1      30.478  30.366  16.274  1.00  0.00    -0.357 OA
ATOM     15  H   UNL     1      29.752  30.074  15.637  1.00  0.00     0.214 HD
ENDBRANCH   9  14
BRANCH   9  16
ATOM     16  C   UNL     1      31.063  32.598  15.996  1.00  0.00     0.364 C 
ATOM     17  O   UNL     1      31.450  33.675  16.521  1.00  0.00    -0.246 OA
BRANCH  16  18
ATOM     18  O   UNL     1      31.508  32.342  14.698  1.00  0.00    -0.477 OA
ATOM     19  H   UNL     1      32.334  31.777  14.540  1.00  0.00     0.296 HD
ENDBRANCH  16  18
ENDBRANCH   9  16
BRANCH  12  20
ATOM     20  O   UNL     1      29.721  30.791  20.249  1.00  0.00    -0.391 OA
ATOM     21  H   UNL     1      29.169  29.988  20.471  1.00  0.00     0.211 HD
ENDBRANCH  12  20
BRANCH  13  22
ATOM     22  N   UNL     1      27.254  30.163  19.078  1.00  0.00    -0.348 N 
ATOM     23  C   UNL     1      27.124  28.904  19.735  1.00  0.00     0.217 C 
ATOM     24  H   UNL     1      26.483  30.878  19.186  1.00  0.00     0.163 HD
ATOM     25  C   UNL     1      25.899  28.670  20.543  1.00  0.00     0.114 C 
ATOM     26  O   UNL     1      28.039  28.075  19.598  1.00  0.00    -0.275 OA
ENDBRANCH  13  22
ENDBRANCH   7   8
BRANCH   7  27
ATOM     27  O   UNL     1      27.503  29.053  16.442  1.00  0.00    -0.388 OA
ATOM     28  H   UNL     1      27.750  28.556  15.627  1.00  0.00     0.211 HD
ENDBRANCH   7  27
ENDBRANCH   6   7
BRANCH   6  29
ATOM     29  O   UNL     1      24.911  29.918  15.409  1.00  0.00    -0.388 OA
ATOM     30  H   UNL     1      25.480  29.775  14.590  1.00  0.00     0.211 HD
ENDBRANCH   6  29
ENDBRANCH   5   6
ENDBRANCH   1   5
BRANCH   2  31
ATOM     31  O   UNL     1      25.913  34.240  13.505  1.00  0.00    -0.443 OA
BRANCH  31  32
ATOM     32  C   UNL     1      24.699  34.261  12.784  1.00  0.00     0.294 C 
BRANCH  32  33
ATOM     33  C   UNL     1      24.899  34.916  11.467  1.00  0.00     0.121 A 
ATOM     34  C   UNL     1      26.105  34.996  10.798  1.00  0.00     0.144 A 
ATOM     35  N   UNL     1      24.000  35.533  10.692  1.00  0.00    -0.131 NA
ATOM     36  N   UNL     1      25.845  35.660   9.660  1.00  0.00    -0.220 N 
ATOM     37  N   UNL     1      24.565  35.992   9.586  1.00  0.00    -0.062 NA
BRANCH  36  38
ATOM     38  C   UNL     1      26.803  35.978   8.653  1.00  0.00     0.068 A 
ATOM     39  C   UNL     1      27.372  37.227   8.533  1.00  0.00     0.050 A 
ATOM     40  C   UNL     1      27.203  35.017   7.740  1.00  0.00     0.028 A 
ATOM     41  C   UNL     1      28.308  37.529   7.546  1.00  0.00     0.084 A 
ATOM     42  C   UNL     1      28.121  35.289   6.762  1.00  0.00     0.004 A 
ATOM     43  C   UNL     1      28.671  36.545   6.668  1.00  0.00     0.022 A 
BRANCH  41  44
ATOM     44  S   UNL     1      29.021  39.103   7.400  1.00  0.00     0.238 S 
ATOM     45  O   UNL     1      28.922  39.793   8.737  1.00  0.00    -0.207 OA
ATOM     46  O   UNL     1      28.209  39.931   6.432  1.00  0.00    -0.207 OA
BRANCH  44  47
ATOM     47  N   UNL     1      30.670  39.016   6.932  1.00  0.00    -0.225 NA
ATOM     48  H   UNL     1      30.904  38.047   6.652  1.00  0.00     0.137 HD
ATOM     49  H   UNL     1      31.314  39.365   7.672  1.00  0.00     0.137 HD
ENDBRANCH  44  47
ENDBRANCH  41  44
ENDBRANCH  36  38
ENDBRANCH  32  33
ENDBRANCH  31  32
ENDBRANCH   2  31
TORSDOF 17
BEGIN_RES LYS A 131
REMARK  4 active torsions:
REMARK  status: ('A' for Active; 'I' for Inactive)
REMARK    1  A    between atoms: CA   and  CB  
REMARK    2  A    between atoms: CB   and  CG  
REMARK    3  A    between atoms: CG   and  CD  
REMARK    4  A    between atoms: CD   and  CE  
ROOT
ATOM      1  CA  LYS A 131      29.867  25.555  16.977  1.00 20.52     0.186 C 
ENDROOT
BRANCH   1   2
ATOM      2  CB  LYS A 131      28.345  25.722  17.026  1.00 20.94     0.034 C 
BRANCH   2   3
ATOM      3  CG  LYS A 131      27.601  24.402  16.889  1.00 22.96     0.005 C 
BRANCH   3   4
ATOM      4  CD  LYS A 131      26.156  24.523  17.288  1.00 24.33     0.041 C 
BRANCH   4   5
ATOM      5  CE  LYS A 131      25.909  25.900  17.895  1.00 26.91     0.338 C 
ATOM      6  NZ  LYS A 131      24.493  26.300  17.713  1.00 27.40     0.618 N 
ENDBRANCH   4   5
ENDBRANCH   3   4
ENDBRANCH   2   3
ENDBRANCH   1   2
END_RES LYS A 131
BEGIN_RES LYS A 135
REMARK  4 active torsions:
REMARK  status: ('A' for Active; 'I' for Inactive)
REMARK    5  A    between atoms: CA   and  CB  
REMARK    6  A    between atoms: CB   and  CG  
REMARK    7  A    between atoms: CG   and  CD  
REMARK    8  A    between atoms: CD   and  CE  
ROOT
ATOM      7  CA  LYS A 135      33.193  34.663   9.290  1.00 25.02     0.186 C 
ENDROOT
BRANCH   7   8
ATOM      8  CB  LYS A 135      32.060  35.360  10.034  1.00 26.63     0.034 C 
BRANCH   8   9
ATOM      9  CG  LYS A 135      30.699  35.094   9.445  1.00 29.45     0.005 C 
BRANCH   9  10
ATOM     10  CD  LYS A 135      29.726  34.641  10.523  1.00 32.00     0.041 C 
BRANCH  10  11
ATOM     11  CE  LYS A 135      30.277  34.953  11.901  1.00 34.25     0.338 C 
ATOM     12  NZ  LYS A 135      29.349  34.485  12.968  1.00 35.99     0.618 N 
ENDBRANCH  10  11
ENDBRANCH   9  10
ENDBRANCH   8   9
ENDBRANCH   7   8
END_RES LYS A 135
