REMARK VINA RESULT:    -4.075      8.001     12.785
REMARK INTER + INTRA:         -14.333
REMARK INTER:                  -9.246
REMARK INTRA:                  -5.086
REMARK UNBOUND:                -7.042
REMARK SMILES CC(=O)N[C@@H]1[C@@H](O)C[C@](O)(C(=O)O)O[C@H]1C(O)[C@H](O)CNC(=O)OCc1cn(-c2ncccc2C#N)nn1
REMARK SMILES IDX 21 1 22 2 23 3 20 5 18 6 16 7 15 8 9 9 8 10 14 11 6 12 5 13
REMARK SMILES IDX 10 14 11 16 12 17 13 18 7 20 4 22 2 23 1 25 3 26 17 27 19 29
REMARK SMILES IDX 24 31 25 32 26 33 27 34 38 35 28 36 37 37 29 38 30 39 34 40
REMARK SMILES IDX 31 41 33 42 32 43 35 44 36 45
REMARK H PARENT 21 4 10 15 13 19 7 21 4 24 17 28 19 30
REMARK Flexibility Score: inf
ROOT
ATOM      1  N   UNL     1      28.768  29.256  18.893  1.00  0.00    -0.319 N 
ATOM      2  C   UNL     1      27.559  29.214  18.121  1.00  0.00     0.407 C 
ATOM      3  O   UNL     1      26.452  29.098  18.657  1.00  0.00    -0.225 OA
ATOM      4  H   UNL     1      29.644  29.384  18.284  1.00  0.00     0.167 HD
ENDROOT
BRANCH   1   5
ATOM      5  C   UNL     1      28.837  29.193  20.274  1.00  0.00     0.154 C 
BRANCH   5   6
ATOM      6  C   UNL     1      29.467  27.932  20.916  1.00  0.00     0.165 C 
BRANCH   6   7
ATOM      7  C   UNL     1      30.893  28.292  21.087  1.00  0.00     0.176 C 
BRANCH   7   8
ATOM      8  C   UNL     1      31.773  27.443  21.933  1.00  0.00     0.178 C 
ATOM      9  C   UNL     1      30.960  26.696  24.010  1.00  0.00     0.269 C 
ATOM     10  C   UNL     1      32.332  26.440  24.583  1.00  0.00     0.112 C 
ATOM     11  O   UNL     1      30.931  26.527  22.623  1.00  0.00    -0.332 OA
ATOM     12  C   UNL     1      33.417  26.909  23.594  1.00  0.00     0.145 C 
ATOM     13  C   UNL     1      32.727  28.072  22.841  1.00  0.00     0.142 C 
BRANCH   9  14
ATOM     14  O   UNL     1      30.473  27.920  24.440  1.00  0.00    -0.357 OA
ATOM     15  H   UNL     1      29.534  27.926  24.676  1.00  0.00     0.214 HD
ENDBRANCH   9  14
BRANCH   9  16
ATOM     16  C   UNL     1      30.101  25.607  24.519  1.00  0.00     0.364 C 
ATOM     17  O   UNL     1      30.165  24.939  25.478  1.00  0.00    -0.246 OA
BRANCH  16  18
ATOM     18  O   UNL     1      28.955  25.346  23.620  1.00  0.00    -0.477 OA
ATOM     19  H   UNL     1      28.610  24.383  23.622  1.00  0.00     0.296 HD
ENDBRANCH  16  18
ENDBRANCH   9  16
BRANCH  12  20
ATOM     20  O   UNL     1      34.542  27.330  24.254  1.00  0.00    -0.391 OA
ATOM     21  H   UNL     1      34.944  26.616  24.780  1.00  0.00     0.211 HD
ENDBRANCH  12  20
BRANCH  13  22
ATOM     22  N   UNL     1      33.793  28.823  22.163  1.00  0.00    -0.348 N 
ATOM     23  C   UNL     1      33.878  30.208  22.377  1.00  0.00     0.217 C 
ATOM     24  H   UNL     1      34.448  28.340  21.578  1.00  0.00     0.163 HD
ATOM     25  C   UNL     1      34.742  31.247  21.956  1.00  0.00     0.114 C 
ATOM     26  O   UNL     1      32.867  30.582  23.213  1.00  0.00    -0.275 OA
ENDBRANCH  13  22
ENDBRANCH   7   8
BRANCH   7  27
ATOM     27  O   UNL     1      31.426  28.803  19.940  1.00  0.00    -0.388 OA
ATOM     28  H   UNL     1      30.981  28.458  19.121  1.00  0.00     0.211 HD
ENDBRANCH   7  27
ENDBRANCH   6   7
BRANCH   6  29
ATOM     29  O   UNL     1      29.148  26.904  20.074  1.00  0.00    -0.388 OA
ATOM     30  H   UNL     1      28.577  26.251  20.550  1.00  0.00     0.211 HD
ENDBRANCH   6  29
ENDBRANCH   5   6
ENDBRANCH   1   5
BRANCH   2  31
ATOM     31  O   UNL     1      27.648  29.312  16.730  1.00  0.00    -0.443 OA
BRANCH  31  32
ATOM     32  C   UNL     1      26.852  30.271  16.002  1.00  0.00     0.294 C 
BRANCH  32  33
ATOM     33  C   UNL     1      27.736  31.494  15.989  1.00  0.00     0.121 A 
ATOM     34  C   UNL     1      28.903  31.647  15.300  1.00  0.00     0.146 A 
ATOM     35  N   UNL     1      27.447  32.647  16.592  1.00  0.00    -0.131 NA
ATOM     36  N   UNL     1      29.289  32.942  15.515  1.00  0.00    -0.201 N 
ATOM     37  N   UNL     1      28.373  33.516  16.307  1.00  0.00    -0.060 NA
BRANCH  36  38
ATOM     38  C   UNL     1      30.411  33.582  14.996  1.00  0.00     0.173 A 
ATOM     39  N   UNL     1      31.638  33.507  15.661  1.00  0.00    -0.236 NA
ATOM     40  C   UNL     1      30.431  34.404  13.889  1.00  0.00     0.097 A 
ATOM     41  C   UNL     1      32.635  34.163  15.236  1.00  0.00     0.113 A 
ATOM     42  C   UNL     1      31.480  35.085  13.460  1.00  0.00     0.025 A 
ATOM     43  C   UNL     1      32.742  35.028  14.118  1.00  0.00     0.022 A 
BRANCH  40  44
ATOM     44  C   UNL     1      29.128  34.605  13.145  1.00  0.00     0.103 C 
ATOM     45  N   UNL     1      28.259  34.722  12.643  1.00  0.00    -0.192 NA
ENDBRANCH  40  44
ENDBRANCH  36  38
ENDBRANCH  32  33
ENDBRANCH  31  32
ENDBRANCH   2  31
TORSDOF 16
BEGIN_RES LYS A 131
REMARK  4 active torsions:
REMARK  status: ('A' for Active; 'I' for Inactive)
REMARK    1  A    between atoms: CA   and  CB  
REMARK    2  A    between atoms: CB   and  CG  
REMARK    3  A    between atoms: CG   and  CD  
REMARK    4  A    between atoms: CD   and  CE  
ROOT
ATOM      1  CA  LYS A 131      29.867  25.555  16.977  1.00 20.52     0.186 C 
ENDROOT
BRANCH   1   2
ATOM      2  CB  LYS A 131      28.345  25.722  17.026  1.00 20.94     0.034 C 
BRANCH   2   3
ATOM      3  CG  LYS A 131      27.601  24.402  16.894  1.00 22.96     0.005 C 
BRANCH   3   4
ATOM      4  CD  LYS A 131      26.661  24.164  18.044  1.00 24.33     0.041 C 
BRANCH   4   5
ATOM      5  CE  LYS A 131      25.705  23.029  17.693  1.00 26.91     0.338 C 
ATOM      6  NZ  LYS A 131      24.808  22.734  18.835  1.00 27.40     0.618 N 
ENDBRANCH   4   5
ENDBRANCH   3   4
ENDBRANCH   2   3
ENDBRANCH   1   2
END_RES LYS A 131
BEGIN_RES LYS A 135
REMARK  4 active torsions:
REMARK  status: ('A' for Active; 'I' for Inactive)
REMARK    5  A    between atoms: CA   and  CB  
REMARK    6  A    between atoms: CB   and  CG  
REMARK    7  A    between atoms: CG   and  CD  
REMARK    8  A    between atoms: CD   and  CE  
ROOT
ATOM      7  CA  LYS A 135      33.193  34.663   9.290  1.00 25.02     0.186 C 
ENDROOT
BRANCH   7   8
ATOM      8  CB  LYS A 135      32.060  35.360  10.034  1.00 26.63     0.034 C 
BRANCH   8   9
ATOM      9  CG  LYS A 135      30.713  34.720   9.817  1.00 29.45     0.005 C 
BRANCH   9  10
ATOM     10  CD  LYS A 135      30.351  34.719   8.340  1.00 32.00     0.041 C 
BRANCH  10  11
ATOM     11  CE  LYS A 135      28.849  34.614   8.159  1.00 34.25     0.338 C 
ATOM     12  NZ  LYS A 135      28.227  33.854   9.279  1.00 35.99     0.618 N 
ENDBRANCH  10  11
ENDBRANCH   9  10
ENDBRANCH   8   9
ENDBRANCH   7   8
END_RES LYS A 135
