REMARK VINA RESULT:    -5.336      3.679      7.981
REMARK INTER + INTRA:         -14.871
REMARK INTER:                  -8.384
REMARK INTRA:                  -6.487
REMARK UNBOUND:                -5.011
REMARK SMILES CC(=O)N[C@@H]1[C@@H](O)C[C@](O)(C(=O)O)O[C@H]1C(O)[C@H](O)CNC(=O)OCc1cn(CS(=O)(=O)c2ccccc2)nn1
REMARK SMILES IDX 21 1 22 2 23 3 20 5 18 6 16 7 15 8 9 9 8 10 14 11 6 12 5 13
REMARK SMILES IDX 10 14 11 16 12 17 13 18 7 20 4 22 2 23 1 25 3 26 17 27 19 29
REMARK SMILES IDX 24 31 25 32 26 33 27 34 40 35 28 36 39 37 29 38 30 39 31 40
REMARK SMILES IDX 32 41 33 42 34 43 38 44 35 45 37 46 36 47
REMARK H PARENT 21 4 10 15 13 19 7 21 4 24 17 28 19 30
REMARK Flexibility Score: inf
ROOT
ATOM      1  N   UNL     1      30.115  32.481  17.684  1.00  0.00    -0.319 N 
ATOM      2  C   UNL     1      29.169  33.401  18.265  1.00  0.00     0.407 C 
ATOM      3  O   UNL     1      29.288  34.611  18.027  1.00  0.00    -0.225 OA
ATOM      4  H   UNL     1      29.942  31.487  17.926  1.00  0.00     0.167 HD
ENDROOT
BRANCH   1   5
ATOM      5  C   UNL     1      31.189  32.967  16.836  1.00  0.00     0.154 C 
BRANCH   5   6
ATOM      6  C   UNL     1      30.946  32.701  15.389  1.00  0.00     0.165 C 
BRANCH   6   7
ATOM      7  C   UNL     1      30.545  33.900  14.599  1.00  0.00     0.176 C 
BRANCH   7   8
ATOM      8  C   UNL     1      31.120  35.205  15.015  1.00  0.00     0.178 C 
ATOM      9  C   UNL     1      30.748  36.253  12.957  1.00  0.00     0.269 C 
ATOM     10  C   UNL     1      32.074  35.752  12.487  1.00  0.00     0.112 C 
ATOM     11  O   UNL     1      30.528  36.251  14.311  1.00  0.00    -0.332 OA
ATOM     12  C   UNL     1      33.098  35.493  13.521  1.00  0.00     0.145 C 
ATOM     13  C   UNL     1      32.578  35.423  14.929  1.00  0.00     0.142 C 
BRANCH   9  14
ATOM     14  O   UNL     1      29.699  35.539  12.377  1.00  0.00    -0.357 OA
ATOM     15  H   UNL     1      29.012  35.259  13.004  1.00  0.00     0.214 HD
ENDBRANCH   9  14
BRANCH   9  16
ATOM     16  C   UNL     1      30.592  37.666  12.519  1.00  0.00     0.364 C 
ATOM     17  O   UNL     1      29.505  38.036  12.026  1.00  0.00    -0.246 OA
BRANCH  16  18
ATOM     18  O   UNL     1      31.604  38.611  12.629  1.00  0.00    -0.477 OA
ATOM     19  H   UNL     1      32.273  38.759  11.861  1.00  0.00     0.296 HD
ENDBRANCH  16  18
ENDBRANCH   9  16
BRANCH  12  20
ATOM     20  O   UNL     1      33.804  34.338  13.188  1.00  0.00    -0.391 OA
ATOM     21  H   UNL     1      34.560  34.170  13.780  1.00  0.00     0.211 HD
ENDBRANCH  12  20
BRANCH  13  22
ATOM     22  N   UNL     1      32.902  36.642  15.677  1.00  0.00    -0.348 N 
ATOM     23  C   UNL     1      33.377  36.598  17.006  1.00  0.00     0.217 C 
ATOM     24  H   UNL     1      32.782  37.571  15.229  1.00  0.00     0.163 HD
ATOM     25  C   UNL     1      33.711  37.830  17.782  1.00  0.00     0.114 C 
ATOM     26  O   UNL     1      33.514  35.465  17.530  1.00  0.00    -0.275 OA
ENDBRANCH  13  22
ENDBRANCH   7   8
BRANCH   7  27
ATOM     27  O   UNL     1      29.139  34.060  14.976  1.00  0.00    -0.388 OA
ATOM     28  H   UNL     1      28.841  34.871  14.528  1.00  0.00     0.211 HD
ENDBRANCH   7  27
ENDBRANCH   6   7
BRANCH   6  29
ATOM     29  O   UNL     1      30.197  31.577  15.102  1.00  0.00    -0.388 OA
ATOM     30  H   UNL     1      30.199  31.356  14.139  1.00  0.00     0.211 HD
ENDBRANCH   6  29
ENDBRANCH   5   6
ENDBRANCH   1   5
BRANCH   2  31
ATOM     31  O   UNL     1      28.141  32.957  19.074  1.00  0.00    -0.443 OA
BRANCH  31  32
ATOM     32  C   UNL     1      26.778  33.052  18.700  1.00  0.00     0.294 C 
BRANCH  32  33
ATOM     33  C   UNL     1      26.591  32.845  17.257  1.00  0.00     0.120 A 
ATOM     34  C   UNL     1      25.691  33.396  16.389  1.00  0.00     0.139 A 
ATOM     35  N   UNL     1      27.343  32.009  16.510  1.00  0.00    -0.132 NA
ATOM     36  N   UNL     1      25.919  32.883  15.154  1.00  0.00    -0.237 N 
ATOM     37  N   UNL     1      26.933  32.040  15.260  1.00  0.00    -0.066 NA
BRANCH  36  38
ATOM     38  C   UNL     1      25.170  33.225  13.974  1.00  0.00     0.287 C 
BRANCH  38  39
ATOM     39  S   UNL     1      25.769  34.758  13.278  1.00  0.00     0.198 S 
ATOM     40  O   UNL     1      27.255  34.619  13.067  1.00  0.00    -0.222 OA
ATOM     41  O   UNL     1      25.494  35.837  14.258  1.00  0.00    -0.222 OA
BRANCH  39  42
ATOM     42  C   UNL     1      24.950  35.036  11.752  1.00  0.00     0.069 A 
ATOM     43  C   UNL     1      25.732  35.282  10.629  1.00  0.00     0.020 A 
ATOM     44  C   UNL     1      23.578  35.009  11.686  1.00  0.00     0.020 A 
ATOM     45  C   UNL     1      25.088  35.499   9.434  1.00  0.00     0.001 A 
ATOM     46  C   UNL     1      22.981  35.233  10.464  1.00  0.00     0.001 A 
ATOM     47  C   UNL     1      23.701  35.481   9.320  1.00  0.00     0.000 A 
ENDBRANCH  39  42
ENDBRANCH  38  39
ENDBRANCH  36  38
ENDBRANCH  32  33
ENDBRANCH  31  32
ENDBRANCH   2  31
TORSDOF 17
BEGIN_RES LYS A 131
REMARK  4 active torsions:
REMARK  status: ('A' for Active; 'I' for Inactive)
REMARK    1  A    between atoms: CA   and  CB  
REMARK    2  A    between atoms: CB   and  CG  
REMARK    3  A    between atoms: CG   and  CD  
REMARK    4  A    between atoms: CD   and  CE  
ROOT
ATOM      1  CA  LYS A 131      29.867  25.555  16.977  1.00 20.52     0.186 C 
ENDROOT
BRANCH   1   2
ATOM      2  CB  LYS A 131      28.345  25.722  17.026  1.00 20.94     0.034 C 
BRANCH   2   3
ATOM      3  CG  LYS A 131      27.601  24.402  16.889  1.00 22.96     0.005 C 
BRANCH   3   4
ATOM      4  CD  LYS A 131      26.180  24.501  17.370  1.00 24.33     0.041 C 
BRANCH   4   5
ATOM      5  CE  LYS A 131      26.105  25.477  18.540  1.00 26.91     0.338 C 
ATOM      6  NZ  LYS A 131      24.897  26.328  18.428  1.00 27.40     0.618 N 
ENDBRANCH   4   5
ENDBRANCH   3   4
ENDBRANCH   2   3
ENDBRANCH   1   2
END_RES LYS A 131
BEGIN_RES LYS A 135
REMARK  4 active torsions:
REMARK  status: ('A' for Active; 'I' for Inactive)
REMARK    5  A    between atoms: CA   and  CB  
REMARK    6  A    between atoms: CB   and  CG  
REMARK    7  A    between atoms: CG   and  CD  
REMARK    8  A    between atoms: CD   and  CE  
ROOT
ATOM      7  CA  LYS A 135      33.193  34.663   9.290  1.00 25.02     0.186 C 
ENDROOT
BRANCH   7   8
ATOM      8  CB  LYS A 135      32.060  35.360  10.034  1.00 26.63     0.034 C 
BRANCH   8   9
ATOM      9  CG  LYS A 135      30.813  35.534   9.206  1.00 29.45     0.005 C 
BRANCH   9  10
ATOM     10  CD  LYS A 135      30.100  34.203   9.024  1.00 32.00     0.041 C 
BRANCH  10  11
ATOM     11  CE  LYS A 135      28.698  34.418   8.486  1.00 34.25     0.338 C 
ATOM     12  NZ  LYS A 135      28.548  35.785   7.914  1.00 35.99     0.618 N 
ENDBRANCH  10  11
ENDBRANCH   9  10
ENDBRANCH   8   9
ENDBRANCH   7   8
END_RES LYS A 135
