REMARK VINA RESULT:    -4.568      3.044      5.582
REMARK INTER + INTRA:         -14.191
REMARK INTER:                  -7.917
REMARK INTRA:                  -6.274
REMARK UNBOUND:                -6.285
REMARK SMILES CC(=O)N[C@@H]1[C@@H](O)C[C@](O)(C(=O)O)O[C@H]1C(O)[C@H](O)CNC(=O)OCc1cn(-c2ccccc2I)nn1
REMARK SMILES IDX 20 1 18 2 16 3 15 4 9 5 8 6 14 7 6 8 5 9 10 10 11 12 12 13
REMARK SMILES IDX 13 14 7 16 4 18 2 19 1 21 3 22 17 23 19 25 21 27 22 28 23 30
REMARK SMILES IDX 24 31 25 32 26 33 27 34 37 35 28 36 36 37 29 38 30 39 34 40
REMARK SMILES IDX 31 41 33 42 35 43 32 44
REMARK H PARENT 10 11 13 15 7 17 4 20 17 24 19 26 21 29
REMARK Flexibility Score: inf
ROOT
ATOM      1  C   UNL     1      28.387  31.908  16.711  1.00  0.00     0.154 C 
ENDROOT
BRANCH   1   2
ATOM      2  C   UNL     1      29.891  32.034  16.780  1.00  0.00     0.165 C 
BRANCH   2   3
ATOM      3  C   UNL     1      30.414  32.782  15.605  1.00  0.00     0.176 C 
BRANCH   3   4
ATOM      4  C   UNL     1      30.657  34.254  15.815  1.00  0.00     0.178 C 
ATOM      5  C   UNL     1      29.208  35.571  14.503  1.00  0.00     0.269 C 
ATOM      6  C   UNL     1      30.383  36.322  13.911  1.00  0.00     0.112 C 
ATOM      7  O   UNL     1      29.474  34.890  15.636  1.00  0.00    -0.332 OA
ATOM      8  C   UNL     1      31.516  35.336  13.784  1.00  0.00     0.145 C 
ATOM      9  C   UNL     1      31.850  34.831  15.165  1.00  0.00     0.142 C 
BRANCH   5  10
ATOM     10  O   UNL     1      28.809  34.663  13.522  1.00  0.00    -0.357 OA
ATOM     11  H   UNL     1      28.033  35.085  13.044  1.00  0.00     0.214 HD
ENDBRANCH   5  10
BRANCH   5  12
ATOM     12  C   UNL     1      28.099  36.563  14.664  1.00  0.00     0.364 C 
ATOM     13  O   UNL     1      27.382  36.627  15.687  1.00  0.00    -0.246 OA
BRANCH  12  14
ATOM     14  O   UNL     1      27.859  37.445  13.633  1.00  0.00    -0.477 OA
ATOM     15  H   UNL     1      28.598  37.987  13.180  1.00  0.00     0.296 HD
ENDBRANCH  12  14
ENDBRANCH   5  12
BRANCH   8  16
ATOM     16  O   UNL     1      31.074  34.325  12.930  1.00  0.00    -0.391 OA
ATOM     17  H   UNL     1      31.728  33.589  12.851  1.00  0.00     0.211 HD
ENDBRANCH   8  16
BRANCH   9  18
ATOM     18  N   UNL     1      32.327  35.998  15.931  1.00  0.00    -0.348 N 
ATOM     19  C   UNL     1      33.706  36.250  16.128  1.00  0.00     0.217 C 
ATOM     20  H   UNL     1      31.642  36.661  16.343  1.00  0.00     0.163 HD
ATOM     21  C   UNL     1      34.104  37.444  16.908  1.00  0.00     0.114 C 
ATOM     22  O   UNL     1      34.590  35.477  15.651  1.00  0.00    -0.275 OA
ENDBRANCH   9  18
ENDBRANCH   3   4
BRANCH   3  23
ATOM     23  O   UNL     1      31.455  32.124  14.965  1.00  0.00    -0.388 OA
ATOM     24  H   UNL     1      31.218  31.886  14.024  1.00  0.00     0.211 HD
ENDBRANCH   3  23
ENDBRANCH   2   3
BRANCH   2  25
ATOM     25  O   UNL     1      30.379  30.701  16.802  1.00  0.00    -0.388 OA
ATOM     26  H   UNL     1      31.282  30.694  17.222  1.00  0.00     0.211 HD
ENDBRANCH   2  25
ENDBRANCH   1   2
BRANCH   1  27
ATOM     27  N   UNL     1      27.818  32.379  15.469  1.00  0.00    -0.319 N 
ATOM     28  C   UNL     1      26.558  33.057  15.500  1.00  0.00     0.407 C 
ATOM     29  H   UNL     1      28.340  32.219  14.591  1.00  0.00     0.167 HD
ATOM     30  O   UNL     1      26.000  33.215  16.599  1.00  0.00    -0.225 OA
BRANCH  28  31
ATOM     31  O   UNL     1      26.035  33.498  14.297  1.00  0.00    -0.443 OA
BRANCH  31  32
ATOM     32  C   UNL     1      24.847  34.245  14.307  1.00  0.00     0.294 C 
BRANCH  32  33
ATOM     33  C   UNL     1      24.999  35.367  13.348  1.00  0.00     0.121 A 
ATOM     34  C   UNL     1      25.518  35.229  12.056  1.00  0.00     0.144 A 
ATOM     35  N   UNL     1      24.703  36.664  13.486  1.00  0.00    -0.131 NA
ATOM     36  N   UNL     1      25.487  36.457  11.528  1.00  0.00    -0.219 N 
ATOM     37  N   UNL     1      24.997  37.332  12.384  1.00  0.00    -0.062 NA
BRANCH  36  38
ATOM     38  C   UNL     1      25.922  36.786  10.220  1.00  0.00     0.080 A 
ATOM     39  C   UNL     1      27.207  37.298  10.047  1.00  0.00     0.029 A 
ATOM     40  C   UNL     1      25.077  36.593   9.162  1.00  0.00     0.039 A 
ATOM     41  C   UNL     1      27.639  37.620   8.778  1.00  0.00     0.002 A 
ATOM     42  C   UNL     1      25.529  36.923   7.897  1.00  0.00     0.017 A 
ATOM     43  I   UNL     1      23.129  35.823   9.375  1.00  0.00    -0.042 I 
ATOM     44  C   UNL     1      26.800  37.433   7.701  1.00  0.00     0.001 A 
ENDBRANCH  36  38
ENDBRANCH  32  33
ENDBRANCH  31  32
ENDBRANCH  28  31
ENDBRANCH   1  27
TORSDOF 15
BEGIN_RES LYS A 131
REMARK  4 active torsions:
REMARK  status: ('A' for Active; 'I' for Inactive)
REMARK    1  A    between atoms: CA   and  CB  
REMARK    2  A    between atoms: CB   and  CG  
REMARK    3  A    between atoms: CG   and  CD  
REMARK    4  A    between atoms: CD   and  CE  
ROOT
ATOM      1  CA  LYS A 131      29.867  25.555  16.977  1.00 20.52     0.186 C 
ENDROOT
BRANCH   1   2
ATOM      2  CB  LYS A 131      28.345  25.722  17.026  1.00 20.94     0.034 C 
BRANCH   2   3
ATOM      3  CG  LYS A 131      27.601  24.402  16.890  1.00 22.96     0.005 C 
BRANCH   3   4
ATOM      4  CD  LYS A 131      26.454  24.297  17.856  1.00 24.33     0.041 C 
BRANCH   4   5
ATOM      5  CE  LYS A 131      26.079  25.688  18.355  1.00 26.91     0.338 C 
ATOM      6  NZ  LYS A 131      24.772  26.106  17.794  1.00 27.40     0.618 N 
ENDBRANCH   4   5
ENDBRANCH   3   4
ENDBRANCH   2   3
ENDBRANCH   1   2
END_RES LYS A 131
BEGIN_RES LYS A 135
REMARK  4 active torsions:
REMARK  status: ('A' for Active; 'I' for Inactive)
REMARK    5  A    between atoms: CA   and  CB  
REMARK    6  A    between atoms: CB   and  CG  
REMARK    7  A    between atoms: CG   and  CD  
REMARK    8  A    between atoms: CD   and  CE  
ROOT
ATOM      7  CA  LYS A 135      33.193  34.663   9.290  1.00 25.02     0.186 C 
ENDROOT
BRANCH   7   8
ATOM      8  CB  LYS A 135      32.060  35.360  10.034  1.00 26.63     0.034 C 
BRANCH   8   9
ATOM      9  CG  LYS A 135      30.790  35.471   9.231  1.00 29.45     0.005 C 
BRANCH   9  10
ATOM     10  CD  LYS A 135      30.190  34.095   8.983  1.00 32.00     0.041 C 
BRANCH  10  11
ATOM     11  CE  LYS A 135      28.726  34.213   8.603  1.00 34.25     0.338 C 
ATOM     12  NZ  LYS A 135      27.848  33.689   9.685  1.00 35.99     0.618 N 
ENDBRANCH  10  11
ENDBRANCH   9  10
ENDBRANCH   8   9
ENDBRANCH   7   8
END_RES LYS A 135
