REMARK VINA RESULT:    -4.837      7.209     12.709
REMARK INTER + INTRA:         -14.212
REMARK INTER:                  -8.048
REMARK INTRA:                  -6.164
REMARK UNBOUND:                -5.276
REMARK SMILES COc1ccc(Cn2cc(COC(=O)NC[C@@H](O)C(O)[C@@H]3O[C@@](O)(C(=O)O)C[C@H](O)[C@H]3NC(C)=O)nn2)cc1
REMARK SMILES IDX 15 1 13 2 14 3 16 5 17 6 19 7 21 8 23 9 28 10 22 11 29 12
REMARK SMILES IDX 31 13 24 14 25 16 26 17 27 18 30 20 32 22 33 23 34 25 35 26
REMARK SMILES IDX 20 27 18 29 12 31 11 32 10 33 9 34 36 35 8 36 37 37 7 38
REMARK SMILES IDX 6 39 5 40 38 41 4 42 39 43 3 44 2 45 1 46
REMARK H PARENT 15 4 24 15 27 19 30 21 32 24 20 28 18 30
REMARK Flexibility Score: inf
ROOT
ATOM      1  N   UNL     1      25.119  39.752   6.079  1.00  0.00    -0.319 N 
ATOM      2  C   UNL     1      25.735  41.015   5.948  1.00  0.00     0.407 C 
ATOM      3  O   UNL     1      26.060  41.727   6.928  1.00  0.00    -0.225 OA
ATOM      4  H   UNL     1      24.886  39.246   5.193  1.00  0.00     0.167 HD
ENDROOT
BRANCH   1   5
ATOM      5  C   UNL     1      24.802  39.135   7.328  1.00  0.00     0.154 C 
BRANCH   5   6
ATOM      6  C   UNL     1      25.692  38.005   7.716  1.00  0.00     0.165 C 
BRANCH   6   7
ATOM      7  C   UNL     1      26.768  38.417   8.696  1.00  0.00     0.176 C 
BRANCH   7   8
ATOM      8  C   UNL     1      27.659  37.310   9.131  1.00  0.00     0.178 C 
ATOM      9  C   UNL     1      27.985  35.020   9.051  1.00  0.00     0.269 C 
ATOM     10  C   UNL     1      28.382  34.962  10.499  1.00  0.00     0.112 C 
ATOM     11  O   UNL     1      27.200  36.069   8.694  1.00  0.00    -0.332 OA
ATOM     12  C   UNL     1      28.693  36.328  11.075  1.00  0.00     0.145 C 
ATOM     13  C   UNL     1      27.589  37.240  10.660  1.00  0.00     0.142 C 
BRANCH   9  14
ATOM     14  O   UNL     1      27.202  33.854   8.842  1.00  0.00    -0.357 OA
ATOM     15  H   UNL     1      27.784  33.100   9.106  1.00  0.00     0.214 HD
ENDBRANCH   9  14
BRANCH   9  16
ATOM     16  C   UNL     1      29.211  34.843   8.239  1.00  0.00     0.364 C 
ATOM     17  O   UNL     1      30.161  34.087   8.599  1.00  0.00    -0.246 OA
BRANCH  16  18
ATOM     18  O   UNL     1      29.389  35.503   7.024  1.00  0.00    -0.477 OA
ATOM     19  H   UNL     1      29.400  34.996   6.160  1.00  0.00     0.296 HD
ENDBRANCH  16  18
ENDBRANCH   9  16
BRANCH  12  20
ATOM     20  O   UNL     1      28.851  36.234  12.444  1.00  0.00    -0.391 OA
ATOM     21  H   UNL     1      28.011  35.971  12.852  1.00  0.00     0.211 HD
ENDBRANCH  12  20
BRANCH  13  22
ATOM     22  N   UNL     1      27.599  38.520  11.292  1.00  0.00    -0.348 N 
ATOM     23  C   UNL     1      26.951  38.835  12.495  1.00  0.00     0.217 C 
ATOM     24  H   UNL     1      28.140  39.293  10.819  1.00  0.00     0.163 HD
ATOM     25  C   UNL     1      27.039  40.207  13.049  1.00  0.00     0.114 C 
ATOM     26  O   UNL     1      26.305  37.973  13.098  1.00  0.00    -0.275 OA
ENDBRANCH  13  22
ENDBRANCH   7   8
BRANCH   7  27
ATOM     27  O   UNL     1      27.495  39.459   8.163  1.00  0.00    -0.388 OA
ATOM     28  H   UNL     1      26.995  40.292   8.012  1.00  0.00     0.211 HD
ENDBRANCH   7  27
ENDBRANCH   6   7
BRANCH   6  29
ATOM     29  O   UNL     1      26.199  37.315   6.654  1.00  0.00    -0.388 OA
ATOM     30  H   UNL     1      26.314  36.357   6.937  1.00  0.00     0.211 HD
ENDBRANCH   6  29
ENDBRANCH   5   6
ENDBRANCH   1   5
BRANCH   2  31
ATOM     31  O   UNL     1      26.009  41.521   4.663  1.00  0.00    -0.443 OA
BRANCH  31  32
ATOM     32  C   UNL     1      26.865  40.781   3.823  1.00  0.00     0.294 C 
BRANCH  32  33
ATOM     33  C   UNL     1      27.914  40.071   4.575  1.00  0.00     0.120 A 
ATOM     34  C   UNL     1      29.130  40.593   5.026  1.00  0.00     0.138 A 
ATOM     35  N   UNL     1      27.920  38.787   4.974  1.00  0.00    -0.132 NA
ATOM     36  N   UNL     1      29.804  39.626   5.666  1.00  0.00    -0.248 N 
ATOM     37  N   UNL     1      29.050  38.544   5.619  1.00  0.00    -0.067 NA
BRANCH  36  38
ATOM     38  C   UNL     1      31.097  39.717   6.290  1.00  0.00     0.181 C 
BRANCH  38  39
ATOM     39  C   UNL     1      30.996  39.630   7.763  1.00  0.00    -0.026 A 
ATOM     40  C   UNL     1      30.638  40.732   8.505  1.00  0.00     0.009 A 
ATOM     41  C   UNL     1      31.261  38.442   8.393  1.00  0.00     0.009 A 
ATOM     42  C   UNL     1      30.545  40.640   9.891  1.00  0.00     0.047 A 
ATOM     43  C   UNL     1      31.172  38.336   9.780  1.00  0.00     0.047 A 
ATOM     44  C   UNL     1      30.814  39.435  10.519  1.00  0.00     0.118 A 
BRANCH  44  45
ATOM     45  O   UNL     1      30.716  39.362  11.910  1.00  0.00    -0.497 OA
ATOM     46  C   UNL     1      30.746  40.556  12.674  1.00  0.00     0.278 C 
ENDBRANCH  44  45
ENDBRANCH  38  39
ENDBRANCH  36  38
ENDBRANCH  32  33
ENDBRANCH  31  32
ENDBRANCH   2  31
TORSDOF 17
BEGIN_RES LYS A 131
REMARK  4 active torsions:
REMARK  status: ('A' for Active; 'I' for Inactive)
REMARK    1  A    between atoms: CA   and  CB  
REMARK    2  A    between atoms: CB   and  CG  
REMARK    3  A    between atoms: CG   and  CD  
REMARK    4  A    between atoms: CD   and  CE  
ROOT
ATOM      1  CA  LYS A 131      29.867  25.555  16.977  1.00 20.52     0.186 C 
ENDROOT
BRANCH   1   2
ATOM      2  CB  LYS A 131      28.345  25.722  17.026  1.00 20.94     0.034 C 
BRANCH   2   3
ATOM      3  CG  LYS A 131      27.601  24.400  16.907  1.00 22.96     0.005 C 
BRANCH   3   4
ATOM      4  CD  LYS A 131      26.155  24.527  17.299  1.00 24.33     0.041 C 
BRANCH   4   5
ATOM      5  CE  LYS A 131      25.948  23.927  18.685  1.00 26.91     0.338 C 
ATOM      6  NZ  LYS A 131      24.522  24.007  19.078  1.00 27.40     0.618 N 
ENDBRANCH   4   5
ENDBRANCH   3   4
ENDBRANCH   2   3
ENDBRANCH   1   2
END_RES LYS A 131
BEGIN_RES LYS A 135
REMARK  4 active torsions:
REMARK  status: ('A' for Active; 'I' for Inactive)
REMARK    5  A    between atoms: CA   and  CB  
REMARK    6  A    between atoms: CB   and  CG  
REMARK    7  A    between atoms: CG   and  CD  
REMARK    8  A    between atoms: CD   and  CE  
ROOT
ATOM      7  CA  LYS A 135      33.193  34.663   9.290  1.00 25.02     0.186 C 
ENDROOT
BRANCH   7   8
ATOM      8  CB  LYS A 135      32.060  35.360  10.034  1.00 26.63     0.034 C 
BRANCH   8   9
ATOM      9  CG  LYS A 135      31.983  34.995  11.494  1.00 29.45     0.005 C 
BRANCH   9  10
ATOM     10  CD  LYS A 135      32.427  36.161  12.363  1.00 32.00     0.041 C 
BRANCH  10  11
ATOM     11  CE  LYS A 135      32.573  35.724  13.808  1.00 34.25     0.338 C 
ATOM     12  NZ  LYS A 135      32.322  36.858  14.740  1.00 35.99     0.618 N 
ENDBRANCH  10  11
ENDBRANCH   9  10
ENDBRANCH   8   9
ENDBRANCH   7   8
END_RES LYS A 135
