REMARK VINA RESULT:    -4.203      6.570     11.812
REMARK INTER + INTRA:         -14.746
REMARK INTER:                 -10.201
REMARK INTRA:                  -4.545
REMARK UNBOUND:                -6.980
REMARK SMILES CC(=O)N[C@@H]1[C@@H](O)C[C@](O)(C(=O)O)O[C@H]1C(O)[C@H](O)CNC(=O)OCc1cn(Cc2ccc(C#N)cc2)nn1
REMARK SMILES IDX 21 1 22 2 23 3 20 5 18 6 16 7 15 8 9 9 8 10 14 11 6 12 5 13
REMARK SMILES IDX 10 14 11 16 12 17 13 18 7 20 4 22 2 23 1 25 3 26 17 27 19 29
REMARK SMILES IDX 24 31 25 32 26 33 27 34 39 35 28 36 38 37 29 38 30 39 31 40
REMARK SMILES IDX 37 41 32 42 36 43 33 44 34 45 35 46
REMARK H PARENT 21 4 10 15 13 19 7 21 4 24 17 28 19 30
REMARK Flexibility Score: inf
ROOT
ATOM      1  N   UNL     1      24.097  36.236  10.357  1.00  0.00    -0.319 N 
ATOM      2  C   UNL     1      24.968  36.748  11.363  1.00  0.00     0.407 C 
ATOM      3  O   UNL     1      25.050  38.015  11.527  1.00  0.00    -0.225 OA
ATOM      4  H   UNL     1      24.046  35.206  10.246  1.00  0.00     0.167 HD
ENDROOT
BRANCH   1   5
ATOM      5  C   UNL     1      23.344  37.134   9.560  1.00  0.00     0.154 C 
BRANCH   5   6
ATOM      6  C   UNL     1      23.652  37.138   8.081  1.00  0.00     0.165 C 
BRANCH   6   7
ATOM      7  C   UNL     1      24.896  37.931   7.732  1.00  0.00     0.176 C 
BRANCH   7   8
ATOM      8  C   UNL     1      26.054  37.064   7.372  1.00  0.00     0.178 C 
ATOM      9  C   UNL     1      27.743  35.786   8.338  1.00  0.00     0.269 C 
ATOM     10  C   UNL     1      28.042  35.454   6.893  1.00  0.00     0.112 C 
ATOM     11  O   UNL     1      26.552  36.424   8.514  1.00  0.00    -0.332 OA
ATOM     12  C   UNL     1      28.015  36.644   6.001  1.00  0.00     0.145 C 
ATOM     13  C   UNL     1      27.213  37.746   6.717  1.00  0.00     0.142 C 
BRANCH   9  14
ATOM     14  O   UNL     1      28.829  36.523   8.857  1.00  0.00    -0.357 OA
ATOM     15  H   UNL     1      28.481  37.064   9.625  1.00  0.00     0.214 HD
ENDBRANCH   9  14
BRANCH   9  16
ATOM     16  C   UNL     1      27.697  34.502   9.069  1.00  0.00     0.364 C 
ATOM     17  O   UNL     1      26.611  34.103   9.545  1.00  0.00    -0.246 OA
BRANCH  16  18
ATOM     18  O   UNL     1      28.837  33.748   9.227  1.00  0.00    -0.477 OA
ATOM     19  H   UNL     1      29.755  34.117   9.397  1.00  0.00     0.296 HD
ENDBRANCH  16  18
ENDBRANCH   9  16
BRANCH  12  20
ATOM     20  O   UNL     1      29.262  37.104   5.627  1.00  0.00    -0.391 OA
ATOM     21  H   UNL     1      29.839  37.086   6.452  1.00  0.00     0.211 HD
ENDBRANCH  12  20
BRANCH  13  22
ATOM     22  N   UNL     1      26.895  38.805   5.811  1.00  0.00    -0.348 N 
ATOM     23  C   UNL     1      27.383  40.140   6.025  1.00  0.00     0.217 C 
ATOM     24  H   UNL     1      26.300  38.655   4.947  1.00  0.00     0.163 HD
ATOM     25  C   UNL     1      27.044  41.238   5.072  1.00  0.00     0.114 C 
ATOM     26  O   UNL     1      28.103  40.410   7.016  1.00  0.00    -0.275 OA
ENDBRANCH  13  22
ENDBRANCH   7   8
BRANCH   7  27
ATOM     27  O   UNL     1      25.139  38.879   8.672  1.00  0.00    -0.388 OA
ATOM     28  H   UNL     1      25.299  39.769   8.355  1.00  0.00     0.211 HD
ENDBRANCH   7  27
ENDBRANCH   6   7
BRANCH   6  29
ATOM     29  O   UNL     1      22.524  37.768   7.496  1.00  0.00    -0.388 OA
ATOM     30  H   UNL     1      22.512  37.667   6.527  1.00  0.00     0.211 HD
ENDBRANCH   6  29
ENDBRANCH   5   6
ENDBRANCH   1   5
BRANCH   2  31
ATOM     31  O   UNL     1      25.750  35.969  12.195  1.00  0.00    -0.443 OA
BRANCH  31  32
ATOM     32  C   UNL     1      26.854  36.560  12.843  1.00  0.00     0.294 C 
BRANCH  32  33
ATOM     33  C   UNL     1      28.020  35.647  12.901  1.00  0.00     0.120 A 
ATOM     34  C   UNL     1      28.532  34.981  14.003  1.00  0.00     0.138 A 
ATOM     35  N   UNL     1      28.794  35.302  11.864  1.00  0.00    -0.132 NA
ATOM     36  N   UNL     1      29.584  34.262  13.604  1.00  0.00    -0.248 N 
ATOM     37  N   UNL     1      29.716  34.477  12.312  1.00  0.00    -0.067 NA
BRANCH  36  38
ATOM     38  C   UNL     1      30.422  33.404  14.413  1.00  0.00     0.181 C 
BRANCH  38  39
ATOM     39  C   UNL     1      31.438  34.121  15.185  1.00  0.00    -0.026 A 
ATOM     40  C   UNL     1      31.326  34.215  16.548  1.00  0.00     0.007 A 
ATOM     41  C   UNL     1      32.512  34.708  14.535  1.00  0.00     0.007 A 
ATOM     42  C   UNL     1      32.275  34.893  17.289  1.00  0.00     0.020 A 
ATOM     43  C   UNL     1      33.480  35.395  15.256  1.00  0.00     0.020 A 
ATOM     44  C   UNL     1      33.344  35.478  16.643  1.00  0.00     0.052 A 
BRANCH  44  45
ATOM     45  C   UNL     1      34.333  36.186  17.402  1.00  0.00     0.099 C 
ATOM     46  N   UNL     1      35.134  36.758  18.037  1.00  0.00    -0.192 NA
ENDBRANCH  44  45
ENDBRANCH  38  39
ENDBRANCH  36  38
ENDBRANCH  32  33
ENDBRANCH  31  32
ENDBRANCH   2  31
TORSDOF 17
BEGIN_RES LYS A 131
REMARK  4 active torsions:
REMARK  status: ('A' for Active; 'I' for Inactive)
REMARK    1  A    between atoms: CA   and  CB  
REMARK    2  A    between atoms: CB   and  CG  
REMARK    3  A    between atoms: CG   and  CD  
REMARK    4  A    between atoms: CD   and  CE  
ROOT
ATOM      1  CA  LYS A 131      29.867  25.555  16.977  1.00 20.52     0.186 C 
ENDROOT
BRANCH   1   2
ATOM      2  CB  LYS A 131      28.345  25.722  17.026  1.00 20.94     0.034 C 
BRANCH   2   3
ATOM      3  CG  LYS A 131      27.601  24.401  16.907  1.00 22.96     0.005 C 
BRANCH   3   4
ATOM      4  CD  LYS A 131      26.149  24.533  17.272  1.00 24.33     0.041 C 
BRANCH   4   5
ATOM      5  CE  LYS A 131      25.986  24.368  18.779  1.00 26.91     0.338 C 
ATOM      6  NZ  LYS A 131      25.043  25.379  19.313  1.00 27.40     0.618 N 
ENDBRANCH   4   5
ENDBRANCH   3   4
ENDBRANCH   2   3
ENDBRANCH   1   2
END_RES LYS A 131
BEGIN_RES LYS A 135
REMARK  4 active torsions:
REMARK  status: ('A' for Active; 'I' for Inactive)
REMARK    5  A    between atoms: CA   and  CB  
REMARK    6  A    between atoms: CB   and  CG  
REMARK    7  A    between atoms: CG   and  CD  
REMARK    8  A    between atoms: CD   and  CE  
ROOT
ATOM      7  CA  LYS A 135      33.193  34.663   9.290  1.00 25.02     0.186 C 
ENDROOT
BRANCH   7   8
ATOM      8  CB  LYS A 135      32.060  35.360  10.034  1.00 26.63     0.034 C 
BRANCH   8   9
ATOM      9  CG  LYS A 135      32.529  36.213  11.184  1.00 29.45     0.005 C 
BRANCH   9  10
ATOM     10  CD  LYS A 135      31.661  37.454  11.321  1.00 32.00     0.041 C 
BRANCH  10  11
ATOM     11  CE  LYS A 135      31.903  38.404  10.164  1.00 34.25     0.338 C 
ATOM     12  NZ  LYS A 135      30.719  39.275   9.928  1.00 35.99     0.618 N 
ENDBRANCH  10  11
ENDBRANCH   9  10
ENDBRANCH   8   9
ENDBRANCH   7   8
END_RES LYS A 135
