REMARK VINA RESULT:    -4.579      0.000      0.000
REMARK INTER + INTRA:         -15.469
REMARK INTER:                  -8.189
REMARK INTRA:                  -7.280
REMARK UNBOUND:                -5.938
REMARK SMILES CCOC(CCn1cc(COC(=O)NC[C@@H](O)C(O)[C@@H]2O[C@@](O)(C(=O)O)C[C@H](O)[C@H]2NC(C)=O)nn1)OCC
REMARK SMILES IDX 11 1 12 2 14 3 13 5 15 6 16 7 18 8 20 9 22 10 27 11 21 12
REMARK SMILES IDX 28 13 30 14 23 15 24 17 25 18 26 19 29 21 31 23 32 24 33 26
REMARK SMILES IDX 34 27 19 28 17 30 10 32 9 33 8 34 35 35 7 36 36 37 6 38 5 39
REMARK SMILES IDX 4 40 3 41 2 42 1 43 37 44 38 45 39 46
REMARK H PARENT 14 4 23 16 26 20 29 22 31 25 19 29 17 31
REMARK Flexibility Score: inf
ROOT
ATOM      1  O   UNL     1      26.081  32.276  18.259  1.00  0.00    -0.443 OA
ENDROOT
BRANCH   1   2
ATOM      2  C   UNL     1      26.067  31.221  19.183  1.00  0.00     0.407 C 
ATOM      3  N   UNL     1      25.925  29.878  18.776  1.00  0.00    -0.319 N 
ATOM      4  H   UNL     1      25.844  29.729  17.720  1.00  0.00     0.167 HD
ATOM      5  O   UNL     1      26.182  31.508  20.377  1.00  0.00    -0.225 OA
BRANCH   3   6
ATOM      6  C   UNL     1      25.880  28.716  19.606  1.00  0.00     0.154 C 
BRANCH   6   7
ATOM      7  C   UNL     1      26.841  27.663  19.129  1.00  0.00     0.165 C 
BRANCH   7   8
ATOM      8  C   UNL     1      27.822  27.439  20.276  1.00  0.00     0.176 C 
BRANCH   8   9
ATOM      9  C   UNL     1      28.372  28.728  20.802  1.00  0.00     0.178 C 
ATOM     10  C   UNL     1      29.971  30.313  20.244  1.00  0.00     0.269 C 
ATOM     11  C   UNL     1      29.917  30.791  21.658  1.00  0.00     0.112 C 
ATOM     12  O   UNL     1      28.880  29.556  19.844  1.00  0.00    -0.332 OA
ATOM     13  C   UNL     1      29.528  29.747  22.664  1.00  0.00     0.145 C 
ATOM     14  C   UNL     1      29.365  28.439  21.922  1.00  0.00     0.142 C 
BRANCH  10  15
ATOM     15  O   UNL     1      31.178  29.656  19.993  1.00  0.00    -0.357 OA
ATOM     16  H   UNL     1      31.569  29.425  20.888  1.00  0.00     0.214 HD
ENDBRANCH  10  15
BRANCH  10  17
ATOM     17  C   UNL     1      29.954  31.532  19.385  1.00  0.00     0.364 C 
ATOM     18  O   UNL     1      29.308  32.548  19.719  1.00  0.00    -0.246 OA
BRANCH  17  19
ATOM     19  O   UNL     1      30.683  31.520  18.181  1.00  0.00    -0.477 OA
ATOM     20  H   UNL     1      31.101  30.624  17.933  1.00  0.00     0.296 HD
ENDBRANCH  17  19
ENDBRANCH  10  17
BRANCH  13  21
ATOM     21  O   UNL     1      30.416  29.649  23.729  1.00  0.00    -0.391 OA
ATOM     22  H   UNL     1      31.238  29.228  23.369  1.00  0.00     0.211 HD
ENDBRANCH  13  21
BRANCH  14  23
ATOM     23  N   UNL     1      28.792  27.404  22.757  1.00  0.00    -0.348 N 
ATOM     24  C   UNL     1      29.652  26.474  23.401  1.00  0.00     0.217 C 
ATOM     25  H   UNL     1      27.777  27.292  22.922  1.00  0.00     0.163 HD
ATOM     26  C   UNL     1      29.156  25.388  24.270  1.00  0.00     0.114 C 
ATOM     27  O   UNL     1      30.896  26.581  23.223  1.00  0.00    -0.275 OA
ENDBRANCH  14  23
ENDBRANCH   8   9
BRANCH   8  28
ATOM     28  O   UNL     1      28.817  26.578  19.841  1.00  0.00    -0.388 OA
ATOM     29  H   UNL     1      29.729  26.966  19.931  1.00  0.00     0.211 HD
ENDBRANCH   8  28
ENDBRANCH   7   8
BRANCH   7  30
ATOM     30  O   UNL     1      27.572  28.115  18.061  1.00  0.00    -0.388 OA
ATOM     31  H   UNL     1      28.525  27.844  18.097  1.00  0.00     0.211 HD
ENDBRANCH   7  30
ENDBRANCH   6   7
ENDBRANCH   3   6
ENDBRANCH   1   2
BRANCH   1  32
ATOM     32  C   UNL     1      26.017  32.006  16.861  1.00  0.00     0.294 C 
BRANCH  32  33
ATOM     33  C   UNL     1      27.376  31.751  16.350  1.00  0.00     0.120 A 
ATOM     34  C   UNL     1      28.118  32.734  15.690  1.00  0.00     0.138 A 
ATOM     35  N   UNL     1      28.159  30.681  16.370  1.00  0.00    -0.132 NA
ATOM     36  N   UNL     1      29.312  32.210  15.343  1.00  0.00    -0.252 N 
ATOM     37  N   UNL     1      29.315  30.977  15.762  1.00  0.00    -0.067 NA
BRANCH  36  38
ATOM     38  C   UNL     1      30.332  32.937  14.643  1.00  0.00     0.151 C 
BRANCH  38  39
ATOM     39  C   UNL     1      31.647  32.977  15.385  1.00  0.00     0.086 C 
BRANCH  39  40
ATOM     40  C   UNL     1      31.881  34.274  16.095  1.00  0.00     0.251 C 
BRANCH  40  41
ATOM     41  O   UNL     1      31.113  34.280  17.254  1.00  0.00    -0.353 OA
BRANCH  41  42
ATOM     42  C   UNL     1      31.631  35.201  18.173  1.00  0.00     0.160 C 
ATOM     43  C   UNL     1      32.258  34.511  19.356  1.00  0.00     0.035 C 
ENDBRANCH  41  42
ENDBRANCH  40  41
BRANCH  40  44
ATOM     44  O   UNL     1      31.549  35.365  15.334  1.00  0.00    -0.353 OA
BRANCH  44  45
ATOM     45  C   UNL     1      32.650  35.899  14.665  1.00  0.00     0.160 C 
ATOM     46  C   UNL     1      32.365  35.887  13.168  1.00  0.00     0.035 C 
ENDBRANCH  44  45
ENDBRANCH  40  44
ENDBRANCH  39  40
ENDBRANCH  38  39
ENDBRANCH  36  38
ENDBRANCH  32  33
ENDBRANCH   1  32
TORSDOF 21
BEGIN_RES LYS A 131
REMARK  4 active torsions:
REMARK  status: ('A' for Active; 'I' for Inactive)
REMARK    1  A    between atoms: CA   and  CB  
REMARK    2  A    between atoms: CB   and  CG  
REMARK    3  A    between atoms: CG   and  CD  
REMARK    4  A    between atoms: CD   and  CE  
ROOT
ATOM      1  CA  LYS A 131      29.867  25.555  16.977  1.00 20.52     0.186 C 
ENDROOT
BRANCH   1   2
ATOM      2  CB  LYS A 131      28.345  25.722  17.026  1.00 20.94     0.034 C 
BRANCH   2   3
ATOM      3  CG  LYS A 131      27.599  24.476  16.575  1.00 22.96     0.005 C 
BRANCH   3   4
ATOM      4  CD  LYS A 131      27.162  23.626  17.736  1.00 24.33     0.041 C 
BRANCH   4   5
ATOM      5  CE  LYS A 131      25.694  23.901  18.043  1.00 26.91     0.338 C 
ATOM      6  NZ  LYS A 131      25.537  24.381  19.437  1.00 27.40     0.618 N 
ENDBRANCH   4   5
ENDBRANCH   3   4
ENDBRANCH   2   3
ENDBRANCH   1   2
END_RES LYS A 131
BEGIN_RES LYS A 135
REMARK  4 active torsions:
REMARK  status: ('A' for Active; 'I' for Inactive)
REMARK    5  A    between atoms: CA   and  CB  
REMARK    6  A    between atoms: CB   and  CG  
REMARK    7  A    between atoms: CG   and  CD  
REMARK    8  A    between atoms: CD   and  CE  
ROOT
ATOM      7  CA  LYS A 135      33.193  34.663   9.290  1.00 25.02     0.186 C 
ENDROOT
BRANCH   7   8
ATOM      8  CB  LYS A 135      32.060  35.360  10.034  1.00 26.63     0.034 C 
BRANCH   8   9
ATOM      9  CG  LYS A 135      30.703  34.765   9.759  1.00 29.45     0.005 C 
BRANCH   9  10
ATOM     10  CD  LYS A 135      30.464  34.642   8.262  1.00 32.00     0.041 C 
BRANCH  10  11
ATOM     11  CE  LYS A 135      28.994  34.831   7.940  1.00 34.25     0.338 C 
ATOM     12  NZ  LYS A 135      28.816  35.553   6.649  1.00 35.99     0.618 N 
ENDBRANCH  10  11
ENDBRANCH   9  10
ENDBRANCH   8   9
ENDBRANCH   7   8
END_RES LYS A 135
