REMARK VINA RESULT:    -4.633      3.457      9.436
REMARK INTER + INTRA:         -15.049
REMARK INTER:                  -9.288
REMARK INTRA:                  -5.761
REMARK UNBOUND:                -6.624
REMARK SMILES CC(=O)N[C@@H]1[C@@H](O)C[C@](O)(C(=O)O)O[C@H]1C(O)[C@H](O)CNC(=O)OCc1cn(-c2cccc(S(N)(=O)=O)c2)nn1
REMARK SMILES IDX 21 1 22 2 23 3 20 5 18 6 16 7 15 8 9 9 8 10 14 11 6 12 5 13
REMARK SMILES IDX 10 14 11 16 12 17 13 18 7 20 4 22 2 23 1 25 3 26 17 27 19 29
REMARK SMILES IDX 24 31 25 32 26 33 27 34 40 35 28 36 39 37 29 38 38 39 30 40
REMARK SMILES IDX 33 41 31 42 32 43 34 44 36 45 37 46 35 47
REMARK H PARENT 21 4 10 15 13 19 7 21 4 24 17 28 19 30 35 48 35 49
REMARK Flexibility Score: inf
ROOT
ATOM      1  N   UNL     1      30.160  36.383  17.198  1.00  0.00    -0.319 N 
ATOM      2  C   UNL     1      30.055  37.641  16.550  1.00  0.00     0.407 C 
ATOM      3  O   UNL     1      30.459  38.656  17.142  1.00  0.00    -0.225 OA
ATOM      4  H   UNL     1      29.799  35.565  16.636  1.00  0.00     0.167 HD
ENDROOT
BRANCH   1   5
ATOM      5  C   UNL     1      30.713  36.227  18.518  1.00  0.00     0.154 C 
BRANCH   5   6
ATOM      6  C   UNL     1      31.644  35.035  18.579  1.00  0.00     0.165 C 
BRANCH   6   7
ATOM      7  C   UNL     1      30.823  33.769  18.782  1.00  0.00     0.176 C 
BRANCH   7   8
ATOM      8  C   UNL     1      31.033  32.860  17.574  1.00  0.00     0.178 C 
ATOM      9  C   UNL     1      30.203  33.497  15.505  1.00  0.00     0.269 C 
ATOM     10  C   UNL     1      29.939  32.072  15.077  1.00  0.00     0.112 C 
ATOM     11  O   UNL     1      31.210  33.597  16.444  1.00  0.00    -0.332 OA
ATOM     12  C   UNL     1      30.058  31.093  16.195  1.00  0.00     0.145 C 
ATOM     13  C   UNL     1      29.926  31.852  17.516  1.00  0.00     0.142 C 
BRANCH   9  14
ATOM     14  O   UNL     1      29.051  34.117  15.981  1.00  0.00    -0.357 OA
ATOM     15  H   UNL     1      29.315  34.779  16.694  1.00  0.00     0.214 HD
ENDBRANCH   9  14
BRANCH   9  16
ATOM     16  C   UNL     1      30.647  34.238  14.295  1.00  0.00     0.364 C 
ATOM     17  O   UNL     1      31.680  34.957  14.303  1.00  0.00    -0.246 OA
BRANCH  16  18
ATOM     18  O   UNL     1      29.941  34.172  13.092  1.00  0.00    -0.477 OA
ATOM     19  H   UNL     1      30.018  33.356  12.496  1.00  0.00     0.296 HD
ENDBRANCH  16  18
ENDBRANCH   9  16
BRANCH  12  20
ATOM     20  O   UNL     1      29.148  30.053  16.137  1.00  0.00    -0.391 OA
ATOM     21  H   UNL     1      29.195  29.442  16.926  1.00  0.00     0.211 HD
ENDBRANCH  12  20
BRANCH  13  22
ATOM     22  N   UNL     1      30.121  30.922  18.616  1.00  0.00    -0.348 N 
ATOM     23  C   UNL     1      29.030  30.333  19.320  1.00  0.00     0.217 C 
ATOM     24  H   UNL     1      31.108  30.675  18.902  1.00  0.00     0.163 HD
ATOM     25  C   UNL     1      29.348  29.395  20.428  1.00  0.00     0.114 C 
ATOM     26  O   UNL     1      27.876  30.634  18.970  1.00  0.00    -0.275 OA
ENDBRANCH  13  22
ENDBRANCH   7   8
BRANCH   7  27
ATOM     27  O   UNL     1      31.314  33.123  19.902  1.00  0.00    -0.388 OA
ATOM     28  H   UNL     1      31.680  33.764  20.556  1.00  0.00     0.211 HD
ENDBRANCH   7  27
ENDBRANCH   6   7
BRANCH   6  29
ATOM     29  O   UNL     1      32.514  35.217  19.669  1.00  0.00    -0.388 OA
ATOM     30  H   UNL     1      32.423  36.146  20.048  1.00  0.00     0.211 HD
ENDBRANCH   6  29
ENDBRANCH   5   6
ENDBRANCH   1   5
BRANCH   2  31
ATOM     31  O   UNL     1      29.511  37.758  15.267  1.00  0.00    -0.443 OA
BRANCH  31  32
ATOM     32  C   UNL     1      28.114  37.783  15.063  1.00  0.00     0.294 C 
BRANCH  32  33
ATOM     33  C   UNL     1      27.730  36.779  14.039  1.00  0.00     0.121 A 
ATOM     34  C   UNL     1      27.764  36.987  12.674  1.00  0.00     0.144 A 
ATOM     35  N   UNL     1      27.292  35.527  14.217  1.00  0.00    -0.131 NA
ATOM     36  N   UNL     1      27.342  35.838  12.122  1.00  0.00    -0.220 N 
ATOM     37  N   UNL     1      27.052  34.942  13.053  1.00  0.00    -0.062 NA
BRANCH  36  38
ATOM     38  C   UNL     1      27.215  35.594  10.723  1.00  0.00     0.068 A 
ATOM     39  C   UNL     1      27.009  36.601   9.806  1.00  0.00     0.050 A 
ATOM     40  C   UNL     1      27.297  34.303  10.228  1.00  0.00     0.028 A 
ATOM     41  C   UNL     1      26.885  36.354   8.440  1.00  0.00     0.084 A 
ATOM     42  C   UNL     1      27.179  34.035   8.892  1.00  0.00     0.004 A 
ATOM     43  C   UNL     1      26.974  35.061   8.001  1.00  0.00     0.022 A 
BRANCH  41  44
ATOM     44  S   UNL     1      26.625  37.626   7.291  1.00  0.00     0.238 S 
ATOM     45  O   UNL     1      27.551  38.766   7.631  1.00  0.00    -0.207 OA
ATOM     46  O   UNL     1      25.220  38.158   7.444  1.00  0.00    -0.207 OA
BRANCH  44  47
ATOM     47  N   UNL     1      26.937  37.108   5.684  1.00  0.00    -0.225 NA
ATOM     48  H   UNL     1      26.906  36.074   5.638  1.00  0.00     0.137 HD
ATOM     49  H   UNL     1      27.835  37.479   5.312  1.00  0.00     0.137 HD
ENDBRANCH  44  47
ENDBRANCH  41  44
ENDBRANCH  36  38
ENDBRANCH  32  33
ENDBRANCH  31  32
ENDBRANCH   2  31
TORSDOF 17
BEGIN_RES LYS A 131
REMARK  4 active torsions:
REMARK  status: ('A' for Active; 'I' for Inactive)
REMARK    1  A    between atoms: CA   and  CB  
REMARK    2  A    between atoms: CB   and  CG  
REMARK    3  A    between atoms: CG   and  CD  
REMARK    4  A    between atoms: CD   and  CE  
ROOT
ATOM      1  CA  LYS A 131      29.867  25.555  16.977  1.00 20.52     0.186 C 
ENDROOT
BRANCH   1   2
ATOM      2  CB  LYS A 131      28.345  25.722  17.026  1.00 20.94     0.034 C 
BRANCH   2   3
ATOM      3  CG  LYS A 131      27.599  24.425  16.753  1.00 22.96     0.005 C 
BRANCH   3   4
ATOM      4  CD  LYS A 131      26.914  23.896  17.982  1.00 24.33     0.041 C 
BRANCH   4   5
ATOM      5  CE  LYS A 131      25.545  23.341  17.603  1.00 26.91     0.338 C 
ATOM      6  NZ  LYS A 131      24.750  24.367  16.888  1.00 27.40     0.618 N 
ENDBRANCH   4   5
ENDBRANCH   3   4
ENDBRANCH   2   3
ENDBRANCH   1   2
END_RES LYS A 131
BEGIN_RES LYS A 135
REMARK  4 active torsions:
REMARK  status: ('A' for Active; 'I' for Inactive)
REMARK    5  A    between atoms: CA   and  CB  
REMARK    6  A    between atoms: CB   and  CG  
REMARK    7  A    between atoms: CG   and  CD  
REMARK    8  A    between atoms: CD   and  CE  
ROOT
ATOM      7  CA  LYS A 135      33.193  34.663   9.290  1.00 25.02     0.186 C 
ENDROOT
BRANCH   7   8
ATOM      8  CB  LYS A 135      32.060  35.360  10.034  1.00 26.63     0.034 C 
BRANCH   8   9
ATOM      9  CG  LYS A 135      30.756  35.363   9.279  1.00 29.45     0.005 C 
BRANCH   9  10
ATOM     10  CD  LYS A 135      30.430  36.760   8.776  1.00 32.00     0.041 C 
BRANCH  10  11
ATOM     11  CE  LYS A 135      31.006  37.810   9.707  1.00 34.25     0.338 C 
ATOM     12  NZ  LYS A 135      29.938  38.702  10.237  1.00 35.99     0.618 N 
ENDBRANCH  10  11
ENDBRANCH   9  10
ENDBRANCH   8   9
ENDBRANCH   7   8
END_RES LYS A 135
