REMARK VINA RESULT:    -4.145      6.515     11.261
REMARK INTER + INTRA:         -14.654
REMARK INTER:                  -8.468
REMARK INTRA:                  -6.186
REMARK UNBOUND:                -6.753
REMARK SMILES COCC(C(N)=O)n1cc(COC(=O)NC[C@@H](O)C(O)[C@@H]2O[C@@](O)(C(=O)O)C[C@H](O)[C@H]2NC(C)=O)nn1
REMARK SMILES IDX 15 1 13 2 14 3 16 5 17 6 19 7 21 8 23 9 28 10 22 11 29 12
REMARK SMILES IDX 31 13 24 14 25 16 26 17 27 18 30 20 32 22 33 23 34 25 35 26
REMARK SMILES IDX 20 27 18 29 12 31 11 32 10 33 9 34 36 35 8 36 37 37 4 38
REMARK SMILES IDX 3 39 2 40 1 41 5 42 7 43 6 44
REMARK H PARENT 15 4 24 15 27 19 30 21 32 24 20 28 18 30 6 45 6 46
REMARK Flexibility Score: inf
ROOT
ATOM      1  N   UNL     1      28.805  37.408  11.889  1.00  0.00    -0.319 N 
ATOM      2  C   UNL     1      29.369  38.564  12.465  1.00  0.00     0.407 C 
ATOM      3  O   UNL     1      28.764  39.243  13.325  1.00  0.00    -0.225 OA
ATOM      4  H   UNL     1      29.394  36.903  11.180  1.00  0.00     0.167 HD
ENDROOT
BRANCH   1   5
ATOM      5  C   UNL     1      27.521  36.868  12.176  1.00  0.00     0.154 C 
BRANCH   5   6
ATOM      6  C   UNL     1      26.954  35.890  11.215  1.00  0.00     0.165 C 
BRANCH   6   7
ATOM      7  C   UNL     1      26.351  36.540   9.989  1.00  0.00     0.176 C 
BRANCH   7   8
ATOM      8  C   UNL     1      27.071  36.260   8.709  1.00  0.00     0.178 C 
ATOM      9  C   UNL     1      29.226  35.931   7.932  1.00  0.00     0.269 C 
ATOM     10  C   UNL     1      28.406  35.549   6.728  1.00  0.00     0.112 C 
ATOM     11  O   UNL     1      28.446  36.257   9.028  1.00  0.00    -0.332 OA
ATOM     12  C   UNL     1      27.404  36.573   6.333  1.00  0.00     0.145 C 
ATOM     13  C   UNL     1      26.880  37.248   7.610  1.00  0.00     0.142 C 
BRANCH   9  14
ATOM     14  O   UNL     1      30.105  36.936   7.574  1.00  0.00    -0.357 OA
ATOM     15  H   UNL     1      30.214  37.632   8.269  1.00  0.00     0.214 HD
ENDBRANCH   9  14
BRANCH   9  16
ATOM     16  C   UNL     1      30.037  34.740   8.308  1.00  0.00     0.364 C 
ATOM     17  O   UNL     1      29.559  33.802   9.004  1.00  0.00    -0.246 OA
BRANCH  16  18
ATOM     18  O   UNL     1      31.371  34.597   7.911  1.00  0.00    -0.477 OA
ATOM     19  H   UNL     1      31.640  33.955   7.178  1.00  0.00     0.296 HD
ENDBRANCH  16  18
ENDBRANCH   9  16
BRANCH  12  20
ATOM     20  O   UNL     1      27.908  37.527   5.451  1.00  0.00    -0.391 OA
ATOM     21  H   UNL     1      28.794  37.806   5.813  1.00  0.00     0.211 HD
ENDBRANCH  12  20
BRANCH  13  22
ATOM     22  N   UNL     1      25.550  37.658   7.318  1.00  0.00    -0.348 N 
ATOM     23  C   UNL     1      25.086  39.012   7.527  1.00  0.00     0.217 C 
ATOM     24  H   UNL     1      24.830  37.015   6.925  1.00  0.00     0.163 HD
ATOM     25  C   UNL     1      23.691  39.392   7.207  1.00  0.00     0.114 C 
ATOM     26  O   UNL     1      25.862  39.863   7.977  1.00  0.00    -0.275 OA
ENDBRANCH  13  22
ENDBRANCH   7   8
BRANCH   7  27
ATOM     27  O   UNL     1      26.549  37.938  10.220  1.00  0.00    -0.388 OA
ATOM     28  H   UNL     1      27.288  38.089  10.830  1.00  0.00     0.211 HD
ENDBRANCH   7  27
ENDBRANCH   6   7
BRANCH   6  29
ATOM     29  O   UNL     1      25.923  35.170  11.814  1.00  0.00    -0.388 OA
ATOM     30  H   UNL     1      25.807  35.463  12.749  1.00  0.00     0.211 HD
ENDBRANCH   6  29
ENDBRANCH   5   6
ENDBRANCH   1   5
BRANCH   2  31
ATOM     31  O   UNL     1      30.638  39.002  12.097  1.00  0.00    -0.443 OA
BRANCH  31  32
ATOM     32  C   UNL     1      30.839  40.243  11.471  1.00  0.00     0.294 C 
BRANCH  32  33
ATOM     33  C   UNL     1      30.301  40.235  10.099  1.00  0.00     0.120 A 
ATOM     34  C   UNL     1      30.558  41.139   9.087  1.00  0.00     0.139 A 
ATOM     35  N   UNL     1      29.445  39.311   9.611  1.00  0.00    -0.132 NA
ATOM     36  N   UNL     1      29.860  40.737   8.031  1.00  0.00    -0.237 N 
ATOM     37  N   UNL     1      29.203  39.658   8.343  1.00  0.00    -0.066 NA
BRANCH  36  38
ATOM     38  C   UNL     1      29.823  41.390   6.725  1.00  0.00     0.223 C 
BRANCH  38  39
ATOM     39  C   UNL     1      31.097  42.164   6.544  1.00  0.00     0.197 C 
BRANCH  39  40
ATOM     40  O   UNL     1      31.922  41.547   5.632  1.00  0.00    -0.382 OA
ATOM     41  C   UNL     1      32.869  42.370   5.060  1.00  0.00     0.195 C 
ENDBRANCH  39  40
ENDBRANCH  38  39
BRANCH  38  42
ATOM     42  C   UNL     1      29.752  40.335   5.662  1.00  0.00     0.244 C 
ATOM     43  O   UNL     1      29.010  40.475   4.678  1.00  0.00    -0.273 OA
ATOM     44  N   UNL     1      30.559  39.179   5.826  1.00  0.00    -0.368 N 
ATOM     45  H   UNL     1      30.831  38.635   4.975  1.00  0.00     0.159 HD
ATOM     46  H   UNL     1      30.874  38.880   6.757  1.00  0.00     0.159 HD
ENDBRANCH  38  42
ENDBRANCH  36  38
ENDBRANCH  32  33
ENDBRANCH  31  32
ENDBRANCH   2  31
TORSDOF 18
BEGIN_RES LYS A 131
REMARK  4 active torsions:
REMARK  status: ('A' for Active; 'I' for Inactive)
REMARK    1  A    between atoms: CA   and  CB  
REMARK    2  A    between atoms: CB   and  CG  
REMARK    3  A    between atoms: CG   and  CD  
REMARK    4  A    between atoms: CD   and  CE  
ROOT
ATOM      1  CA  LYS A 131      29.867  25.555  16.977  1.00 20.52     0.186 C 
ENDROOT
BRANCH   1   2
ATOM      2  CB  LYS A 131      28.345  25.722  17.026  1.00 20.94     0.034 C 
BRANCH   2   3
ATOM      3  CG  LYS A 131      27.601  24.402  16.895  1.00 22.96     0.005 C 
BRANCH   3   4
ATOM      4  CD  LYS A 131      26.262  24.436  17.578  1.00 24.33     0.041 C 
BRANCH   4   5
ATOM      5  CE  LYS A 131      26.098  25.764  18.310  1.00 26.91     0.338 C 
ATOM      6  NZ  LYS A 131      24.832  26.423  17.910  1.00 27.40     0.618 N 
ENDBRANCH   4   5
ENDBRANCH   3   4
ENDBRANCH   2   3
ENDBRANCH   1   2
END_RES LYS A 131
BEGIN_RES LYS A 135
REMARK  4 active torsions:
REMARK  status: ('A' for Active; 'I' for Inactive)
REMARK    5  A    between atoms: CA   and  CB  
REMARK    6  A    between atoms: CB   and  CG  
REMARK    7  A    between atoms: CG   and  CD  
REMARK    8  A    between atoms: CD   and  CE  
ROOT
ATOM      7  CA  LYS A 135      33.193  34.663   9.290  1.00 25.02     0.186 C 
ENDROOT
BRANCH   7   8
ATOM      8  CB  LYS A 135      32.060  35.360  10.034  1.00 26.63     0.034 C 
BRANCH   8   9
ATOM      9  CG  LYS A 135      32.526  36.181  11.208  1.00 29.45     0.005 C 
BRANCH   9  10
ATOM     10  CD  LYS A 135      31.992  35.607  12.511  1.00 32.00     0.041 C 
BRANCH  10  11
ATOM     11  CE  LYS A 135      30.802  34.703  12.246  1.00 34.25     0.338 C 
ATOM     12  NZ  LYS A 135      30.093  34.366  13.512  1.00 35.99     0.618 N 
ENDBRANCH  10  11
ENDBRANCH   9  10
ENDBRANCH   8   9
ENDBRANCH   7   8
END_RES LYS A 135
