REMARK VINA RESULT:    -5.103      4.195      8.472
REMARK INTER + INTRA:         -15.074
REMARK INTER:                  -8.303
REMARK INTRA:                  -6.771
REMARK UNBOUND:                -5.794
REMARK SMILES CC(=O)N[C@@H]1[C@@H](O)C[C@](O)(C(=O)O)O[C@H]1C(O)[C@H](O)CNC(=O)OCc1cn(Cc2cc(Br)cc(Br)c2O)nn1
REMARK SMILES IDX 21 1 22 2 23 3 20 5 18 6 16 7 15 8 9 9 8 10 14 11 6 12 5 13
REMARK SMILES IDX 10 14 11 16 12 17 13 18 7 20 4 22 2 23 1 25 3 26 17 27 19 29
REMARK SMILES IDX 24 31 25 32 26 33 27 34 40 35 28 36 39 37 29 38 30 39 31 40
REMARK SMILES IDX 37 41 32 42 35 43 33 44 34 45 36 46 38 47
REMARK H PARENT 21 4 10 15 13 19 7 21 4 24 17 28 19 30 38 48
REMARK Flexibility Score: inf
ROOT
ATOM      1  N   UNL     1      27.803  32.246  18.211  1.00  0.00    -0.319 N 
ATOM      2  C   UNL     1      27.263  31.129  18.909  1.00  0.00     0.407 C 
ATOM      3  O   UNL     1      28.012  30.460  19.657  1.00  0.00    -0.225 OA
ATOM      4  H   UNL     1      27.163  32.781  17.599  1.00  0.00     0.167 HD
ENDROOT
BRANCH   1   5
ATOM      5  C   UNL     1      29.183  32.631  18.337  1.00  0.00     0.154 C 
BRANCH   5   6
ATOM      6  C   UNL     1      30.000  32.096  17.195  1.00  0.00     0.165 C 
BRANCH   6   7
ATOM      7  C   UNL     1      29.384  32.419  15.851  1.00  0.00     0.176 C 
BRANCH   7   8
ATOM      8  C   UNL     1      29.082  33.928  15.779  1.00  0.00     0.178 C 
ATOM      9  C   UNL     1      27.152  34.867  14.815  1.00  0.00     0.269 C 
ATOM     10  C   UNL     1      28.051  36.060  14.458  1.00  0.00     0.112 C 
ATOM     11  O   UNL     1      27.752  34.063  15.724  1.00  0.00    -0.332 OA
ATOM     12  C   UNL     1      29.228  35.411  13.745  1.00  0.00     0.145 C 
ATOM     13  C   UNL     1      29.933  34.568  14.767  1.00  0.00     0.142 C 
BRANCH   9  14
ATOM     14  O   UNL     1      26.843  34.262  13.613  1.00  0.00    -0.357 OA
ATOM     15  H   UNL     1      27.536  34.376  12.918  1.00  0.00     0.214 HD
ENDBRANCH   9  14
BRANCH   9  16
ATOM     16  C   UNL     1      25.895  35.377  15.418  1.00  0.00     0.364 C 
ATOM     17  O   UNL     1      25.924  36.468  16.041  1.00  0.00    -0.246 OA
BRANCH  16  18
ATOM     18  O   UNL     1      24.689  34.691  15.318  1.00  0.00    -0.477 OA
ATOM     19  H   UNL     1      24.066  35.005  14.560  1.00  0.00     0.296 HD
ENDBRANCH  16  18
ENDBRANCH   9  16
BRANCH  12  20
ATOM     20  O   UNL     1      28.793  34.666  12.651  1.00  0.00    -0.391 OA
ATOM     21  H   UNL     1      29.235  33.792  12.694  1.00  0.00     0.211 HD
ENDBRANCH  12  20
BRANCH  13  22
ATOM     22  N   UNL     1      30.988  35.400  15.345  1.00  0.00    -0.348 N 
ATOM     23  C   UNL     1      32.324  34.959  15.507  1.00  0.00     0.217 C 
ATOM     24  H   UNL     1      30.785  36.386  15.670  1.00  0.00     0.163 HD
ATOM     25  C   UNL     1      33.371  35.844  16.103  1.00  0.00     0.114 C 
ATOM     26  O   UNL     1      32.642  33.797  15.143  1.00  0.00    -0.275 OA
ENDBRANCH  13  22
ENDBRANCH   7   8
BRANCH   7  27
ATOM     27  O   UNL     1      30.119  31.981  14.778  1.00  0.00    -0.388 OA
ATOM     28  H   UNL     1      31.084  32.076  14.915  1.00  0.00     0.211 HD
ENDBRANCH   7  27
ENDBRANCH   6   7
BRANCH   6  29
ATOM     29  O   UNL     1      30.268  30.759  17.385  1.00  0.00    -0.388 OA
ATOM     30  H   UNL     1      31.016  30.417  16.860  1.00  0.00     0.211 HD
ENDBRANCH   6  29
ENDBRANCH   5   6
ENDBRANCH   1   5
BRANCH   2  31
ATOM     31  O   UNL     1      25.941  30.785  18.768  1.00  0.00    -0.443 OA
BRANCH  31  32
ATOM     32  C   UNL     1      25.520  29.774  17.870  1.00  0.00     0.294 C 
BRANCH  32  33
ATOM     33  C   UNL     1      25.311  30.384  16.530  1.00  0.00     0.120 A 
ATOM     34  C   UNL     1      24.865  29.742  15.382  1.00  0.00     0.138 A 
ATOM     35  N   UNL     1      25.498  31.658  16.138  1.00  0.00    -0.132 NA
ATOM     36  N   UNL     1      24.804  30.626  14.375  1.00  0.00    -0.248 N 
ATOM     37  N   UNL     1      25.202  31.810  14.867  1.00  0.00    -0.067 NA
BRANCH  36  38
ATOM     38  C   UNL     1      24.395  30.392  13.018  1.00  0.00     0.185 C 
BRANCH  38  39
ATOM     39  C   UNL     1      22.954  30.670  12.788  1.00  0.00     0.018 A 
ATOM     40  C   UNL     1      22.116  29.603  12.534  1.00  0.00     0.025 A 
ATOM     41  C   UNL     1      22.416  31.935  12.816  1.00  0.00     0.134 A 
ATOM     42  C   UNL     1      20.765  29.747  12.305  1.00  0.00     0.019 A 
ATOM     43  C   UNL     1      21.048  32.109  12.587  1.00  0.00     0.061 A 
ATOM     44  Br  UNL     1      19.635  28.258  11.959  1.00  0.00    -0.051 Br
ATOM     45  C   UNL     1      20.236  31.030  12.335  1.00  0.00     0.035 A 
ATOM     46  Br  UNL     1      20.380  33.908  12.643  1.00  0.00    -0.047 Br
BRANCH  41  47
ATOM     47  O   UNL     1      23.228  33.025  13.068  1.00  0.00    -0.506 OA
ATOM     48  H   UNL     1      22.834  33.955  13.021  1.00  0.00     0.293 HD
ENDBRANCH  41  47
ENDBRANCH  38  39
ENDBRANCH  36  38
ENDBRANCH  32  33
ENDBRANCH  31  32
ENDBRANCH   2  31
TORSDOF 17
BEGIN_RES LYS A 131
REMARK  4 active torsions:
REMARK  status: ('A' for Active; 'I' for Inactive)
REMARK    1  A    between atoms: CA   and  CB  
REMARK    2  A    between atoms: CB   and  CG  
REMARK    3  A    between atoms: CG   and  CD  
REMARK    4  A    between atoms: CD   and  CE  
ROOT
ATOM      1  CA  LYS A 131      29.867  25.555  16.977  1.00 20.52     0.186 C 
ENDROOT
BRANCH   1   2
ATOM      2  CB  LYS A 131      28.345  25.722  17.026  1.00 20.94     0.034 C 
BRANCH   2   3
ATOM      3  CG  LYS A 131      27.602  24.400  16.916  1.00 22.96     0.005 C 
BRANCH   3   4
ATOM      4  CD  LYS A 131      26.534  24.261  17.966  1.00 24.33     0.041 C 
BRANCH   4   5
ATOM      5  CE  LYS A 131      25.279  23.662  17.340  1.00 26.91     0.338 C 
ATOM      6  NZ  LYS A 131      24.341  24.733  16.931  1.00 27.40     0.618 N 
ENDBRANCH   4   5
ENDBRANCH   3   4
ENDBRANCH   2   3
ENDBRANCH   1   2
END_RES LYS A 131
BEGIN_RES LYS A 135
REMARK  4 active torsions:
REMARK  status: ('A' for Active; 'I' for Inactive)
REMARK    5  A    between atoms: CA   and  CB  
REMARK    6  A    between atoms: CB   and  CG  
REMARK    7  A    between atoms: CG   and  CD  
REMARK    8  A    between atoms: CD   and  CE  
ROOT
ATOM      7  CA  LYS A 135      33.193  34.663   9.290  1.00 25.02     0.186 C 
ENDROOT
BRANCH   7   8
ATOM      8  CB  LYS A 135      32.060  35.360  10.034  1.00 26.63     0.034 C 
BRANCH   8   9
ATOM      9  CG  LYS A 135      30.814  35.536   9.205  1.00 29.45     0.005 C 
BRANCH   9  10
ATOM     10  CD  LYS A 135      30.153  34.193   8.937  1.00 32.00     0.041 C 
BRANCH  10  11
ATOM     11  CE  LYS A 135      28.686  34.379   8.599  1.00 34.25     0.338 C 
ATOM     12  NZ  LYS A 135      27.816  33.673   9.580  1.00 35.99     0.618 N 
ENDBRANCH  10  11
ENDBRANCH   9  10
ENDBRANCH   8   9
ENDBRANCH   7   8
END_RES LYS A 135
