REMARK VINA RESULT:    -4.985      4.407     11.563
REMARK INTER + INTRA:         -14.799
REMARK INTER:                 -10.285
REMARK INTRA:                  -4.514
REMARK UNBOUND:                -5.735
REMARK SMILES CC(=O)N[C@@H]1[C@@H](O)C[C@](O)(C(=O)O)O[C@H]1C(O)[C@H](O)CNC(=O)OCc1cn(-c2ccc(CO)cn2)nn1
REMARK SMILES IDX 21 1 22 2 23 3 20 5 18 6 16 7 15 8 9 9 8 10 14 11 6 12 5 13
REMARK SMILES IDX 10 14 11 16 12 17 13 18 7 20 4 22 2 23 1 25 3 26 17 27 19 29
REMARK SMILES IDX 24 31 25 32 26 33 27 34 38 35 28 36 37 37 29 38 30 39 36 40
REMARK SMILES IDX 31 41 35 42 32 43 33 44 34 45
REMARK H PARENT 21 4 10 15 13 19 7 21 4 24 17 28 19 30 34 46
REMARK Flexibility Score: inf
ROOT
ATOM      1  N   UNL     1      29.726  39.819  10.997  1.00  0.00    -0.319 N 
ATOM      2  C   UNL     1      30.013  40.143  12.365  1.00  0.00     0.407 C 
ATOM      3  O   UNL     1      31.137  40.645  12.593  1.00  0.00    -0.225 OA
ATOM      4  H   UNL     1      28.776  39.416  10.851  1.00  0.00     0.167 HD
ENDROOT
BRANCH   1   5
ATOM      5  C   UNL     1      30.685  40.074   9.956  1.00  0.00     0.154 C 
BRANCH   5   6
ATOM      6  C   UNL     1      30.426  39.139   8.786  1.00  0.00     0.165 C 
BRANCH   6   7
ATOM      7  C   UNL     1      28.942  38.913   8.755  1.00  0.00     0.176 C 
BRANCH   7   8
ATOM      8  C   UNL     1      28.468  37.490   8.680  1.00  0.00     0.178 C 
ATOM      9  C   UNL     1      28.895  35.720   7.179  1.00  0.00     0.269 C 
ATOM     10  C   UNL     1      27.455  35.271   7.187  1.00  0.00     0.112 C 
ATOM     11  O   UNL     1      29.041  37.018   7.528  1.00  0.00    -0.332 OA
ATOM     12  C   UNL     1      26.650  36.548   7.332  1.00  0.00     0.145 C 
ATOM     13  C   UNL     1      27.021  37.238   8.668  1.00  0.00     0.142 C 
BRANCH   9  14
ATOM     14  O   UNL     1      29.330  35.551   5.827  1.00  0.00    -0.357 OA
ATOM     15  H   UNL     1      29.988  36.259   5.608  1.00  0.00     0.214 HD
ENDBRANCH   9  14
BRANCH   9  16
ATOM     16  C   UNL     1      29.787  34.865   7.989  1.00  0.00     0.364 C 
ATOM     17  O   UNL     1      29.294  33.994   8.732  1.00  0.00    -0.246 OA
BRANCH  16  18
ATOM     18  O   UNL     1      31.159  35.011   7.937  1.00  0.00    -0.477 OA
ATOM     19  H   UNL     1      31.702  34.351   7.393  1.00  0.00     0.296 HD
ENDBRANCH  16  18
ENDBRANCH   9  16
BRANCH  12  20
ATOM     20  O   UNL     1      26.798  37.397   6.263  1.00  0.00    -0.391 OA
ATOM     21  H   UNL     1      26.220  38.202   6.395  1.00  0.00     0.211 HD
ENDBRANCH  12  20
BRANCH  13  22
ATOM     22  N   UNL     1      26.524  36.352   9.669  1.00  0.00    -0.348 N 
ATOM     23  C   UNL     1      25.235  36.479  10.213  1.00  0.00     0.217 C 
ATOM     24  H   UNL     1      27.136  35.590  10.009  1.00  0.00     0.163 HD
ATOM     25  C   UNL     1      24.718  35.556  11.252  1.00  0.00     0.114 C 
ATOM     26  O   UNL     1      24.493  37.397   9.812  1.00  0.00    -0.275 OA
ENDBRANCH  13  22
ENDBRANCH   7   8
BRANCH   7  27
ATOM     27  O   UNL     1      28.441  39.538   7.599  1.00  0.00    -0.388 OA
ATOM     28  H   UNL     1      28.564  40.525   7.635  1.00  0.00     0.211 HD
ENDBRANCH   7  27
ENDBRANCH   6   7
BRANCH   6  29
ATOM     29  O   UNL     1      31.076  37.940   9.189  1.00  0.00    -0.388 OA
ATOM     30  H   UNL     1      30.576  37.186   8.837  1.00  0.00     0.211 HD
ENDBRANCH   6  29
ENDBRANCH   5   6
ENDBRANCH   1   5
BRANCH   2  31
ATOM     31  O   UNL     1      29.131  39.928  13.388  1.00  0.00    -0.443 OA
BRANCH  31  32
ATOM     32  C   UNL     1      27.961  39.177  13.277  1.00  0.00     0.294 C 
BRANCH  32  33
ATOM     33  C   UNL     1      28.198  37.729  13.049  1.00  0.00     0.121 A 
ATOM     34  C   UNL     1      28.378  36.796  14.074  1.00  0.00     0.146 A 
ATOM     35  N   UNL     1      28.295  37.021  11.932  1.00  0.00    -0.131 NA
ATOM     36  N   UNL     1      28.572  35.593  13.533  1.00  0.00    -0.202 N 
ATOM     37  N   UNL     1      28.521  35.740  12.231  1.00  0.00    -0.061 NA
BRANCH  36  38
ATOM     38  C   UNL     1      28.803  34.371  14.250  1.00  0.00     0.155 A 
ATOM     39  C   UNL     1      30.028  33.737  14.276  1.00  0.00     0.049 A 
ATOM     40  N   UNL     1      27.797  33.792  14.923  1.00  0.00    -0.237 NA
ATOM     41  C   UNL     1      30.253  32.565  14.948  1.00  0.00     0.011 A 
ATOM     42  C   UNL     1      27.968  32.644  15.596  1.00  0.00     0.119 A 
ATOM     43  C   UNL     1      29.197  31.993  15.632  1.00  0.00    -0.004 A 
BRANCH  43  44
ATOM     44  C   UNL     1      29.333  30.720  16.397  1.00  0.00     0.193 C 
BRANCH  44  45
ATOM     45  O   UNL     1      28.964  29.661  15.577  1.00  0.00    -0.392 OA
ATOM     46  H   UNL     1      29.739  29.060  15.434  1.00  0.00     0.211 HD
ENDBRANCH  44  45
ENDBRANCH  43  44
ENDBRANCH  36  38
ENDBRANCH  32  33
ENDBRANCH  31  32
ENDBRANCH   2  31
TORSDOF 17
BEGIN_RES LYS A 131
REMARK  4 active torsions:
REMARK  status: ('A' for Active; 'I' for Inactive)
REMARK    1  A    between atoms: CA   and  CB  
REMARK    2  A    between atoms: CB   and  CG  
REMARK    3  A    between atoms: CG   and  CD  
REMARK    4  A    between atoms: CD   and  CE  
ROOT
ATOM      1  CA  LYS A 131      29.867  25.555  16.977  1.00 20.52     0.186 C 
ENDROOT
BRANCH   1   2
ATOM      2  CB  LYS A 131      28.345  25.722  17.026  1.00 20.94     0.034 C 
BRANCH   2   3
ATOM      3  CG  LYS A 131      27.602  24.400  16.913  1.00 22.96     0.005 C 
BRANCH   3   4
ATOM      4  CD  LYS A 131      26.523  24.266  17.952  1.00 24.33     0.041 C 
BRANCH   4   5
ATOM      5  CE  LYS A 131      25.158  24.269  17.273  1.00 26.91     0.338 C 
ATOM      6  NZ  LYS A 131      24.583  22.903  17.257  1.00 27.40     0.618 N 
ENDBRANCH   4   5
ENDBRANCH   3   4
ENDBRANCH   2   3
ENDBRANCH   1   2
END_RES LYS A 131
BEGIN_RES LYS A 135
REMARK  4 active torsions:
REMARK  status: ('A' for Active; 'I' for Inactive)
REMARK    5  A    between atoms: CA   and  CB  
REMARK    6  A    between atoms: CB   and  CG  
REMARK    7  A    between atoms: CG   and  CD  
REMARK    8  A    between atoms: CD   and  CE  
ROOT
ATOM      7  CA  LYS A 135      33.193  34.663   9.290  1.00 25.02     0.186 C 
ENDROOT
BRANCH   7   8
ATOM      8  CB  LYS A 135      32.060  35.360  10.034  1.00 26.63     0.034 C 
BRANCH   8   9
ATOM      9  CG  LYS A 135      31.899  34.895  11.458  1.00 29.45     0.005 C 
BRANCH   9  10
ATOM     10  CD  LYS A 135      32.672  35.798  12.408  1.00 32.00     0.041 C 
BRANCH  10  11
ATOM     11  CE  LYS A 135      31.894  37.070  12.685  1.00 34.25     0.338 C 
ATOM     12  NZ  LYS A 135      31.832  37.353  14.146  1.00 35.99     0.618 N 
ENDBRANCH  10  11
ENDBRANCH   9  10
ENDBRANCH   8   9
ENDBRANCH   7   8
END_RES LYS A 135
