REMARK VINA RESULT:    -4.642      2.986      7.018
REMARK INTER + INTRA:         -13.830
REMARK INTER:                  -8.034
REMARK INTRA:                  -5.796
REMARK UNBOUND:                -5.796
REMARK SMILES CC(=O)N[C@@H]1[C@@H](O)C[C@](O)(C(=O)O)O[C@H]1C(O)[C@H](O)CNC(=O)OCc1cn(C2CCCCC2)nn1
REMARK SMILES IDX 20 1 18 2 16 3 15 4 9 5 8 6 14 7 6 8 5 9 10 10 11 12 12 13
REMARK SMILES IDX 13 14 7 16 4 18 2 19 1 21 3 22 17 23 19 25 21 27 22 28 23 30
REMARK SMILES IDX 24 31 25 32 26 33 27 34 36 35 28 36 35 37 29 38 30 39 34 40
REMARK SMILES IDX 31 41 33 42 32 43
REMARK H PARENT 10 11 13 15 7 17 4 20 17 24 19 26 21 29
REMARK Flexibility Score: inf
ROOT
ATOM      1  C   UNL     1      29.530  31.585  15.473  1.00  0.00     0.154 C 
ENDROOT
BRANCH   1   2
ATOM      2  C   UNL     1      30.939  31.940  15.924  1.00  0.00     0.165 C 
BRANCH   2   3
ATOM      3  C   UNL     1      30.827  33.121  16.838  1.00  0.00     0.176 C 
BRANCH   3   4
ATOM      4  C   UNL     1      30.234  34.362  16.207  1.00  0.00     0.178 C 
ATOM      5  C   UNL     1      31.859  35.460  14.905  1.00  0.00     0.269 C 
ATOM      6  C   UNL     1      31.522  36.794  15.550  1.00  0.00     0.112 C 
ATOM      7  O   UNL     1      30.780  34.646  14.986  1.00  0.00    -0.332 OA
ATOM      8  C   UNL     1      31.094  36.614  16.982  1.00  0.00     0.145 C 
ATOM      9  C   UNL     1      30.060  35.516  17.131  1.00  0.00     0.142 C 
BRANCH   5  10
ATOM     10  O   UNL     1      33.044  34.944  15.427  1.00  0.00    -0.357 OA
ATOM     11  H   UNL     1      33.116  33.982  15.130  1.00  0.00     0.214 HD
ENDBRANCH   5  10
BRANCH   5  12
ATOM     12  C   UNL     1      32.088  35.768  13.466  1.00  0.00     0.364 C 
ATOM     13  O   UNL     1      31.999  36.947  13.057  1.00  0.00    -0.246 OA
BRANCH  12  14
ATOM     14  O   UNL     1      32.395  34.762  12.596  1.00  0.00    -0.477 OA
ATOM     15  H   UNL     1      33.233  34.196  12.642  1.00  0.00     0.296 HD
ENDBRANCH  12  14
ENDBRANCH   5  12
BRANCH   8  16
ATOM     16  O   UNL     1      32.189  36.408  17.810  1.00  0.00    -0.391 OA
ATOM     17  H   UNL     1      32.570  35.510  17.650  1.00  0.00     0.211 HD
ENDBRANCH   8  16
BRANCH   9  18
ATOM     18  N   UNL     1      28.723  36.101  17.002  1.00  0.00    -0.348 N 
ATOM     19  C   UNL     1      27.683  35.585  17.803  1.00  0.00     0.217 C 
ATOM     20  H   UNL     1      28.528  36.878  16.342  1.00  0.00     0.163 HD
ATOM     21  C   UNL     1      26.286  36.116  17.744  1.00  0.00     0.114 C 
ATOM     22  O   UNL     1      27.864  34.635  18.630  1.00  0.00    -0.275 OA
ENDBRANCH   9  18
ENDBRANCH   3   4
BRANCH   3  23
ATOM     23  O   UNL     1      30.340  32.804  18.079  1.00  0.00    -0.388 OA
ATOM     24  H   UNL     1      30.827  32.035  18.513  1.00  0.00     0.211 HD
ENDBRANCH   3  23
ENDBRANCH   2   3
BRANCH   2  25
ATOM     25  O   UNL     1      31.707  32.130  14.800  1.00  0.00    -0.388 OA
ATOM     26  H   UNL     1      32.445  31.501  14.801  1.00  0.00     0.211 HD
ENDBRANCH   2  25
ENDBRANCH   1   2
BRANCH   1  27
ATOM     27  N   UNL     1      29.091  30.435  16.228  1.00  0.00    -0.319 N 
ATOM     28  C   UNL     1      27.772  29.919  16.238  1.00  0.00     0.407 C 
ATOM     29  H   UNL     1      29.780  29.898  16.840  1.00  0.00     0.167 HD
ATOM     30  O   UNL     1      26.885  30.482  15.551  1.00  0.00    -0.225 OA
BRANCH  28  31
ATOM     31  O   UNL     1      27.434  28.801  16.995  1.00  0.00    -0.443 OA
BRANCH  31  32
ATOM     32  C   UNL     1      26.841  28.968  18.258  1.00  0.00     0.294 C 
BRANCH  32  33
ATOM     33  C   UNL     1      27.753  29.789  19.096  1.00  0.00     0.120 A 
ATOM     34  C   UNL     1      28.725  29.304  19.981  1.00  0.00     0.138 A 
ATOM     35  N   UNL     1      27.859  31.127  19.205  1.00  0.00    -0.132 NA
ATOM     36  N   UNL     1      29.355  30.338  20.566  1.00  0.00    -0.249 N 
ATOM     37  N   UNL     1      28.805  31.435  20.074  1.00  0.00    -0.067 NA
BRANCH  36  38
ATOM     38  C   UNL     1      30.428  30.263  21.548  1.00  0.00     0.109 C 
ATOM     39  C   UNL     1      31.089  28.905  21.456  1.00  0.00     0.027 C 
ATOM     40  C   UNL     1      31.473  31.315  21.251  1.00  0.00     0.027 C 
ATOM     41  C   UNL     1      32.430  28.983  20.752  1.00  0.00     0.002 C 
ATOM     42  C   UNL     1      32.659  31.020  22.152  1.00  0.00     0.002 C 
ATOM     43  C   UNL     1      33.382  29.828  21.556  1.00  0.00     0.000 C 
ENDBRANCH  36  38
ENDBRANCH  32  33
ENDBRANCH  31  32
ENDBRANCH  28  31
ENDBRANCH   1  27
TORSDOF 15
BEGIN_RES LYS A 131
REMARK  4 active torsions:
REMARK  status: ('A' for Active; 'I' for Inactive)
REMARK    1  A    between atoms: CA   and  CB  
REMARK    2  A    between atoms: CB   and  CG  
REMARK    3  A    between atoms: CG   and  CD  
REMARK    4  A    between atoms: CD   and  CE  
ROOT
ATOM      1  CA  LYS A 131      29.867  25.555  16.977  1.00 20.52     0.186 C 
ENDROOT
BRANCH   1   2
ATOM      2  CB  LYS A 131      28.345  25.722  17.026  1.00 20.94     0.034 C 
BRANCH   2   3
ATOM      3  CG  LYS A 131      27.601  24.406  16.858  1.00 22.96     0.005 C 
BRANCH   3   4
ATOM      4  CD  LYS A 131      26.515  24.235  17.885  1.00 24.33     0.041 C 
BRANCH   4   5
ATOM      5  CE  LYS A 131      25.160  24.176  17.188  1.00 26.91     0.338 C 
ATOM      6  NZ  LYS A 131      24.160  24.980  17.929  1.00 27.40     0.618 N 
ENDBRANCH   4   5
ENDBRANCH   3   4
ENDBRANCH   2   3
ENDBRANCH   1   2
END_RES LYS A 131
BEGIN_RES LYS A 135
REMARK  4 active torsions:
REMARK  status: ('A' for Active; 'I' for Inactive)
REMARK    5  A    between atoms: CA   and  CB  
REMARK    6  A    between atoms: CB   and  CG  
REMARK    7  A    between atoms: CG   and  CD  
REMARK    8  A    between atoms: CD   and  CE  
ROOT
ATOM      7  CA  LYS A 135      33.193  34.663   9.290  1.00 25.02     0.186 C 
ENDROOT
BRANCH   7   8
ATOM      8  CB  LYS A 135      32.060  35.360  10.034  1.00 26.63     0.034 C 
BRANCH   8   9
ATOM      9  CG  LYS A 135      30.821  35.555   9.199  1.00 29.45     0.005 C 
BRANCH   9  10
ATOM     10  CD  LYS A 135      30.078  34.239   9.026  1.00 32.00     0.041 C 
BRANCH  10  11
ATOM     11  CE  LYS A 135      28.739  34.468   8.351  1.00 34.25     0.338 C 
ATOM     12  NZ  LYS A 135      28.888  35.324   7.142  1.00 35.99     0.618 N 
ENDBRANCH  10  11
ENDBRANCH   9  10
ENDBRANCH   8   9
ENDBRANCH   7   8
END_RES LYS A 135
