REMARK VINA RESULT:    -4.050      2.800      5.879
REMARK INTER + INTRA:         -13.726
REMARK INTER:                  -6.186
REMARK INTRA:                  -7.540
REMARK UNBOUND:                -6.362
REMARK SMILES CC(=O)N[C@@H]1[C@@H](O)C[C@](O)(C(=O)O)O[C@H]1C(O)[C@H](O)CNC(=O)OCc1cn(CC(=O)O)nn1
REMARK SMILES IDX 21 1 22 2 23 3 20 5 18 6 16 7 15 8 9 9 8 10 14 11 6 12 5 13
REMARK SMILES IDX 10 14 11 16 12 17 13 18 7 20 4 22 2 23 1 25 3 26 17 27 19 29
REMARK SMILES IDX 24 31 25 32 26 33 27 34 34 35 28 36 33 37 29 38 30 39 31 40
REMARK SMILES IDX 32 41
REMARK H PARENT 21 4 10 15 13 19 7 21 4 24 17 28 19 30 32 42
REMARK Flexibility Score: inf
ROOT
ATOM      1  N   UNL     1      30.284  34.068  17.532  1.00  0.00    -0.319 N 
ATOM      2  C   UNL     1      30.852  33.913  16.253  1.00  0.00     0.407 C 
ATOM      3  O   UNL     1      31.833  33.198  16.053  1.00  0.00    -0.225 OA
ATOM      4  H   UNL     1      29.433  34.708  17.570  1.00  0.00     0.167 HD
ENDROOT
BRANCH   1   5
ATOM      5  C   UNL     1      30.736  33.460  18.756  1.00  0.00     0.154 C 
BRANCH   5   6
ATOM      6  C   UNL     1      29.936  32.291  19.237  1.00  0.00     0.165 C 
BRANCH   6   7
ATOM      7  C   UNL     1      30.467  30.977  18.803  1.00  0.00     0.176 C 
BRANCH   7   8
ATOM      8  C   UNL     1      29.957  29.788  19.573  1.00  0.00     0.178 C 
ATOM      9  C   UNL     1      27.938  28.834  20.313  1.00  0.00     0.269 C 
ATOM     10  C   UNL     1      28.568  28.334  21.571  1.00  0.00     0.112 C 
ATOM     11  O   UNL     1      28.557  29.832  19.645  1.00  0.00    -0.332 OA
ATOM     12  C   UNL     1      30.057  28.273  21.437  1.00  0.00     0.145 C 
ATOM     13  C   UNL     1      30.482  29.682  20.980  1.00  0.00     0.142 C 
BRANCH   9  14
ATOM     14  O   UNL     1      26.608  29.215  20.662  1.00  0.00    -0.357 OA
ATOM     15  H   UNL     1      26.712  30.055  21.188  1.00  0.00     0.214 HD
ENDBRANCH   9  14
BRANCH   9  16
ATOM     16  C   UNL     1      27.745  27.669  19.398  1.00  0.00     0.364 C 
ATOM     17  O   UNL     1      27.411  27.759  18.199  1.00  0.00    -0.246 OA
BRANCH  16  18
ATOM     18  O   UNL     1      27.949  26.401  19.900  1.00  0.00    -0.477 OA
ATOM     19  H   UNL     1      27.460  25.581  19.548  1.00  0.00     0.296 HD
ENDBRANCH  16  18
ENDBRANCH   9  16
BRANCH  12  20
ATOM     20  O   UNL     1      30.691  27.943  22.631  1.00  0.00    -0.391 OA
ATOM     21  H   UNL     1      30.549  26.971  22.774  1.00  0.00     0.211 HD
ENDBRANCH  12  20
BRANCH  13  22
ATOM     22  N   UNL     1      31.890  29.818  21.159  1.00  0.00    -0.348 N 
ATOM     23  C   UNL     1      32.472  30.927  21.846  1.00  0.00     0.217 C 
ATOM     24  H   UNL     1      32.533  29.091  20.797  1.00  0.00     0.163 HD
ATOM     25  C   UNL     1      33.927  31.103  22.050  1.00  0.00     0.114 C 
ATOM     26  O   UNL     1      31.698  31.801  22.301  1.00  0.00    -0.275 OA
ENDBRANCH  13  22
ENDBRANCH   7   8
BRANCH   7  27
ATOM     27  O   UNL     1      30.391  30.821  17.429  1.00  0.00    -0.388 OA
ATOM     28  H   UNL     1      29.622  30.257  17.159  1.00  0.00     0.211 HD
ENDBRANCH   7  27
ENDBRANCH   6   7
BRANCH   6  29
ATOM     29  O   UNL     1      28.605  32.470  18.828  1.00  0.00    -0.388 OA
ATOM     30  H   UNL     1      28.546  32.954  17.974  1.00  0.00     0.211 HD
ENDBRANCH   6  29
ENDBRANCH   5   6
ENDBRANCH   1   5
BRANCH   2  31
ATOM     31  O   UNL     1      30.316  34.572  15.150  1.00  0.00    -0.443 OA
BRANCH  31  32
ATOM     32  C   UNL     1      29.187  34.164  14.444  1.00  0.00     0.294 C 
BRANCH  32  33
ATOM     33  C   UNL     1      28.305  33.224  15.178  1.00  0.00     0.120 A 
ATOM     34  C   UNL     1      27.032  33.389  15.626  1.00  0.00     0.139 A 
ATOM     35  N   UNL     1      28.651  31.956  15.549  1.00  0.00    -0.132 NA
ATOM     36  N   UNL     1      26.640  32.258  16.239  1.00  0.00    -0.241 N 
ATOM     37  N   UNL     1      27.626  31.402  16.185  1.00  0.00    -0.066 NA
BRANCH  36  38
ATOM     38  C   UNL     1      25.344  32.041  16.849  1.00  0.00     0.268 C 
BRANCH  38  39
ATOM     39  C   UNL     1      25.484  31.142  18.011  1.00  0.00     0.325 C 
ATOM     40  O   UNL     1      25.711  31.638  19.151  1.00  0.00    -0.250 OA
BRANCH  39  41
ATOM     41  O   UNL     1      25.367  29.776  17.860  1.00  0.00    -0.480 OA
ATOM     42  H   UNL     1      25.120  29.436  16.926  1.00  0.00     0.296 HD
ENDBRANCH  39  41
ENDBRANCH  38  39
ENDBRANCH  36  38
ENDBRANCH  32  33
ENDBRANCH  31  32
ENDBRANCH   2  31
TORSDOF 17
BEGIN_RES LYS A 131
REMARK  4 active torsions:
REMARK  status: ('A' for Active; 'I' for Inactive)
REMARK    1  A    between atoms: CA   and  CB  
REMARK    2  A    between atoms: CB   and  CG  
REMARK    3  A    between atoms: CG   and  CD  
REMARK    4  A    between atoms: CD   and  CE  
ROOT
ATOM      1  CA  LYS A 131      29.867  25.555  16.977  1.00 20.52     0.186 C 
ENDROOT
BRANCH   1   2
ATOM      2  CB  LYS A 131      28.345  25.722  17.026  1.00 20.94     0.034 C 
BRANCH   2   3
ATOM      3  CG  LYS A 131      27.599  24.447  16.664  1.00 22.96     0.005 C 
BRANCH   3   4
ATOM      4  CD  LYS A 131      27.023  23.765  17.874  1.00 24.33     0.041 C 
BRANCH   4   5
ATOM      5  CE  LYS A 131      25.604  23.297  17.568  1.00 26.91     0.338 C 
ATOM      6  NZ  LYS A 131      24.790  24.418  17.044  1.00 27.40     0.618 N 
ENDBRANCH   4   5
ENDBRANCH   3   4
ENDBRANCH   2   3
ENDBRANCH   1   2
END_RES LYS A 131
BEGIN_RES LYS A 135
REMARK  4 active torsions:
REMARK  status: ('A' for Active; 'I' for Inactive)
REMARK    5  A    between atoms: CA   and  CB  
REMARK    6  A    between atoms: CB   and  CG  
REMARK    7  A    between atoms: CG   and  CD  
REMARK    8  A    between atoms: CD   and  CE  
ROOT
ATOM      7  CA  LYS A 135      33.193  34.663   9.290  1.00 25.02     0.186 C 
ENDROOT
BRANCH   7   8
ATOM      8  CB  LYS A 135      32.060  35.360  10.034  1.00 26.63     0.034 C 
BRANCH   8   9
ATOM      9  CG  LYS A 135      30.799  35.497   9.220  1.00 29.45     0.005 C 
BRANCH   9  10
ATOM     10  CD  LYS A 135      30.066  34.167   9.138  1.00 32.00     0.041 C 
BRANCH  10  11
ATOM     11  CE  LYS A 135      28.625  34.378   8.714  1.00 34.25     0.338 C 
ATOM     12  NZ  LYS A 135      27.691  33.630   9.600  1.00 35.99     0.618 N 
ENDBRANCH  10  11
ENDBRANCH   9  10
ENDBRANCH   8   9
ENDBRANCH   7   8
END_RES LYS A 135
