REMARK VINA RESULT:    -5.174      2.556      6.628
REMARK INTER + INTRA:         -13.981
REMARK INTER:                  -7.303
REMARK INTRA:                  -6.678
REMARK UNBOUND:                -5.026
REMARK SMILES CC(=O)N[C@@H]1[C@@H](O)C[C@](O)(C(=O)O)O[C@H]1C(O)[C@H](O)CNC(=O)OCc1cn(C2CCCC2)nn1
REMARK SMILES IDX 20 1 18 2 16 3 15 4 9 5 8 6 14 7 6 8 5 9 10 10 11 12 12 13
REMARK SMILES IDX 13 14 7 16 4 18 2 19 1 21 3 22 17 23 19 25 21 27 22 28 23 30
REMARK SMILES IDX 24 31 25 32 26 33 27 34 35 35 28 36 34 37 29 38 30 39 33 40
REMARK SMILES IDX 31 41 32 42
REMARK H PARENT 10 11 13 15 7 17 4 20 17 24 19 26 21 29
REMARK Flexibility Score: inf
ROOT
ATOM      1  C   UNL     1      25.536  33.952  15.612  1.00  0.00     0.154 C 
ENDROOT
BRANCH   1   2
ATOM      2  C   UNL     1      25.257  32.504  15.904  1.00  0.00     0.165 C 
BRANCH   2   3
ATOM      3  C   UNL     1      26.472  31.730  15.430  1.00  0.00     0.176 C 
BRANCH   3   4
ATOM      4  C   UNL     1      27.656  31.916  16.325  1.00  0.00     0.178 C 
ATOM      5  C   UNL     1      29.586  33.186  16.515  1.00  0.00     0.269 C 
ATOM      6  C   UNL     1      29.729  32.311  17.750  1.00  0.00     0.112 C 
ATOM      7  O   UNL     1      28.656  32.587  15.662  1.00  0.00    -0.332 OA
ATOM      8  C   UNL     1      29.630  30.872  17.285  1.00  0.00     0.145 C 
ATOM      9  C   UNL     1      28.170  30.636  16.922  1.00  0.00     0.142 C 
BRANCH   5  10
ATOM     10  O   UNL     1      30.841  33.241  15.920  1.00  0.00    -0.357 OA
ATOM     11  H   UNL     1      31.447  33.724  16.563  1.00  0.00     0.214 HD
ENDBRANCH   5  10
BRANCH   5  12
ATOM     12  C   UNL     1      29.157  34.549  16.850  1.00  0.00     0.364 C 
ATOM     13  O   UNL     1      29.230  34.991  18.024  1.00  0.00    -0.246 OA
BRANCH  12  14
ATOM     14  O   UNL     1      28.656  35.394  15.874  1.00  0.00    -0.477 OA
ATOM     15  H   UNL     1      27.649  35.485  15.690  1.00  0.00     0.296 HD
ENDBRANCH  12  14
ENDBRANCH   5  12
BRANCH   8  16
ATOM     16  O   UNL     1      30.422  30.764  16.130  1.00  0.00    -0.391 OA
ATOM     17  H   UNL     1      31.362  30.929  16.407  1.00  0.00     0.211 HD
ENDBRANCH   8  16
BRANCH   9  18
ATOM     18  N   UNL     1      27.448  30.263  18.123  1.00  0.00    -0.348 N 
ATOM     19  C   UNL     1      26.943  28.955  18.288  1.00  0.00     0.217 C 
ATOM     20  H   UNL     1      27.298  30.958  18.875  1.00  0.00     0.163 HD
ATOM     21  C   UNL     1      26.197  28.505  19.490  1.00  0.00     0.114 C 
ATOM     22  O   UNL     1      27.134  28.127  17.369  1.00  0.00    -0.275 OA
ENDBRANCH   9  18
ENDBRANCH   3   4
BRANCH   3  23
ATOM     23  O   UNL     1      26.119  30.380  15.462  1.00  0.00    -0.388 OA
ATOM     24  H   UNL     1      26.854  29.787  15.713  1.00  0.00     0.211 HD
ENDBRANCH   3  23
ENDBRANCH   2   3
BRANCH   2  25
ATOM     25  O   UNL     1      24.133  32.051  15.254  1.00  0.00    -0.388 OA
ATOM     26  H   UNL     1      23.585  31.509  15.883  1.00  0.00     0.211 HD
ENDBRANCH   2  25
ENDBRANCH   1   2
BRANCH   1  27
ATOM     27  N   UNL     1      26.209  34.222  14.381  1.00  0.00    -0.319 N 
ATOM     28  C   UNL     1      25.603  34.436  13.138  1.00  0.00     0.407 C 
ATOM     29  H   UNL     1      27.277  34.261  14.427  1.00  0.00     0.167 HD
ATOM     30  O   UNL     1      24.356  34.393  13.029  1.00  0.00    -0.225 OA
BRANCH  28  31
ATOM     31  O   UNL     1      26.388  34.702  12.000  1.00  0.00    -0.443 OA
BRANCH  31  32
ATOM     32  C   UNL     1      27.170  35.882  12.014  1.00  0.00     0.294 C 
BRANCH  32  33
ATOM     33  C   UNL     1      28.524  35.537  12.499  1.00  0.00     0.120 A 
ATOM     34  C   UNL     1      29.547  36.463  12.649  1.00  0.00     0.138 A 
ATOM     35  N   UNL     1      29.033  34.368  12.870  1.00  0.00    -0.132 NA
ATOM     36  N   UNL     1      30.619  35.813  13.101  1.00  0.00    -0.249 N 
ATOM     37  N   UNL     1      30.294  34.541  13.230  1.00  0.00    -0.067 NA
BRANCH  36  38
ATOM     38  C   UNL     1      31.897  36.457  13.382  1.00  0.00     0.109 C 
ATOM     39  C   UNL     1      32.011  36.612  14.872  1.00  0.00     0.027 C 
ATOM     40  C   UNL     1      33.014  35.536  12.944  1.00  0.00     0.027 C 
ATOM     41  C   UNL     1      33.274  35.926  15.281  1.00  0.00     0.002 C 
ATOM     42  C   UNL     1      33.473  34.870  14.229  1.00  0.00     0.002 C 
ENDBRANCH  36  38
ENDBRANCH  32  33
ENDBRANCH  31  32
ENDBRANCH  28  31
ENDBRANCH   1  27
TORSDOF 15
BEGIN_RES LYS A 131
REMARK  4 active torsions:
REMARK  status: ('A' for Active; 'I' for Inactive)
REMARK    1  A    between atoms: CA   and  CB  
REMARK    2  A    between atoms: CB   and  CG  
REMARK    3  A    between atoms: CG   and  CD  
REMARK    4  A    between atoms: CD   and  CE  
ROOT
ATOM      1  CA  LYS A 131      29.867  25.555  16.977  1.00 20.52     0.186 C 
ENDROOT
BRANCH   1   2
ATOM      2  CB  LYS A 131      28.345  25.722  17.026  1.00 20.94     0.034 C 
BRANCH   2   3
ATOM      3  CG  LYS A 131      27.601  24.402  16.892  1.00 22.96     0.005 C 
BRANCH   3   4
ATOM      4  CD  LYS A 131      26.151  24.528  17.268  1.00 24.33     0.041 C 
BRANCH   4   5
ATOM      5  CE  LYS A 131      26.035  24.779  18.768  1.00 26.91     0.338 C 
ATOM      6  NZ  LYS A 131      25.525  23.571  19.458  1.00 27.40     0.618 N 
ENDBRANCH   4   5
ENDBRANCH   3   4
ENDBRANCH   2   3
ENDBRANCH   1   2
END_RES LYS A 131
BEGIN_RES LYS A 135
REMARK  4 active torsions:
REMARK  status: ('A' for Active; 'I' for Inactive)
REMARK    5  A    between atoms: CA   and  CB  
REMARK    6  A    between atoms: CB   and  CG  
REMARK    7  A    between atoms: CG   and  CD  
REMARK    8  A    between atoms: CD   and  CE  
ROOT
ATOM      7  CA  LYS A 135      33.193  34.663   9.290  1.00 25.02     0.186 C 
ENDROOT
BRANCH   7   8
ATOM      8  CB  LYS A 135      32.060  35.360  10.034  1.00 26.63     0.034 C 
BRANCH   8   9
ATOM      9  CG  LYS A 135      30.791  35.475   9.229  1.00 29.45     0.005 C 
BRANCH   9  10
ATOM     10  CD  LYS A 135      30.259  34.097   8.866  1.00 32.00     0.041 C 
BRANCH  10  11
ATOM     11  CE  LYS A 135      28.777  34.001   9.171  1.00 34.25     0.338 C 
ATOM     12  NZ  LYS A 135      27.971  34.727   8.151  1.00 35.99     0.618 N 
ENDBRANCH  10  11
ENDBRANCH   9  10
ENDBRANCH   8   9
ENDBRANCH   7   8
END_RES LYS A 135
