REMARK VINA RESULT:    -4.001      3.968      8.824
REMARK INTER + INTRA:         -15.531
REMARK INTER:                  -9.053
REMARK INTRA:                  -6.478
REMARK UNBOUND:                -7.438
REMARK SMILES CC(=O)N[C@@H]1[C@@H](O)C[C@](O)(C(=O)O)O[C@H]1C(O)[C@H](O)CNC(=O)OCc1cn([C@@H](CCC(=O)O)C(=O)O)nn1
REMARK SMILES IDX 24 1 22 2 21 3 23 5 20 6 18 7 16 8 15 9 9 10 8 11 14 12 6 13
REMARK SMILES IDX 5 14 10 15 11 17 12 18 13 19 7 21 4 23 2 24 1 26 3 27 17 28
REMARK SMILES IDX 19 30 25 32 26 33 27 34 39 35 28 36 38 37 29 38 30 39 31 40
REMARK SMILES IDX 32 41 33 42 34 43 35 45 36 46 37 47
REMARK H PARENT 21 4 10 16 13 20 7 22 4 25 17 29 19 31 34 44 37 48
REMARK Flexibility Score: inf
ROOT
ATOM      1  O   UNL     1      31.480  32.905  16.670  1.00  0.00    -0.443 OA
ENDROOT
BRANCH   1   2
ATOM      2  C   UNL     1      32.049  34.065  16.131  1.00  0.00     0.407 C 
ATOM      3  N   UNL     1      32.653  34.094  14.866  1.00  0.00    -0.319 N 
ATOM      4  H   UNL     1      32.660  33.158  14.339  1.00  0.00     0.167 HD
ATOM      5  O   UNL     1      31.996  35.088  16.833  1.00  0.00    -0.225 OA
BRANCH   3   6
ATOM      6  C   UNL     1      33.252  35.225  14.216  1.00  0.00     0.154 C 
BRANCH   6   7
ATOM      7  C   UNL     1      32.388  35.765  13.146  1.00  0.00     0.165 C 
BRANCH   7   8
ATOM      8  C   UNL     1      31.060  35.041  13.022  1.00  0.00     0.176 C 
BRANCH   8   9
ATOM      9  C   UNL     1      29.937  36.039  12.727  1.00  0.00     0.178 C 
ATOM     10  C   UNL     1      29.442  37.152  14.726  1.00  0.00     0.269 C 
ATOM     11  C   UNL     1      28.684  35.903  15.076  1.00  0.00     0.112 C 
ATOM     12  O   UNL     1      29.997  37.163  13.483  1.00  0.00    -0.332 OA
ATOM     13  C   UNL     1      27.898  35.297  13.969  1.00  0.00     0.145 C 
ATOM     14  C   UNL     1      28.605  35.354  12.646  1.00  0.00     0.142 C 
BRANCH  10  15
ATOM     15  O   UNL     1      30.477  37.248  15.657  1.00  0.00    -0.357 OA
ATOM     16  H   UNL     1      31.330  37.478  15.235  1.00  0.00     0.214 HD
ENDBRANCH  10  15
BRANCH  10  17
ATOM     17  C   UNL     1      28.568  38.337  14.908  1.00  0.00     0.364 C 
ATOM     18  O   UNL     1      28.009  38.541  16.012  1.00  0.00    -0.246 OA
BRANCH  17  19
ATOM     19  O   UNL     1      28.338  39.251  13.884  1.00  0.00    -0.477 OA
ATOM     20  H   UNL     1      27.760  38.921  13.111  1.00  0.00     0.296 HD
ENDBRANCH  17  19
ENDBRANCH  10  17
BRANCH  13  21
ATOM     21  O   UNL     1      27.657  33.963  14.294  1.00  0.00    -0.391 OA
ATOM     22  H   UNL     1      27.566  33.844  15.277  1.00  0.00     0.211 HD
ENDBRANCH  13  21
BRANCH  14  23
ATOM     23  N   UNL     1      27.830  36.001  11.627  1.00  0.00    -0.348 N 
ATOM     24  C   UNL     1      26.751  35.309  11.023  1.00  0.00     0.217 C 
ATOM     25  H   UNL     1      28.062  36.992  11.326  1.00  0.00     0.163 HD
ATOM     26  C   UNL     1      25.951  35.971   9.972  1.00  0.00     0.114 C 
ATOM     27  O   UNL     1      26.438  34.131  11.346  1.00  0.00    -0.275 OA
ENDBRANCH  14  23
ENDBRANCH   8   9
BRANCH   8  28
ATOM     28  O   UNL     1      31.138  34.124  11.993  1.00  0.00    -0.388 OA
ATOM     29  H   UNL     1      30.351  34.244  11.403  1.00  0.00     0.211 HD
ENDBRANCH   8  28
ENDBRANCH   7   8
BRANCH   7  30
ATOM     30  O   UNL     1      33.031  35.917  11.961  1.00  0.00    -0.388 OA
ATOM     31  H   UNL     1      32.641  35.433  11.199  1.00  0.00     0.211 HD
ENDBRANCH   7  30
ENDBRANCH   6   7
ENDBRANCH   3   6
ENDBRANCH   1   2
BRANCH   1  32
ATOM     32  C   UNL     1      30.944  31.914  15.798  1.00  0.00     0.294 C 
BRANCH  32  33
ATOM     33  C   UNL     1      29.533  31.661  16.054  1.00  0.00     0.120 A 
ATOM     34  C   UNL     1      28.758  30.622  15.615  1.00  0.00     0.139 A 
ATOM     35  N   UNL     1      28.711  32.424  16.792  1.00  0.00    -0.132 NA
ATOM     36  N   UNL     1      27.507  30.758  16.077  1.00  0.00    -0.238 N 
ATOM     37  N   UNL     1      27.513  31.867  16.791  1.00  0.00    -0.066 NA
BRANCH  36  38
ATOM     38  C   UNL     1      26.325  29.934  15.897  1.00  0.00     0.219 C 
BRANCH  38  39
ATOM     39  C   UNL     1      25.974  29.246  17.165  1.00  0.00     0.051 C 
BRANCH  39  40
ATOM     40  C   UNL     1      26.764  28.037  17.497  1.00  0.00     0.125 C 
BRANCH  40  41
ATOM     41  C   UNL     1      27.595  28.183  18.691  1.00  0.00     0.303 C 
ATOM     42  O   UNL     1      27.646  27.268  19.585  1.00  0.00    -0.252 OA
BRANCH  41  43
ATOM     43  O   UNL     1      28.354  29.341  18.874  1.00  0.00    -0.481 OA
ATOM     44  H   UNL     1      28.445  29.691  19.817  1.00  0.00     0.296 HD
ENDBRANCH  41  43
ENDBRANCH  40  41
ENDBRANCH  39  40
ENDBRANCH  38  39
BRANCH  38  45
ATOM     45  C   UNL     1      25.254  30.598  15.174  1.00  0.00     0.328 C 
ATOM     46  O   UNL     1      24.176  30.099  14.855  1.00  0.00    -0.250 OA
BRANCH  45  47
ATOM     47  O   UNL     1      25.477  31.936  14.798  1.00  0.00    -0.480 OA
ATOM     48  H   UNL     1      26.295  32.154  14.256  1.00  0.00     0.296 HD
ENDBRANCH  45  47
ENDBRANCH  38  45
ENDBRANCH  36  38
ENDBRANCH  32  33
ENDBRANCH   1  32
TORSDOF 21
BEGIN_RES LYS A 131
REMARK  4 active torsions:
REMARK  status: ('A' for Active; 'I' for Inactive)
REMARK    1  A    between atoms: CA   and  CB  
REMARK    2  A    between atoms: CB   and  CG  
REMARK    3  A    between atoms: CG   and  CD  
REMARK    4  A    between atoms: CD   and  CE  
ROOT
ATOM      1  CA  LYS A 131      29.867  25.555  16.977  1.00 20.52     0.186 C 
ENDROOT
BRANCH   1   2
ATOM      2  CB  LYS A 131      28.345  25.722  17.026  1.00 20.94     0.034 C 
BRANCH   2   3
ATOM      3  CG  LYS A 131      27.602  24.400  16.914  1.00 22.96     0.005 C 
BRANCH   3   4
ATOM      4  CD  LYS A 131      26.530  24.262  17.960  1.00 24.33     0.041 C 
BRANCH   4   5
ATOM      5  CE  LYS A 131      25.192  24.710  17.380  1.00 26.91     0.338 C 
ATOM      6  NZ  LYS A 131      24.380  25.392  18.415  1.00 27.40     0.618 N 
ENDBRANCH   4   5
ENDBRANCH   3   4
ENDBRANCH   2   3
ENDBRANCH   1   2
END_RES LYS A 131
BEGIN_RES LYS A 135
REMARK  4 active torsions:
REMARK  status: ('A' for Active; 'I' for Inactive)
REMARK    5  A    between atoms: CA   and  CB  
REMARK    6  A    between atoms: CB   and  CG  
REMARK    7  A    between atoms: CG   and  CD  
REMARK    8  A    between atoms: CD   and  CE  
ROOT
ATOM      7  CA  LYS A 135      33.193  34.663   9.290  1.00 25.02     0.186 C 
ENDROOT
BRANCH   7   8
ATOM      8  CB  LYS A 135      32.060  35.360  10.034  1.00 26.63     0.034 C 
BRANCH   8   9
ATOM      9  CG  LYS A 135      30.886  35.707   9.155  1.00 29.45     0.005 C 
BRANCH   9  10
ATOM     10  CD  LYS A 135      30.094  34.458   8.800  1.00 32.00     0.041 C 
BRANCH  10  11
ATOM     11  CE  LYS A 135      28.914  34.809   7.914  1.00 34.25     0.338 C 
ATOM     12  NZ  LYS A 135      28.818  36.281   7.708  1.00 35.99     0.618 N 
ENDBRANCH  10  11
ENDBRANCH   9  10
ENDBRANCH   8   9
ENDBRANCH   7   8
END_RES LYS A 135
