REMARK VINA RESULT:    -4.280      6.897     12.053
REMARK INTER + INTRA:         -13.928
REMARK INTER:                  -6.066
REMARK INTRA:                  -7.862
REMARK UNBOUND:                -6.145
REMARK SMILES CC(=O)N[C@@H]1[C@@H](O)C[C@](O)(C(=O)O)O[C@H]1C(O)[C@H](O)CNC(=O)OCc1cn(C(C)(C)CO)nn1
REMARK SMILES IDX 21 1 22 2 23 3 20 5 18 6 16 7 15 8 9 9 8 10 14 11 6 12 5 13
REMARK SMILES IDX 10 14 11 16 12 17 13 18 7 20 4 22 2 23 1 25 3 26 17 27 19 29
REMARK SMILES IDX 24 31 25 32 26 33 27 34 35 35 28 36 34 37 29 38 30 39 31 40
REMARK SMILES IDX 32 41 33 42
REMARK H PARENT 21 4 10 15 13 19 7 21 4 24 17 28 19 30 33 43
REMARK Flexibility Score: inf
ROOT
ATOM      1  N   UNL     1      30.582  35.323  20.557  1.00  0.00    -0.319 N 
ATOM      2  C   UNL     1      31.738  35.820  19.873  1.00  0.00     0.407 C 
ATOM      3  O   UNL     1      32.742  35.069  19.631  1.00  0.00    -0.225 OA
ATOM      4  H   UNL     1      29.790  35.972  20.717  1.00  0.00     0.167 HD
ENDROOT
BRANCH   1   5
ATOM      5  C   UNL     1      30.547  33.940  20.983  1.00  0.00     0.154 C 
BRANCH   5   6
ATOM      6  C   UNL     1      29.859  33.052  20.022  1.00  0.00     0.165 C 
BRANCH   6   7
ATOM      7  C   UNL     1      30.676  32.358  18.998  1.00  0.00     0.176 C 
BRANCH   7   8
ATOM      8  C   UNL     1      30.230  30.928  18.809  1.00  0.00     0.178 C 
ATOM      9  C   UNL     1      28.436  31.120  17.280  1.00  0.00     0.269 C 
ATOM     10  C   UNL     1      27.462  30.704  18.398  1.00  0.00     0.112 C 
ATOM     11  O   UNL     1      29.718  30.756  17.540  1.00  0.00    -0.332 OA
ATOM     12  C   UNL     1      28.184  29.660  19.183  1.00  0.00     0.145 C 
ATOM     13  C   UNL     1      29.354  30.392  19.900  1.00  0.00     0.142 C 
BRANCH   9  14
ATOM     14  O   UNL     1      28.226  32.452  16.987  1.00  0.00    -0.357 OA
ATOM     15  H   UNL     1      27.533  32.823  17.584  1.00  0.00     0.214 HD
ENDBRANCH   9  14
BRANCH   9  16
ATOM     16  C   UNL     1      28.032  30.334  16.049  1.00  0.00     0.364 C 
ATOM     17  O   UNL     1      26.833  30.277  15.689  1.00  0.00    -0.246 OA
BRANCH  16  18
ATOM     18  O   UNL     1      29.021  29.687  15.341  1.00  0.00    -0.477 OA
ATOM     19  H   UNL     1      29.388  30.066  14.474  1.00  0.00     0.296 HD
ENDBRANCH  16  18
ENDBRANCH   9  16
BRANCH  12  20
ATOM     20  O   UNL     1      27.393  29.015  20.113  1.00  0.00    -0.391 OA
ATOM     21  H   UNL     1      26.898  28.304  19.627  1.00  0.00     0.211 HD
ENDBRANCH  12  20
BRANCH  13  22
ATOM     22  N   UNL     1      29.980  29.292  20.651  1.00  0.00    -0.348 N 
ATOM     23  C   UNL     1      30.676  29.477  21.850  1.00  0.00     0.217 C 
ATOM     24  H   UNL     1      29.883  28.337  20.248  1.00  0.00     0.163 HD
ATOM     25  C   UNL     1      31.319  28.383  22.622  1.00  0.00     0.114 C 
ATOM     26  O   UNL     1      30.772  30.646  22.316  1.00  0.00    -0.275 OA
ENDBRANCH  13  22
ENDBRANCH   7   8
BRANCH   7  27
ATOM     27  O   UNL     1      31.041  33.036  17.883  1.00  0.00    -0.388 OA
ATOM     28  H   UNL     1      31.999  32.952  17.636  1.00  0.00     0.211 HD
ENDBRANCH   7  27
ENDBRANCH   6   7
BRANCH   6  29
ATOM     29  O   UNL     1      28.845  33.779  19.357  1.00  0.00    -0.388 OA
ATOM     30  H   UNL     1      28.471  33.198  18.659  1.00  0.00     0.211 HD
ENDBRANCH   6  29
ENDBRANCH   5   6
ENDBRANCH   1   5
BRANCH   2  31
ATOM     31  O   UNL     1      31.744  37.134  19.481  1.00  0.00    -0.443 OA
BRANCH  31  32
ATOM     32  C   UNL     1      30.925  37.639  18.468  1.00  0.00     0.294 C 
BRANCH  32  33
ATOM     33  C   UNL     1      30.549  36.580  17.496  1.00  0.00     0.120 A 
ATOM     34  C   UNL     1      31.304  36.220  16.408  1.00  0.00     0.139 A 
ATOM     35  N   UNL     1      29.466  35.804  17.478  1.00  0.00    -0.132 NA
ATOM     36  N   UNL     1      30.668  35.241  15.757  1.00  0.00    -0.244 N 
ATOM     37  N   UNL     1      29.544  35.006  16.437  1.00  0.00    -0.066 NA
BRANCH  36  38
ATOM     38  C   UNL     1      31.134  34.589  14.560  1.00  0.00     0.082 C 
ATOM     39  C   UNL     1      32.589  34.196  14.694  1.00  0.00     0.039 C 
ATOM     40  C   UNL     1      30.952  35.543  13.386  1.00  0.00     0.039 C 
BRANCH  38  41
ATOM     41  C   UNL     1      30.280  33.380  14.275  1.00  0.00     0.186 C 
BRANCH  41  42
ATOM     42  O   UNL     1      30.695  32.305  15.066  1.00  0.00    -0.394 OA
ATOM     43  H   UNL     1      30.058  31.557  14.938  1.00  0.00     0.210 HD
ENDBRANCH  41  42
ENDBRANCH  38  41
ENDBRANCH  36  38
ENDBRANCH  32  33
ENDBRANCH  31  32
ENDBRANCH   2  31
TORSDOF 17
BEGIN_RES LYS A 131
REMARK  4 active torsions:
REMARK  status: ('A' for Active; 'I' for Inactive)
REMARK    1  A    between atoms: CA   and  CB  
REMARK    2  A    between atoms: CB   and  CG  
REMARK    3  A    between atoms: CG   and  CD  
REMARK    4  A    between atoms: CD   and  CE  
ROOT
ATOM      1  CA  LYS A 131      29.867  25.555  16.977  1.00 20.52     0.186 C 
ENDROOT
BRANCH   1   2
ATOM      2  CB  LYS A 131      28.345  25.722  17.026  1.00 20.94     0.034 C 
BRANCH   2   3
ATOM      3  CG  LYS A 131      27.601  24.403  16.886  1.00 22.96     0.005 C 
BRANCH   3   4
ATOM      4  CD  LYS A 131      26.538  24.237  17.937  1.00 24.33     0.041 C 
BRANCH   4   5
ATOM      5  CE  LYS A 131      25.162  24.302  17.283  1.00 26.91     0.338 C 
ATOM      6  NZ  LYS A 131      24.541  22.956  17.247  1.00 27.40     0.618 N 
ENDBRANCH   4   5
ENDBRANCH   3   4
ENDBRANCH   2   3
ENDBRANCH   1   2
END_RES LYS A 131
BEGIN_RES LYS A 135
REMARK  4 active torsions:
REMARK  status: ('A' for Active; 'I' for Inactive)
REMARK    5  A    between atoms: CA   and  CB  
REMARK    6  A    between atoms: CB   and  CG  
REMARK    7  A    between atoms: CG   and  CD  
REMARK    8  A    between atoms: CD   and  CE  
ROOT
ATOM      7  CA  LYS A 135      33.193  34.663   9.290  1.00 25.02     0.186 C 
ENDROOT
BRANCH   7   8
ATOM      8  CB  LYS A 135      32.060  35.360  10.034  1.00 26.63     0.034 C 
BRANCH   8   9
ATOM      9  CG  LYS A 135      30.706  34.752   9.775  1.00 29.45     0.005 C 
BRANCH   9  10
ATOM     10  CD  LYS A 135      30.501  34.509   8.288  1.00 32.00     0.041 C 
BRANCH  10  11
ATOM     11  CE  LYS A 135      29.108  34.934   7.866  1.00 34.25     0.338 C 
ATOM     12  NZ  LYS A 135      28.320  35.422   9.031  1.00 35.99     0.618 N 
ENDBRANCH  10  11
ENDBRANCH   9  10
ENDBRANCH   8   9
ENDBRANCH   7   8
END_RES LYS A 135
