REMARK VINA RESULT:    -4.380      7.324     11.557
REMARK INTER + INTRA:         -14.110
REMARK INTER:                  -8.482
REMARK INTRA:                  -5.628
REMARK UNBOUND:                -6.145
REMARK SMILES CC(=O)N[C@@H]1[C@@H](O)C[C@](O)(C(=O)O)O[C@H]1C(O)[C@H](O)CNC(=O)OCc1cn(C(C)(C)CO)nn1
REMARK SMILES IDX 21 1 22 2 23 3 20 5 18 6 16 7 15 8 9 9 8 10 14 11 6 12 5 13
REMARK SMILES IDX 10 14 11 16 12 17 13 18 7 20 4 22 2 23 1 25 3 26 17 27 19 29
REMARK SMILES IDX 24 31 25 32 26 33 27 34 35 35 28 36 34 37 29 38 30 39 31 40
REMARK SMILES IDX 32 41 33 42
REMARK H PARENT 21 4 10 15 13 19 7 21 4 24 17 28 19 30 33 43
REMARK Flexibility Score: inf
ROOT
ATOM      1  N   UNL     1      17.477  32.842   8.700  1.00  0.00    -0.319 N 
ATOM      2  C   UNL     1      17.155  31.658   7.962  1.00  0.00     0.407 C 
ATOM      3  O   UNL     1      16.830  31.713   6.728  1.00  0.00    -0.225 OA
ATOM      4  H   UNL     1      17.747  32.740   9.697  1.00  0.00     0.167 HD
ENDROOT
BRANCH   1   5
ATOM      5  C   UNL     1      17.437  34.129   8.038  1.00  0.00     0.154 C 
BRANCH   5   6
ATOM      6  C   UNL     1      18.756  34.794   7.980  1.00  0.00     0.165 C 
BRANCH   6   7
ATOM      7  C   UNL     1      18.816  36.256   8.216  1.00  0.00     0.176 C 
BRANCH   7   8
ATOM      8  C   UNL     1      19.825  36.605   9.283  1.00  0.00     0.178 C 
ATOM      9  C   UNL     1      21.839  36.838   8.065  1.00  0.00     0.269 C 
ATOM     10  C   UNL     1      22.375  35.562   8.741  1.00  0.00     0.112 C 
ATOM     11  O   UNL     1      20.816  37.405   8.755  1.00  0.00    -0.332 OA
ATOM     12  C   UNL     1      21.881  35.621  10.147  1.00  0.00     0.145 C 
ATOM     13  C   UNL     1      20.338  35.437  10.070  1.00  0.00     0.142 C 
BRANCH   9  14
ATOM     14  O   UNL     1      21.602  36.564   6.734  1.00  0.00    -0.357 OA
ATOM     15  H   UNL     1      21.186  37.345   6.298  1.00  0.00     0.214 HD
ENDBRANCH   9  14
BRANCH   9  16
ATOM     16  C   UNL     1      22.968  37.848   8.108  1.00  0.00     0.364 C 
ATOM     17  O   UNL     1      23.064  38.665   9.054  1.00  0.00    -0.246 OA
BRANCH  16  18
ATOM     18  O   UNL     1      23.883  37.840   7.077  1.00  0.00    -0.477 OA
ATOM     19  H   UNL     1      23.659  38.223   6.165  1.00  0.00     0.296 HD
ENDBRANCH  16  18
ENDBRANCH   9  16
BRANCH  12  20
ATOM     20  O   UNL     1      22.428  34.660  10.973  1.00  0.00    -0.391 OA
ATOM     21  H   UNL     1      21.669  34.171  11.389  1.00  0.00     0.211 HD
ENDBRANCH  12  20
BRANCH  13  22
ATOM     22  N   UNL     1      19.959  35.490  11.491  1.00  0.00    -0.348 N 
ATOM     23  C   UNL     1      18.983  34.664  12.059  1.00  0.00     0.217 C 
ATOM     24  H   UNL     1      20.458  36.186  12.082  1.00  0.00     0.163 HD
ATOM     25  C   UNL     1      18.581  34.704  13.488  1.00  0.00     0.114 C 
ATOM     26  O   UNL     1      18.398  33.826  11.317  1.00  0.00    -0.275 OA
ENDBRANCH  13  22
ENDBRANCH   7   8
BRANCH   7  27
ATOM     27  O   UNL     1      18.738  37.094   7.154  1.00  0.00    -0.388 OA
ATOM     28  H   UNL     1      19.467  36.996   6.488  1.00  0.00     0.211 HD
ENDBRANCH   7  27
ENDBRANCH   6   7
BRANCH   6  29
ATOM     29  O   UNL     1      19.359  34.525   6.730  1.00  0.00    -0.388 OA
ATOM     30  H   UNL     1      20.136  33.945   6.894  1.00  0.00     0.211 HD
ENDBRANCH   6  29
ENDBRANCH   5   6
ENDBRANCH   1   5
BRANCH   2  31
ATOM     31  O   UNL     1      17.202  30.453   8.614  1.00  0.00    -0.443 OA
BRANCH  31  32
ATOM     32  C   UNL     1      16.829  30.285   9.950  1.00  0.00     0.294 C 
BRANCH  32  33
ATOM     33  C   UNL     1      17.948  29.737  10.759  1.00  0.00     0.120 A 
ATOM     34  C   UNL     1      18.820  30.498  11.498  1.00  0.00     0.139 A 
ATOM     35  N   UNL     1      18.318  28.467  10.926  1.00  0.00    -0.132 NA
ATOM     36  N   UNL     1      19.694  29.680  12.094  1.00  0.00    -0.244 N 
ATOM     37  N   UNL     1      19.361  28.441  11.726  1.00  0.00    -0.066 NA
BRANCH  36  38
ATOM     38  C   UNL     1      20.771  30.090  12.958  1.00  0.00     0.082 C 
ATOM     39  C   UNL     1      22.105  29.630  12.409  1.00  0.00     0.039 C 
ATOM     40  C   UNL     1      20.538  29.497  14.341  1.00  0.00     0.039 C 
BRANCH  38  41
ATOM     41  C   UNL     1      20.751  31.589  13.118  1.00  0.00     0.186 C 
BRANCH  41  42
ATOM     42  O   UNL     1      21.632  32.179  12.207  1.00  0.00    -0.394 OA
ATOM     43  H   UNL     1      21.172  32.943  11.775  1.00  0.00     0.210 HD
ENDBRANCH  41  42
ENDBRANCH  38  41
ENDBRANCH  36  38
ENDBRANCH  32  33
ENDBRANCH  31  32
ENDBRANCH   2  31
TORSDOF 17
BEGIN_RES LYS A 131
REMARK  4 active torsions:
REMARK  status: ('A' for Active; 'I' for Inactive)
REMARK    1  A    between atoms: CA   and  CB  
REMARK    2  A    between atoms: CB   and  CG  
REMARK    3  A    between atoms: CG   and  CD  
REMARK    4  A    between atoms: CD   and  CE  
ROOT
ATOM      1  CA  LYS A 131      29.867  25.555  16.977  1.00 20.52     0.186 C 
ENDROOT
BRANCH   1   2
ATOM      2  CB  LYS A 131      28.345  25.722  17.026  1.00 20.94     0.034 C 
BRANCH   2   3
ATOM      3  CG  LYS A 131      27.601  24.403  16.887  1.00 22.96     0.005 C 
BRANCH   3   4
ATOM      4  CD  LYS A 131      26.537  24.239  17.937  1.00 24.33     0.041 C 
BRANCH   4   5
ATOM      5  CE  LYS A 131      25.161  24.337  17.286  1.00 26.91     0.338 C 
ATOM      6  NZ  LYS A 131      24.501  25.611  17.655  1.00 27.40     0.618 N 
ENDBRANCH   4   5
ENDBRANCH   3   4
ENDBRANCH   2   3
ENDBRANCH   1   2
END_RES LYS A 131
BEGIN_RES LYS A 135
REMARK  4 active torsions:
REMARK  status: ('A' for Active; 'I' for Inactive)
REMARK    5  A    between atoms: CA   and  CB  
REMARK    6  A    between atoms: CB   and  CG  
REMARK    7  A    between atoms: CG   and  CD  
REMARK    8  A    between atoms: CD   and  CE  
ROOT
ATOM      7  CA  LYS A 135      33.193  34.663   9.290  1.00 25.02     0.186 C 
ENDROOT
BRANCH   7   8
ATOM      8  CB  LYS A 135      32.060  35.360  10.034  1.00 26.63     0.034 C 
BRANCH   8   9
ATOM      9  CG  LYS A 135      30.802  35.505   9.217  1.00 29.45     0.005 C 
BRANCH   9  10
ATOM     10  CD  LYS A 135      29.871  34.326   9.451  1.00 32.00     0.041 C 
BRANCH  10  11
ATOM     11  CE  LYS A 135      28.453  34.808   9.692  1.00 34.25     0.338 C 
ATOM     12  NZ  LYS A 135      27.467  33.721   9.438  1.00 35.99     0.618 N 
ENDBRANCH  10  11
ENDBRANCH   9  10
ENDBRANCH   8   9
ENDBRANCH   7   8
END_RES LYS A 135
