REMARK VINA RESULT:    -5.191      0.000      0.000
REMARK INTER + INTRA:         -15.583
REMARK INTER:                 -10.227
REMARK INTRA:                  -5.355
REMARK UNBOUND:                -6.295
REMARK SMILES CC(=O)N[C@@H]1[C@@H](O)C[C@](O)(C(=O)O)O[C@H]1C(O)[C@H](O)CNC(=O)OCc1cn(Cc2cccc(Br)c2)nn1
REMARK SMILES IDX 21 1 22 2 23 3 20 5 18 6 16 7 15 8 9 9 8 10 14 11 6 12 5 13
REMARK SMILES IDX 10 14 11 16 12 17 13 18 7 20 4 22 2 23 1 25 3 26 17 27 19 29
REMARK SMILES IDX 24 31 25 32 26 33 27 34 38 35 28 36 37 37 29 38 30 39 31 40
REMARK SMILES IDX 36 41 32 42 34 43 33 44 35 45
REMARK H PARENT 21 4 10 15 13 19 7 21 4 24 17 28 19 30
REMARK Flexibility Score: inf
ROOT
ATOM      1  N   UNL     1      29.110  30.746  18.174  1.00  0.00    -0.319 N 
ATOM      2  C   UNL     1      28.184  30.085  17.333  1.00  0.00     0.407 C 
ATOM      3  O   UNL     1      28.491  29.793  16.131  1.00  0.00    -0.225 OA
ATOM      4  H   UNL     1      28.817  30.965  19.150  1.00  0.00     0.167 HD
ENDROOT
BRANCH   1   5
ATOM      5  C   UNL     1      30.395  31.067  17.615  1.00  0.00     0.154 C 
BRANCH   5   6
ATOM      6  C   UNL     1      30.451  32.530  17.151  1.00  0.00     0.165 C 
BRANCH   6   7
ATOM      7  C   UNL     1      31.050  32.497  15.789  1.00  0.00     0.176 C 
BRANCH   7   8
ATOM      8  C   UNL     1      31.285  33.828  15.136  1.00  0.00     0.178 C 
ATOM      9  C   UNL     1      33.116  35.239  14.800  1.00  0.00     0.269 C 
ATOM     10  C   UNL     1      32.143  36.402  14.847  1.00  0.00     0.112 C 
ATOM     11  O   UNL     1      32.596  34.171  15.488  1.00  0.00    -0.332 OA
ATOM     12  C   UNL     1      31.044  36.147  15.866  1.00  0.00     0.145 C 
ATOM     13  C   UNL     1      30.287  34.885  15.411  1.00  0.00     0.142 C 
BRANCH   9  14
ATOM     14  O   UNL     1      34.233  35.662  15.554  1.00  0.00    -0.357 OA
ATOM     15  H   UNL     1      34.528  36.557  15.302  1.00  0.00     0.214 HD
ENDBRANCH   9  14
BRANCH   9  16
ATOM     16  C   UNL     1      33.584  34.949  13.443  1.00  0.00     0.364 C 
ATOM     17  O   UNL     1      33.108  35.570  12.465  1.00  0.00    -0.246 OA
BRANCH  16  18
ATOM     18  O   UNL     1      34.554  33.996  13.167  1.00  0.00    -0.477 OA
ATOM     19  H   UNL     1      34.285  33.130  12.743  1.00  0.00     0.296 HD
ENDBRANCH  16  18
ENDBRANCH   9  16
BRANCH  12  20
ATOM     20  O   UNL     1      31.548  36.022  17.134  1.00  0.00    -0.391 OA
ATOM     21  H   UNL     1      32.556  36.013  17.081  1.00  0.00     0.211 HD
ENDBRANCH  12  20
BRANCH  13  22
ATOM     22  N   UNL     1      29.597  35.311  14.187  1.00  0.00    -0.348 N 
ATOM     23  C   UNL     1      28.379  34.709  13.774  1.00  0.00     0.217 C 
ATOM     24  H   UNL     1      29.967  36.066  13.569  1.00  0.00     0.163 HD
ATOM     25  C   UNL     1      27.690  35.161  12.512  1.00  0.00     0.114 C 
ATOM     26  O   UNL     1      27.843  33.800  14.428  1.00  0.00    -0.275 OA
ENDBRANCH  13  22
ENDBRANCH   7   8
BRANCH   7  27
ATOM     27  O   UNL     1      30.093  31.853  14.962  1.00  0.00    -0.388 OA
ATOM     28  H   UNL     1      29.272  31.796  15.529  1.00  0.00     0.211 HD
ENDBRANCH   7  27
ENDBRANCH   6   7
BRANCH   6  29
ATOM     29  O   UNL     1      31.217  33.197  18.103  1.00  0.00    -0.388 OA
ATOM     30  H   UNL     1      30.961  32.869  18.992  1.00  0.00     0.211 HD
ENDBRANCH   6  29
ENDBRANCH   5   6
ENDBRANCH   1   5
BRANCH   2  31
ATOM     31  O   UNL     1      26.911  29.719  17.745  1.00  0.00    -0.443 OA
BRANCH  31  32
ATOM     32  C   UNL     1      25.803  30.600  17.746  1.00  0.00     0.294 C 
BRANCH  32  33
ATOM     33  C   UNL     1      24.900  30.338  16.594  1.00  0.00     0.120 A 
ATOM     34  C   UNL     1      25.224  30.485  15.240  1.00  0.00     0.138 A 
ATOM     35  N   UNL     1      23.623  29.915  16.597  1.00  0.00    -0.132 NA
ATOM     36  N   UNL     1      24.154  30.153  14.510  1.00  0.00    -0.248 N 
ATOM     37  N   UNL     1      23.199  29.812  15.353  1.00  0.00    -0.067 NA
BRANCH  36  38
ATOM     38  C   UNL     1      24.010  30.150  13.071  1.00  0.00     0.181 C 
BRANCH  38  39
ATOM     39  C   UNL     1      22.572  30.098  12.701  1.00  0.00    -0.025 A 
ATOM     40  C   UNL     1      21.958  28.904  12.391  1.00  0.00     0.006 A 
ATOM     41  C   UNL     1      21.832  31.247  12.664  1.00  0.00     0.021 A 
ATOM     42  C   UNL     1      20.606  28.854  12.043  1.00  0.00     0.002 A 
ATOM     43  C   UNL     1      20.482  31.209  12.318  1.00  0.00     0.018 A 
ATOM     44  C   UNL     1      19.869  30.006  12.007  1.00  0.00     0.016 A 
ATOM     45  Br  UNL     1      19.486  32.826  12.277  1.00  0.00    -0.051 Br
ENDBRANCH  38  39
ENDBRANCH  36  38
ENDBRANCH  32  33
ENDBRANCH  31  32
ENDBRANCH   2  31
TORSDOF 16
BEGIN_RES LYS A 131
REMARK  4 active torsions:
REMARK  status: ('A' for Active; 'I' for Inactive)
REMARK    1  A    between atoms: CA   and  CB  
REMARK    2  A    between atoms: CB   and  CG  
REMARK    3  A    between atoms: CG   and  CD  
REMARK    4  A    between atoms: CD   and  CE  
ROOT
ATOM      1  CA  LYS A 131      29.867  25.555  16.977  1.00 20.52     0.186 C 
ENDROOT
BRANCH   1   2
ATOM      2  CB  LYS A 131      28.345  25.722  17.026  1.00 20.94     0.034 C 
BRANCH   2   3
ATOM      3  CG  LYS A 131      27.601  24.406  16.860  1.00 22.96     0.005 C 
BRANCH   3   4
ATOM      4  CD  LYS A 131      26.550  24.212  17.918  1.00 24.33     0.041 C 
BRANCH   4   5
ATOM      5  CE  LYS A 131      25.166  24.279  17.279  1.00 26.91     0.338 C 
ATOM      6  NZ  LYS A 131      24.543  22.935  17.250  1.00 27.40     0.618 N 
ENDBRANCH   4   5
ENDBRANCH   3   4
ENDBRANCH   2   3
ENDBRANCH   1   2
END_RES LYS A 131
BEGIN_RES LYS A 135
REMARK  4 active torsions:
REMARK  status: ('A' for Active; 'I' for Inactive)
REMARK    5  A    between atoms: CA   and  CB  
REMARK    6  A    between atoms: CB   and  CG  
REMARK    7  A    between atoms: CG   and  CD  
REMARK    8  A    between atoms: CD   and  CE  
ROOT
ATOM      7  CA  LYS A 135      33.193  34.663   9.290  1.00 25.02     0.186 C 
ENDROOT
BRANCH   7   8
ATOM      8  CB  LYS A 135      32.060  35.360  10.034  1.00 26.63     0.034 C 
BRANCH   8   9
ATOM      9  CG  LYS A 135      30.811  35.529   9.208  1.00 29.45     0.005 C 
BRANCH   9  10
ATOM     10  CD  LYS A 135      30.257  34.176   8.790  1.00 32.00     0.041 C 
BRANCH  10  11
ATOM     11  CE  LYS A 135      28.821  34.023   9.253  1.00 34.25     0.338 C 
ATOM     12  NZ  LYS A 135      27.874  34.626   8.275  1.00 35.99     0.618 N 
ENDBRANCH  10  11
ENDBRANCH   9  10
ENDBRANCH   8   9
ENDBRANCH   7   8
END_RES LYS A 135
