REMARK VINA RESULT:    -5.447      1.586      2.464
REMARK INTER + INTRA:         -14.454
REMARK INTER:                  -8.527
REMARK INTRA:                  -5.927
REMARK UNBOUND:                -5.026
REMARK SMILES CC(=O)N[C@@H]1[C@@H](O)C[C@](O)(C(=O)O)O[C@H]1C(O)[C@H](O)CNC(=O)OCc1cn(C2CCCC2)nn1
REMARK SMILES IDX 20 1 18 2 16 3 15 4 9 5 8 6 14 7 6 8 5 9 10 10 11 12 12 13
REMARK SMILES IDX 13 14 7 16 4 18 2 19 1 21 3 22 17 23 19 25 21 27 22 28 23 30
REMARK SMILES IDX 24 31 25 32 26 33 27 34 35 35 28 36 34 37 29 38 30 39 33 40
REMARK SMILES IDX 31 41 32 42
REMARK H PARENT 10 11 13 15 7 17 4 20 17 24 19 26 21 29
REMARK Flexibility Score: inf
ROOT
ATOM      1  C   UNL     1      30.369  31.084  16.961  1.00  0.00     0.154 C 
ENDROOT
BRANCH   1   2
ATOM      2  C   UNL     1      30.314  32.566  16.719  1.00  0.00     0.165 C 
BRANCH   2   3
ATOM      3  C   UNL     1      30.196  32.751  15.218  1.00  0.00     0.176 C 
BRANCH   3   4
ATOM      4  C   UNL     1      29.801  34.142  14.840  1.00  0.00     0.178 C 
ATOM      5  C   UNL     1      28.003  35.333  13.992  1.00  0.00     0.269 C 
ATOM      6  C   UNL     1      29.015  36.460  14.135  1.00  0.00     0.112 C 
ATOM      7  O   UNL     1      28.693  34.120  14.026  1.00  0.00    -0.332 OA
ATOM      8  C   UNL     1      30.259  36.033  13.382  1.00  0.00     0.145 C 
ATOM      9  C   UNL     1      30.912  34.939  14.216  1.00  0.00     0.142 C 
BRANCH   5  10
ATOM     10  O   UNL     1      27.380  35.515  12.763  1.00  0.00    -0.357 OA
ATOM     11  H   UNL     1      27.588  36.454  12.466  1.00  0.00     0.214 HD
ENDBRANCH   5  10
BRANCH   5  12
ATOM     12  C   UNL     1      26.987  35.366  15.050  1.00  0.00     0.364 C 
ATOM     13  O   UNL     1      27.057  36.181  16.004  1.00  0.00    -0.246 OA
BRANCH  12  14
ATOM     14  O   UNL     1      25.912  34.492  15.027  1.00  0.00    -0.477 OA
ATOM     15  H   UNL     1      25.321  34.370  14.195  1.00  0.00     0.296 HD
ENDBRANCH  12  14
ENDBRANCH   5  12
BRANCH   8  16
ATOM     16  O   UNL     1      29.827  35.494  12.158  1.00  0.00    -0.391 OA
ATOM     17  H   UNL     1      29.098  34.853  12.367  1.00  0.00     0.211 HD
ENDBRANCH   8  16
BRANCH   9  18
ATOM     18  N   UNL     1      31.767  35.559  15.208  1.00  0.00    -0.348 N 
ATOM     19  C   UNL     1      33.164  35.357  15.192  1.00  0.00     0.217 C 
ATOM     20  H   UNL     1      31.355  36.162  15.943  1.00  0.00     0.163 HD
ATOM     21  C   UNL     1      34.096  35.961  16.176  1.00  0.00     0.114 C 
ATOM     22  O   UNL     1      33.645  34.626  14.296  1.00  0.00    -0.275 OA
ENDBRANCH   9  18
ENDBRANCH   3   4
BRANCH   3  23
ATOM     23  O   UNL     1      31.465  32.507  14.690  1.00  0.00    -0.388 OA
ATOM     24  H   UNL     1      31.452  32.188  13.765  1.00  0.00     0.211 HD
ENDBRANCH   3  23
ENDBRANCH   2   3
BRANCH   2  25
ATOM     25  O   UNL     1      31.438  33.210  17.181  1.00  0.00    -0.388 OA
ATOM     26  H   UNL     1      32.131  33.214  16.468  1.00  0.00     0.211 HD
ENDBRANCH   2  25
ENDBRANCH   1   2
BRANCH   1  27
ATOM     27  N   UNL     1      29.241  30.335  16.506  1.00  0.00    -0.319 N 
ATOM     28  C   UNL     1      28.119  29.986  17.266  1.00  0.00     0.407 C 
ATOM     29  H   UNL     1      29.269  30.016  15.485  1.00  0.00     0.167 HD
ATOM     30  O   UNL     1      28.042  30.329  18.468  1.00  0.00    -0.225 OA
BRANCH  28  31
ATOM     31  O   UNL     1      27.069  29.250  16.687  1.00  0.00    -0.443 OA
BRANCH  31  32
ATOM     32  C   UNL     1      25.750  29.585  17.077  1.00  0.00     0.294 C 
BRANCH  32  33
ATOM     33  C   UNL     1      25.144  30.406  16.005  1.00  0.00     0.120 A 
ATOM     34  C   UNL     1      24.632  29.878  14.828  1.00  0.00     0.138 A 
ATOM     35  N   UNL     1      24.966  31.719  15.924  1.00  0.00    -0.132 NA
ATOM     36  N   UNL     1      24.170  30.892  14.097  1.00  0.00    -0.249 N 
ATOM     37  N   UNL     1      24.379  32.005  14.773  1.00  0.00    -0.067 NA
BRANCH  36  38
ATOM     38  C   UNL     1      23.554  30.729  12.785  1.00  0.00     0.109 C 
ATOM     39  C   UNL     1      23.258  29.267  12.600  1.00  0.00     0.027 C 
ATOM     40  C   UNL     1      22.228  31.456  12.774  1.00  0.00     0.027 C 
ATOM     41  C   UNL     1      21.794  29.156  12.320  1.00  0.00     0.002 C 
ATOM     42  C   UNL     1      21.200  30.360  12.998  1.00  0.00     0.002 C 
ENDBRANCH  36  38
ENDBRANCH  32  33
ENDBRANCH  31  32
ENDBRANCH  28  31
ENDBRANCH   1  27
TORSDOF 15
BEGIN_RES LYS A 131
REMARK  4 active torsions:
REMARK  status: ('A' for Active; 'I' for Inactive)
REMARK    1  A    between atoms: CA   and  CB  
REMARK    2  A    between atoms: CB   and  CG  
REMARK    3  A    between atoms: CG   and  CD  
REMARK    4  A    between atoms: CD   and  CE  
ROOT
ATOM      1  CA  LYS A 131      29.867  25.555  16.977  1.00 20.52     0.186 C 
ENDROOT
BRANCH   1   2
ATOM      2  CB  LYS A 131      28.345  25.722  17.026  1.00 20.94     0.034 C 
BRANCH   2   3
ATOM      3  CG  LYS A 131      27.599  24.420  16.778  1.00 22.96     0.005 C 
BRANCH   3   4
ATOM      4  CD  LYS A 131      26.725  24.038  17.940  1.00 24.33     0.041 C 
BRANCH   4   5
ATOM      5  CE  LYS A 131      25.338  23.661  17.431  1.00 26.91     0.338 C 
ATOM      6  NZ  LYS A 131      24.440  24.840  17.448  1.00 27.40     0.618 N 
ENDBRANCH   4   5
ENDBRANCH   3   4
ENDBRANCH   2   3
ENDBRANCH   1   2
END_RES LYS A 131
BEGIN_RES LYS A 135
REMARK  4 active torsions:
REMARK  status: ('A' for Active; 'I' for Inactive)
REMARK    5  A    between atoms: CA   and  CB  
REMARK    6  A    between atoms: CB   and  CG  
REMARK    7  A    between atoms: CG   and  CD  
REMARK    8  A    between atoms: CD   and  CE  
ROOT
ATOM      7  CA  LYS A 135      33.193  34.663   9.290  1.00 25.02     0.186 C 
ENDROOT
BRANCH   7   8
ATOM      8  CB  LYS A 135      32.060  35.360  10.034  1.00 26.63     0.034 C 
BRANCH   8   9
ATOM      9  CG  LYS A 135      30.823  35.559   9.197  1.00 29.45     0.005 C 
BRANCH   9  10
ATOM     10  CD  LYS A 135      30.157  34.225   8.897  1.00 32.00     0.041 C 
BRANCH  10  11
ATOM     11  CE  LYS A 135      28.673  34.415   8.648  1.00 34.25     0.338 C 
ATOM     12  NZ  LYS A 135      27.861  33.669   9.650  1.00 35.99     0.618 N 
ENDBRANCH  10  11
ENDBRANCH   9  10
ENDBRANCH   8   9
ENDBRANCH   7   8
END_RES LYS A 135
