REMARK VINA RESULT:    -5.778      3.330      6.642
REMARK INTER + INTRA:         -14.498
REMARK INTER:                  -9.176
REMARK INTRA:                  -5.321
REMARK UNBOUND:                -4.497
REMARK SMILES CC(=O)N[C@@H]1[C@@H](O)C[C@](O)(C(=O)O)O[C@H]1C(O)[C@H](O)CNC(=O)OCc1cn(-c2cccc(Cl)c2)nn1
REMARK SMILES IDX 20 1 18 2 16 3 15 4 9 5 8 6 14 7 6 8 5 9 10 10 11 12 12 13
REMARK SMILES IDX 13 14 7 16 4 18 2 19 1 21 3 22 17 23 19 25 21 27 22 28 23 30
REMARK SMILES IDX 24 31 25 32 26 33 27 34 37 35 28 36 36 37 29 38 30 39 35 40
REMARK SMILES IDX 31 41 33 42 32 43 34 44
REMARK H PARENT 10 11 13 15 7 17 4 20 17 24 19 26 21 29
REMARK Flexibility Score: inf
ROOT
ATOM      1  C   UNL     1      27.574  30.457  17.737  1.00  0.00     0.154 C 
ENDROOT
BRANCH   1   2
ATOM      2  C   UNL     1      28.572  30.643  16.631  1.00  0.00     0.165 C 
BRANCH   2   3
ATOM      3  C   UNL     1      28.321  31.874  15.810  1.00  0.00     0.176 C 
BRANCH   3   4
ATOM      4  C   UNL     1      29.073  33.077  16.387  1.00  0.00     0.178 C 
ATOM      5  C   UNL     1      30.198  34.310  14.731  1.00  0.00     0.269 C 
ATOM      6  C   UNL     1      31.436  34.320  15.618  1.00  0.00     0.112 C 
ATOM      7  O   UNL     1      29.094  34.045  15.464  1.00  0.00    -0.332 OA
ATOM      8  C   UNL     1      31.566  32.869  16.078  1.00  0.00     0.145 C 
ATOM      9  C   UNL     1      30.365  32.587  16.938  1.00  0.00     0.142 C 
BRANCH   5  10
ATOM     10  O   UNL     1      30.459  33.388  13.725  1.00  0.00    -0.357 OA
ATOM     11  H   UNL     1      31.196  32.800  14.022  1.00  0.00     0.214 HD
ENDBRANCH   5  10
BRANCH   5  12
ATOM     12  C   UNL     1      30.034  35.645  14.109  1.00  0.00     0.364 C 
ATOM     13  O   UNL     1      30.929  36.074  13.345  1.00  0.00    -0.246 OA
BRANCH  12  14
ATOM     14  O   UNL     1      28.925  36.447  14.334  1.00  0.00    -0.477 OA
ATOM     15  H   UNL     1      29.081  37.428  14.591  1.00  0.00     0.296 HD
ENDBRANCH  12  14
ENDBRANCH   5  12
BRANCH   8  16
ATOM     16  O   UNL     1      31.540  31.988  15.002  1.00  0.00    -0.391 OA
ATOM     17  H   UNL     1      32.351  31.405  14.971  1.00  0.00     0.211 HD
ENDBRANCH   8  16
BRANCH   9  18
ATOM     18  N   UNL     1      30.630  33.173  18.235  1.00  0.00    -0.348 N 
ATOM     19  C   UNL     1      30.792  32.332  19.366  1.00  0.00     0.217 C 
ATOM     20  H   UNL     1      30.705  34.225  18.361  1.00  0.00     0.163 HD
ATOM     21  C   UNL     1      31.063  32.942  20.693  1.00  0.00     0.114 C 
ATOM     22  O   UNL     1      30.706  31.084  19.236  1.00  0.00    -0.275 OA
ENDBRANCH   9  18
ENDBRANCH   3   4
BRANCH   3  23
ATOM     23  O   UNL     1      26.932  32.116  15.875  1.00  0.00    -0.388 OA
ATOM     24  H   UNL     1      26.746  32.984  16.259  1.00  0.00     0.211 HD
ENDBRANCH   3  23
ENDBRANCH   2   3
BRANCH   2  25
ATOM     25  O   UNL     1      28.524  29.520  15.786  1.00  0.00    -0.388 OA
ATOM     26  H   UNL     1      27.991  29.741  15.002  1.00  0.00     0.211 HD
ENDBRANCH   2  25
ENDBRANCH   1   2
BRANCH   1  27
ATOM     27  N   UNL     1      28.132  29.589  18.767  1.00  0.00    -0.319 N 
ATOM     28  C   UNL     1      27.775  28.219  18.831  1.00  0.00     0.407 C 
ATOM     29  H   UNL     1      28.796  30.006  19.449  1.00  0.00     0.167 HD
ATOM     30  O   UNL     1      26.968  27.757  17.985  1.00  0.00    -0.225 OA
BRANCH  28  31
ATOM     31  O   UNL     1      28.281  27.360  19.793  1.00  0.00    -0.443 OA
BRANCH  31  32
ATOM     32  C   UNL     1      28.511  27.868  21.088  1.00  0.00     0.294 C 
BRANCH  32  33
ATOM     33  C   UNL     1      29.956  27.742  21.414  1.00  0.00     0.121 A 
ATOM     34  C   UNL     1      30.833  28.776  21.696  1.00  0.00     0.144 A 
ATOM     35  N   UNL     1      30.700  26.625  21.503  1.00  0.00    -0.131 NA
ATOM     36  N   UNL     1      32.063  28.268  21.944  1.00  0.00    -0.220 N 
ATOM     37  N   UNL     1      31.943  26.957  21.817  1.00  0.00    -0.062 NA
BRANCH  36  38
ATOM     38  C   UNL     1      33.238  29.000  22.271  1.00  0.00     0.068 A 
ATOM     39  C   UNL     1      33.395  30.275  21.773  1.00  0.00     0.028 A 
ATOM     40  C   UNL     1      34.244  28.499  23.071  1.00  0.00     0.049 A 
ATOM     41  C   UNL     1      34.522  31.027  22.064  1.00  0.00     0.004 A 
ATOM     42  C   UNL     1      35.378  29.219  23.380  1.00  0.00     0.043 A 
ATOM     43  C   UNL     1      35.506  30.493  22.865  1.00  0.00     0.020 A 
ATOM     44  Cl  UNL     1      36.646  28.537  24.410  1.00  0.00    -0.084 Cl
ENDBRANCH  36  38
ENDBRANCH  32  33
ENDBRANCH  31  32
ENDBRANCH  28  31
ENDBRANCH   1  27
TORSDOF 15
BEGIN_RES LYS A 131
REMARK  4 active torsions:
REMARK  status: ('A' for Active; 'I' for Inactive)
REMARK    1  A    between atoms: CA   and  CB  
REMARK    2  A    between atoms: CB   and  CG  
REMARK    3  A    between atoms: CG   and  CD  
REMARK    4  A    between atoms: CD   and  CE  
ROOT
ATOM      1  CA  LYS A 131      29.867  25.555  16.977  1.00 20.52     0.186 C 
ENDROOT
BRANCH   1   2
ATOM      2  CB  LYS A 131      28.345  25.722  17.026  1.00 20.94     0.034 C 
BRANCH   2   3
ATOM      3  CG  LYS A 131      27.602  24.400  16.913  1.00 22.96     0.005 C 
BRANCH   3   4
ATOM      4  CD  LYS A 131      26.163  24.521  17.335  1.00 24.33     0.041 C 
BRANCH   4   5
ATOM      5  CE  LYS A 131      25.991  23.932  18.732  1.00 26.91     0.338 C 
ATOM      6  NZ  LYS A 131      25.530  24.973  19.680  1.00 27.40     0.618 N 
ENDBRANCH   4   5
ENDBRANCH   3   4
ENDBRANCH   2   3
ENDBRANCH   1   2
END_RES LYS A 131
BEGIN_RES LYS A 135
REMARK  4 active torsions:
REMARK  status: ('A' for Active; 'I' for Inactive)
REMARK    5  A    between atoms: CA   and  CB  
REMARK    6  A    between atoms: CB   and  CG  
REMARK    7  A    between atoms: CG   and  CD  
REMARK    8  A    between atoms: CD   and  CE  
ROOT
ATOM      7  CA  LYS A 135      33.193  34.663   9.290  1.00 25.02     0.186 C 
ENDROOT
BRANCH   7   8
ATOM      8  CB  LYS A 135      32.060  35.360  10.034  1.00 26.63     0.034 C 
BRANCH   8   9
ATOM      9  CG  LYS A 135      30.805  35.513   9.214  1.00 29.45     0.005 C 
BRANCH   9  10
ATOM     10  CD  LYS A 135      30.147  34.161   8.983  1.00 32.00     0.041 C 
BRANCH  10  11
ATOM     11  CE  LYS A 135      28.693  34.336   8.590  1.00 34.25     0.338 C 
ATOM     12  NZ  LYS A 135      27.789  33.681   9.575  1.00 35.99     0.618 N 
ENDBRANCH  10  11
ENDBRANCH   9  10
ENDBRANCH   8   9
ENDBRANCH   7   8
END_RES LYS A 135
