REMARK VINA RESULT:    -4.440      5.460      8.777
REMARK INTER + INTRA:         -14.692
REMARK INTER:                  -8.884
REMARK INTRA:                  -5.809
REMARK UNBOUND:                -7.007
REMARK SMILES CC(=O)N[C@@H]1[C@@H](O)C[C@](O)(C(=O)O)O[C@H]1C(O)[C@H](O)CNC(=O)OCc1cn(-c2ccc(Cl)cc2)nn1
REMARK SMILES IDX 20 1 18 2 16 3 15 4 9 5 8 6 14 7 6 8 5 9 10 10 11 12 12 13
REMARK SMILES IDX 13 14 7 16 4 18 2 19 1 21 3 22 17 23 19 25 21 27 22 28 23 30
REMARK SMILES IDX 24 31 25 32 26 33 27 34 37 35 28 36 36 37 29 38 30 39 35 40
REMARK SMILES IDX 31 41 34 42 32 43 33 44
REMARK H PARENT 10 11 13 15 7 17 4 20 17 24 19 26 21 29
REMARK Flexibility Score: inf
ROOT
ATOM      1  C   UNL     1      30.583  31.786  17.286  1.00  0.00     0.154 C 
ENDROOT
BRANCH   1   2
ATOM      2  C   UNL     1      30.839  32.542  16.021  1.00  0.00     0.165 C 
BRANCH   2   3
ATOM      3  C   UNL     1      29.509  33.168  15.570  1.00  0.00     0.176 C 
BRANCH   3   4
ATOM      4  C   UNL     1      29.601  33.668  14.130  1.00  0.00     0.178 C 
ATOM      5  C   UNL     1      31.136  35.424  13.865  1.00  0.00     0.269 C 
ATOM      6  C   UNL     1      30.351  36.157  12.800  1.00  0.00     0.112 C 
ATOM      7  O   UNL     1      30.901  34.095  13.952  1.00  0.00    -0.332 OA
ATOM      8  C   UNL     1      29.078  35.430  12.550  1.00  0.00     0.145 C 
ATOM      9  C   UNL     1      28.648  34.753  13.836  1.00  0.00     0.142 C 
BRANCH   5  10
ATOM     10  O   UNL     1      30.937  36.128  15.050  1.00  0.00    -0.357 OA
ATOM     11  H   UNL     1      30.657  37.040  14.785  1.00  0.00     0.214 HD
ENDBRANCH   5  10
BRANCH   5  12
ATOM     12  C   UNL     1      32.566  35.596  13.497  1.00  0.00     0.364 C 
ATOM     13  O   UNL     1      32.830  36.060  12.365  1.00  0.00    -0.246 OA
BRANCH  12  14
ATOM     14  O   UNL     1      33.581  35.266  14.351  1.00  0.00    -0.477 OA
ATOM     15  H   UNL     1      33.490  34.441  14.951  1.00  0.00     0.296 HD
ENDBRANCH  12  14
ENDBRANCH   5  12
BRANCH   8  16
ATOM     16  O   UNL     1      28.075  36.232  12.020  1.00  0.00    -0.391 OA
ATOM     17  H   UNL     1      28.327  36.567  11.136  1.00  0.00     0.211 HD
ENDBRANCH   8  16
BRANCH   9  18
ATOM     18  N   UNL     1      27.273  34.413  13.702  1.00  0.00    -0.348 N 
ATOM     19  C   UNL     1      26.277  34.816  14.624  1.00  0.00     0.217 C 
ATOM     20  H   UNL     1      27.028  33.829  12.859  1.00  0.00     0.163 HD
ATOM     21  C   UNL     1      24.859  34.443  14.452  1.00  0.00     0.114 C 
ATOM     22  O   UNL     1      26.704  35.509  15.588  1.00  0.00    -0.275 OA
ENDBRANCH   9  18
ENDBRANCH   3   4
BRANCH   3  23
ATOM     23  O   UNL     1      29.176  34.228  16.420  1.00  0.00    -0.388 OA
ATOM     24  H   UNL     1      29.985  34.608  16.866  1.00  0.00     0.211 HD
ENDBRANCH   3  23
ENDBRANCH   2   3
BRANCH   2  25
ATOM     25  O   UNL     1      31.386  31.767  15.024  1.00  0.00    -0.388 OA
ATOM     26  H   UNL     1      32.097  31.157  15.284  1.00  0.00     0.211 HD
ENDBRANCH   2  25
ENDBRANCH   1   2
BRANCH   1  27
ATOM     27  N   UNL     1      29.268  31.267  17.460  1.00  0.00    -0.319 N 
ATOM     28  C   UNL     1      28.590  31.167  18.701  1.00  0.00     0.407 C 
ATOM     29  H   UNL     1      28.738  30.924  16.612  1.00  0.00     0.167 HD
ATOM     30  O   UNL     1      29.110  31.546  19.764  1.00  0.00    -0.225 OA
BRANCH  28  31
ATOM     31  O   UNL     1      27.291  30.625  18.752  1.00  0.00    -0.443 OA
BRANCH  31  32
ATOM     32  C   UNL     1      26.981  29.415  18.067  1.00  0.00     0.294 C 
BRANCH  32  33
ATOM     33  C   UNL     1      26.257  29.798  16.830  1.00  0.00     0.121 A 
ATOM     34  C   UNL     1      25.108  29.230  16.364  1.00  0.00     0.144 A 
ATOM     35  N   UNL     1      26.600  30.749  15.973  1.00  0.00    -0.131 NA
ATOM     36  N   UNL     1      24.788  29.868  15.218  1.00  0.00    -0.220 N 
ATOM     37  N   UNL     1      25.707  30.789  14.994  1.00  0.00    -0.062 NA
BRANCH  36  38
ATOM     38  C   UNL     1      23.634  29.542  14.438  1.00  0.00     0.066 A 
ATOM     39  C   UNL     1      22.697  28.676  14.947  1.00  0.00     0.030 A 
ATOM     40  C   UNL     1      23.515  30.119  13.199  1.00  0.00     0.030 A 
ATOM     41  C   UNL     1      21.598  28.388  14.160  1.00  0.00     0.023 A 
ATOM     42  C   UNL     1      22.404  29.811  12.438  1.00  0.00     0.023 A 
ATOM     43  C   UNL     1      21.440  28.951  12.902  1.00  0.00     0.041 A 
ATOM     44  Cl  UNL     1      20.063  28.603  11.893  1.00  0.00    -0.084 Cl
ENDBRANCH  36  38
ENDBRANCH  32  33
ENDBRANCH  31  32
ENDBRANCH  28  31
ENDBRANCH   1  27
TORSDOF 15
BEGIN_RES LYS A 131
REMARK  4 active torsions:
REMARK  status: ('A' for Active; 'I' for Inactive)
REMARK    1  A    between atoms: CA   and  CB  
REMARK    2  A    between atoms: CB   and  CG  
REMARK    3  A    between atoms: CG   and  CD  
REMARK    4  A    between atoms: CD   and  CE  
ROOT
ATOM      1  CA  LYS A 131      29.867  25.555  16.977  1.00 20.52     0.186 C 
ENDROOT
BRANCH   1   2
ATOM      2  CB  LYS A 131      28.345  25.722  17.026  1.00 20.94     0.034 C 
BRANCH   2   3
ATOM      3  CG  LYS A 131      27.602  24.400  16.915  1.00 22.96     0.005 C 
BRANCH   3   4
ATOM      4  CD  LYS A 131      26.190  24.499  17.423  1.00 24.33     0.041 C 
BRANCH   4   5
ATOM      5  CE  LYS A 131      25.907  23.337  18.369  1.00 26.91     0.338 C 
ATOM      6  NZ  LYS A 131      25.409  23.837  19.672  1.00 27.40     0.618 N 
ENDBRANCH   4   5
ENDBRANCH   3   4
ENDBRANCH   2   3
ENDBRANCH   1   2
END_RES LYS A 131
BEGIN_RES LYS A 135
REMARK  4 active torsions:
REMARK  status: ('A' for Active; 'I' for Inactive)
REMARK    5  A    between atoms: CA   and  CB  
REMARK    6  A    between atoms: CB   and  CG  
REMARK    7  A    between atoms: CG   and  CD  
REMARK    8  A    between atoms: CD   and  CE  
ROOT
ATOM      7  CA  LYS A 135      33.193  34.663   9.290  1.00 25.02     0.186 C 
ENDROOT
BRANCH   7   8
ATOM      8  CB  LYS A 135      32.060  35.360  10.034  1.00 26.63     0.034 C 
BRANCH   8   9
ATOM      9  CG  LYS A 135      30.805  35.512   9.214  1.00 29.45     0.005 C 
BRANCH   9  10
ATOM     10  CD  LYS A 135      30.106  34.171   9.048  1.00 32.00     0.041 C 
BRANCH  10  11
ATOM     11  CE  LYS A 135      28.649  34.372   8.681  1.00 34.25     0.338 C 
ATOM     12  NZ  LYS A 135      27.753  33.657   9.632  1.00 35.99     0.618 N 
ENDBRANCH  10  11
ENDBRANCH   9  10
ENDBRANCH   8   9
ENDBRANCH   7   8
END_RES LYS A 135
