REMARK VINA RESULT:    -5.396      2.530      5.597
REMARK INTER + INTRA:         -13.887
REMARK INTER:                  -8.547
REMARK INTRA:                  -5.339
REMARK UNBOUND:                -4.548
REMARK SMILES CC(=O)N[C@@H]1[C@@H](O)C[C@](O)(C(=O)O)O[C@H]1C(O)[C@H](O)CNC(=O)OCc1cn(-c2ccc3c(c2)OCO3)nn1
REMARK SMILES IDX 20 1 18 2 16 3 15 4 9 5 8 6 14 7 6 8 5 9 10 10 11 12 12 13
REMARK SMILES IDX 13 14 7 16 4 18 2 19 1 21 3 22 17 23 19 25 21 27 22 28 23 30
REMARK SMILES IDX 24 31 25 32 26 33 27 34 39 35 28 36 38 37 29 38 30 39 34 40
REMARK SMILES IDX 31 41 33 42 32 43 35 44 37 45 36 46
REMARK H PARENT 10 11 13 15 7 17 4 20 17 24 19 26 21 29
REMARK Flexibility Score: inf
ROOT
ATOM      1  C   UNL     1      32.226  28.595  21.930  1.00  0.00     0.154 C 
ENDROOT
BRANCH   1   2
ATOM      2  C   UNL     1      31.404  28.260  20.731  1.00  0.00     0.165 C 
BRANCH   2   3
ATOM      3  C   UNL     1      30.035  27.692  21.143  1.00  0.00     0.176 C 
BRANCH   3   4
ATOM      4  C   UNL     1      29.024  28.258  20.213  1.00  0.00     0.178 C 
ATOM      5  C   UNL     1      28.225  30.147  19.218  1.00  0.00     0.269 C 
ATOM      6  C   UNL     1      27.381  29.098  18.529  1.00  0.00     0.112 C 
ATOM      7  O   UNL     1      29.199  29.626  20.033  1.00  0.00    -0.332 OA
ATOM      8  C   UNL     1      26.714  28.159  19.516  1.00  0.00     0.145 C 
ATOM      9  C   UNL     1      27.593  28.077  20.719  1.00  0.00     0.142 C 
BRANCH   5  10
ATOM     10  O   UNL     1      27.335  30.979  19.901  1.00  0.00    -0.357 OA
ATOM     11  H   UNL     1      27.750  31.883  19.895  1.00  0.00     0.214 HD
ENDBRANCH   5  10
BRANCH   5  12
ATOM     12  C   UNL     1      28.903  30.917  18.149  1.00  0.00     0.364 C 
ATOM     13  O   UNL     1      28.537  32.093  17.914  1.00  0.00    -0.246 OA
BRANCH  12  14
ATOM     14  O   UNL     1      29.935  30.394  17.389  1.00  0.00    -0.477 OA
ATOM     15  H   UNL     1      30.797  30.035  17.785  1.00  0.00     0.296 HD
ENDBRANCH  12  14
ENDBRANCH   5  12
BRANCH   8  16
ATOM     16  O   UNL     1      25.466  28.747  19.819  1.00  0.00    -0.391 OA
ATOM     17  H   UNL     1      25.367  29.605  19.369  1.00  0.00     0.211 HD
ENDBRANCH   8  16
BRANCH   9  18
ATOM     18  N   UNL     1      27.422  26.930  21.533  1.00  0.00    -0.348 N 
ATOM     19  C   UNL     1      26.443  26.744  22.546  1.00  0.00     0.217 C 
ATOM     20  H   UNL     1      28.076  26.131  21.385  1.00  0.00     0.163 HD
ATOM     21  C   UNL     1      26.349  25.490  23.350  1.00  0.00     0.114 C 
ATOM     22  O   UNL     1      25.644  27.686  22.747  1.00  0.00    -0.275 OA
ENDBRANCH   9  18
ENDBRANCH   3   4
BRANCH   3  23
ATOM     23  O   UNL     1      30.114  26.329  21.074  1.00  0.00    -0.388 OA
ATOM     24  H   UNL     1      29.310  25.827  20.903  1.00  0.00     0.211 HD
ENDBRANCH   3  23
ENDBRANCH   2   3
BRANCH   2  25
ATOM     25  O   UNL     1      32.018  27.335  19.930  1.00  0.00    -0.388 OA
ATOM     26  H   UNL     1      32.713  26.782  20.346  1.00  0.00     0.211 HD
ENDBRANCH   2  25
ENDBRANCH   1   2
BRANCH   1  27
ATOM     27  N   UNL     1      32.646  29.952  21.933  1.00  0.00    -0.319 N 
ATOM     28  C   UNL     1      31.849  31.011  22.395  1.00  0.00     0.407 C 
ATOM     29  H   UNL     1      33.612  30.218  21.571  1.00  0.00     0.167 HD
ATOM     30  O   UNL     1      30.694  30.899  22.839  1.00  0.00    -0.225 OA
BRANCH  28  31
ATOM     31  O   UNL     1      32.374  32.316  22.364  1.00  0.00    -0.443 OA
BRANCH  31  32
ATOM     32  C   UNL     1      31.516  33.393  22.137  1.00  0.00     0.294 C 
BRANCH  32  33
ATOM     33  C   UNL     1      31.930  34.091  20.892  1.00  0.00     0.121 A 
ATOM     34  C   UNL     1      31.562  33.751  19.595  1.00  0.00     0.144 A 
ATOM     35  N   UNL     1      32.723  35.168  20.758  1.00  0.00    -0.131 NA
ATOM     36  N   UNL     1      32.129  34.608  18.728  1.00  0.00    -0.220 N 
ATOM     37  N   UNL     1      32.822  35.450  19.473  1.00  0.00    -0.062 NA
BRANCH  36  38
ATOM     38  C   UNL     1      31.986  34.583  17.312  1.00  0.00     0.070 A 
ATOM     39  C   UNL     1      31.572  33.434  16.669  1.00  0.00     0.032 A 
ATOM     40  C   UNL     1      32.248  35.681  16.519  1.00  0.00     0.079 A 
ATOM     41  C   UNL     1      31.426  33.388  15.284  1.00  0.00     0.053 A 
ATOM     42  C   UNL     1      32.110  35.658  15.132  1.00  0.00     0.167 A 
ATOM     43  C   UNL     1      31.695  34.499  14.514  1.00  0.00     0.165 A 
ATOM     44  O   UNL     1      32.307  36.609  14.134  1.00  0.00    -0.454 OA
ATOM     45  O   UNL     1      31.648  34.775  13.136  1.00  0.00    -0.454 OA
ATOM     46  C   UNL     1      32.429  35.949  12.888  1.00  0.00     0.468 C 
ENDBRANCH  36  38
ENDBRANCH  32  33
ENDBRANCH  31  32
ENDBRANCH  28  31
ENDBRANCH   1  27
TORSDOF 15
BEGIN_RES LYS A 131
REMARK  4 active torsions:
REMARK  status: ('A' for Active; 'I' for Inactive)
REMARK    1  A    between atoms: CA   and  CB  
REMARK    2  A    between atoms: CB   and  CG  
REMARK    3  A    between atoms: CG   and  CD  
REMARK    4  A    between atoms: CD   and  CE  
ROOT
ATOM      1  CA  LYS A 131      29.867  25.555  16.977  1.00 20.52     0.186 C 
ENDROOT
BRANCH   1   2
ATOM      2  CB  LYS A 131      28.345  25.722  17.026  1.00 20.94     0.034 C 
BRANCH   2   3
ATOM      3  CG  LYS A 131      27.602  24.398  16.936  1.00 22.96     0.005 C 
BRANCH   3   4
ATOM      4  CD  LYS A 131      26.156  24.532  17.327  1.00 24.33     0.041 C 
BRANCH   4   5
ATOM      5  CE  LYS A 131      25.886  23.694  18.573  1.00 26.91     0.338 C 
ATOM      6  NZ  LYS A 131      25.504  24.564  19.710  1.00 27.40     0.618 N 
ENDBRANCH   4   5
ENDBRANCH   3   4
ENDBRANCH   2   3
ENDBRANCH   1   2
END_RES LYS A 131
BEGIN_RES LYS A 135
REMARK  4 active torsions:
REMARK  status: ('A' for Active; 'I' for Inactive)
REMARK    5  A    between atoms: CA   and  CB  
REMARK    6  A    between atoms: CB   and  CG  
REMARK    7  A    between atoms: CG   and  CD  
REMARK    8  A    between atoms: CD   and  CE  
ROOT
ATOM      7  CA  LYS A 135      33.193  34.663   9.290  1.00 25.02     0.186 C 
ENDROOT
BRANCH   7   8
ATOM      8  CB  LYS A 135      32.060  35.360  10.034  1.00 26.63     0.034 C 
BRANCH   8   9
ATOM      9  CG  LYS A 135      30.707  34.746   9.783  1.00 29.45     0.005 C 
BRANCH   9  10
ATOM     10  CD  LYS A 135      30.507  34.477   8.299  1.00 32.00     0.041 C 
BRANCH  10  11
ATOM     11  CE  LYS A 135      29.428  35.382   7.735  1.00 34.25     0.338 C 
ATOM     12  NZ  LYS A 135      28.074  34.803   7.954  1.00 35.99     0.618 N 
ENDBRANCH  10  11
ENDBRANCH   9  10
ENDBRANCH   8   9
ENDBRANCH   7   8
END_RES LYS A 135
