REMARK VINA RESULT:    -4.877      4.263      9.488
REMARK INTER + INTRA:         -15.701
REMARK INTER:                  -9.118
REMARK INTRA:                  -6.583
REMARK UNBOUND:                -6.121
REMARK SMILES CC(=O)N[C@@H]1[C@@H](O)C[C@](O)(C(=O)O)O[C@H]1C(O)[C@H](O)CNC(=O)OCc1cn(C[C@@H](C)CN2CCN(c3ccc(Cl)cc3)CC2)nn1
REMARK SMILES IDX 24 1 22 2 21 3 23 5 20 6 18 7 16 8 15 9 9 10 8 11 14 12 6 13
REMARK SMILES IDX 5 14 10 15 11 17 12 18 13 19 7 21 4 23 2 24 1 26 3 27 17 28
REMARK SMILES IDX 19 30 25 32 26 33 27 34 47 35 28 36 46 37 29 38 30 39 31 40
REMARK SMILES IDX 32 41 33 42 34 43 45 44 35 45 44 46 36 47 37 48 38 49 43 50
REMARK SMILES IDX 39 51 42 52 40 53 41 54
REMARK H PARENT 21 4 10 16 13 20 7 22 4 25 17 29 19 31
REMARK Flexibility Score: inf
ROOT
ATOM      1  O   UNL     1      31.013  32.270  16.556  1.00  0.00    -0.443 OA
ENDROOT
BRANCH   1   2
ATOM      2  C   UNL     1      29.978  31.374  16.773  1.00  0.00     0.407 C 
ATOM      3  N   UNL     1      29.199  30.788  15.736  1.00  0.00    -0.319 N 
ATOM      4  H   UNL     1      29.433  31.071  14.765  1.00  0.00     0.167 HD
ATOM      5  O   UNL     1      29.743  31.083  17.977  1.00  0.00    -0.225 OA
BRANCH   3   6
ATOM      6  C   UNL     1      28.178  29.873  16.130  1.00  0.00     0.154 C 
BRANCH   6   7
ATOM      7  C   UNL     1      26.794  30.222  15.758  1.00  0.00     0.165 C 
BRANCH   7   8
ATOM      8  C   UNL     1      26.552  31.684  15.424  1.00  0.00     0.176 C 
BRANCH   8   9
ATOM      9  C   UNL     1      25.134  31.706  14.851  1.00  0.00     0.178 C 
ATOM     10  C   UNL     1      23.719  30.284  13.659  1.00  0.00     0.269 C 
ATOM     11  C   UNL     1      23.232  31.452  12.848  1.00  0.00     0.112 C 
ATOM     12  O   UNL     1      24.930  30.488  14.264  1.00  0.00    -0.332 OA
ATOM     13  C   UNL     1      23.511  32.785  13.442  1.00  0.00     0.145 C 
ATOM     14  C   UNL     1      25.001  32.802  13.846  1.00  0.00     0.142 C 
BRANCH  10  15
ATOM     15  O   UNL     1      23.917  29.245  12.712  1.00  0.00    -0.357 OA
ATOM     16  H   UNL     1      24.614  29.479  12.072  1.00  0.00     0.214 HD
ENDBRANCH  10  15
BRANCH  10  17
ATOM     17  C   UNL     1      22.693  29.772  14.614  1.00  0.00     0.364 C 
ATOM     18  O   UNL     1      23.014  28.941  15.501  1.00  0.00    -0.246 OA
BRANCH  17  19
ATOM     19  O   UNL     1      21.366  30.174  14.582  1.00  0.00    -0.477 OA
ATOM     20  H   UNL     1      20.777  30.274  15.400  1.00  0.00     0.296 HD
ENDBRANCH  17  19
ENDBRANCH  10  17
BRANCH  13  21
ATOM     21  O   UNL     1      23.318  33.761  12.464  1.00  0.00    -0.391 OA
ATOM     22  H   UNL     1      22.587  33.498  11.845  1.00  0.00     0.211 HD
ENDBRANCH  13  21
BRANCH  14  23
ATOM     23  N   UNL     1      25.354  34.096  14.367  1.00  0.00    -0.348 N 
ATOM     24  C   UNL     1      26.052  35.039  13.580  1.00  0.00     0.217 C 
ATOM     25  H   UNL     1      25.090  34.338  15.337  1.00  0.00     0.163 HD
ATOM     26  C   UNL     1      26.369  36.351  14.219  1.00  0.00     0.114 C 
ATOM     27  O   UNL     1      26.403  34.823  12.401  1.00  0.00    -0.275 OA
ENDBRANCH  14  23
ENDBRANCH   8   9
BRANCH   8  28
ATOM     28  O   UNL     1      26.622  32.432  16.611  1.00  0.00    -0.388 OA
ATOM     29  H   UNL     1      26.112  33.265  16.439  1.00  0.00     0.211 HD
ENDBRANCH   8  28
ENDBRANCH   7   8
BRANCH   7  30
ATOM     30  O   UNL     1      25.998  30.011  16.918  1.00  0.00    -0.388 OA
ATOM     31  H   UNL     1      26.586  30.306  17.670  1.00  0.00     0.211 HD
ENDBRANCH   7  30
ENDBRANCH   6   7
ENDBRANCH   3   6
ENDBRANCH   1   2
BRANCH   1  32
ATOM     32  C   UNL     1      31.491  32.525  15.246  1.00  0.00     0.294 C 
BRANCH  32  33
ATOM     33  C   UNL     1      31.828  33.957  15.087  1.00  0.00     0.120 A 
ATOM     34  C   UNL     1      31.351  34.759  14.047  1.00  0.00     0.138 A 
ATOM     35  N   UNL     1      32.585  34.786  15.819  1.00  0.00    -0.132 NA
ATOM     36  N   UNL     1      31.814  36.011  14.173  1.00  0.00    -0.252 N 
ATOM     37  N   UNL     1      32.582  35.995  15.285  1.00  0.00    -0.067 NA
BRANCH  36  38
ATOM     38  C   UNL     1      31.567  37.179  13.348  1.00  0.00     0.150 C 
BRANCH  38  39
ATOM     39  C   UNL     1      30.089  37.575  13.464  1.00  0.00     0.022 C 
ATOM     40  C   UNL     1      29.715  37.924  14.855  1.00  0.00     0.011 C 
BRANCH  39  41
ATOM     41  C   UNL     1      29.669  38.451  12.359  1.00  0.00     0.089 C 
BRANCH  41  42
ATOM     42  N   UNL     1      28.414  38.087  11.779  1.00  0.00    -0.299 NA
ATOM     43  C   UNL     1      27.410  39.153  12.043  1.00  0.00     0.106 C 
ATOM     44  C   UNL     1      28.526  38.084  10.323  1.00  0.00     0.106 C 
ATOM     45  C   UNL     1      26.136  38.892  11.320  1.00  0.00     0.132 C 
ATOM     46  C   UNL     1      27.339  37.227   9.856  1.00  0.00     0.132 C 
ATOM     47  N   UNL     1      26.140  37.803  10.394  1.00  0.00    -0.369 N 
BRANCH  47  48
ATOM     48  C   UNL     1      24.899  37.253   9.969  1.00  0.00     0.037 A 
ATOM     49  C   UNL     1      23.786  38.062   9.909  1.00  0.00     0.027 A 
ATOM     50  C   UNL     1      24.792  35.912   9.625  1.00  0.00     0.027 A 
ATOM     51  C   UNL     1      22.587  37.522   9.506  1.00  0.00     0.022 A 
ATOM     52  C   UNL     1      23.592  35.386   9.226  1.00  0.00     0.022 A 
ATOM     53  C   UNL     1      22.477  36.208   9.166  1.00  0.00     0.041 A 
ATOM     54  Cl  UNL     1      20.956  35.520   8.664  1.00  0.00    -0.084 Cl
ENDBRANCH  47  48
ENDBRANCH  41  42
ENDBRANCH  39  41
ENDBRANCH  38  39
ENDBRANCH  36  38
ENDBRANCH  32  33
ENDBRANCH   1  32
TORSDOF 19
BEGIN_RES LYS A 131
REMARK  4 active torsions:
REMARK  status: ('A' for Active; 'I' for Inactive)
REMARK    1  A    between atoms: CA   and  CB  
REMARK    2  A    between atoms: CB   and  CG  
REMARK    3  A    between atoms: CG   and  CD  
REMARK    4  A    between atoms: CD   and  CE  
ROOT
ATOM      1  CA  LYS A 131      29.867  25.555  16.977  1.00 20.52     0.186 C 
ENDROOT
BRANCH   1   2
ATOM      2  CB  LYS A 131      28.345  25.722  17.026  1.00 20.94     0.034 C 
BRANCH   2   3
ATOM      3  CG  LYS A 131      27.601  24.402  16.893  1.00 22.96     0.005 C 
BRANCH   3   4
ATOM      4  CD  LYS A 131      26.158  24.522  17.295  1.00 24.33     0.041 C 
BRANCH   4   5
ATOM      5  CE  LYS A 131      26.012  25.617  18.347  1.00 26.91     0.338 C 
ATOM      6  NZ  LYS A 131      25.559  25.041  19.636  1.00 27.40     0.618 N 
ENDBRANCH   4   5
ENDBRANCH   3   4
ENDBRANCH   2   3
ENDBRANCH   1   2
END_RES LYS A 131
BEGIN_RES LYS A 135
REMARK  4 active torsions:
REMARK  status: ('A' for Active; 'I' for Inactive)
REMARK    5  A    between atoms: CA   and  CB  
REMARK    6  A    between atoms: CB   and  CG  
REMARK    7  A    between atoms: CG   and  CD  
REMARK    8  A    between atoms: CD   and  CE  
ROOT
ATOM      7  CA  LYS A 135      33.193  34.663   9.290  1.00 25.02     0.186 C 
ENDROOT
BRANCH   7   8
ATOM      8  CB  LYS A 135      32.060  35.360  10.034  1.00 26.63     0.034 C 
BRANCH   8   9
ATOM      9  CG  LYS A 135      30.742  34.636   9.939  1.00 29.45     0.005 C 
BRANCH   9  10
ATOM     10  CD  LYS A 135      30.350  34.424   8.485  1.00 32.00     0.041 C 
BRANCH  10  11
ATOM     11  CE  LYS A 135      28.840  34.417   8.336  1.00 34.25     0.338 C 
ATOM     12  NZ  LYS A 135      28.189  33.756   9.500  1.00 35.99     0.618 N 
ENDBRANCH  10  11
ENDBRANCH   9  10
ENDBRANCH   8   9
ENDBRANCH   7   8
END_RES LYS A 135
