REMARK VINA RESULT:    -3.888      2.630      4.841
REMARK INTER + INTRA:         -14.749
REMARK INTER:                  -7.081
REMARK INTRA:                  -7.668
REMARK UNBOUND:                -7.565
REMARK SMILES CC(=O)N[C@@H]1[C@@H](O)C[C@](O)(C(=O)O)O[C@H]1C(O)[C@H](O)CNC(=O)OCc1cn(CC(=O)Nc2ncccn2)nn1
REMARK SMILES IDX 21 1 22 2 23 3 20 5 18 6 16 7 15 8 9 9 8 10 14 11 6 12 5 13
REMARK SMILES IDX 10 14 11 16 12 17 13 18 7 20 4 22 2 23 1 25 3 26 17 27 19 29
REMARK SMILES IDX 24 31 25 32 26 33 27 34 40 35 28 36 39 37 29 38 30 39 31 40
REMARK SMILES IDX 32 41 33 43 34 44 38 45 35 46 37 47 36 48
REMARK H PARENT 21 4 10 15 13 19 7 21 4 24 17 28 19 30 32 42
REMARK Flexibility Score: inf
ROOT
ATOM      1  N   UNL     1      33.381  35.438  18.809  1.00  0.00    -0.319 N 
ATOM      2  C   UNL     1      32.628  36.144  19.809  1.00  0.00     0.407 C 
ATOM      3  O   UNL     1      32.507  37.393  19.766  1.00  0.00    -0.225 OA
ATOM      4  H   UNL     1      33.467  34.410  18.861  1.00  0.00     0.167 HD
ENDROOT
BRANCH   1   5
ATOM      5  C   UNL     1      33.990  36.211  17.762  1.00  0.00     0.154 C 
BRANCH   5   6
ATOM      6  C   UNL     1      33.473  35.870  16.386  1.00  0.00     0.165 C 
BRANCH   6   7
ATOM      7  C   UNL     1      32.704  37.068  15.886  1.00  0.00     0.176 C 
BRANCH   7   8
ATOM      8  C   UNL     1      31.623  36.652  14.885  1.00  0.00     0.178 C 
ATOM      9  C   UNL     1      31.151  35.182  13.239  1.00  0.00     0.269 C 
ATOM     10  C   UNL     1      30.218  36.169  12.638  1.00  0.00     0.112 C 
ATOM     11  O   UNL     1      32.144  35.790  13.952  1.00  0.00    -0.332 OA
ATOM     12  C   UNL     1      30.592  37.621  12.824  1.00  0.00     0.145 C 
ATOM     13  C   UNL     1      31.115  37.911  14.203  1.00  0.00     0.142 C 
BRANCH   9  14
ATOM     14  O   UNL     1      31.837  34.498  12.178  1.00  0.00    -0.357 OA
ATOM     15  H   UNL     1      32.779  34.823  12.156  1.00  0.00     0.214 HD
ENDBRANCH   9  14
BRANCH   9  16
ATOM     16  C   UNL     1      30.433  34.100  13.973  1.00  0.00     0.364 C 
ATOM     17  O   UNL     1      29.204  34.088  14.044  1.00  0.00    -0.246 OA
BRANCH  16  18
ATOM     18  O   UNL     1      31.124  33.063  14.606  1.00  0.00    -0.477 OA
ATOM     19  H   UNL     1      32.104  32.902  14.453  1.00  0.00     0.296 HD
ENDBRANCH  16  18
ENDBRANCH   9  16
BRANCH  12  20
ATOM     20  O   UNL     1      31.543  37.920  11.846  1.00  0.00    -0.391 OA
ATOM     21  H   UNL     1      32.455  37.611  12.111  1.00  0.00     0.211 HD
ENDBRANCH  12  20
BRANCH  13  22
ATOM     22  N   UNL     1      30.198  38.568  15.069  1.00  0.00    -0.348 N 
ATOM     23  C   UNL     1      30.042  39.973  15.173  1.00  0.00     0.217 C 
ATOM     24  H   UNL     1      29.577  37.995  15.691  1.00  0.00     0.163 HD
ATOM     25  C   UNL     1      29.059  40.597  16.112  1.00  0.00     0.114 C 
ATOM     26  O   UNL     1      30.758  40.688  14.451  1.00  0.00    -0.275 OA
ENDBRANCH  13  22
ENDBRANCH   7   8
BRANCH   7  27
ATOM     27  O   UNL     1      32.156  37.801  16.921  1.00  0.00    -0.388 OA
ATOM     28  H   UNL     1      31.668  38.585  16.521  1.00  0.00     0.211 HD
ENDBRANCH   7  27
ENDBRANCH   6   7
BRANCH   6  29
ATOM     29  O   UNL     1      32.656  34.748  16.508  1.00  0.00    -0.388 OA
ATOM     30  H   UNL     1      32.933  34.275  17.338  1.00  0.00     0.211 HD
ENDBRANCH   6  29
ENDBRANCH   5   6
ENDBRANCH   1   5
BRANCH   2  31
ATOM     31  O   UNL     1      32.015  35.477  20.844  1.00  0.00    -0.443 OA
BRANCH  31  32
ATOM     32  C   UNL     1      30.716  34.962  20.842  1.00  0.00     0.294 C 
BRANCH  32  33
ATOM     33  C   UNL     1      30.490  34.151  19.627  1.00  0.00     0.120 A 
ATOM     34  C   UNL     1      30.484  32.778  19.493  1.00  0.00     0.138 A 
ATOM     35  N   UNL     1      30.235  34.657  18.409  1.00  0.00    -0.132 NA
ATOM     36  N   UNL     1      30.229  32.507  18.214  1.00  0.00    -0.243 N 
ATOM     37  N   UNL     1      30.084  33.661  17.588  1.00  0.00    -0.067 NA
BRANCH  36  38
ATOM     38  C   UNL     1      30.125  31.155  17.656  1.00  0.00     0.246 C 
BRANCH  38  39
ATOM     39  C   UNL     1      29.084  31.129  16.586  1.00  0.00     0.248 C 
ATOM     40  O   UNL     1      29.293  30.768  15.416  1.00  0.00    -0.272 OA
ATOM     41  N   UNL     1      27.759  31.549  16.934  1.00  0.00    -0.293 N 
ATOM     42  H   UNL     1      27.555  31.859  17.911  1.00  0.00     0.173 HD
BRANCH  41  43
ATOM     43  C   UNL     1      26.705  31.554  15.992  1.00  0.00     0.229 A 
ATOM     44  N   UNL     1      26.010  30.452  15.650  1.00  0.00    -0.221 NA
ATOM     45  N   UNL     1      26.348  32.702  15.386  1.00  0.00    -0.221 NA
ATOM     46  C   UNL     1      25.008  30.486  14.749  1.00  0.00     0.117 A 
ATOM     47  C   UNL     1      25.369  32.803  14.490  1.00  0.00     0.117 A 
ATOM     48  C   UNL     1      24.657  31.673  14.139  1.00  0.00     0.040 A 
ENDBRANCH  41  43
ENDBRANCH  38  39
ENDBRANCH  36  38
ENDBRANCH  32  33
ENDBRANCH  31  32
ENDBRANCH   2  31
TORSDOF 17
BEGIN_RES LYS A 131
REMARK  4 active torsions:
REMARK  status: ('A' for Active; 'I' for Inactive)
REMARK    1  A    between atoms: CA   and  CB  
REMARK    2  A    between atoms: CB   and  CG  
REMARK    3  A    between atoms: CG   and  CD  
REMARK    4  A    between atoms: CD   and  CE  
ROOT
ATOM      1  CA  LYS A 131      29.867  25.555  16.977  1.00 20.52     0.186 C 
ENDROOT
BRANCH   1   2
ATOM      2  CB  LYS A 131      28.345  25.722  17.026  1.00 20.94     0.034 C 
BRANCH   2   3
ATOM      3  CG  LYS A 131      27.602  24.399  16.924  1.00 22.96     0.005 C 
BRANCH   3   4
ATOM      4  CD  LYS A 131      26.547  24.259  17.986  1.00 24.33     0.041 C 
BRANCH   4   5
ATOM      5  CE  LYS A 131      25.864  25.605  18.206  1.00 26.91     0.338 C 
ATOM      6  NZ  LYS A 131      24.460  25.557  17.735  1.00 27.40     0.618 N 
ENDBRANCH   4   5
ENDBRANCH   3   4
ENDBRANCH   2   3
ENDBRANCH   1   2
END_RES LYS A 131
BEGIN_RES LYS A 135
REMARK  4 active torsions:
REMARK  status: ('A' for Active; 'I' for Inactive)
REMARK    5  A    between atoms: CA   and  CB  
REMARK    6  A    between atoms: CB   and  CG  
REMARK    7  A    between atoms: CG   and  CD  
REMARK    8  A    between atoms: CD   and  CE  
ROOT
ATOM      7  CA  LYS A 135      33.193  34.663   9.290  1.00 25.02     0.186 C 
ENDROOT
BRANCH   7   8
ATOM      8  CB  LYS A 135      32.060  35.360  10.034  1.00 26.63     0.034 C 
BRANCH   8   9
ATOM      9  CG  LYS A 135      30.853  35.633   9.174  1.00 29.45     0.005 C 
BRANCH   9  10
ATOM     10  CD  LYS A 135      30.236  34.331   8.686  1.00 32.00     0.041 C 
BRANCH  10  11
ATOM     11  CE  LYS A 135      28.752  34.509   8.428  1.00 34.25     0.338 C 
ATOM     12  NZ  LYS A 135      27.941  33.769   9.434  1.00 35.99     0.618 N 
ENDBRANCH  10  11
ENDBRANCH   9  10
ENDBRANCH   8   9
ENDBRANCH   7   8
END_RES LYS A 135
