REMARK VINA RESULT:    -4.780      7.540     13.864
REMARK INTER + INTRA:         -14.836
REMARK INTER:                  -8.090
REMARK INTRA:                  -6.746
REMARK UNBOUND:                -6.145
REMARK SMILES CC(=O)N[C@@H]1[C@@H](O)C[C@](O)(C(=O)O)O[C@H]1C(O)[C@H](O)CNC(=O)OCc1cn(C(C)(C)CO)nn1
REMARK SMILES IDX 21 1 22 2 23 3 20 5 18 6 16 7 15 8 9 9 8 10 14 11 6 12 5 13
REMARK SMILES IDX 10 14 11 16 12 17 13 18 7 20 4 22 2 23 1 25 3 26 17 27 19 29
REMARK SMILES IDX 24 31 25 32 26 33 27 34 35 35 28 36 34 37 29 38 30 39 31 40
REMARK SMILES IDX 32 41 33 42
REMARK H PARENT 21 4 10 15 13 19 7 21 4 24 17 28 19 30 33 43
REMARK Flexibility Score: inf
ROOT
ATOM      1  N   UNL     1      27.824  28.674  18.105  1.00  0.00    -0.319 N 
ATOM      2  C   UNL     1      27.343  29.231  16.877  1.00  0.00     0.407 C 
ATOM      3  O   UNL     1      26.123  29.104  16.523  1.00  0.00    -0.225 OA
ATOM      4  H   UNL     1      28.822  28.816  18.351  1.00  0.00     0.167 HD
ENDROOT
BRANCH   1   5
ATOM      5  C   UNL     1      26.911  27.953  18.967  1.00  0.00     0.154 C 
BRANCH   5   6
ATOM      6  C   UNL     1      27.464  27.694  20.314  1.00  0.00     0.165 C 
BRANCH   6   7
ATOM      7  C   UNL     1      28.926  27.831  20.512  1.00  0.00     0.176 C 
BRANCH   7   8
ATOM      8  C   UNL     1      29.257  28.980  21.432  1.00  0.00     0.178 C 
ATOM      9  C   UNL     1      30.174  30.597  19.969  1.00  0.00     0.269 C 
ATOM     10  C   UNL     1      31.550  30.385  20.627  1.00  0.00     0.112 C 
ATOM     11  O   UNL     1      29.149  30.177  20.754  1.00  0.00    -0.332 OA
ATOM     12  C   UNL     1      31.270  30.191  22.079  1.00  0.00     0.145 C 
ATOM     13  C   UNL     1      30.535  28.825  22.199  1.00  0.00     0.142 C 
BRANCH   9  14
ATOM     14  O   UNL     1      30.215  30.083  18.690  1.00  0.00    -0.357 OA
ATOM     15  H   UNL     1      30.608  30.746  18.073  1.00  0.00     0.214 HD
ENDBRANCH   9  14
BRANCH   9  16
ATOM     16  C   UNL     1      29.994  32.095  19.833  1.00  0.00     0.364 C 
ATOM     17  O   UNL     1      29.171  32.712  20.549  1.00  0.00    -0.246 OA
BRANCH  16  18
ATOM     18  O   UNL     1      30.762  32.756  18.898  1.00  0.00    -0.477 OA
ATOM     19  H   UNL     1      30.635  33.744  18.709  1.00  0.00     0.296 HD
ENDBRANCH  16  18
ENDBRANCH   9  16
BRANCH  12  20
ATOM     20  O   UNL     1      32.401  30.187  22.871  1.00  0.00    -0.391 OA
ATOM     21  H   UNL     1      32.138  30.565  23.752  1.00  0.00     0.211 HD
ENDBRANCH  12  20
BRANCH  13  22
ATOM     22  N   UNL     1      30.326  28.724  23.652  1.00  0.00    -0.348 N 
ATOM     23  C   UNL     1      30.156  27.507  24.322  1.00  0.00     0.217 C 
ATOM     24  H   UNL     1      30.308  29.618  24.184  1.00  0.00     0.163 HD
ATOM     25  C   UNL     1      29.939  27.382  25.786  1.00  0.00     0.114 C 
ATOM     26  O   UNL     1      30.188  26.440  23.649  1.00  0.00    -0.275 OA
ENDBRANCH  13  22
ENDBRANCH   7   8
BRANCH   7  27
ATOM     27  O   UNL     1      29.676  26.710  20.643  1.00  0.00    -0.388 OA
ATOM     28  H   UNL     1      30.651  26.839  20.511  1.00  0.00     0.211 HD
ENDBRANCH   7  27
ENDBRANCH   6   7
BRANCH   6  29
ATOM     29  O   UNL     1      27.082  26.400  20.734  1.00  0.00    -0.388 OA
ATOM     30  H   UNL     1      26.169  26.239  20.407  1.00  0.00     0.211 HD
ENDBRANCH   6  29
ENDBRANCH   5   6
ENDBRANCH   1   5
BRANCH   2  31
ATOM     31  O   UNL     1      28.230  29.909  16.081  1.00  0.00    -0.443 OA
BRANCH  31  32
ATOM     32  C   UNL     1      28.084  31.255  15.738  1.00  0.00     0.294 C 
BRANCH  32  33
ATOM     33  C   UNL     1      29.398  31.949  15.698  1.00  0.00     0.120 A 
ATOM     34  C   UNL     1      29.592  33.218  15.213  1.00  0.00     0.139 A 
ATOM     35  N   UNL     1      30.590  31.509  16.098  1.00  0.00    -0.132 NA
ATOM     36  N   UNL     1      30.890  33.521  15.331  1.00  0.00    -0.244 N 
ATOM     37  N   UNL     1      31.476  32.454  15.877  1.00  0.00    -0.066 NA
BRANCH  36  38
ATOM     38  C   UNL     1      31.499  34.764  14.934  1.00  0.00     0.082 C 
ATOM     39  C   UNL     1      30.817  35.330  13.707  1.00  0.00     0.039 C 
ATOM     40  C   UNL     1      32.974  34.512  14.646  1.00  0.00     0.039 C 
BRANCH  38  41
ATOM     41  C   UNL     1      31.440  35.746  16.075  1.00  0.00     0.186 C 
BRANCH  41  42
ATOM     42  O   UNL     1      31.742  35.100  17.278  1.00  0.00    -0.394 OA
ATOM     43  H   UNL     1      31.044  35.331  17.942  1.00  0.00     0.210 HD
ENDBRANCH  41  42
ENDBRANCH  38  41
ENDBRANCH  36  38
ENDBRANCH  32  33
ENDBRANCH  31  32
ENDBRANCH   2  31
TORSDOF 17
BEGIN_RES LYS A 131
REMARK  4 active torsions:
REMARK  status: ('A' for Active; 'I' for Inactive)
REMARK    1  A    between atoms: CA   and  CB  
REMARK    2  A    between atoms: CB   and  CG  
REMARK    3  A    between atoms: CG   and  CD  
REMARK    4  A    between atoms: CD   and  CE  
ROOT
ATOM      1  CA  LYS A 131      29.867  25.555  16.977  1.00 20.52     0.186 C 
ENDROOT
BRANCH   1   2
ATOM      2  CB  LYS A 131      28.345  25.722  17.026  1.00 20.94     0.034 C 
BRANCH   2   3
ATOM      3  CG  LYS A 131      27.601  24.402  16.889  1.00 22.96     0.005 C 
BRANCH   3   4
ATOM      4  CD  LYS A 131      26.582  24.211  17.978  1.00 24.33     0.041 C 
BRANCH   4   5
ATOM      5  CE  LYS A 131      25.252  24.819  17.543  1.00 26.91     0.338 C 
ATOM      6  NZ  LYS A 131      24.396  23.792  16.905  1.00 27.40     0.618 N 
ENDBRANCH   4   5
ENDBRANCH   3   4
ENDBRANCH   2   3
ENDBRANCH   1   2
END_RES LYS A 131
BEGIN_RES LYS A 135
REMARK  4 active torsions:
REMARK  status: ('A' for Active; 'I' for Inactive)
REMARK    5  A    between atoms: CA   and  CB  
REMARK    6  A    between atoms: CB   and  CG  
REMARK    7  A    between atoms: CG   and  CD  
REMARK    8  A    between atoms: CD   and  CE  
ROOT
ATOM      7  CA  LYS A 135      33.193  34.663   9.290  1.00 25.02     0.186 C 
ENDROOT
BRANCH   7   8
ATOM      8  CB  LYS A 135      32.060  35.360  10.034  1.00 26.63     0.034 C 
BRANCH   8   9
ATOM      9  CG  LYS A 135      30.708  34.742   9.788  1.00 29.45     0.005 C 
BRANCH   9  10
ATOM     10  CD  LYS A 135      30.490  34.502   8.302  1.00 32.00     0.041 C 
BRANCH  10  11
ATOM     11  CE  LYS A 135      29.078  34.886   7.903  1.00 34.25     0.338 C 
ATOM     12  NZ  LYS A 135      28.955  36.359   7.717  1.00 35.99     0.618 N 
ENDBRANCH  10  11
ENDBRANCH   9  10
ENDBRANCH   8   9
ENDBRANCH   7   8
END_RES LYS A 135
