REMARK VINA RESULT:    -4.284      2.773      6.906
REMARK INTER + INTRA:         -14.152
REMARK INTER:                  -8.067
REMARK INTRA:                  -6.086
REMARK UNBOUND:                -6.362
REMARK SMILES CC(=O)N[C@@H]1[C@@H](O)C[C@](O)(C(=O)O)O[C@H]1C(O)[C@H](O)CNC(=O)OCc1cn(CC(=O)O)nn1
REMARK SMILES IDX 21 1 22 2 23 3 20 5 18 6 16 7 15 8 9 9 8 10 14 11 6 12 5 13
REMARK SMILES IDX 10 14 11 16 12 17 13 18 7 20 4 22 2 23 1 25 3 26 17 27 19 29
REMARK SMILES IDX 24 31 25 32 26 33 27 34 34 35 28 36 33 37 29 38 30 39 31 40
REMARK SMILES IDX 32 41
REMARK H PARENT 21 4 10 15 13 19 7 21 4 24 17 28 19 30 32 42
REMARK Flexibility Score: inf
ROOT
ATOM      1  N   UNL     1      28.224  29.345  16.206  1.00  0.00    -0.319 N 
ATOM      2  C   UNL     1      26.877  29.338  16.617  1.00  0.00     0.407 C 
ATOM      3  O   UNL     1      26.160  30.335  16.535  1.00  0.00    -0.225 OA
ATOM      4  H   UNL     1      28.732  28.416  16.322  1.00  0.00     0.167 HD
ENDROOT
BRANCH   1   5
ATOM      5  C   UNL     1      28.953  30.461  15.663  1.00  0.00     0.154 C 
BRANCH   5   6
ATOM      6  C   UNL     1      29.520  31.417  16.664  1.00  0.00     0.165 C 
BRANCH   6   7
ATOM      7  C   UNL     1      30.484  32.388  16.092  1.00  0.00     0.176 C 
BRANCH   7   8
ATOM      8  C   UNL     1      31.233  33.222  17.095  1.00  0.00     0.178 C 
ATOM      9  C   UNL     1      30.941  34.222  19.205  1.00  0.00     0.269 C 
ATOM     10  C   UNL     1      31.795  35.389  18.834  1.00  0.00     0.112 C 
ATOM     11  O   UNL     1      30.417  33.475  18.208  1.00  0.00    -0.332 OA
ATOM     12  C   UNL     1      32.670  35.063  17.665  1.00  0.00     0.145 C 
ATOM     13  C   UNL     1      31.713  34.550  16.573  1.00  0.00     0.142 C 
BRANCH   9  14
ATOM     14  O   UNL     1      29.905  34.740  20.039  1.00  0.00    -0.357 OA
ATOM     15  H   UNL     1      29.391  35.361  19.455  1.00  0.00     0.214 HD
ENDBRANCH   9  14
BRANCH   9  16
ATOM     16  C   UNL     1      31.730  33.345  20.121  1.00  0.00     0.364 C 
ATOM     17  O   UNL     1      32.752  33.704  20.740  1.00  0.00    -0.246 OA
BRANCH  16  18
ATOM     18  O   UNL     1      31.310  32.044  20.304  1.00  0.00    -0.477 OA
ATOM     19  H   UNL     1      30.399  31.707  20.000  1.00  0.00     0.296 HD
ENDBRANCH  16  18
ENDBRANCH   9  16
BRANCH  12  20
ATOM     20  O   UNL     1      33.381  36.167  17.202  1.00  0.00    -0.391 OA
ATOM     21  H   UNL     1      33.953  36.477  17.952  1.00  0.00     0.211 HD
ENDBRANCH  12  20
BRANCH  13  22
ATOM     22  N   UNL     1      32.402  34.544  15.324  1.00  0.00    -0.348 N 
ATOM     23  C   UNL     1      32.042  35.407  14.245  1.00  0.00     0.217 C 
ATOM     24  H   UNL     1      33.206  33.906  15.177  1.00  0.00     0.163 HD
ATOM     25  C   UNL     1      32.732  35.429  12.936  1.00  0.00     0.114 C 
ATOM     26  O   UNL     1      31.082  36.193  14.423  1.00  0.00    -0.275 OA
ENDBRANCH  13  22
ENDBRANCH   7   8
BRANCH   7  27
ATOM     27  O   UNL     1      31.301  31.801  15.140  1.00  0.00    -0.388 OA
ATOM     28  H   UNL     1      30.863  31.030  14.696  1.00  0.00     0.211 HD
ENDBRANCH   7  27
ENDBRANCH   6   7
BRANCH   6  29
ATOM     29  O   UNL     1      30.095  30.674  17.707  1.00  0.00    -0.388 OA
ATOM     30  H   UNL     1      31.078  30.690  17.671  1.00  0.00     0.211 HD
ENDBRANCH   6  29
ENDBRANCH   5   6
ENDBRANCH   1   5
BRANCH   2  31
ATOM     31  O   UNL     1      26.295  28.184  17.137  1.00  0.00    -0.443 OA
BRANCH  31  32
ATOM     32  C   UNL     1      25.942  27.997  18.471  1.00  0.00     0.294 C 
BRANCH  32  33
ATOM     33  C   UNL     1      27.064  28.135  19.432  1.00  0.00     0.120 A 
ATOM     34  C   UNL     1      28.143  27.333  19.636  1.00  0.00     0.139 A 
ATOM     35  N   UNL     1      27.205  29.157  20.327  1.00  0.00    -0.132 NA
ATOM     36  N   UNL     1      28.895  27.864  20.617  1.00  0.00    -0.241 N 
ATOM     37  N   UNL     1      28.318  28.963  21.024  1.00  0.00    -0.066 NA
BRANCH  36  38
ATOM     38  C   UNL     1      30.130  27.301  21.124  1.00  0.00     0.268 C 
BRANCH  38  39
ATOM     39  C   UNL     1      31.233  28.262  20.929  1.00  0.00     0.325 C 
ATOM     40  O   UNL     1      32.202  28.261  21.740  1.00  0.00    -0.250 OA
BRANCH  39  41
ATOM     41  O   UNL     1      31.213  29.150  19.874  1.00  0.00    -0.480 OA
ATOM     42  H   UNL     1      31.109  28.750  18.937  1.00  0.00     0.296 HD
ENDBRANCH  39  41
ENDBRANCH  38  39
ENDBRANCH  36  38
ENDBRANCH  32  33
ENDBRANCH  31  32
ENDBRANCH   2  31
TORSDOF 17
BEGIN_RES LYS A 131
REMARK  4 active torsions:
REMARK  status: ('A' for Active; 'I' for Inactive)
REMARK    1  A    between atoms: CA   and  CB  
REMARK    2  A    between atoms: CB   and  CG  
REMARK    3  A    between atoms: CG   and  CD  
REMARK    4  A    between atoms: CD   and  CE  
ROOT
ATOM      1  CA  LYS A 131      29.867  25.555  16.977  1.00 20.52     0.186 C 
ENDROOT
BRANCH   1   2
ATOM      2  CB  LYS A 131      28.345  25.722  17.026  1.00 20.94     0.034 C 
BRANCH   2   3
ATOM      3  CG  LYS A 131      27.603  24.396  16.963  1.00 22.96     0.005 C 
BRANCH   3   4
ATOM      4  CD  LYS A 131      26.614  24.246  18.086  1.00 24.33     0.041 C 
BRANCH   4   5
ATOM      5  CE  LYS A 131      25.245  23.893  17.515  1.00 26.91     0.338 C 
ATOM      6  NZ  LYS A 131      25.053  22.424  17.495  1.00 27.40     0.618 N 
ENDBRANCH   4   5
ENDBRANCH   3   4
ENDBRANCH   2   3
ENDBRANCH   1   2
END_RES LYS A 131
BEGIN_RES LYS A 135
REMARK  4 active torsions:
REMARK  status: ('A' for Active; 'I' for Inactive)
REMARK    5  A    between atoms: CA   and  CB  
REMARK    6  A    between atoms: CB   and  CG  
REMARK    7  A    between atoms: CG   and  CD  
REMARK    8  A    between atoms: CD   and  CE  
ROOT
ATOM      7  CA  LYS A 135      33.193  34.663   9.290  1.00 25.02     0.186 C 
ENDROOT
BRANCH   7   8
ATOM      8  CB  LYS A 135      32.060  35.360  10.034  1.00 26.63     0.034 C 
BRANCH   8   9
ATOM      9  CG  LYS A 135      30.711  34.730   9.803  1.00 29.45     0.005 C 
BRANCH   9  10
ATOM     10  CD  LYS A 135      30.466  34.514   8.318  1.00 32.00     0.041 C 
BRANCH  10  11
ATOM     11  CE  LYS A 135      29.022  34.817   7.966  1.00 34.25     0.338 C 
ATOM     12  NZ  LYS A 135      28.926  35.542   6.669  1.00 35.99     0.618 N 
ENDBRANCH  10  11
ENDBRANCH   9  10
ENDBRANCH   8   9
ENDBRANCH   7   8
END_RES LYS A 135
