REMARK VINA RESULT:    -4.842      1.523      2.783
REMARK INTER + INTRA:         -15.637
REMARK INTER:                 -10.075
REMARK INTRA:                  -5.562
REMARK UNBOUND:                -6.408
REMARK SMILES CC(=O)N[C@@H]1[C@@H](O)C[C@](O)(C(=O)O)O[C@H]1C(O)[C@H](O)CNC(=O)OCc1cn(-c2ccc(S(=O)(=O)Nc3nccs3)cc2)nn1
REMARK SMILES IDX 21 1 22 2 23 3 20 5 18 6 16 7 15 8 9 9 8 10 14 11 6 12 5 13
REMARK SMILES IDX 10 14 11 16 12 17 13 18 7 20 4 22 2 23 1 25 3 26 17 27 19 29
REMARK SMILES IDX 24 31 25 32 26 33 27 34 45 35 28 36 44 37 29 38 30 39 43 40
REMARK SMILES IDX 31 41 42 42 32 43 33 44 34 45 35 46 36 47 37 49 38 50 41 51
REMARK SMILES IDX 39 52 40 53
REMARK H PARENT 21 4 10 15 13 19 7 21 4 24 17 28 19 30 36 48
REMARK Flexibility Score: inf
ROOT
ATOM      1  N   UNL     1      29.617  27.003  20.352  1.00  0.00    -0.319 N 
ATOM      2  C   UNL     1      28.339  27.561  20.576  1.00  0.00     0.407 C 
ATOM      3  O   UNL     1      27.943  27.715  21.781  1.00  0.00    -0.225 OA
ATOM      4  H   UNL     1      29.945  26.877  19.380  1.00  0.00     0.167 HD
ENDROOT
BRANCH   1   5
ATOM      5  C   UNL     1      30.473  26.611  21.439  1.00  0.00     0.154 C 
BRANCH   5   6
ATOM      6  C   UNL     1      31.882  27.129  21.289  1.00  0.00     0.165 C 
BRANCH   6   7
ATOM      7  C   UNL     1      31.986  28.591  21.615  1.00  0.00     0.176 C 
BRANCH   7   8
ATOM      8  C   UNL     1      32.451  28.792  23.069  1.00  0.00     0.178 C 
ATOM      9  C   UNL     1      30.467  29.398  24.193  1.00  0.00     0.269 C 
ATOM     10  C   UNL     1      31.137  30.680  24.648  1.00  0.00     0.112 C 
ATOM     11  O   UNL     1      31.397  28.474  23.870  1.00  0.00    -0.332 OA
ATOM     12  C   UNL     1      31.944  31.161  23.467  1.00  0.00     0.145 C 
ATOM     13  C   UNL     1      33.029  30.145  23.203  1.00  0.00     0.142 C 
BRANCH   9  14
ATOM     14  O   UNL     1      29.734  29.740  23.049  1.00  0.00    -0.357 OA
ATOM     15  H   UNL     1      29.258  28.984  22.658  1.00  0.00     0.214 HD
ENDBRANCH   9  14
BRANCH   9  16
ATOM     16  C   UNL     1      29.494  28.917  25.208  1.00  0.00     0.364 C 
ATOM     17  O   UNL     1      29.191  27.716  25.246  1.00  0.00    -0.246 OA
BRANCH  16  18
ATOM     18  O   UNL     1      28.921  29.794  26.110  1.00  0.00    -0.477 OA
ATOM     19  H   UNL     1      29.411  30.662  26.368  1.00  0.00     0.296 HD
ENDBRANCH  16  18
ENDBRANCH   9  16
BRANCH  12  20
ATOM     20  O   UNL     1      31.110  31.367  22.374  1.00  0.00    -0.391 OA
ATOM     21  H   UNL     1      31.676  31.734  21.634  1.00  0.00     0.211 HD
ENDBRANCH  12  20
BRANCH  13  22
ATOM     22  N   UNL     1      34.022  30.303  24.215  1.00  0.00    -0.348 N 
ATOM     23  C   UNL     1      35.392  30.337  23.874  1.00  0.00     0.217 C 
ATOM     24  H   UNL     1      33.749  30.390  25.208  1.00  0.00     0.163 HD
ATOM     25  C   UNL     1      36.491  30.496  24.860  1.00  0.00     0.114 C 
ATOM     26  O   UNL     1      35.693  30.228  22.678  1.00  0.00    -0.275 OA
ENDBRANCH  13  22
ENDBRANCH   7   8
BRANCH   7  27
ATOM     27  O   UNL     1      32.870  29.272  20.747  1.00  0.00    -0.388 OA
ATOM     28  H   UNL     1      33.550  28.634  20.464  1.00  0.00     0.211 HD
ENDBRANCH   7  27
ENDBRANCH   6   7
BRANCH   6  29
ATOM     29  O   UNL     1      32.231  26.878  19.944  1.00  0.00    -0.388 OA
ATOM     30  H   UNL     1      32.939  26.188  19.968  1.00  0.00     0.211 HD
ENDBRANCH   6  29
ENDBRANCH   5   6
ENDBRANCH   1   5
BRANCH   2  31
ATOM     31  O   UNL     1      27.483  27.951  19.567  1.00  0.00    -0.443 OA
BRANCH  31  32
ATOM     32  C   UNL     1      27.095  29.321  19.390  1.00  0.00     0.294 C 
BRANCH  32  33
ATOM     33  C   UNL     1      28.362  30.093  19.223  1.00  0.00     0.121 A 
ATOM     34  C   UNL     1      28.716  30.894  18.135  1.00  0.00     0.144 A 
ATOM     35  N   UNL     1      29.414  30.187  20.063  1.00  0.00    -0.131 NA
ATOM     36  N   UNL     1      29.931  31.424  18.349  1.00  0.00    -0.220 N 
ATOM     37  N   UNL     1      30.316  30.971  19.526  1.00  0.00    -0.062 NA
BRANCH  36  38
ATOM     38  C   UNL     1      30.616  32.292  17.456  1.00  0.00     0.066 A 
ATOM     39  C   UNL     1      31.192  33.472  17.864  1.00  0.00     0.030 A 
ATOM     40  C   UNL     1      30.718  31.956  16.123  1.00  0.00     0.030 A 
ATOM     41  C   UNL     1      31.858  34.311  16.971  1.00  0.00     0.024 A 
ATOM     42  C   UNL     1      31.376  32.782  15.239  1.00  0.00     0.024 A 
ATOM     43  C   UNL     1      31.967  33.985  15.639  1.00  0.00     0.088 A 
BRANCH  43  44
ATOM     44  S   UNL     1      32.798  34.992  14.491  1.00  0.00     0.263 S 
ATOM     45  O   UNL     1      34.166  34.361  14.262  1.00  0.00    -0.201 OA
ATOM     46  O   UNL     1      33.046  36.312  15.136  1.00  0.00    -0.201 OA
BRANCH  44  47
ATOM     47  N   UNL     1      32.006  35.162  12.998  1.00  0.00    -0.255 N 
ATOM     48  H   UNL     1      32.462  34.726  12.151  1.00  0.00     0.182 HD
BRANCH  47  49
ATOM     49  C   UNL     1      30.794  35.827  12.750  1.00  0.00     0.196 A 
ATOM     50  N   UNL     1      30.336  36.929  12.492  1.00  0.00    -0.228 NA
ATOM     51  S   UNL     1      29.184  34.838  12.773  1.00  0.00    -0.105 S 
ATOM     52  C   UNL     1      29.101  37.268  12.300  1.00  0.00     0.125 A 
ATOM     53  C   UNL     1      28.137  36.324  12.381  1.00  0.00     0.089 A 
ENDBRANCH  47  49
ENDBRANCH  44  47
ENDBRANCH  43  44
ENDBRANCH  36  38
ENDBRANCH  32  33
ENDBRANCH  31  32
ENDBRANCH   2  31
TORSDOF 18
BEGIN_RES LYS A 131
REMARK  4 active torsions:
REMARK  status: ('A' for Active; 'I' for Inactive)
REMARK    1  A    between atoms: CA   and  CB  
REMARK    2  A    between atoms: CB   and  CG  
REMARK    3  A    between atoms: CG   and  CD  
REMARK    4  A    between atoms: CD   and  CE  
ROOT
ATOM      1  CA  LYS A 131      29.867  25.555  16.977  1.00 20.52     0.186 C 
ENDROOT
BRANCH   1   2
ATOM      2  CB  LYS A 131      28.345  25.722  17.026  1.00 20.94     0.034 C 
BRANCH   2   3
ATOM      3  CG  LYS A 131      27.602  24.400  16.912  1.00 22.96     0.005 C 
BRANCH   3   4
ATOM      4  CD  LYS A 131      26.618  24.205  18.033  1.00 24.33     0.041 C 
BRANCH   4   5
ATOM      5  CE  LYS A 131      25.312  24.915  17.692  1.00 26.91     0.338 C 
ATOM      6  NZ  LYS A 131      24.438  24.034  16.882  1.00 27.40     0.618 N 
ENDBRANCH   4   5
ENDBRANCH   3   4
ENDBRANCH   2   3
ENDBRANCH   1   2
END_RES LYS A 131
BEGIN_RES LYS A 135
REMARK  4 active torsions:
REMARK  status: ('A' for Active; 'I' for Inactive)
REMARK    5  A    between atoms: CA   and  CB  
REMARK    6  A    between atoms: CB   and  CG  
REMARK    7  A    between atoms: CG   and  CD  
REMARK    8  A    between atoms: CD   and  CE  
ROOT
ATOM      7  CA  LYS A 135      33.193  34.663   9.290  1.00 25.02     0.186 C 
ENDROOT
BRANCH   7   8
ATOM      8  CB  LYS A 135      32.060  35.360  10.034  1.00 26.63     0.034 C 
BRANCH   8   9
ATOM      9  CG  LYS A 135      30.730  35.265   9.332  1.00 29.45     0.005 C 
BRANCH   9  10
ATOM     10  CD  LYS A 135      30.317  36.620   8.778  1.00 32.00     0.041 C 
BRANCH  10  11
ATOM     11  CE  LYS A 135      28.924  36.551   8.183  1.00 34.25     0.338 C 
ATOM     12  NZ  LYS A 135      28.890  35.641   7.004  1.00 35.99     0.618 N 
ENDBRANCH  10  11
ENDBRANCH   9  10
ENDBRANCH   8   9
ENDBRANCH   7   8
END_RES LYS A 135
