REMARK VINA RESULT:    -4.684      4.295      8.826
REMARK INTER + INTRA:         -14.383
REMARK INTER:                  -8.500
REMARK INTRA:                  -5.883
REMARK UNBOUND:                -6.003
REMARK SMILES CC(=O)N[C@@H]1[C@@H](O)C[C@](O)(C(=O)O)O[C@H]1C(O)[C@H](O)CNC(=O)OCc1cn(Cc2ccc3c(c2)OCO3)nn1
REMARK SMILES IDX 21 1 22 2 23 3 20 5 18 6 16 7 15 8 9 9 8 10 14 11 6 12 5 13
REMARK SMILES IDX 10 14 11 16 12 17 13 18 7 20 4 22 2 23 1 25 3 26 17 27 19 29
REMARK SMILES IDX 24 31 25 32 26 33 27 34 40 35 28 36 39 37 29 38 30 39 31 40
REMARK SMILES IDX 35 41 32 42 34 43 33 44 36 45 38 46 37 47
REMARK H PARENT 21 4 10 15 13 19 7 21 4 24 17 28 19 30
REMARK Flexibility Score: inf
ROOT
ATOM      1  N   UNL     1      27.861  31.025  18.662  1.00  0.00    -0.319 N 
ATOM      2  C   UNL     1      27.026  29.911  18.954  1.00  0.00     0.407 C 
ATOM      3  O   UNL     1      27.555  28.792  19.254  1.00  0.00    -0.225 OA
ATOM      4  H   UNL     1      27.405  31.918  18.424  1.00  0.00     0.167 HD
ENDROOT
BRANCH   1   5
ATOM      5  C   UNL     1      29.286  30.819  18.724  1.00  0.00     0.154 C 
BRANCH   5   6
ATOM      6  C   UNL     1      30.080  32.078  18.574  1.00  0.00     0.165 C 
BRANCH   6   7
ATOM      7  C   UNL     1      30.616  32.268  17.173  1.00  0.00     0.176 C 
BRANCH   7   8
ATOM      8  C   UNL     1      29.933  33.450  16.492  1.00  0.00     0.178 C 
ATOM      9  C   UNL     1      27.642  33.433  16.123  1.00  0.00     0.269 C 
ATOM     10  C   UNL     1      27.748  34.156  14.799  1.00  0.00     0.112 C 
ATOM     11  O   UNL     1      28.680  33.677  16.976  1.00  0.00    -0.332 OA
ATOM     12  C   UNL     1      29.184  34.471  14.434  1.00  0.00     0.145 C 
ATOM     13  C   UNL     1      30.031  33.351  14.992  1.00  0.00     0.142 C 
BRANCH   9  14
ATOM     14  O   UNL     1      27.465  32.052  15.918  1.00  0.00    -0.357 OA
ATOM     15  H   UNL     1      27.977  31.511  16.547  1.00  0.00     0.214 HD
ENDBRANCH   9  14
BRANCH   9  16
ATOM     16  C   UNL     1      26.392  33.913  16.773  1.00  0.00     0.364 C 
ATOM     17  O   UNL     1      26.280  33.892  18.036  1.00  0.00    -0.246 OA
BRANCH  16  18
ATOM     18  O   UNL     1      25.303  34.398  16.070  1.00  0.00    -0.477 OA
ATOM     19  H   UNL     1      24.529  34.798  16.610  1.00  0.00     0.296 HD
ENDBRANCH  16  18
ENDBRANCH   9  16
BRANCH  12  20
ATOM     20  O   UNL     1      29.341  34.627  13.062  1.00  0.00    -0.391 OA
ATOM     21  H   UNL     1      29.365  33.725  12.661  1.00  0.00     0.211 HD
ENDBRANCH  12  20
BRANCH  13  22
ATOM     22  N   UNL     1      31.388  33.392  14.578  1.00  0.00    -0.348 N 
ATOM     23  C   UNL     1      32.176  34.569  14.664  1.00  0.00     0.217 C 
ATOM     24  H   UNL     1      31.806  32.494  14.191  1.00  0.00     0.163 HD
ATOM     25  C   UNL     1      33.606  34.578  14.218  1.00  0.00     0.114 C 
ATOM     26  O   UNL     1      31.613  35.591  15.132  1.00  0.00    -0.275 OA
ENDBRANCH  13  22
ENDBRANCH   7   8
BRANCH   7  27
ATOM     27  O   UNL     1      30.288  31.130  16.437  1.00  0.00    -0.388 OA
ATOM     28  H   UNL     1      29.306  31.015  16.422  1.00  0.00     0.211 HD
ENDBRANCH   7  27
ENDBRANCH   6   7
BRANCH   6  29
ATOM     29  O   UNL     1      31.137  32.022  19.481  1.00  0.00    -0.388 OA
ATOM     30  H   UNL     1      30.856  32.261  20.398  1.00  0.00     0.211 HD
ENDBRANCH   6  29
ENDBRANCH   5   6
ENDBRANCH   1   5
BRANCH   2  31
ATOM     31  O   UNL     1      25.638  29.985  18.929  1.00  0.00    -0.443 OA
BRANCH  31  32
ATOM     32  C   UNL     1      24.937  29.232  17.945  1.00  0.00     0.294 C 
BRANCH  32  33
ATOM     33  C   UNL     1      24.703  30.052  16.735  1.00  0.00     0.120 A 
ATOM     34  C   UNL     1      24.736  29.579  15.454  1.00  0.00     0.138 A 
ATOM     35  N   UNL     1      24.429  31.353  16.648  1.00  0.00    -0.132 NA
ATOM     36  N   UNL     1      24.483  30.605  14.630  1.00  0.00    -0.248 N 
ATOM     37  N   UNL     1      24.298  31.675  15.367  1.00  0.00    -0.067 NA
BRANCH  36  38
ATOM     38  C   UNL     1      24.427  30.524  13.187  1.00  0.00     0.181 C 
BRANCH  38  39
ATOM     39  C   UNL     1      22.994  30.356  12.815  1.00  0.00    -0.023 A 
ATOM     40  C   UNL     1      22.533  29.096  12.510  1.00  0.00     0.010 A 
ATOM     41  C   UNL     1      22.124  31.416  12.767  1.00  0.00     0.056 A 
ATOM     42  C   UNL     1      21.199  28.917  12.161  1.00  0.00     0.051 A 
ATOM     43  C   UNL     1      20.800  31.234  12.419  1.00  0.00     0.166 A 
ATOM     44  C   UNL     1      20.328  29.986  12.114  1.00  0.00     0.165 A 
ATOM     45  O   UNL     1      19.764  32.142  12.308  1.00  0.00    -0.454 OA
ATOM     46  O   UNL     1      18.987  30.069  11.802  1.00  0.00    -0.454 OA
ATOM     47  C   UNL     1      18.583  31.389  12.140  1.00  0.00     0.468 C 
ENDBRANCH  38  39
ENDBRANCH  36  38
ENDBRANCH  32  33
ENDBRANCH  31  32
ENDBRANCH   2  31
TORSDOF 16
BEGIN_RES LYS A 131
REMARK  4 active torsions:
REMARK  status: ('A' for Active; 'I' for Inactive)
REMARK    1  A    between atoms: CA   and  CB  
REMARK    2  A    between atoms: CB   and  CG  
REMARK    3  A    between atoms: CG   and  CD  
REMARK    4  A    between atoms: CD   and  CE  
ROOT
ATOM      1  CA  LYS A 131      29.867  25.555  16.977  1.00 20.52     0.186 C 
ENDROOT
BRANCH   1   2
ATOM      2  CB  LYS A 131      28.345  25.722  17.026  1.00 20.94     0.034 C 
BRANCH   2   3
ATOM      3  CG  LYS A 131      27.602  24.400  16.916  1.00 22.96     0.005 C 
BRANCH   3   4
ATOM      4  CD  LYS A 131      26.486  24.293  17.918  1.00 24.33     0.041 C 
BRANCH   4   5
ATOM      5  CE  LYS A 131      26.391  25.590  18.715  1.00 26.91     0.338 C 
ATOM      6  NZ  LYS A 131      25.551  25.398  19.921  1.00 27.40     0.618 N 
ENDBRANCH   4   5
ENDBRANCH   3   4
ENDBRANCH   2   3
ENDBRANCH   1   2
END_RES LYS A 131
BEGIN_RES LYS A 135
REMARK  4 active torsions:
REMARK  status: ('A' for Active; 'I' for Inactive)
REMARK    5  A    between atoms: CA   and  CB  
REMARK    6  A    between atoms: CB   and  CG  
REMARK    7  A    between atoms: CG   and  CD  
REMARK    8  A    between atoms: CD   and  CE  
ROOT
ATOM      7  CA  LYS A 135      33.193  34.663   9.290  1.00 25.02     0.186 C 
ENDROOT
BRANCH   7   8
ATOM      8  CB  LYS A 135      32.060  35.360  10.034  1.00 26.63     0.034 C 
BRANCH   8   9
ATOM      9  CG  LYS A 135      30.699  34.789   9.731  1.00 29.45     0.005 C 
BRANCH   9  10
ATOM     10  CD  LYS A 135      30.434  34.800   8.233  1.00 32.00     0.041 C 
BRANCH  10  11
ATOM     11  CE  LYS A 135      29.041  35.327   7.943  1.00 34.25     0.338 C 
ATOM     12  NZ  LYS A 135      28.832  35.512   6.480  1.00 35.99     0.618 N 
ENDBRANCH  10  11
ENDBRANCH   9  10
ENDBRANCH   8   9
ENDBRANCH   7   8
END_RES LYS A 135
