REMARK VINA RESULT:    -4.785      9.108     14.545
REMARK INTER + INTRA:         -15.528
REMARK INTER:                  -8.258
REMARK INTRA:                  -7.269
REMARK UNBOUND:                -6.408
REMARK SMILES CC(=O)N[C@@H]1[C@@H](O)C[C@](O)(C(=O)O)O[C@H]1C(O)[C@H](O)CNC(=O)OCc1cn(-c2ccc(S(=O)(=O)Nc3nccs3)cc2)nn1
REMARK SMILES IDX 21 1 22 2 23 3 20 5 18 6 16 7 15 8 9 9 8 10 14 11 6 12 5 13
REMARK SMILES IDX 10 14 11 16 12 17 13 18 7 20 4 22 2 23 1 25 3 26 17 27 19 29
REMARK SMILES IDX 24 31 25 32 26 33 27 34 45 35 28 36 44 37 29 38 30 39 43 40
REMARK SMILES IDX 31 41 42 42 32 43 33 44 34 45 35 46 36 47 37 49 38 50 41 51
REMARK SMILES IDX 39 52 40 53
REMARK H PARENT 21 4 10 15 13 19 7 21 4 24 17 28 19 30 36 48
REMARK Flexibility Score: inf
ROOT
ATOM      1  N   UNL     1      20.779  38.071   7.995  1.00  0.00    -0.319 N 
ATOM      2  C   UNL     1      20.496  38.916   9.091  1.00  0.00     0.407 C 
ATOM      3  O   UNL     1      20.796  38.513  10.266  1.00  0.00    -0.225 OA
ATOM      4  H   UNL     1      20.540  38.391   7.042  1.00  0.00     0.167 HD
ENDROOT
BRANCH   1   5
ATOM      5  C   UNL     1      21.391  36.782   8.171  1.00  0.00     0.154 C 
BRANCH   5   6
ATOM      6  C   UNL     1      22.804  36.729   7.646  1.00  0.00     0.165 C 
BRANCH   6   7
ATOM      7  C   UNL     1      23.819  36.706   8.751  1.00  0.00     0.176 C 
BRANCH   7   8
ATOM      8  C   UNL     1      24.903  37.774   8.518  1.00  0.00     0.178 C 
ATOM      9  C   UNL     1      26.726  36.525   7.691  1.00  0.00     0.269 C 
ATOM     10  C   UNL     1      27.581  37.056   8.825  1.00  0.00     0.112 C 
ATOM     11  O   UNL     1      25.670  37.341   7.480  1.00  0.00    -0.332 OA
ATOM     12  C   UNL     1      26.690  37.061  10.043  1.00  0.00     0.145 C 
ATOM     13  C   UNL     1      25.581  38.054   9.801  1.00  0.00     0.142 C 
BRANCH   9  14
ATOM     14  O   UNL     1      26.268  35.272   8.119  1.00  0.00    -0.357 OA
ATOM     15  H   UNL     1      26.973  34.599   8.158  1.00  0.00     0.214 HD
ENDBRANCH   9  14
BRANCH   9  16
ATOM     16  C   UNL     1      27.542  36.299   6.470  1.00  0.00     0.364 C 
ATOM     17  O   UNL     1      28.521  35.540   6.520  1.00  0.00    -0.246 OA
BRANCH  16  18
ATOM     18  O   UNL     1      27.225  36.925   5.281  1.00  0.00    -0.477 OA
ATOM     19  H   UNL     1      27.778  37.733   4.958  1.00  0.00     0.296 HD
ENDBRANCH  16  18
ENDBRANCH   9  16
BRANCH  12  20
ATOM     20  O   UNL     1      26.226  35.775  10.296  1.00  0.00    -0.391 OA
ATOM     21  H   UNL     1      26.191  35.663  11.291  1.00  0.00     0.211 HD
ENDBRANCH  12  20
BRANCH  13  22
ATOM     22  N   UNL     1      26.135  39.362   9.941  1.00  0.00    -0.348 N 
ATOM     23  C   UNL     1      25.849  40.142  11.082  1.00  0.00     0.217 C 
ATOM     24  H   UNL     1      26.750  39.752   9.207  1.00  0.00     0.163 HD
ATOM     25  C   UNL     1      26.380  41.510  11.309  1.00  0.00     0.114 C 
ATOM     26  O   UNL     1      25.108  39.654  11.946  1.00  0.00    -0.275 OA
ENDBRANCH  13  22
ENDBRANCH   7   8
BRANCH   7  27
ATOM     27  O   UNL     1      23.233  36.909  10.022  1.00  0.00    -0.388 OA
ATOM     28  H   UNL     1      23.447  37.819  10.299  1.00  0.00     0.211 HD
ENDBRANCH   7  27
ENDBRANCH   6   7
BRANCH   6  29
ATOM     29  O   UNL     1      22.946  37.882   6.843  1.00  0.00    -0.388 OA
ATOM     30  H   UNL     1      23.646  38.432   7.274  1.00  0.00     0.211 HD
ENDBRANCH   6  29
ENDBRANCH   5   6
ENDBRANCH   1   5
BRANCH   2  31
ATOM     31  O   UNL     1      19.910  40.159   8.971  1.00  0.00    -0.443 OA
BRANCH  31  32
ATOM     32  C   UNL     1      20.616  41.364   9.298  1.00  0.00     0.294 C 
BRANCH  32  33
ATOM     33  C   UNL     1      21.660  41.533   8.244  1.00  0.00     0.121 A 
ATOM     34  C   UNL     1      23.008  41.179   8.337  1.00  0.00     0.144 A 
ATOM     35  N   UNL     1      21.535  42.048   7.003  1.00  0.00    -0.131 NA
ATOM     36  N   UNL     1      23.629  41.486   7.187  1.00  0.00    -0.220 N 
ATOM     37  N   UNL     1      22.703  42.008   6.408  1.00  0.00    -0.062 NA
BRANCH  36  38
ATOM     38  C   UNL     1      25.007  41.268   6.916  1.00  0.00     0.066 A 
ATOM     39  C   UNL     1      26.010  41.884   7.629  1.00  0.00     0.030 A 
ATOM     40  C   UNL     1      25.376  40.410   5.902  1.00  0.00     0.030 A 
ATOM     41  C   UNL     1      27.356  41.658   7.346  1.00  0.00     0.024 A 
ATOM     42  C   UNL     1      26.705  40.184   5.621  1.00  0.00     0.024 A 
ATOM     43  C   UNL     1      27.735  40.803   6.337  1.00  0.00     0.088 A 
BRANCH  43  44
ATOM     44  S   UNL     1      29.400  40.480   5.956  1.00  0.00     0.263 S 
ATOM     45  O   UNL     1      29.724  41.267   4.692  1.00  0.00    -0.201 OA
ATOM     46  O   UNL     1      29.515  39.039   5.594  1.00  0.00    -0.201 OA
BRANCH  44  47
ATOM     47  N   UNL     1      30.501  40.910   7.177  1.00  0.00    -0.255 N 
ATOM     48  H   UNL     1      30.937  41.871   7.125  1.00  0.00     0.182 HD
BRANCH  47  49
ATOM     49  C   UNL     1      30.909  40.125   8.267  1.00  0.00     0.196 A 
ATOM     50  N   UNL     1      31.793  39.365   8.630  1.00  0.00    -0.228 NA
ATOM     51  S   UNL     1      29.849  40.106   9.831  1.00  0.00    -0.105 S 
ATOM     52  C   UNL     1      31.922  38.753   9.763  1.00  0.00     0.125 A 
ATOM     53  C   UNL     1      30.985  38.933  10.721  1.00  0.00     0.089 A 
ENDBRANCH  47  49
ENDBRANCH  44  47
ENDBRANCH  43  44
ENDBRANCH  36  38
ENDBRANCH  32  33
ENDBRANCH  31  32
ENDBRANCH   2  31
TORSDOF 18
BEGIN_RES LYS A 131
REMARK  4 active torsions:
REMARK  status: ('A' for Active; 'I' for Inactive)
REMARK    1  A    between atoms: CA   and  CB  
REMARK    2  A    between atoms: CB   and  CG  
REMARK    3  A    between atoms: CG   and  CD  
REMARK    4  A    between atoms: CD   and  CE  
ROOT
ATOM      1  CA  LYS A 131      29.867  25.555  16.977  1.00 20.52     0.186 C 
ENDROOT
BRANCH   1   2
ATOM      2  CB  LYS A 131      28.345  25.722  17.026  1.00 20.94     0.034 C 
BRANCH   2   3
ATOM      3  CG  LYS A 131      27.601  24.404  16.877  1.00 22.96     0.005 C 
BRANCH   3   4
ATOM      4  CD  LYS A 131      26.586  24.200  17.968  1.00 24.33     0.041 C 
BRANCH   4   5
ATOM      5  CE  LYS A 131      25.505  23.239  17.484  1.00 26.91     0.338 C 
ATOM      6  NZ  LYS A 131      24.388  23.985  16.860  1.00 27.40     0.618 N 
ENDBRANCH   4   5
ENDBRANCH   3   4
ENDBRANCH   2   3
ENDBRANCH   1   2
END_RES LYS A 131
BEGIN_RES LYS A 135
REMARK  4 active torsions:
REMARK  status: ('A' for Active; 'I' for Inactive)
REMARK    5  A    between atoms: CA   and  CB  
REMARK    6  A    between atoms: CB   and  CG  
REMARK    7  A    between atoms: CG   and  CD  
REMARK    8  A    between atoms: CD   and  CE  
ROOT
ATOM      7  CA  LYS A 135      33.193  34.663   9.290  1.00 25.02     0.186 C 
ENDROOT
BRANCH   7   8
ATOM      8  CB  LYS A 135      32.060  35.360  10.034  1.00 26.63     0.034 C 
BRANCH   8   9
ATOM      9  CG  LYS A 135      30.714  35.191   9.377  1.00 29.45     0.005 C 
BRANCH   9  10
ATOM     10  CD  LYS A 135      29.700  34.637  10.366  1.00 32.00     0.041 C 
BRANCH  10  11
ATOM     11  CE  LYS A 135      29.757  35.404  11.673  1.00 34.25     0.338 C 
ATOM     12  NZ  LYS A 135      29.641  34.486  12.840  1.00 35.99     0.618 N 
ENDBRANCH  10  11
ENDBRANCH   9  10
ENDBRANCH   8   9
ENDBRANCH   7   8
END_RES LYS A 135
