REMARK VINA RESULT:    -4.616      3.803      6.259
REMARK INTER + INTRA:         -14.539
REMARK INTER:                  -9.849
REMARK INTRA:                  -4.690
REMARK UNBOUND:                -6.145
REMARK SMILES CC(=O)N[C@@H]1[C@@H](O)C[C@](O)(C(=O)O)O[C@H]1C(O)[C@H](O)CNC(=O)OCc1cn(C(C)(C)CO)nn1
REMARK SMILES IDX 21 1 22 2 23 3 20 5 18 6 16 7 15 8 9 9 8 10 14 11 6 12 5 13
REMARK SMILES IDX 10 14 11 16 12 17 13 18 7 20 4 22 2 23 1 25 3 26 17 27 19 29
REMARK SMILES IDX 24 31 25 32 26 33 27 34 35 35 28 36 34 37 29 38 30 39 31 40
REMARK SMILES IDX 32 41 33 42
REMARK H PARENT 21 4 10 15 13 19 7 21 4 24 17 28 19 30 33 43
REMARK Flexibility Score: inf
ROOT
ATOM      1  N   UNL     1      24.777  38.943   7.268  1.00  0.00    -0.319 N 
ATOM      2  C   UNL     1      25.845  39.856   6.989  1.00  0.00     0.407 C 
ATOM      3  O   UNL     1      26.081  40.854   7.751  1.00  0.00    -0.225 OA
ATOM      4  H   UNL     1      24.637  38.142   6.624  1.00  0.00     0.167 HD
ENDROOT
BRANCH   1   5
ATOM      5  C   UNL     1      23.947  39.152   8.435  1.00  0.00     0.154 C 
BRANCH   5   6
ATOM      6  C   UNL     1      22.753  38.281   8.463  1.00  0.00     0.165 C 
BRANCH   6   7
ATOM      7  C   UNL     1      22.796  37.004   7.712  1.00  0.00     0.176 C 
BRANCH   7   8
ATOM      8  C   UNL     1      22.224  35.865   8.519  1.00  0.00     0.178 C 
ATOM      9  C   UNL     1      19.895  36.068   8.163  1.00  0.00     0.269 C 
ATOM     10  C   UNL     1      19.723  36.482   9.637  1.00  0.00     0.112 C 
ATOM     11  O   UNL     1      21.060  35.410   7.937  1.00  0.00    -0.332 OA
ATOM     12  C   UNL     1      20.690  35.640  10.399  1.00  0.00     0.145 C 
ATOM     13  C   UNL     1      22.108  36.132   9.989  1.00  0.00     0.142 C 
BRANCH   9  14
ATOM     14  O   UNL     1      19.649  37.168   7.367  1.00  0.00    -0.357 OA
ATOM     15  H   UNL     1      19.318  36.877   6.484  1.00  0.00     0.214 HD
ENDBRANCH   9  14
BRANCH   9  16
ATOM     16  C   UNL     1      18.796  35.065   7.873  1.00  0.00     0.364 C 
ATOM     17  O   UNL     1      17.822  34.937   8.650  1.00  0.00    -0.246 OA
BRANCH  16  18
ATOM     18  O   UNL     1      18.904  34.301   6.731  1.00  0.00    -0.477 OA
ATOM     19  H   UNL     1      18.165  33.670   6.443  1.00  0.00     0.296 HD
ENDBRANCH  16  18
ENDBRANCH   9  16
BRANCH  12  20
ATOM     20  O   UNL     1      20.543  35.722  11.770  1.00  0.00    -0.391 OA
ATOM     21  H   UNL     1      21.387  35.384  12.171  1.00  0.00     0.211 HD
ENDBRANCH  12  20
BRANCH  13  22
ATOM     22  N   UNL     1      22.974  35.262  10.802  1.00  0.00    -0.348 N 
ATOM     23  C   UNL     1      24.327  35.526  11.037  1.00  0.00     0.217 C 
ATOM     24  H   UNL     1      22.530  34.414  11.211  1.00  0.00     0.163 HD
ATOM     25  C   UNL     1      25.220  34.660  11.849  1.00  0.00     0.114 C 
ATOM     26  O   UNL     1      24.834  36.565  10.530  1.00  0.00    -0.275 OA
ENDBRANCH  13  22
ENDBRANCH   7   8
BRANCH   7  27
ATOM     27  O   UNL     1      22.512  37.015   6.386  1.00  0.00    -0.388 OA
ATOM     28  H   UNL     1      21.631  36.629   6.143  1.00  0.00     0.211 HD
ENDBRANCH   7  27
ENDBRANCH   6   7
BRANCH   6  29
ATOM     29  O   UNL     1      21.629  39.015   8.019  1.00  0.00    -0.388 OA
ATOM     30  H   UNL     1      21.097  38.424   7.441  1.00  0.00     0.211 HD
ENDBRANCH   6  29
ENDBRANCH   5   6
ENDBRANCH   1   5
BRANCH   2  31
ATOM     31  O   UNL     1      26.616  39.634   5.878  1.00  0.00    -0.443 OA
BRANCH  31  32
ATOM     32  C   UNL     1      27.944  39.205   5.934  1.00  0.00     0.294 C 
BRANCH  32  33
ATOM     33  C   UNL     1      28.037  37.781   6.347  1.00  0.00     0.120 A 
ATOM     34  C   UNL     1      28.428  37.357   7.593  1.00  0.00     0.139 A 
ATOM     35  N   UNL     1      27.776  36.684   5.638  1.00  0.00    -0.132 NA
ATOM     36  N   UNL     1      28.395  36.020   7.613  1.00  0.00    -0.244 N 
ATOM     37  N   UNL     1      27.991  35.635   6.401  1.00  0.00    -0.066 NA
BRANCH  36  38
ATOM     38  C   UNL     1      28.737  35.190   8.740  1.00  0.00     0.082 C 
ATOM     39  C   UNL     1      28.846  36.018  10.003  1.00  0.00     0.039 C 
ATOM     40  C   UNL     1      30.061  34.497   8.449  1.00  0.00     0.039 C 
BRANCH  38  41
ATOM     41  C   UNL     1      27.704  34.105   8.903  1.00  0.00     0.186 C 
BRANCH  41  42
ATOM     42  O   UNL     1      26.440  34.591   8.554  1.00  0.00    -0.394 OA
ATOM     43  H   UNL     1      26.508  35.037   7.672  1.00  0.00     0.210 HD
ENDBRANCH  41  42
ENDBRANCH  38  41
ENDBRANCH  36  38
ENDBRANCH  32  33
ENDBRANCH  31  32
ENDBRANCH   2  31
TORSDOF 17
BEGIN_RES LYS A 131
REMARK  4 active torsions:
REMARK  status: ('A' for Active; 'I' for Inactive)
REMARK    1  A    between atoms: CA   and  CB  
REMARK    2  A    between atoms: CB   and  CG  
REMARK    3  A    between atoms: CG   and  CD  
REMARK    4  A    between atoms: CD   and  CE  
ROOT
ATOM      1  CA  LYS A 131      29.867  25.555  16.977  1.00 20.52     0.186 C 
ENDROOT
BRANCH   1   2
ATOM      2  CB  LYS A 131      28.345  25.722  17.026  1.00 20.94     0.034 C 
BRANCH   2   3
ATOM      3  CG  LYS A 131      27.601  24.403  16.888  1.00 22.96     0.005 C 
BRANCH   3   4
ATOM      4  CD  LYS A 131      26.719  24.123  18.073  1.00 24.33     0.041 C 
BRANCH   4   5
ATOM      5  CE  LYS A 131      25.387  23.554  17.594  1.00 26.91     0.338 C 
ATOM      6  NZ  LYS A 131      24.604  24.593  16.884  1.00 27.40     0.618 N 
ENDBRANCH   4   5
ENDBRANCH   3   4
ENDBRANCH   2   3
ENDBRANCH   1   2
END_RES LYS A 131
BEGIN_RES LYS A 135
REMARK  4 active torsions:
REMARK  status: ('A' for Active; 'I' for Inactive)
REMARK    5  A    between atoms: CA   and  CB  
REMARK    6  A    between atoms: CB   and  CG  
REMARK    7  A    between atoms: CG   and  CD  
REMARK    8  A    between atoms: CD   and  CE  
ROOT
ATOM      7  CA  LYS A 135      33.193  34.663   9.290  1.00 25.02     0.186 C 
ENDROOT
BRANCH   7   8
ATOM      8  CB  LYS A 135      32.060  35.360  10.034  1.00 26.63     0.034 C 
BRANCH   8   9
ATOM      9  CG  LYS A 135      32.500  36.032  11.309  1.00 29.45     0.005 C 
BRANCH   9  10
ATOM     10  CD  LYS A 135      32.052  37.485  11.332  1.00 32.00     0.041 C 
BRANCH  10  11
ATOM     11  CE  LYS A 135      31.269  37.781  12.597  1.00 34.25     0.338 C 
ATOM     12  NZ  LYS A 135      31.885  37.114  13.777  1.00 35.99     0.618 N 
ENDBRANCH  10  11
ENDBRANCH   9  10
ENDBRANCH   8   9
ENDBRANCH   7   8
END_RES LYS A 135
