REMARK VINA RESULT:    -6.005      2.091      3.598
REMARK INTER + INTRA:         -15.871
REMARK INTER:                 -10.709
REMARK INTRA:                  -5.162
REMARK UNBOUND:                -4.777
REMARK SMILES CC(=O)N[C@@H]1[C@@H](O)C[C@](O)(C(=O)O)O[C@H]1C(O)[C@H](O)CNC(=O)OCc1cn(C(C)(C)C(=O)c2c[nH]c3ccccc23)nn1
REMARK SMILES IDX 21 1 22 2 23 3 20 5 18 6 16 7 15 8 9 9 8 10 14 11 6 12 5 13
REMARK SMILES IDX 10 14 11 16 12 17 13 18 7 20 4 22 2 23 1 25 3 26 17 27 19 29
REMARK SMILES IDX 24 31 25 32 26 33 27 34 44 35 28 36 43 37 29 38 30 39 31 40
REMARK SMILES IDX 32 41 33 42 34 43 35 44 42 45 36 46 37 47 41 48 38 50 40 51
REMARK SMILES IDX 39 52
REMARK H PARENT 21 4 10 15 13 19 7 21 4 24 17 28 19 30 36 49
REMARK Flexibility Score: inf
ROOT
ATOM      1  N   UNL     1      24.263  35.918  11.837  1.00  0.00    -0.319 N 
ATOM      2  C   UNL     1      25.345  35.290  12.497  1.00  0.00     0.407 C 
ATOM      3  O   UNL     1      25.511  34.070  12.432  1.00  0.00    -0.225 OA
ATOM      4  H   UNL     1      24.218  36.986  11.954  1.00  0.00     0.167 HD
ENDROOT
BRANCH   1   5
ATOM      5  C   UNL     1      23.255  35.261  11.050  1.00  0.00     0.154 C 
BRANCH   5   6
ATOM      6  C   UNL     1      23.145  35.699   9.638  1.00  0.00     0.165 C 
BRANCH   6   7
ATOM      7  C   UNL     1      22.589  37.106   9.478  1.00  0.00     0.176 C 
BRANCH   7   8
ATOM      8  C   UNL     1      23.140  37.786   8.251  1.00  0.00     0.178 C 
ATOM      9  C   UNL     1      25.326  38.537   8.411  1.00  0.00     0.269 C 
ATOM     10  C   UNL     1      25.064  39.829   7.668  1.00  0.00     0.112 C 
ATOM     11  O   UNL     1      24.459  37.526   8.017  1.00  0.00    -0.332 OA
ATOM     12  C   UNL     1      23.650  39.881   7.126  1.00  0.00     0.145 C 
ATOM     13  C   UNL     1      22.773  39.254   8.212  1.00  0.00     0.142 C 
BRANCH   9  14
ATOM     14  O   UNL     1      25.301  38.701   9.795  1.00  0.00    -0.357 OA
ATOM     15  H   UNL     1      24.388  38.966  10.105  1.00  0.00     0.214 HD
ENDBRANCH   9  14
BRANCH   9  16
ATOM     16  C   UNL     1      26.701  38.099   8.052  1.00  0.00     0.364 C 
ATOM     17  O   UNL     1      26.975  37.837   6.838  1.00  0.00    -0.246 OA
BRANCH  16  18
ATOM     18  O   UNL     1      27.716  37.958   8.969  1.00  0.00    -0.477 OA
ATOM     19  H   UNL     1      27.778  37.181   9.615  1.00  0.00     0.296 HD
ENDBRANCH  16  18
ENDBRANCH   9  16
BRANCH  12  20
ATOM     20  O   UNL     1      23.246  41.161   6.827  1.00  0.00    -0.391 OA
ATOM     21  H   UNL     1      23.151  41.227   5.824  1.00  0.00     0.211 HD
ENDBRANCH  12  20
BRANCH  13  22
ATOM     22  N   UNL     1      21.375  39.399   7.909  1.00  0.00    -0.348 N 
ATOM     23  C   UNL     1      20.574  40.448   8.486  1.00  0.00     0.217 C 
ATOM     24  H   UNL     1      20.855  38.759   7.260  1.00  0.00     0.163 HD
ATOM     25  C   UNL     1      19.150  40.629   8.205  1.00  0.00     0.114 C 
ATOM     26  O   UNL     1      21.180  41.239   9.278  1.00  0.00    -0.275 OA
ENDBRANCH  13  22
ENDBRANCH   7   8
BRANCH   7  27
ATOM     27  O   UNL     1      21.207  36.948   9.345  1.00  0.00    -0.388 OA
ATOM     28  H   UNL     1      20.897  37.060   8.426  1.00  0.00     0.211 HD
ENDBRANCH   7  27
ENDBRANCH   6   7
BRANCH   6  29
ATOM     29  O   UNL     1      22.306  34.864   8.925  1.00  0.00    -0.388 OA
ATOM     30  H   UNL     1      22.217  34.019   9.437  1.00  0.00     0.211 HD
ENDBRANCH   6  29
ENDBRANCH   5   6
ENDBRANCH   1   5
BRANCH   2  31
ATOM     31  O   UNL     1      26.273  36.014  13.249  1.00  0.00    -0.443 OA
BRANCH  31  32
ATOM     32  C   UNL     1      27.056  35.387  14.221  1.00  0.00     0.294 C 
BRANCH  32  33
ATOM     33  C   UNL     1      28.450  35.218  13.735  1.00  0.00     0.120 A 
ATOM     34  C   UNL     1      29.556  35.938  14.160  1.00  0.00     0.139 A 
ATOM     35  N   UNL     1      28.935  34.361  12.813  1.00  0.00    -0.132 NA
ATOM     36  N   UNL     1      30.648  35.507  13.498  1.00  0.00    -0.239 N 
ATOM     37  N   UNL     1      30.237  34.548  12.687  1.00  0.00    -0.066 NA
BRANCH  36  38
ATOM     38  C   UNL     1      32.022  36.020  13.664  1.00  0.00     0.122 C 
ATOM     39  C   UNL     1      32.626  36.244  12.321  1.00  0.00     0.046 C 
ATOM     40  C   UNL     1      31.820  37.357  14.401  1.00  0.00     0.046 C 
BRANCH  38  41
ATOM     41  C   UNL     1      32.726  35.101  14.556  1.00  0.00     0.192 C 
ATOM     42  O   UNL     1      33.830  34.556  14.202  1.00  0.00    -0.291 OA
BRANCH  41  43
ATOM     43  C   UNL     1      32.273  34.711  15.886  1.00  0.00     0.045 A 
ATOM     44  C   UNL     1      32.469  35.460  17.046  1.00  0.00     0.095 A 
ATOM     45  C   UNL     1      31.618  33.548  16.194  1.00  0.00     0.010 A 
ATOM     46  N   UNL     1      31.937  34.753  18.040  1.00  0.00    -0.360 N 
ATOM     47  C   UNL     1      31.415  33.597  17.577  1.00  0.00     0.046 A 
ATOM     48  C   UNL     1      31.161  32.454  15.465  1.00  0.00     0.011 A 
ATOM     49  H   UNL     1      31.918  35.033  19.032  1.00  0.00     0.166 HD
ATOM     50  C   UNL     1      30.759  32.541  18.177  1.00  0.00     0.027 A 
ATOM     51  C   UNL     1      30.517  31.427  16.091  1.00  0.00     0.001 A 
ATOM     52  C   UNL     1      30.317  31.469  17.439  1.00  0.00     0.002 A 
ENDBRANCH  41  43
ENDBRANCH  38  41
ENDBRANCH  36  38
ENDBRANCH  32  33
ENDBRANCH  31  32
ENDBRANCH   2  31
TORSDOF 17
BEGIN_RES LYS A 131
REMARK  4 active torsions:
REMARK  status: ('A' for Active; 'I' for Inactive)
REMARK    1  A    between atoms: CA   and  CB  
REMARK    2  A    between atoms: CB   and  CG  
REMARK    3  A    between atoms: CG   and  CD  
REMARK    4  A    between atoms: CD   and  CE  
ROOT
ATOM      1  CA  LYS A 131      29.867  25.555  16.977  1.00 20.52     0.186 C 
ENDROOT
BRANCH   1   2
ATOM      2  CB  LYS A 131      28.345  25.722  17.026  1.00 20.94     0.034 C 
BRANCH   2   3
ATOM      3  CG  LYS A 131      27.601  24.402  16.897  1.00 22.96     0.005 C 
BRANCH   3   4
ATOM      4  CD  LYS A 131      26.546  24.240  17.956  1.00 24.33     0.041 C 
BRANCH   4   5
ATOM      5  CE  LYS A 131      25.197  23.977  17.295  1.00 26.91     0.338 C 
ATOM      6  NZ  LYS A 131      24.777  22.572  17.514  1.00 27.40     0.618 N 
ENDBRANCH   4   5
ENDBRANCH   3   4
ENDBRANCH   2   3
ENDBRANCH   1   2
END_RES LYS A 131
BEGIN_RES LYS A 135
REMARK  4 active torsions:
REMARK  status: ('A' for Active; 'I' for Inactive)
REMARK    5  A    between atoms: CA   and  CB  
REMARK    6  A    between atoms: CB   and  CG  
REMARK    7  A    between atoms: CG   and  CD  
REMARK    8  A    between atoms: CD   and  CE  
ROOT
ATOM      7  CA  LYS A 135      33.193  34.663   9.290  1.00 25.02     0.186 C 
ENDROOT
BRANCH   7   8
ATOM      8  CB  LYS A 135      32.060  35.360  10.034  1.00 26.63     0.034 C 
BRANCH   8   9
ATOM      9  CG  LYS A 135      30.778  35.435   9.246  1.00 29.45     0.005 C 
BRANCH   9  10
ATOM     10  CD  LYS A 135      30.183  34.048   9.056  1.00 32.00     0.041 C 
BRANCH  10  11
ATOM     11  CE  LYS A 135      28.670  34.100   9.154  1.00 34.25     0.338 C 
ATOM     12  NZ  LYS A 135      28.076  34.735   7.945  1.00 35.99     0.618 N 
ENDBRANCH  10  11
ENDBRANCH   9  10
ENDBRANCH   8   9
ENDBRANCH   7   8
END_RES LYS A 135
