REMARK VINA RESULT:    -4.270      3.698      7.095
REMARK INTER + INTRA:         -14.893
REMARK INTER:                  -9.386
REMARK INTRA:                  -5.507
REMARK UNBOUND:                -6.753
REMARK SMILES COCC(C(N)=O)n1cc(COC(=O)NC[C@@H](O)C(O)[C@@H]2O[C@@](O)(C(=O)O)C[C@H](O)[C@H]2NC(C)=O)nn1
REMARK SMILES IDX 15 1 13 2 14 3 16 5 17 6 19 7 21 8 23 9 28 10 22 11 29 12
REMARK SMILES IDX 31 13 24 14 25 16 26 17 27 18 30 20 32 22 33 23 34 25 35 26
REMARK SMILES IDX 20 27 18 29 12 31 11 32 10 33 9 34 36 35 8 36 37 37 4 38
REMARK SMILES IDX 3 39 2 40 1 41 5 42 7 43 6 44
REMARK H PARENT 15 4 24 15 27 19 30 21 32 24 20 28 18 30 6 45 6 46
REMARK Flexibility Score: inf
ROOT
ATOM      1  N   UNL     1      26.193  35.998  12.830  1.00  0.00    -0.319 N 
ATOM      2  C   UNL     1      24.881  35.627  12.475  1.00  0.00     0.407 C 
ATOM      3  O   UNL     1      23.949  35.594  13.311  1.00  0.00    -0.225 OA
ATOM      4  H   UNL     1      26.905  36.001  12.056  1.00  0.00     0.167 HD
ENDROOT
BRANCH   1   5
ATOM      5  C   UNL     1      26.640  36.365  14.130  1.00  0.00     0.154 C 
BRANCH   5   6
ATOM      6  C   UNL     1      27.005  35.274  15.067  1.00  0.00     0.165 C 
BRANCH   6   7
ATOM      7  C   UNL     1      27.914  34.236  14.446  1.00  0.00     0.176 C 
BRANCH   7   8
ATOM      8  C   UNL     1      28.929  33.651  15.375  1.00  0.00     0.178 C 
ATOM      9  C   UNL     1      31.153  33.012  15.383  1.00  0.00     0.269 C 
ATOM     10  C   UNL     1      30.806  32.924  16.846  1.00  0.00     0.112 C 
ATOM     11  O   UNL     1      30.103  33.480  14.612  1.00  0.00    -0.332 OA
ATOM     12  C   UNL     1      29.588  32.118  17.127  1.00  0.00     0.145 C 
ATOM     13  C   UNL     1      28.598  32.326  15.970  1.00  0.00     0.142 C 
BRANCH   9  14
ATOM     14  O   UNL     1      31.630  31.784  14.962  1.00  0.00    -0.357 OA
ATOM     15  H   UNL     1      31.079  31.021  15.266  1.00  0.00     0.214 HD
ENDBRANCH   9  14
BRANCH   9  16
ATOM     16  C   UNL     1      32.266  33.991  15.254  1.00  0.00     0.364 C 
ATOM     17  O   UNL     1      32.481  34.874  16.130  1.00  0.00    -0.246 OA
BRANCH  16  18
ATOM     18  O   UNL     1      33.133  33.988  14.156  1.00  0.00    -0.477 OA
ATOM     19  H   UNL     1      33.329  34.829  13.631  1.00  0.00     0.296 HD
ENDBRANCH  16  18
ENDBRANCH   9  16
BRANCH  12  20
ATOM     20  O   UNL     1      29.853  30.761  17.303  1.00  0.00    -0.391 OA
ATOM     21  H   UNL     1      30.145  30.650  18.249  1.00  0.00     0.211 HD
ENDBRANCH  12  20
BRANCH  13  22
ATOM     22  N   UNL     1      27.302  32.162  16.531  1.00  0.00    -0.348 N 
ATOM     23  C   UNL     1      26.468  31.015  16.249  1.00  0.00     0.217 C 
ATOM     24  H   UNL     1      26.876  32.849  17.189  1.00  0.00     0.163 HD
ATOM     25  C   UNL     1      25.123  30.888  16.857  1.00  0.00     0.114 C 
ATOM     26  O   UNL     1      26.880  30.129  15.491  1.00  0.00    -0.275 OA
ENDBRANCH  13  22
ENDBRANCH   7   8
BRANCH   7  27
ATOM     27  O   UNL     1      28.679  34.984  13.497  1.00  0.00    -0.388 OA
ATOM     28  H   UNL     1      28.713  35.924  13.740  1.00  0.00     0.211 HD
ENDBRANCH   7  27
ENDBRANCH   6   7
BRANCH   6  29
ATOM     29  O   UNL     1      25.863  34.589  15.474  1.00  0.00    -0.388 OA
ATOM     30  H   UNL     1      25.136  34.727  14.821  1.00  0.00     0.211 HD
ENDBRANCH   6  29
ENDBRANCH   5   6
ENDBRANCH   1   5
BRANCH   2  31
ATOM     31  O   UNL     1      24.563  35.279  11.165  1.00  0.00    -0.443 OA
BRANCH  31  32
ATOM     32  C   UNL     1      24.174  36.241  10.219  1.00  0.00     0.294 C 
BRANCH  32  33
ATOM     33  C   UNL     1      25.318  36.655   9.387  1.00  0.00     0.120 A 
ATOM     34  C   UNL     1      25.432  36.580   8.012  1.00  0.00     0.139 A 
ATOM     35  N   UNL     1      26.466  37.185   9.861  1.00  0.00    -0.132 NA
ATOM     36  N   UNL     1      26.630  37.064   7.703  1.00  0.00    -0.237 N 
ATOM     37  N   UNL     1      27.239  37.419   8.797  1.00  0.00    -0.066 NA
BRANCH  36  38
ATOM     38  C   UNL     1      27.188  37.182   6.359  1.00  0.00     0.223 C 
BRANCH  38  39
ATOM     39  C   UNL     1      27.157  38.629   5.955  1.00  0.00     0.197 C 
BRANCH  39  40
ATOM     40  O   UNL     1      27.636  38.793   4.676  1.00  0.00    -0.382 OA
ATOM     41  C   UNL     1      27.298  39.990   4.082  1.00  0.00     0.195 C 
ENDBRANCH  39  40
ENDBRANCH  38  39
BRANCH  38  42
ATOM     42  C   UNL     1      28.616  36.727   6.389  1.00  0.00     0.244 C 
ATOM     43  O   UNL     1      28.907  35.537   6.198  1.00  0.00    -0.273 OA
ATOM     44  N   UNL     1      29.614  37.705   6.645  1.00  0.00    -0.368 N 
ATOM     45  H   UNL     1      30.586  37.527   6.304  1.00  0.00     0.159 HD
ATOM     46  H   UNL     1      29.390  38.569   7.153  1.00  0.00     0.159 HD
ENDBRANCH  38  42
ENDBRANCH  36  38
ENDBRANCH  32  33
ENDBRANCH  31  32
ENDBRANCH   2  31
TORSDOF 18
BEGIN_RES LYS A 131
REMARK  4 active torsions:
REMARK  status: ('A' for Active; 'I' for Inactive)
REMARK    1  A    between atoms: CA   and  CB  
REMARK    2  A    between atoms: CB   and  CG  
REMARK    3  A    between atoms: CG   and  CD  
REMARK    4  A    between atoms: CD   and  CE  
ROOT
ATOM      1  CA  LYS A 131      29.867  25.555  16.977  1.00 20.52     0.186 C 
ENDROOT
BRANCH   1   2
ATOM      2  CB  LYS A 131      28.345  25.722  17.026  1.00 20.94     0.034 C 
BRANCH   2   3
ATOM      3  CG  LYS A 131      27.601  24.403  16.881  1.00 22.96     0.005 C 
BRANCH   3   4
ATOM      4  CD  LYS A 131      26.664  24.152  18.029  1.00 24.33     0.041 C 
BRANCH   4   5
ATOM      5  CE  LYS A 131      25.463  23.349  17.540  1.00 26.91     0.338 C 
ATOM      6  NZ  LYS A 131      24.490  24.234  16.858  1.00 27.40     0.618 N 
ENDBRANCH   4   5
ENDBRANCH   3   4
ENDBRANCH   2   3
ENDBRANCH   1   2
END_RES LYS A 131
BEGIN_RES LYS A 135
REMARK  4 active torsions:
REMARK  status: ('A' for Active; 'I' for Inactive)
REMARK    5  A    between atoms: CA   and  CB  
REMARK    6  A    between atoms: CB   and  CG  
REMARK    7  A    between atoms: CG   and  CD  
REMARK    8  A    between atoms: CD   and  CE  
ROOT
ATOM      7  CA  LYS A 135      33.193  34.663   9.290  1.00 25.02     0.186 C 
ENDROOT
BRANCH   7   8
ATOM      8  CB  LYS A 135      32.060  35.360  10.034  1.00 26.63     0.034 C 
BRANCH   8   9
ATOM      9  CG  LYS A 135      30.806  35.514   9.213  1.00 29.45     0.005 C 
BRANCH   9  10
ATOM     10  CD  LYS A 135      30.000  34.224   9.217  1.00 32.00     0.041 C 
BRANCH  10  11
ATOM     11  CE  LYS A 135      28.749  34.380  10.060  1.00 34.25     0.338 C 
ATOM     12  NZ  LYS A 135      27.566  33.782   9.380  1.00 35.99     0.618 N 
ENDBRANCH  10  11
ENDBRANCH   9  10
ENDBRANCH   8   9
ENDBRANCH   7   8
END_RES LYS A 135
