REMARK VINA RESULT:    -4.202      1.863      3.540
REMARK INTER + INTRA:         -14.685
REMARK INTER:                  -7.727
REMARK INTRA:                  -6.958
REMARK UNBOUND:                -5.938
REMARK SMILES CCOC(CCn1cc(COC(=O)NC[C@@H](O)C(O)[C@@H]2O[C@@](O)(C(=O)O)C[C@H](O)[C@H]2NC(C)=O)nn1)OCC
REMARK SMILES IDX 11 1 12 2 14 3 13 5 15 6 16 7 18 8 20 9 22 10 27 11 21 12
REMARK SMILES IDX 28 13 30 14 23 15 24 17 25 18 26 19 29 21 31 23 32 24 33 26
REMARK SMILES IDX 34 27 19 28 17 30 10 32 9 33 8 34 35 35 7 36 36 37 6 38 5 39
REMARK SMILES IDX 4 40 3 41 2 42 1 43 37 44 38 45 39 46
REMARK H PARENT 14 4 23 16 26 20 29 22 31 25 19 29 17 31
REMARK Flexibility Score: inf
ROOT
ATOM      1  O   UNL     1      26.207  29.834  16.880  1.00  0.00    -0.443 OA
ENDROOT
BRANCH   1   2
ATOM      2  C   UNL     1      26.480  28.695  17.650  1.00  0.00     0.407 C 
ATOM      3  N   UNL     1      26.149  28.627  19.020  1.00  0.00    -0.319 N 
ATOM      4  H   UNL     1      25.667  29.497  19.414  1.00  0.00     0.167 HD
ATOM      5  O   UNL     1      27.028  27.743  17.088  1.00  0.00    -0.225 OA
BRANCH   3   6
ATOM      6  C   UNL     1      26.380  27.543  19.921  1.00  0.00     0.154 C 
BRANCH   6   7
ATOM      7  C   UNL     1      27.774  27.580  20.479  1.00  0.00     0.165 C 
BRANCH   7   8
ATOM      8  C   UNL     1      28.157  29.056  20.556  1.00  0.00     0.176 C 
BRANCH   8   9
ATOM      9  C   UNL     1      29.637  29.244  20.679  1.00  0.00     0.178 C 
ATOM     10  C   UNL     1      31.332  28.880  22.220  1.00  0.00     0.269 C 
ATOM     11  C   UNL     1      32.172  29.844  21.447  1.00  0.00     0.112 C 
ATOM     12  O   UNL     1      30.248  28.365  21.524  1.00  0.00    -0.332 OA
ATOM     13  C   UNL     1      31.404  30.893  20.698  1.00  0.00     0.145 C 
ATOM     14  C   UNL     1      29.939  30.699  21.018  1.00  0.00     0.142 C 
BRANCH  10  15
ATOM     15  O   UNL     1      30.947  29.436  23.443  1.00  0.00    -0.357 OA
ATOM     16  H   UNL     1      31.139  30.419  23.383  1.00  0.00     0.214 HD
ENDBRANCH  10  15
BRANCH  10  17
ATOM     17  C   UNL     1      32.205  27.713  22.531  1.00  0.00     0.364 C 
ATOM     18  O   UNL     1      32.732  27.583  23.656  1.00  0.00    -0.246 OA
BRANCH  17  19
ATOM     19  O   UNL     1      32.431  26.751  21.528  1.00  0.00    -0.477 OA
ATOM     20  H   UNL     1      33.305  26.234  21.607  1.00  0.00     0.296 HD
ENDBRANCH  17  19
ENDBRANCH  10  17
BRANCH  13  21
ATOM     21  O   UNL     1      31.841  32.187  20.958  1.00  0.00    -0.391 OA
ATOM     22  H   UNL     1      31.238  32.550  21.656  1.00  0.00     0.211 HD
ENDBRANCH  13  21
BRANCH  14  23
ATOM     23  N   UNL     1      29.084  31.526  20.192  1.00  0.00    -0.348 N 
ATOM     24  C   UNL     1      28.684  32.805  20.665  1.00  0.00     0.217 C 
ATOM     25  H   UNL     1      28.737  31.245  19.259  1.00  0.00     0.163 HD
ATOM     26  C   UNL     1      27.816  33.715  19.891  1.00  0.00     0.114 C 
ATOM     27  O   UNL     1      29.090  33.181  21.799  1.00  0.00    -0.275 OA
ENDBRANCH  14  23
ENDBRANCH   8   9
BRANCH   8  28
ATOM     28  O   UNL     1      27.461  29.636  21.604  1.00  0.00    -0.388 OA
ATOM     29  H   UNL     1      27.672  30.602  21.719  1.00  0.00     0.211 HD
ENDBRANCH   8  28
ENDBRANCH   7   8
BRANCH   7  30
ATOM     30  O   UNL     1      28.661  26.982  19.621  1.00  0.00    -0.388 OA
ATOM     31  H   UNL     1      29.544  26.801  20.035  1.00  0.00     0.211 HD
ENDBRANCH   7  30
ENDBRANCH   6   7
ENDBRANCH   3   6
ENDBRANCH   1   2
BRANCH   1  32
ATOM     32  C   UNL     1      26.679  31.113  17.295  1.00  0.00     0.294 C 
BRANCH  32  33
ATOM     33  C   UNL     1      28.090  31.265  16.894  1.00  0.00     0.120 A 
ATOM     34  C   UNL     1      28.487  32.169  15.904  1.00  0.00     0.138 A 
ATOM     35  N   UNL     1      29.209  30.679  17.297  1.00  0.00    -0.132 NA
ATOM     36  N   UNL     1      29.825  32.083  15.759  1.00  0.00    -0.252 N 
ATOM     37  N   UNL     1      30.238  31.184  16.605  1.00  0.00    -0.067 NA
BRANCH  36  38
ATOM     38  C   UNL     1      30.580  32.867  14.822  1.00  0.00     0.151 C 
BRANCH  38  39
ATOM     39  C   UNL     1      31.855  33.426  15.410  1.00  0.00     0.086 C 
BRANCH  39  40
ATOM     40  C   UNL     1      31.715  34.842  15.874  1.00  0.00     0.251 C 
BRANCH  40  41
ATOM     41  O   UNL     1      32.985  35.340  16.142  1.00  0.00    -0.353 OA
BRANCH  41  42
ATOM     42  C   UNL     1      33.027  36.717  15.894  1.00  0.00     0.160 C 
ATOM     43  C   UNL     1      33.787  37.452  16.968  1.00  0.00     0.035 C 
ENDBRANCH  41  42
ENDBRANCH  40  41
BRANCH  40  44
ATOM     44  O   UNL     1      30.943  34.959  17.001  1.00  0.00    -0.353 OA
BRANCH  44  45
ATOM     45  C   UNL     1      31.497  34.295  18.095  1.00  0.00     0.160 C 
ATOM     46  C   UNL     1      31.440  35.218  19.307  1.00  0.00     0.035 C 
ENDBRANCH  44  45
ENDBRANCH  40  44
ENDBRANCH  39  40
ENDBRANCH  38  39
ENDBRANCH  36  38
ENDBRANCH  32  33
ENDBRANCH   1  32
TORSDOF 21
BEGIN_RES LYS A 131
REMARK  4 active torsions:
REMARK  status: ('A' for Active; 'I' for Inactive)
REMARK    1  A    between atoms: CA   and  CB  
REMARK    2  A    between atoms: CB   and  CG  
REMARK    3  A    between atoms: CG   and  CD  
REMARK    4  A    between atoms: CD   and  CE  
ROOT
ATOM      1  CA  LYS A 131      29.867  25.555  16.977  1.00 20.52     0.186 C 
ENDROOT
BRANCH   1   2
ATOM      2  CB  LYS A 131      28.345  25.722  17.026  1.00 20.94     0.034 C 
BRANCH   2   3
ATOM      3  CG  LYS A 131      27.603  24.396  16.961  1.00 22.96     0.005 C 
BRANCH   3   4
ATOM      4  CD  LYS A 131      26.541  24.289  18.020  1.00 24.33     0.041 C 
BRANCH   4   5
ATOM      5  CE  LYS A 131      25.179  24.106  17.359  1.00 26.91     0.338 C 
ATOM      6  NZ  LYS A 131      24.747  22.691  17.443  1.00 27.40     0.618 N 
ENDBRANCH   4   5
ENDBRANCH   3   4
ENDBRANCH   2   3
ENDBRANCH   1   2
END_RES LYS A 131
BEGIN_RES LYS A 135
REMARK  4 active torsions:
REMARK  status: ('A' for Active; 'I' for Inactive)
REMARK    5  A    between atoms: CA   and  CB  
REMARK    6  A    between atoms: CB   and  CG  
REMARK    7  A    between atoms: CG   and  CD  
REMARK    8  A    between atoms: CD   and  CE  
ROOT
ATOM      7  CA  LYS A 135      33.193  34.663   9.290  1.00 25.02     0.186 C 
ENDROOT
BRANCH   7   8
ATOM      8  CB  LYS A 135      32.060  35.360  10.034  1.00 26.63     0.034 C 
BRANCH   8   9
ATOM      9  CG  LYS A 135      30.824  35.563   9.196  1.00 29.45     0.005 C 
BRANCH   9  10
ATOM     10  CD  LYS A 135      30.086  34.248   9.001  1.00 32.00     0.041 C 
BRANCH  10  11
ATOM     11  CE  LYS A 135      28.604  34.495   8.791  1.00 34.25     0.338 C 
ATOM     12  NZ  LYS A 135      27.784  33.588   9.641  1.00 35.99     0.618 N 
ENDBRANCH  10  11
ENDBRANCH   9  10
ENDBRANCH   8   9
ENDBRANCH   7   8
END_RES LYS A 135
