REMARK VINA RESULT:    -4.016      2.224      2.877
REMARK INTER + INTRA:         -15.360
REMARK INTER:                  -8.970
REMARK INTRA:                  -6.390
REMARK UNBOUND:                -7.118
REMARK SMILES CC(=O)N[C@@H]1[C@@H](O)C[C@](O)(C(=O)O)O[C@H]1C(O)[C@H](O)CNC(=O)OCc1cn(C[C@H](CC(=O)O)CC(C)C)nn1
REMARK SMILES IDX 24 1 22 2 21 3 23 5 20 6 18 7 16 8 15 9 9 10 8 11 14 12 6 13
REMARK SMILES IDX 5 14 10 15 11 17 12 18 13 19 7 21 4 23 2 24 1 26 3 27 17 28
REMARK SMILES IDX 19 30 25 32 26 33 27 34 40 35 28 36 39 37 29 38 30 39 31 40
REMARK SMILES IDX 32 41 33 42 34 43 35 45 36 46 37 47 38 48
REMARK H PARENT 21 4 10 16 13 20 7 22 4 25 17 29 19 31 34 44
REMARK Flexibility Score: inf
ROOT
ATOM      1  O   UNL     1      27.285  29.733  19.482  1.00  0.00    -0.443 OA
ENDROOT
BRANCH   1   2
ATOM      2  C   UNL     1      27.070  29.046  20.690  1.00  0.00     0.407 C 
ATOM      3  N   UNL     1      27.938  28.011  21.112  1.00  0.00    -0.319 N 
ATOM      4  H   UNL     1      28.758  27.793  20.462  1.00  0.00     0.167 HD
ATOM      5  O   UNL     1      26.080  29.380  21.384  1.00  0.00    -0.225 OA
BRANCH   3   6
ATOM      6  C   UNL     1      27.762  27.270  22.340  1.00  0.00     0.154 C 
BRANCH   6   7
ATOM      7  C   UNL     1      28.584  27.888  23.418  1.00  0.00     0.165 C 
BRANCH   7   8
ATOM      8  C   UNL     1      30.025  27.405  23.441  1.00  0.00     0.176 C 
BRANCH   8   9
ATOM      9  C   UNL     1      30.982  28.504  23.099  1.00  0.00     0.178 C 
ATOM     10  C   UNL     1      31.307  29.216  20.912  1.00  0.00     0.269 C 
ATOM     11  C   UNL     1      32.782  29.472  21.098  1.00  0.00     0.112 C 
ATOM     12  O   UNL     1      30.591  29.338  22.093  1.00  0.00    -0.332 OA
ATOM     13  C   UNL     1      33.228  29.189  22.517  1.00  0.00     0.145 C 
ATOM     14  C   UNL     1      32.405  27.971  22.958  1.00  0.00     0.142 C 
BRANCH  10  15
ATOM     15  O   UNL     1      31.088  27.982  20.293  1.00  0.00    -0.357 OA
ATOM     16  H   UNL     1      31.662  27.829  19.519  1.00  0.00     0.214 HD
ENDBRANCH  10  15
BRANCH  10  17
ATOM     17  C   UNL     1      30.792  30.259  19.986  1.00  0.00     0.364 C 
ATOM     18  O   UNL     1      31.033  31.478  20.244  1.00  0.00    -0.246 OA
BRANCH  17  19
ATOM     19  O   UNL     1      30.062  29.979  18.850  1.00  0.00    -0.477 OA
ATOM     20  H   UNL     1      29.818  28.999  18.641  1.00  0.00     0.296 HD
ENDBRANCH  17  19
ENDBRANCH  10  17
BRANCH  13  21
ATOM     21  O   UNL     1      34.579  28.974  22.630  1.00  0.00    -0.391 OA
ATOM     22  H   UNL     1      34.706  27.980  22.731  1.00  0.00     0.211 HD
ENDBRANCH  13  21
BRANCH  14  23
ATOM     23  N   UNL     1      32.851  27.488  24.241  1.00  0.00    -0.348 N 
ATOM     24  C   UNL     1      33.917  26.540  24.333  1.00  0.00     0.217 C 
ATOM     25  H   UNL     1      32.429  27.795  25.152  1.00  0.00     0.163 HD
ATOM     26  C   UNL     1      34.397  26.026  25.629  1.00  0.00     0.114 C 
ATOM     27  O   UNL     1      34.466  26.128  23.281  1.00  0.00    -0.275 OA
ENDBRANCH  14  23
ENDBRANCH   8   9
BRANCH   8  28
ATOM     28  O   UNL     1      30.171  26.265  22.686  1.00  0.00    -0.388 OA
ATOM     29  H   UNL     1      29.470  26.243  22.002  1.00  0.00     0.211 HD
ENDBRANCH   8  28
ENDBRANCH   7   8
BRANCH   7  30
ATOM     30  O   UNL     1      28.015  27.535  24.665  1.00  0.00    -0.388 OA
ATOM     31  H   UNL     1      27.052  27.736  24.684  1.00  0.00     0.211 HD
ENDBRANCH   7  30
ENDBRANCH   6   7
ENDBRANCH   3   6
ENDBRANCH   1   2
BRANCH   1  32
ATOM     32  C   UNL     1      26.412  30.790  19.172  1.00  0.00     0.294 C 
BRANCH  32  33
ATOM     33  C   UNL     1      27.065  31.844  18.376  1.00  0.00     0.120 A 
ATOM     34  C   UNL     1      28.085  32.719  18.719  1.00  0.00     0.138 A 
ATOM     35  N   UNL     1      26.762  32.149  17.108  1.00  0.00    -0.132 NA
ATOM     36  N   UNL     1      28.358  33.507  17.665  1.00  0.00    -0.252 N 
ATOM     37  N   UNL     1      27.546  33.144  16.706  1.00  0.00    -0.067 NA
BRANCH  36  38
ATOM     38  C   UNL     1      29.396  34.575  17.647  1.00  0.00     0.150 C 
BRANCH  38  39
ATOM     39  C   UNL     1      30.422  34.258  16.616  1.00  0.00     0.022 C 
BRANCH  39  40
ATOM     40  C   UNL     1      31.140  32.991  17.049  1.00  0.00     0.128 C 
BRANCH  40  41
ATOM     41  C   UNL     1      30.961  31.948  16.007  1.00  0.00     0.303 C 
ATOM     42  O   UNL     1      30.276  30.933  16.226  1.00  0.00    -0.252 OA
BRANCH  41  43
ATOM     43  O   UNL     1      31.592  32.154  14.777  1.00  0.00    -0.481 OA
ATOM     44  H   UNL     1      32.144  31.421  14.376  1.00  0.00     0.296 HD
ENDBRANCH  41  43
ENDBRANCH  40  41
ENDBRANCH  39  40
BRANCH  39  45
ATOM     45  C   UNL     1      31.310  35.390  16.300  1.00  0.00     0.009 C 
BRANCH  45  46
ATOM     46  C   UNL     1      32.770  35.208  16.473  1.00  0.00    -0.017 C 
ATOM     47  C   UNL     1      33.370  35.288  15.041  1.00  0.00     0.007 C 
ATOM     48  C   UNL     1      33.492  36.218  17.299  1.00  0.00     0.007 C 
ENDBRANCH  45  46
ENDBRANCH  39  45
ENDBRANCH  38  39
ENDBRANCH  36  38
ENDBRANCH  32  33
ENDBRANCH   1  32
TORSDOF 21
BEGIN_RES LYS A 131
REMARK  4 active torsions:
REMARK  status: ('A' for Active; 'I' for Inactive)
REMARK    1  A    between atoms: CA   and  CB  
REMARK    2  A    between atoms: CB   and  CG  
REMARK    3  A    between atoms: CG   and  CD  
REMARK    4  A    between atoms: CD   and  CE  
ROOT
ATOM      1  CA  LYS A 131      29.867  25.555  16.977  1.00 20.52     0.186 C 
ENDROOT
BRANCH   1   2
ATOM      2  CB  LYS A 131      28.345  25.722  17.026  1.00 20.94     0.034 C 
BRANCH   2   3
ATOM      3  CG  LYS A 131      27.602  24.399  16.922  1.00 22.96     0.005 C 
BRANCH   3   4
ATOM      4  CD  LYS A 131      26.165  24.522  17.348  1.00 24.33     0.041 C 
BRANCH   4   5
ATOM      5  CE  LYS A 131      25.962  23.789  18.670  1.00 26.91     0.338 C 
ATOM      6  NZ  LYS A 131      24.652  24.146  19.265  1.00 27.40     0.618 N 
ENDBRANCH   4   5
ENDBRANCH   3   4
ENDBRANCH   2   3
ENDBRANCH   1   2
END_RES LYS A 131
BEGIN_RES LYS A 135
REMARK  4 active torsions:
REMARK  status: ('A' for Active; 'I' for Inactive)
REMARK    5  A    between atoms: CA   and  CB  
REMARK    6  A    between atoms: CB   and  CG  
REMARK    7  A    between atoms: CG   and  CD  
REMARK    8  A    between atoms: CD   and  CE  
ROOT
ATOM      7  CA  LYS A 135      33.193  34.663   9.290  1.00 25.02     0.186 C 
ENDROOT
BRANCH   7   8
ATOM      8  CB  LYS A 135      32.060  35.360  10.034  1.00 26.63     0.034 C 
BRANCH   8   9
ATOM      9  CG  LYS A 135      30.703  34.765   9.759  1.00 29.45     0.005 C 
BRANCH   9  10
ATOM     10  CD  LYS A 135      29.810  34.877  10.985  1.00 32.00     0.041 C 
BRANCH  10  11
ATOM     11  CE  LYS A 135      28.349  34.773  10.591  1.00 34.25     0.338 C 
ATOM     12  NZ  LYS A 135      28.145  33.715   9.563  1.00 35.99     0.618 N 
ENDBRANCH  10  11
ENDBRANCH   9  10
ENDBRANCH   8   9
ENDBRANCH   7   8
END_RES LYS A 135
