REMARK VINA RESULT:    -4.609      2.081      2.704
REMARK INTER + INTRA:         -14.467
REMARK INTER:                 -10.511
REMARK INTRA:                  -3.956
REMARK UNBOUND:                -6.490
REMARK SMILES CC(=O)N[C@@H]1[C@@H](O)C[C@](O)(C(=O)O)O[C@H]1C(O)[C@H](O)CNC(=O)OCc1cn(-c2ccc3[nH]ncc3c2)nn1
REMARK SMILES IDX 20 1 18 2 16 3 15 4 9 5 8 6 14 7 6 8 5 9 10 10 11 12 12 13
REMARK SMILES IDX 13 14 7 16 4 18 2 19 1 21 3 22 17 23 19 25 21 27 22 28 23 30
REMARK SMILES IDX 24 31 25 32 26 33 27 34 39 35 28 36 38 37 29 38 30 39 37 40
REMARK SMILES IDX 31 41 36 42 32 43 35 44 33 45 34 46
REMARK H PARENT 10 11 13 15 7 17 4 20 17 24 19 26 21 29 33 47
REMARK Flexibility Score: inf
ROOT
ATOM      1  C   UNL     1      28.063  32.879  15.917  1.00  0.00     0.154 C 
ENDROOT
BRANCH   1   2
ATOM      2  C   UNL     1      29.423  32.334  15.900  1.00  0.00     0.165 C 
BRANCH   2   3
ATOM      3  C   UNL     1      30.292  33.058  14.848  1.00  0.00     0.176 C 
BRANCH   3   4
ATOM      4  C   UNL     1      30.637  34.435  15.213  1.00  0.00     0.178 C 
ATOM      5  C   UNL     1      29.808  35.807  13.511  1.00  0.00     0.269 C 
ATOM      6  C   UNL     1      31.068  35.478  12.763  1.00  0.00     0.112 C 
ATOM      7  O   UNL     1      29.804  35.442  14.825  1.00  0.00    -0.332 OA
ATOM      8  C   UNL     1      32.290  35.473  13.613  1.00  0.00     0.145 C 
ATOM      9  C   UNL     1      32.107  34.755  14.912  1.00  0.00     0.142 C 
BRANCH   5  10
ATOM     10  O   UNL     1      28.721  35.228  12.856  1.00  0.00    -0.357 OA
ATOM     11  H   UNL     1      28.946  34.947  11.936  1.00  0.00     0.214 HD
ENDBRANCH   5  10
BRANCH   5  12
ATOM     12  C   UNL     1      29.643  37.278  13.452  1.00  0.00     0.364 C 
ATOM     13  O   UNL     1      30.416  37.964  12.764  1.00  0.00    -0.246 OA
BRANCH  12  14
ATOM     14  O   UNL     1      28.630  37.884  14.164  1.00  0.00    -0.477 OA
ATOM     15  H   UNL     1      27.785  38.273  13.723  1.00  0.00     0.296 HD
ENDBRANCH  12  14
ENDBRANCH   5  12
BRANCH   8  16
ATOM     16  O   UNL     1      33.338  34.909  12.861  1.00  0.00    -0.391 OA
ATOM     17  H   UNL     1      33.275  33.936  13.012  1.00  0.00     0.211 HD
ENDBRANCH   8  16
BRANCH   9  18
ATOM     18  N   UNL     1      32.752  35.413  16.018  1.00  0.00    -0.348 N 
ATOM     19  C   UNL     1      34.160  35.592  16.082  1.00  0.00     0.217 C 
ATOM     20  H   UNL     1      32.168  35.784  16.828  1.00  0.00     0.163 HD
ATOM     21  C   UNL     1      34.774  36.272  17.238  1.00  0.00     0.114 C 
ATOM     22  O   UNL     1      34.865  35.159  15.135  1.00  0.00    -0.275 OA
ENDBRANCH   9  18
ENDBRANCH   3   4
BRANCH   3  23
ATOM     23  O   UNL     1      31.515  32.303  14.960  1.00  0.00    -0.388 OA
ATOM     24  H   UNL     1      32.281  32.858  14.683  1.00  0.00     0.211 HD
ENDBRANCH   3  23
ENDBRANCH   2   3
BRANCH   2  25
ATOM     25  O   UNL     1      29.286  30.999  15.361  1.00  0.00    -0.388 OA
ATOM     26  H   UNL     1      29.809  30.941  14.514  1.00  0.00     0.211 HD
ENDBRANCH   2  25
ENDBRANCH   1   2
BRANCH   1  27
ATOM     27  N   UNL     1      27.479  33.191  14.642  1.00  0.00    -0.319 N 
ATOM     28  C   UNL     1      26.076  33.316  14.467  1.00  0.00     0.407 C 
ATOM     29  H   UNL     1      28.078  33.385  13.824  1.00  0.00     0.167 HD
ATOM     30  O   UNL     1      25.334  33.144  15.468  1.00  0.00    -0.225 OA
BRANCH  28  31
ATOM     31  O   UNL     1      25.480  33.613  13.262  1.00  0.00    -0.443 OA
BRANCH  31  32
ATOM     32  C   UNL     1      24.561  34.668  13.056  1.00  0.00     0.294 C 
BRANCH  32  33
ATOM     33  C   UNL     1      24.628  35.053  11.606  1.00  0.00     0.121 A 
ATOM     34  C   UNL     1      25.742  35.327  10.844  1.00  0.00     0.144 A 
ATOM     35  N   UNL     1      23.575  35.205  10.754  1.00  0.00    -0.131 NA
ATOM     36  N   UNL     1      25.304  35.628   9.587  1.00  0.00    -0.220 N 
ATOM     37  N   UNL     1      23.986  35.545   9.563  1.00  0.00    -0.062 NA
BRANCH  36  38
ATOM     38  C   UNL     1      26.150  35.970   8.502  1.00  0.00     0.067 A 
ATOM     39  C   UNL     1      27.009  35.019   7.984  1.00  0.00     0.030 A 
ATOM     40  C   UNL     1      26.168  37.220   7.918  1.00  0.00     0.040 A 
ATOM     41  C   UNL     1      27.855  35.293   6.930  1.00  0.00     0.030 A 
ATOM     42  C   UNL     1      26.996  37.513   6.874  1.00  0.00     0.022 A 
ATOM     43  C   UNL     1      27.861  36.552   6.354  1.00  0.00     0.065 A 
ATOM     44  C   UNL     1      27.218  38.642   6.121  1.00  0.00     0.143 A 
ATOM     45  N   UNL     1      28.552  37.106   5.344  1.00  0.00    -0.278 N 
ATOM     46  N   UNL     1      28.177  38.356   5.194  1.00  0.00    -0.183 NA
ATOM     47  H   UNL     1      29.267  36.615   4.777  1.00  0.00     0.190 HD
ENDBRANCH  36  38
ENDBRANCH  32  33
ENDBRANCH  31  32
ENDBRANCH  28  31
ENDBRANCH   1  27
TORSDOF 15
BEGIN_RES LYS A 131
REMARK  4 active torsions:
REMARK  status: ('A' for Active; 'I' for Inactive)
REMARK    1  A    between atoms: CA   and  CB  
REMARK    2  A    between atoms: CB   and  CG  
REMARK    3  A    between atoms: CG   and  CD  
REMARK    4  A    between atoms: CD   and  CE  
ROOT
ATOM      1  CA  LYS A 131      29.867  25.555  16.977  1.00 20.52     0.186 C 
ENDROOT
BRANCH   1   2
ATOM      2  CB  LYS A 131      28.345  25.722  17.026  1.00 20.94     0.034 C 
BRANCH   2   3
ATOM      3  CG  LYS A 131      27.602  24.400  16.914  1.00 22.96     0.005 C 
BRANCH   3   4
ATOM      4  CD  LYS A 131      26.190  24.499  17.422  1.00 24.33     0.041 C 
BRANCH   4   5
ATOM      5  CE  LYS A 131      25.981  23.489  18.546  1.00 26.91     0.338 C 
ATOM      6  NZ  LYS A 131      25.391  24.150  19.734  1.00 27.40     0.618 N 
ENDBRANCH   4   5
ENDBRANCH   3   4
ENDBRANCH   2   3
ENDBRANCH   1   2
END_RES LYS A 131
BEGIN_RES LYS A 135
REMARK  4 active torsions:
REMARK  status: ('A' for Active; 'I' for Inactive)
REMARK    5  A    between atoms: CA   and  CB  
REMARK    6  A    between atoms: CB   and  CG  
REMARK    7  A    between atoms: CG   and  CD  
REMARK    8  A    between atoms: CD   and  CE  
ROOT
ATOM      7  CA  LYS A 135      33.193  34.663   9.290  1.00 25.02     0.186 C 
ENDROOT
BRANCH   7   8
ATOM      8  CB  LYS A 135      32.060  35.360  10.034  1.00 26.63     0.034 C 
BRANCH   8   9
ATOM      9  CG  LYS A 135      30.763  35.388   9.267  1.00 29.45     0.005 C 
BRANCH   9  10
ATOM     10  CD  LYS A 135      29.994  36.667   9.560  1.00 32.00     0.041 C 
BRANCH  10  11
ATOM     11  CE  LYS A 135      30.859  37.883   9.286  1.00 34.25     0.338 C 
ATOM     12  NZ  LYS A 135      30.537  38.483   7.962  1.00 35.99     0.618 N 
ENDBRANCH  10  11
ENDBRANCH   9  10
ENDBRANCH   8   9
ENDBRANCH   7   8
END_RES LYS A 135
