REMARK VINA RESULT:    -5.287      6.116     10.471
REMARK INTER + INTRA:         -14.749
REMARK INTER:                  -9.873
REMARK INTRA:                  -4.876
REMARK UNBOUND:                -5.290
REMARK SMILES CC(=O)N[C@@H]1[C@@H](O)C[C@](O)(C(=O)O)O[C@H]1C(O)[C@H](O)CNC(=O)OCc1cn(Cc2ccccc2)nn1
REMARK SMILES IDX 21 1 22 2 23 3 20 5 18 6 16 7 15 8 9 9 8 10 14 11 6 12 5 13
REMARK SMILES IDX 10 14 11 16 12 17 13 18 7 20 4 22 2 23 1 25 3 26 17 27 19 29
REMARK SMILES IDX 24 31 25 32 26 33 27 34 37 35 28 36 36 37 29 38 30 39 31 40
REMARK SMILES IDX 35 41 32 42 34 43 33 44
REMARK H PARENT 21 4 10 15 13 19 7 21 4 24 17 28 19 30
REMARK Flexibility Score: inf
ROOT
ATOM      1  N   UNL     1      28.751  31.205  15.630  1.00  0.00    -0.319 N 
ATOM      2  C   UNL     1      27.592  30.539  16.075  1.00  0.00     0.407 C 
ATOM      3  O   UNL     1      27.586  29.821  17.088  1.00  0.00    -0.225 OA
ATOM      4  H   UNL     1      28.632  31.789  14.761  1.00  0.00     0.167 HD
ENDROOT
BRANCH   1   5
ATOM      5  C   UNL     1      30.014  31.110  16.294  1.00  0.00     0.154 C 
BRANCH   5   6
ATOM      6  C   UNL     1      30.803  32.381  16.077  1.00  0.00     0.165 C 
BRANCH   6   7
ATOM      7  C   UNL     1      29.901  33.577  15.965  1.00  0.00     0.176 C 
BRANCH   7   8
ATOM      8  C   UNL     1      30.644  34.873  15.746  1.00  0.00     0.178 C 
ATOM      9  C   UNL     1      32.315  35.521  14.246  1.00  0.00     0.269 C 
ATOM     10  C   UNL     1      32.481  36.746  15.159  1.00  0.00     0.112 C 
ATOM     11  O   UNL     1      31.055  35.049  14.460  1.00  0.00    -0.332 OA
ATOM     12  C   UNL     1      32.683  36.134  16.544  1.00  0.00     0.145 C 
ATOM     13  C   UNL     1      31.653  35.064  16.823  1.00  0.00     0.142 C 
BRANCH   9  14
ATOM     14  O   UNL     1      33.337  34.619  14.457  1.00  0.00    -0.357 OA
ATOM     15  H   UNL     1      32.982  33.712  14.346  1.00  0.00     0.214 HD
ENDBRANCH   9  14
BRANCH   9  16
ATOM     16  C   UNL     1      32.358  36.045  12.834  1.00  0.00     0.364 C 
ATOM     17  O   UNL     1      31.546  36.902  12.429  1.00  0.00    -0.246 OA
BRANCH  16  18
ATOM     18  O   UNL     1      33.312  35.576  11.951  1.00  0.00    -0.477 OA
ATOM     19  H   UNL     1      33.091  35.556  10.969  1.00  0.00     0.296 HD
ENDBRANCH  16  18
ENDBRANCH   9  16
BRANCH  12  20
ATOM     20  O   UNL     1      33.979  35.616  16.542  1.00  0.00    -0.391 OA
ATOM     21  H   UNL     1      34.043  34.909  17.220  1.00  0.00     0.211 HD
ENDBRANCH  12  20
BRANCH  13  22
ATOM     22  N   UNL     1      30.906  35.413  18.045  1.00  0.00    -0.348 N 
ATOM     23  C   UNL     1      31.246  34.901  19.321  1.00  0.00     0.217 C 
ATOM     24  H   UNL     1      30.078  36.073  17.973  1.00  0.00     0.163 HD
ATOM     25  C   UNL     1      30.526  35.223  20.576  1.00  0.00     0.114 C 
ATOM     26  O   UNL     1      32.228  34.120  19.399  1.00  0.00    -0.275 OA
ENDBRANCH  13  22
ENDBRANCH   7   8
BRANCH   7  27
ATOM     27  O   UNL     1      29.063  33.620  17.062  1.00  0.00    -0.388 OA
ATOM     28  H   UNL     1      29.227  34.465  17.545  1.00  0.00     0.211 HD
ENDBRANCH   7  27
ENDBRANCH   6   7
BRANCH   6  29
ATOM     29  O   UNL     1      31.550  32.168  14.918  1.00  0.00    -0.388 OA
ATOM     30  H   UNL     1      32.037  32.969  14.623  1.00  0.00     0.211 HD
ENDBRANCH   6  29
ENDBRANCH   5   6
ENDBRANCH   1   5
BRANCH   2  31
ATOM     31  O   UNL     1      26.390  30.669  15.379  1.00  0.00    -0.443 OA
BRANCH  31  32
ATOM     32  C   UNL     1      25.499  31.704  15.718  1.00  0.00     0.294 C 
BRANCH  32  33
ATOM     33  C   UNL     1      25.370  32.696  14.624  1.00  0.00     0.120 A 
ATOM     34  C   UNL     1      26.292  33.649  14.285  1.00  0.00     0.138 A 
ATOM     35  N   UNL     1      24.335  32.827  13.789  1.00  0.00    -0.132 NA
ATOM     36  N   UNL     1      25.789  34.339  13.248  1.00  0.00    -0.248 N 
ATOM     37  N   UNL     1      24.592  33.814  12.967  1.00  0.00    -0.067 NA
BRANCH  36  38
ATOM     38  C   UNL     1      26.373  35.443  12.528  1.00  0.00     0.181 C 
BRANCH  38  39
ATOM     39  C   UNL     1      26.477  35.141  11.075  1.00  0.00    -0.026 A 
ATOM     40  C   UNL     1      27.378  34.196  10.597  1.00  0.00     0.005 A 
ATOM     41  C   UNL     1      25.695  35.776  10.143  1.00  0.00     0.005 A 
ATOM     42  C   UNL     1      27.469  33.923   9.255  1.00  0.00     0.000 A 
ATOM     43  C   UNL     1      25.779  35.507   8.788  1.00  0.00     0.000 A 
ATOM     44  C   UNL     1      26.676  34.569   8.331  1.00  0.00     0.000 A 
ENDBRANCH  38  39
ENDBRANCH  36  38
ENDBRANCH  32  33
ENDBRANCH  31  32
ENDBRANCH   2  31
TORSDOF 16
BEGIN_RES LYS A 131
REMARK  4 active torsions:
REMARK  status: ('A' for Active; 'I' for Inactive)
REMARK    1  A    between atoms: CA   and  CB  
REMARK    2  A    between atoms: CB   and  CG  
REMARK    3  A    between atoms: CG   and  CD  
REMARK    4  A    between atoms: CD   and  CE  
ROOT
ATOM      1  CA  LYS A 131      29.867  25.555  16.977  1.00 20.52     0.186 C 
ENDROOT
BRANCH   1   2
ATOM      2  CB  LYS A 131      28.345  25.722  17.026  1.00 20.94     0.034 C 
BRANCH   2   3
ATOM      3  CG  LYS A 131      27.601  24.401  16.899  1.00 22.96     0.005 C 
BRANCH   3   4
ATOM      4  CD  LYS A 131      26.556  24.235  17.967  1.00 24.33     0.041 C 
BRANCH   4   5
ATOM      5  CE  LYS A 131      25.169  24.330  17.340  1.00 26.91     0.338 C 
ATOM      6  NZ  LYS A 131      24.532  25.624  17.680  1.00 27.40     0.618 N 
ENDBRANCH   4   5
ENDBRANCH   3   4
ENDBRANCH   2   3
ENDBRANCH   1   2
END_RES LYS A 131
BEGIN_RES LYS A 135
REMARK  4 active torsions:
REMARK  status: ('A' for Active; 'I' for Inactive)
REMARK    5  A    between atoms: CA   and  CB  
REMARK    6  A    between atoms: CB   and  CG  
REMARK    7  A    between atoms: CG   and  CD  
REMARK    8  A    between atoms: CD   and  CE  
ROOT
ATOM      7  CA  LYS A 135      33.193  34.663   9.290  1.00 25.02     0.186 C 
ENDROOT
BRANCH   7   8
ATOM      8  CB  LYS A 135      32.060  35.360  10.034  1.00 26.63     0.034 C 
BRANCH   8   9
ATOM      9  CG  LYS A 135      30.753  35.354   9.284  1.00 29.45     0.005 C 
BRANCH   9  10
ATOM     10  CD  LYS A 135      30.165  36.755   9.219  1.00 32.00     0.041 C 
BRANCH  10  11
ATOM     11  CE  LYS A 135      29.325  36.923   7.967  1.00 34.25     0.338 C 
ATOM     12  NZ  LYS A 135      29.480  35.755   7.057  1.00 35.99     0.618 N 
ENDBRANCH  10  11
ENDBRANCH   9  10
ENDBRANCH   8   9
ENDBRANCH   7   8
END_RES LYS A 135
