REMARK VINA RESULT:    -4.725      4.347      9.109
REMARK INTER + INTRA:         -13.964
REMARK INTER:                  -8.738
REMARK INTRA:                  -5.226
REMARK UNBOUND:                -5.786
REMARK SMILES CC(=O)N[C@@H]1[C@@H](O)C[C@](O)(C(=O)O)O[C@H]1C(O)[C@H](O)CNC(=O)OCc1cn(C2CCN(C)CC2)nn1
REMARK SMILES IDX 20 1 18 2 16 3 15 4 9 5 8 6 14 7 6 8 5 9 10 10 11 12 12 13
REMARK SMILES IDX 13 14 7 16 4 18 2 19 1 21 3 22 17 23 19 25 21 27 22 28 23 30
REMARK SMILES IDX 24 31 25 32 26 33 27 34 37 35 28 36 36 37 29 38 30 39 35 40
REMARK SMILES IDX 31 41 34 42 32 43 33 44
REMARK H PARENT 10 11 13 15 7 17 4 20 17 24 19 26 21 29
REMARK Flexibility Score: inf
ROOT
ATOM      1  C   UNL     1      30.549  31.944  17.110  1.00  0.00     0.154 C 
ENDROOT
BRANCH   1   2
ATOM      2  C   UNL     1      30.961  32.775  15.941  1.00  0.00     0.165 C 
BRANCH   2   3
ATOM      3  C   UNL     1      29.787  33.460  15.273  1.00  0.00     0.176 C 
BRANCH   3   4
ATOM      4  C   UNL     1      30.293  34.547  14.348  1.00  0.00     0.178 C 
ATOM      5  C   UNL     1      31.874  36.251  14.124  1.00  0.00     0.269 C 
ATOM      6  C   UNL     1      30.828  37.186  13.599  1.00  0.00     0.112 C 
ATOM      7  O   UNL     1      31.416  35.162  14.804  1.00  0.00    -0.332 OA
ATOM      8  C   UNL     1      29.684  36.438  12.968  1.00  0.00     0.145 C 
ATOM      9  C   UNL     1      29.159  35.467  14.023  1.00  0.00     0.142 C 
BRANCH   5  10
ATOM     10  O   UNL     1      32.762  37.016  14.931  1.00  0.00    -0.357 OA
ATOM     11  H   UNL     1      33.704  36.802  14.724  1.00  0.00     0.214 HD
ENDBRANCH   5  10
BRANCH   5  12
ATOM     12  C   UNL     1      32.669  35.751  12.973  1.00  0.00     0.364 C 
ATOM     13  O   UNL     1      32.749  36.437  11.923  1.00  0.00    -0.246 OA
BRANCH  12  14
ATOM     14  O   UNL     1      33.356  34.547  12.961  1.00  0.00    -0.477 OA
ATOM     15  H   UNL     1      33.682  34.091  13.813  1.00  0.00     0.296 HD
ENDBRANCH  12  14
ENDBRANCH   5  12
BRANCH   8  16
ATOM     16  O   UNL     1      28.656  37.300  12.580  1.00  0.00    -0.391 OA
ATOM     17  H   UNL     1      28.143  37.643  13.345  1.00  0.00     0.211 HD
ENDBRANCH   8  16
BRANCH   9  18
ATOM     18  N   UNL     1      28.092  34.722  13.342  1.00  0.00    -0.348 N 
ATOM     19  C   UNL     1      26.763  34.716  13.811  1.00  0.00     0.217 C 
ATOM     20  H   UNL     1      28.362  34.202  12.497  1.00  0.00     0.163 HD
ATOM     21  C   UNL     1      25.681  33.948  13.100  1.00  0.00     0.114 C 
ATOM     22  O   UNL     1      26.492  35.373  14.849  1.00  0.00    -0.275 OA
ENDBRANCH   9  18
ENDBRANCH   3   4
BRANCH   3  23
ATOM     23  O   UNL     1      28.942  33.941  16.246  1.00  0.00    -0.388 OA
ATOM     24  H   UNL     1      29.457  34.349  16.989  1.00  0.00     0.211 HD
ENDBRANCH   3  23
ENDBRANCH   2   3
BRANCH   2  25
ATOM     25  O   UNL     1      31.554  31.919  14.983  1.00  0.00    -0.388 OA
ATOM     26  H   UNL     1      31.264  30.979  15.122  1.00  0.00     0.211 HD
ENDBRANCH   2  25
ENDBRANCH   1   2
BRANCH   1  27
ATOM     27  N   UNL     1      29.854  30.772  16.624  1.00  0.00    -0.319 N 
ATOM     28  C   UNL     1      28.476  30.504  16.848  1.00  0.00     0.407 C 
ATOM     29  H   UNL     1      30.351  30.023  16.054  1.00  0.00     0.167 HD
ATOM     30  O   UNL     1      27.800  31.315  17.500  1.00  0.00    -0.225 OA
BRANCH  28  31
ATOM     31  O   UNL     1      27.852  29.363  16.362  1.00  0.00    -0.443 OA
BRANCH  31  32
ATOM     32  C   UNL     1      27.051  28.564  17.209  1.00  0.00     0.294 C 
BRANCH  32  33
ATOM     33  C   UNL     1      25.608  28.796  16.940  1.00  0.00     0.120 A 
ATOM     34  C   UNL     1      25.040  29.602  15.996  1.00  0.00     0.138 A 
ATOM     35  N   UNL     1      24.582  28.234  17.605  1.00  0.00    -0.132 NA
ATOM     36  N   UNL     1      23.703  29.521  16.097  1.00  0.00    -0.249 N 
ATOM     37  N   UNL     1      23.458  28.669  17.097  1.00  0.00    -0.067 NA
BRANCH  36  38
ATOM     38  C   UNL     1      22.742  30.222  15.276  1.00  0.00     0.111 C 
ATOM     39  C   UNL     1      21.368  29.599  15.378  1.00  0.00     0.043 C 
ATOM     40  C   UNL     1      23.213  30.344  13.858  1.00  0.00     0.043 C 
ATOM     41  C   UNL     1      21.196  28.423  14.446  1.00  0.00     0.086 C 
ATOM     42  C   UNL     1      23.022  29.103  13.043  1.00  0.00     0.086 C 
ATOM     43  N   UNL     1      21.652  28.696  13.115  1.00  0.00    -0.306 NA
ATOM     44  C   UNL     1      20.825  29.636  12.414  1.00  0.00     0.105 C 
ENDBRANCH  36  38
ENDBRANCH  32  33
ENDBRANCH  31  32
ENDBRANCH  28  31
ENDBRANCH   1  27
TORSDOF 15
BEGIN_RES LYS A 131
REMARK  4 active torsions:
REMARK  status: ('A' for Active; 'I' for Inactive)
REMARK    1  A    between atoms: CA   and  CB  
REMARK    2  A    between atoms: CB   and  CG  
REMARK    3  A    between atoms: CG   and  CD  
REMARK    4  A    between atoms: CD   and  CE  
ROOT
ATOM      1  CA  LYS A 131      29.867  25.555  16.977  1.00 20.52     0.186 C 
ENDROOT
BRANCH   1   2
ATOM      2  CB  LYS A 131      28.345  25.722  17.026  1.00 20.94     0.034 C 
BRANCH   2   3
ATOM      3  CG  LYS A 131      27.601  24.401  16.904  1.00 22.96     0.005 C 
BRANCH   3   4
ATOM      4  CD  LYS A 131      26.482  24.286  17.901  1.00 24.33     0.041 C 
BRANCH   4   5
ATOM      5  CE  LYS A 131      25.512  23.197  17.454  1.00 26.91     0.338 C 
ATOM      6  NZ  LYS A 131      24.176  23.775  17.177  1.00 27.40     0.618 N 
ENDBRANCH   4   5
ENDBRANCH   3   4
ENDBRANCH   2   3
ENDBRANCH   1   2
END_RES LYS A 131
BEGIN_RES LYS A 135
REMARK  4 active torsions:
REMARK  status: ('A' for Active; 'I' for Inactive)
REMARK    5  A    between atoms: CA   and  CB  
REMARK    6  A    between atoms: CB   and  CG  
REMARK    7  A    between atoms: CG   and  CD  
REMARK    8  A    between atoms: CD   and  CE  
ROOT
ATOM      7  CA  LYS A 135      33.193  34.663   9.290  1.00 25.02     0.186 C 
ENDROOT
BRANCH   7   8
ATOM      8  CB  LYS A 135      32.060  35.360  10.034  1.00 26.63     0.034 C 
BRANCH   8   9
ATOM      9  CG  LYS A 135      30.788  35.464   9.233  1.00 29.45     0.005 C 
BRANCH   9  10
ATOM     10  CD  LYS A 135      30.216  34.084   8.952  1.00 32.00     0.041 C 
BRANCH  10  11
ATOM     11  CE  LYS A 135      28.770  34.004   9.403  1.00 34.25     0.338 C 
ATOM     12  NZ  LYS A 135      27.853  34.555   8.366  1.00 35.99     0.618 N 
ENDBRANCH  10  11
ENDBRANCH   9  10
ENDBRANCH   8   9
ENDBRANCH   7   8
END_RES LYS A 135
