REMARK VINA RESULT:    -5.598      1.714      2.145
REMARK INTER + INTRA:         -14.185
REMARK INTER:                  -8.905
REMARK INTRA:                  -5.280
REMARK UNBOUND:                -4.497
REMARK SMILES CC(=O)N[C@@H]1[C@@H](O)C[C@](O)(C(=O)O)O[C@H]1C(O)[C@H](O)CNC(=O)OCc1cn(-c2cccc(Cl)c2)nn1
REMARK SMILES IDX 20 1 18 2 16 3 15 4 9 5 8 6 14 7 6 8 5 9 10 10 11 12 12 13
REMARK SMILES IDX 13 14 7 16 4 18 2 19 1 21 3 22 17 23 19 25 21 27 22 28 23 30
REMARK SMILES IDX 24 31 25 32 26 33 27 34 37 35 28 36 36 37 29 38 30 39 35 40
REMARK SMILES IDX 31 41 33 42 32 43 34 44
REMARK H PARENT 10 11 13 15 7 17 4 20 17 24 19 26 21 29
REMARK Flexibility Score: inf
ROOT
ATOM      1  C   UNL     1      26.650  29.532  19.969  1.00  0.00     0.154 C 
ENDROOT
BRANCH   1   2
ATOM      2  C   UNL     1      27.911  30.009  20.629  1.00  0.00     0.165 C 
BRANCH   2   3
ATOM      3  C   UNL     1      29.088  29.114  20.370  1.00  0.00     0.176 C 
BRANCH   3   4
ATOM      4  C   UNL     1      29.764  28.709  21.682  1.00  0.00     0.178 C 
ATOM      5  C   UNL     1      32.088  29.063  21.641  1.00  0.00     0.269 C 
ATOM      6  C   UNL     1      32.283  27.667  22.218  1.00  0.00     0.112 C 
ATOM      7  O   UNL     1      30.828  29.496  21.871  1.00  0.00    -0.332 OA
ATOM      8  C   UNL     1      31.367  26.790  21.367  1.00  0.00     0.145 C 
ATOM      9  C   UNL     1      29.961  27.234  21.660  1.00  0.00     0.142 C 
BRANCH   5  10
ATOM     10  O   UNL     1      32.432  28.971  20.299  1.00  0.00    -0.357 OA
ATOM     11  H   UNL     1      33.047  28.205  20.184  1.00  0.00     0.214 HD
ENDBRANCH   5  10
BRANCH   5  12
ATOM     12  C   UNL     1      33.029  29.999  22.300  1.00  0.00     0.364 C 
ATOM     13  O   UNL     1      34.090  30.309  21.711  1.00  0.00    -0.246 OA
BRANCH  12  14
ATOM     14  O   UNL     1      32.787  30.551  23.549  1.00  0.00    -0.477 OA
ATOM     15  H   UNL     1      32.530  31.543  23.598  1.00  0.00     0.296 HD
ENDBRANCH  12  14
ENDBRANCH   5  12
BRANCH   8  16
ATOM     16  O   UNL     1      31.601  26.974  20.008  1.00  0.00    -0.391 OA
ATOM     17  H   UNL     1      31.909  27.902  19.800  1.00  0.00     0.211 HD
ENDBRANCH   8  16
BRANCH   9  18
ATOM     18  N   UNL     1      29.589  26.643  22.928  1.00  0.00    -0.348 N 
ATOM     19  C   UNL     1      28.222  26.582  23.301  1.00  0.00     0.217 C 
ATOM     20  H   UNL     1      30.320  26.253  23.591  1.00  0.00     0.163 HD
ATOM     21  C   UNL     1      27.848  25.974  24.604  1.00  0.00     0.114 C 
ATOM     22  O   UNL     1      27.341  27.040  22.528  1.00  0.00    -0.275 OA
ENDBRANCH   9  18
ENDBRANCH   3   4
BRANCH   3  23
ATOM     23  O   UNL     1      29.992  29.866  19.590  1.00  0.00    -0.388 OA
ATOM     24  H   UNL     1      30.122  29.464  18.720  1.00  0.00     0.211 HD
ENDBRANCH   3  23
ENDBRANCH   2   3
BRANCH   2  25
ATOM     25  O   UNL     1      27.695  30.080  22.017  1.00  0.00    -0.388 OA
ATOM     26  H   UNL     1      26.752  29.921  22.195  1.00  0.00     0.211 HD
ENDBRANCH   2  25
ENDBRANCH   1   2
BRANCH   1  27
ATOM     27  N   UNL     1      26.880  29.338  18.542  1.00  0.00    -0.319 N 
ATOM     28  C   UNL     1      25.933  29.786  17.588  1.00  0.00     0.407 C 
ATOM     29  H   UNL     1      27.757  28.863  18.250  1.00  0.00     0.167 HD
ATOM     30  O   UNL     1      24.886  30.356  17.986  1.00  0.00    -0.225 OA
BRANCH  28  31
ATOM     31  O   UNL     1      26.112  29.622  16.224  1.00  0.00    -0.443 OA
BRANCH  31  32
ATOM     32  C   UNL     1      26.593  30.717  15.476  1.00  0.00     0.294 C 
BRANCH  32  33
ATOM     33  C   UNL     1      27.995  31.006  15.875  1.00  0.00     0.121 A 
ATOM     34  C   UNL     1      28.637  32.231  15.815  1.00  0.00     0.144 A 
ATOM     35  N   UNL     1      28.917  30.158  16.368  1.00  0.00    -0.131 NA
ATOM     36  N   UNL     1      29.907  32.097  16.264  1.00  0.00    -0.220 N 
ATOM     37  N   UNL     1      30.040  30.823  16.591  1.00  0.00    -0.062 NA
BRANCH  36  38
ATOM     38  C   UNL     1      30.890  33.121  16.361  1.00  0.00     0.068 A 
ATOM     39  C   UNL     1      31.003  33.834  17.535  1.00  0.00     0.028 A 
ATOM     40  C   UNL     1      31.749  33.445  15.332  1.00  0.00     0.049 A 
ATOM     41  C   UNL     1      31.945  34.841  17.676  1.00  0.00     0.004 A 
ATOM     42  C   UNL     1      32.697  34.440  15.439  1.00  0.00     0.043 A 
ATOM     43  C   UNL     1      32.785  35.136  16.627  1.00  0.00     0.020 A 
ATOM     44  Cl  UNL     1      33.781  34.824  14.093  1.00  0.00    -0.084 Cl
ENDBRANCH  36  38
ENDBRANCH  32  33
ENDBRANCH  31  32
ENDBRANCH  28  31
ENDBRANCH   1  27
TORSDOF 15
BEGIN_RES LYS A 131
REMARK  4 active torsions:
REMARK  status: ('A' for Active; 'I' for Inactive)
REMARK    1  A    between atoms: CA   and  CB  
REMARK    2  A    between atoms: CB   and  CG  
REMARK    3  A    between atoms: CG   and  CD  
REMARK    4  A    between atoms: CD   and  CE  
ROOT
ATOM      1  CA  LYS A 131      29.867  25.555  16.977  1.00 20.52     0.186 C 
ENDROOT
BRANCH   1   2
ATOM      2  CB  LYS A 131      28.345  25.722  17.026  1.00 20.94     0.034 C 
BRANCH   2   3
ATOM      3  CG  LYS A 131      27.602  24.399  16.922  1.00 22.96     0.005 C 
BRANCH   3   4
ATOM      4  CD  LYS A 131      26.396  24.355  17.819  1.00 24.33     0.041 C 
BRANCH   4   5
ATOM      5  CE  LYS A 131      26.000  25.775  18.210  1.00 26.91     0.338 C 
ATOM      6  NZ  LYS A 131      25.760  25.863  19.670  1.00 27.40     0.618 N 
ENDBRANCH   4   5
ENDBRANCH   3   4
ENDBRANCH   2   3
ENDBRANCH   1   2
END_RES LYS A 131
BEGIN_RES LYS A 135
REMARK  4 active torsions:
REMARK  status: ('A' for Active; 'I' for Inactive)
REMARK    5  A    between atoms: CA   and  CB  
REMARK    6  A    between atoms: CB   and  CG  
REMARK    7  A    between atoms: CG   and  CD  
REMARK    8  A    between atoms: CD   and  CE  
ROOT
ATOM      7  CA  LYS A 135      33.193  34.663   9.290  1.00 25.02     0.186 C 
ENDROOT
BRANCH   7   8
ATOM      8  CB  LYS A 135      32.060  35.360  10.034  1.00 26.63     0.034 C 
BRANCH   8   9
ATOM      9  CG  LYS A 135      30.804  35.511   9.215  1.00 29.45     0.005 C 
BRANCH   9  10
ATOM     10  CD  LYS A 135      30.164  34.155   8.960  1.00 32.00     0.041 C 
BRANCH  10  11
ATOM     11  CE  LYS A 135      28.688  34.314   8.649  1.00 34.25     0.338 C 
ATOM     12  NZ  LYS A 135      27.847  33.671   9.696  1.00 35.99     0.618 N 
ENDBRANCH  10  11
ENDBRANCH   9  10
ENDBRANCH   8   9
ENDBRANCH   7   8
END_RES LYS A 135
