REMARK VINA RESULT:    -4.113      2.465      5.965
REMARK INTER + INTRA:         -13.841
REMARK INTER:                  -6.857
REMARK INTRA:                  -6.983
REMARK UNBOUND:                -6.362
REMARK SMILES CC(=O)N[C@@H]1[C@@H](O)C[C@](O)(C(=O)O)O[C@H]1C(O)[C@H](O)CNC(=O)OCc1cn(CC(=O)O)nn1
REMARK SMILES IDX 21 1 22 2 23 3 20 5 18 6 16 7 15 8 9 9 8 10 14 11 6 12 5 13
REMARK SMILES IDX 10 14 11 16 12 17 13 18 7 20 4 22 2 23 1 25 3 26 17 27 19 29
REMARK SMILES IDX 24 31 25 32 26 33 27 34 34 35 28 36 33 37 29 38 30 39 31 40
REMARK SMILES IDX 32 41
REMARK H PARENT 21 4 10 15 13 19 7 21 4 24 17 28 19 30 32 42
REMARK Flexibility Score: inf
ROOT
ATOM      1  N   UNL     1      27.581  29.943  19.960  1.00  0.00    -0.319 N 
ATOM      2  C   UNL     1      27.543  28.564  19.676  1.00  0.00     0.407 C 
ATOM      3  O   UNL     1      28.515  27.830  19.852  1.00  0.00    -0.225 OA
ATOM      4  H   UNL     1      26.671  30.464  19.772  1.00  0.00     0.167 HD
ENDROOT
BRANCH   1   5
ATOM      5  C   UNL     1      28.705  30.688  20.463  1.00  0.00     0.154 C 
BRANCH   5   6
ATOM      6  C   UNL     1      29.563  31.349  19.432  1.00  0.00     0.165 C 
BRANCH   6   7
ATOM      7  C   UNL     1      28.918  32.503  18.760  1.00  0.00     0.176 C 
BRANCH   7   8
ATOM      8  C   UNL     1      29.775  33.228  17.758  1.00  0.00     0.178 C 
ATOM      9  C   UNL     1      30.891  32.861  15.719  1.00  0.00     0.269 C 
ATOM     10  C   UNL     1      32.006  33.778  16.098  1.00  0.00     0.112 C 
ATOM     11  O   UNL     1      30.113  32.364  16.706  1.00  0.00    -0.332 OA
ATOM     12  C   UNL     1      31.590  34.702  17.199  1.00  0.00     0.145 C 
ATOM     13  C   UNL     1      31.056  33.787  18.317  1.00  0.00     0.142 C 
BRANCH   9  14
ATOM     14  O   UNL     1      31.486  31.803  14.970  1.00  0.00    -0.357 OA
ATOM     15  H   UNL     1      31.510  32.134  14.031  1.00  0.00     0.214 HD
ENDBRANCH   9  14
BRANCH   9  16
ATOM     16  C   UNL     1      30.033  33.566  14.719  1.00  0.00     0.364 C 
ATOM     17  O   UNL     1      30.459  34.353  13.850  1.00  0.00    -0.246 OA
BRANCH  16  18
ATOM     18  O   UNL     1      28.673  33.339  14.747  1.00  0.00    -0.477 OA
ATOM     19  H   UNL     1      28.172  33.079  15.595  1.00  0.00     0.296 HD
ENDBRANCH  16  18
ENDBRANCH   9  16
BRANCH  12  20
ATOM     20  O   UNL     1      32.642  35.479  17.675  1.00  0.00    -0.391 OA
ATOM     21  H   UNL     1      33.216  34.883  18.223  1.00  0.00     0.211 HD
ENDBRANCH  12  20
BRANCH  13  22
ATOM     22  N   UNL     1      30.962  34.542  19.524  1.00  0.00    -0.348 N 
ATOM     23  C   UNL     1      31.629  34.153  20.725  1.00  0.00     0.217 C 
ATOM     24  H   UNL     1      30.405  35.415  19.548  1.00  0.00     0.163 HD
ATOM     25  C   UNL     1      31.554  34.909  21.995  1.00  0.00     0.114 C 
ATOM     26  O   UNL     1      32.318  33.106  20.697  1.00  0.00    -0.275 OA
ENDBRANCH  13  22
ENDBRANCH   7   8
BRANCH   7  27
ATOM     27  O   UNL     1      27.659  32.181  18.282  1.00  0.00    -0.388 OA
ATOM     28  H   UNL     1      26.940  32.661  18.767  1.00  0.00     0.211 HD
ENDBRANCH   7  27
ENDBRANCH   6   7
BRANCH   6  29
ATOM     29  O   UNL     1      29.968  30.374  18.506  1.00  0.00    -0.388 OA
ATOM     30  H   UNL     1      29.237  29.755  18.282  1.00  0.00     0.211 HD
ENDBRANCH   6  29
ENDBRANCH   5   6
ENDBRANCH   1   5
BRANCH   2  31
ATOM     31  O   UNL     1      26.385  27.969  19.181  1.00  0.00    -0.443 OA
BRANCH  31  32
ATOM     32  C   UNL     1      26.120  27.730  17.835  1.00  0.00     0.294 C 
BRANCH  32  33
ATOM     33  C   UNL     1      26.224  28.926  16.964  1.00  0.00     0.120 A 
ATOM     34  C   UNL     1      25.256  29.599  16.284  1.00  0.00     0.139 A 
ATOM     35  N   UNL     1      27.382  29.591  16.683  1.00  0.00    -0.132 NA
ATOM     36  N   UNL     1      25.825  30.625  15.626  1.00  0.00    -0.241 N 
ATOM     37  N   UNL     1      27.107  30.608  15.876  1.00  0.00    -0.066 NA
BRANCH  36  38
ATOM     38  C   UNL     1      25.123  31.575  14.789  1.00  0.00     0.268 C 
BRANCH  38  39
ATOM     39  C   UNL     1      25.649  32.934  15.026  1.00  0.00     0.325 C 
ATOM     40  O   UNL     1      25.760  33.731  14.052  1.00  0.00    -0.250 OA
BRANCH  39  41
ATOM     41  O   UNL     1      26.015  33.334  16.294  1.00  0.00    -0.480 OA
ATOM     42  H   UNL     1      25.829  32.675  17.056  1.00  0.00     0.296 HD
ENDBRANCH  39  41
ENDBRANCH  38  39
ENDBRANCH  36  38
ENDBRANCH  32  33
ENDBRANCH  31  32
ENDBRANCH   2  31
TORSDOF 17
BEGIN_RES LYS A 131
REMARK  4 active torsions:
REMARK  status: ('A' for Active; 'I' for Inactive)
REMARK    1  A    between atoms: CA   and  CB  
REMARK    2  A    between atoms: CB   and  CG  
REMARK    3  A    between atoms: CG   and  CD  
REMARK    4  A    between atoms: CD   and  CE  
ROOT
ATOM      1  CA  LYS A 131      29.867  25.555  16.977  1.00 20.52     0.186 C 
ENDROOT
BRANCH   1   2
ATOM      2  CB  LYS A 131      28.345  25.722  17.026  1.00 20.94     0.034 C 
BRANCH   2   3
ATOM      3  CG  LYS A 131      27.600  24.414  16.807  1.00 22.96     0.005 C 
BRANCH   3   4
ATOM      4  CD  LYS A 131      26.820  23.996  18.022  1.00 24.33     0.041 C 
BRANCH   4   5
ATOM      5  CE  LYS A 131      25.499  23.368  17.589  1.00 26.91     0.338 C 
ATOM      6  NZ  LYS A 131      24.659  24.363  16.881  1.00 27.40     0.618 N 
ENDBRANCH   4   5
ENDBRANCH   3   4
ENDBRANCH   2   3
ENDBRANCH   1   2
END_RES LYS A 131
BEGIN_RES LYS A 135
REMARK  4 active torsions:
REMARK  status: ('A' for Active; 'I' for Inactive)
REMARK    5  A    between atoms: CA   and  CB  
REMARK    6  A    between atoms: CB   and  CG  
REMARK    7  A    between atoms: CG   and  CD  
REMARK    8  A    between atoms: CD   and  CE  
ROOT
ATOM      7  CA  LYS A 135      33.193  34.663   9.290  1.00 25.02     0.186 C 
ENDROOT
BRANCH   7   8
ATOM      8  CB  LYS A 135      32.060  35.360  10.034  1.00 26.63     0.034 C 
BRANCH   8   9
ATOM      9  CG  LYS A 135      30.829  35.574   9.192  1.00 29.45     0.005 C 
BRANCH   9  10
ATOM     10  CD  LYS A 135      30.294  34.247   8.676  1.00 32.00     0.041 C 
BRANCH  10  11
ATOM     11  CE  LYS A 135      28.833  34.080   9.048  1.00 34.25     0.338 C 
ATOM     12  NZ  LYS A 135      27.949  34.794   8.085  1.00 35.99     0.618 N 
ENDBRANCH  10  11
ENDBRANCH   9  10
ENDBRANCH   8   9
ENDBRANCH   7   8
END_RES LYS A 135
