REMARK VINA RESULT:    -4.432      3.363      6.535
REMARK INTER + INTRA:         -15.235
REMARK INTER:                  -9.770
REMARK INTRA:                  -5.465
REMARK UNBOUND:                -6.788
REMARK SMILES CC(=O)N[C@@H]1[C@@H](O)C[C@](O)(C(=O)O)O[C@H]1C(O)[C@H](O)CNC(=O)OCc1cn(CC(=O)NCc2cccs2)nn1
REMARK SMILES IDX 21 1 22 2 23 3 20 5 18 6 16 7 15 8 9 9 8 10 14 11 6 12 5 13
REMARK SMILES IDX 10 14 11 16 12 17 13 18 7 20 4 22 2 23 1 25 3 26 17 27 19 29
REMARK SMILES IDX 24 31 25 32 26 33 27 34 40 35 28 36 39 37 29 38 30 39 31 40
REMARK SMILES IDX 32 41 33 43 34 44 35 45 38 46 36 47 37 48
REMARK H PARENT 21 4 10 15 13 19 7 21 4 24 17 28 19 30 32 42
REMARK Flexibility Score: inf
ROOT
ATOM      1  N   UNL     1      25.134  35.904  13.136  1.00  0.00    -0.319 N 
ATOM      2  C   UNL     1      25.600  36.973  13.928  1.00  0.00     0.407 C 
ATOM      3  O   UNL     1      24.761  37.778  14.401  1.00  0.00    -0.225 OA
ATOM      4  H   UNL     1      25.849  35.247  12.753  1.00  0.00     0.167 HD
ENDROOT
BRANCH   1   5
ATOM      5  C   UNL     1      23.743  35.648  12.818  1.00  0.00     0.154 C 
BRANCH   5   6
ATOM      6  C   UNL     1      23.620  34.848  11.551  1.00  0.00     0.165 C 
BRANCH   6   7
ATOM      7  C   UNL     1      24.062  35.559  10.318  1.00  0.00     0.176 C 
BRANCH   7   8
ATOM      8  C   UNL     1      23.123  36.517   9.688  1.00  0.00     0.178 C 
ATOM      9  C   UNL     1      21.478  36.462   8.025  1.00  0.00     0.269 C 
ATOM     10  C   UNL     1      21.192  37.828   8.620  1.00  0.00     0.112 C 
ATOM     11  O   UNL     1      22.419  35.747   8.704  1.00  0.00    -0.332 OA
ATOM     12  C   UNL     1      22.467  38.599   8.635  1.00  0.00     0.145 C 
ATOM     13  C   UNL     1      23.660  37.673   8.948  1.00  0.00     0.142 C 
BRANCH   9  14
ATOM     14  O   UNL     1      21.850  36.710   6.690  1.00  0.00    -0.357 OA
ATOM     15  H   UNL     1      21.072  37.118   6.218  1.00  0.00     0.214 HD
ENDBRANCH   9  14
BRANCH   9  16
ATOM     16  C   UNL     1      20.238  35.644   7.990  1.00  0.00     0.364 C 
ATOM     17  O   UNL     1      19.176  36.136   8.423  1.00  0.00    -0.246 OA
BRANCH  16  18
ATOM     18  O   UNL     1      20.224  34.346   7.488  1.00  0.00    -0.477 OA
ATOM     19  H   UNL     1      21.131  33.883   7.416  1.00  0.00     0.296 HD
ENDBRANCH  16  18
ENDBRANCH   9  16
BRANCH  12  20
ATOM     20  O   UNL     1      22.697  39.325   7.487  1.00  0.00    -0.391 OA
ATOM     21  H   UNL     1      22.681  38.745   6.685  1.00  0.00     0.211 HD
ENDBRANCH  12  20
BRANCH  13  22
ATOM     22  N   UNL     1      24.627  38.500   9.567  1.00  0.00    -0.348 N 
ATOM     23  C   UNL     1      25.656  39.087   8.802  1.00  0.00     0.217 C 
ATOM     24  H   UNL     1      24.609  38.695  10.578  1.00  0.00     0.163 HD
ATOM     25  C   UNL     1      26.702  39.966   9.412  1.00  0.00     0.114 C 
ATOM     26  O   UNL     1      25.761  38.905   7.543  1.00  0.00    -0.275 OA
ENDBRANCH  13  22
ENDBRANCH   7   8
BRANCH   7  27
ATOM     27  O   UNL     1      25.406  35.904  10.282  1.00  0.00    -0.388 OA
ATOM     28  H   UNL     1      25.923  35.443   9.610  1.00  0.00     0.211 HD
ENDBRANCH   7  27
ENDBRANCH   6   7
BRANCH   6  29
ATOM     29  O   UNL     1      22.403  34.194  11.404  1.00  0.00    -0.388 OA
ATOM     30  H   UNL     1      21.681  34.593  11.942  1.00  0.00     0.211 HD
ENDBRANCH   6  29
ENDBRANCH   5   6
ENDBRANCH   1   5
BRANCH   2  31
ATOM     31  O   UNL     1      26.960  37.167  14.206  1.00  0.00    -0.443 OA
BRANCH  31  32
ATOM     32  C   UNL     1      27.890  36.114  14.027  1.00  0.00     0.294 C 
BRANCH  32  33
ATOM     33  C   UNL     1      28.162  35.983  12.568  1.00  0.00     0.120 A 
ATOM     34  C   UNL     1      28.489  34.844  11.861  1.00  0.00     0.138 A 
ATOM     35  N   UNL     1      28.143  36.960  11.647  1.00  0.00    -0.132 NA
ATOM     36  N   UNL     1      28.653  35.162  10.568  1.00  0.00    -0.243 N 
ATOM     37  N   UNL     1      28.437  36.455  10.465  1.00  0.00    -0.067 NA
BRANCH  36  38
ATOM     38  C   UNL     1      29.003  34.203   9.508  1.00  0.00     0.245 C 
BRANCH  38  39
ATOM     39  C   UNL     1      28.326  34.670   8.275  1.00  0.00     0.242 C 
ATOM     40  O   UNL     1      27.074  34.458   8.154  1.00  0.00    -0.273 OA
ATOM     41  N   UNL     1      28.958  35.341   7.202  1.00  0.00    -0.350 N 
ATOM     42  H   UNL     1      29.975  35.512   7.301  1.00  0.00     0.163 HD
BRANCH  41  43
ATOM     43  C   UNL     1      28.258  35.781   6.018  1.00  0.00     0.162 C 
BRANCH  43  44
ATOM     44  C   UNL     1      28.439  37.284   5.945  1.00  0.00     0.024 A 
ATOM     45  C   UNL     1      28.018  38.146   5.027  1.00  0.00     0.017 A 
ATOM     46  S   UNL     1      29.282  38.263   7.100  1.00  0.00    -0.147 S 
ATOM     47  C   UNL     1      28.288  39.464   5.144  1.00  0.00     0.012 A 
ATOM     48  C   UNL     1      29.026  39.834   6.278  1.00  0.00     0.065 A 
ENDBRANCH  43  44
ENDBRANCH  41  43
ENDBRANCH  38  39
ENDBRANCH  36  38
ENDBRANCH  32  33
ENDBRANCH  31  32
ENDBRANCH   2  31
TORSDOF 18
BEGIN_RES LYS A 131
REMARK  4 active torsions:
REMARK  status: ('A' for Active; 'I' for Inactive)
REMARK    1  A    between atoms: CA   and  CB  
REMARK    2  A    between atoms: CB   and  CG  
REMARK    3  A    between atoms: CG   and  CD  
REMARK    4  A    between atoms: CD   and  CE  
ROOT
ATOM      1  CA  LYS A 131      29.867  25.555  16.977  1.00 20.52     0.186 C 
ENDROOT
BRANCH   1   2
ATOM      2  CB  LYS A 131      28.345  25.722  17.026  1.00 20.94     0.034 C 
BRANCH   2   3
ATOM      3  CG  LYS A 131      27.603  24.396  16.964  1.00 22.96     0.005 C 
BRANCH   3   4
ATOM      4  CD  LYS A 131      26.476  24.330  17.956  1.00 24.33     0.041 C 
BRANCH   4   5
ATOM      5  CE  LYS A 131      25.369  23.433  17.412  1.00 26.91     0.338 C 
ATOM      6  NZ  LYS A 131      24.197  24.244  17.004  1.00 27.40     0.618 N 
ENDBRANCH   4   5
ENDBRANCH   3   4
ENDBRANCH   2   3
ENDBRANCH   1   2
END_RES LYS A 131
BEGIN_RES LYS A 135
REMARK  4 active torsions:
REMARK  status: ('A' for Active; 'I' for Inactive)
REMARK    5  A    between atoms: CA   and  CB  
REMARK    6  A    between atoms: CB   and  CG  
REMARK    7  A    between atoms: CG   and  CD  
REMARK    8  A    between atoms: CD   and  CE  
ROOT
ATOM      7  CA  LYS A 135      33.193  34.663   9.290  1.00 25.02     0.186 C 
ENDROOT
BRANCH   7   8
ATOM      8  CB  LYS A 135      32.060  35.360  10.034  1.00 26.63     0.034 C 
BRANCH   8   9
ATOM      9  CG  LYS A 135      32.382  35.664  11.474  1.00 29.45     0.005 C 
BRANCH   9  10
ATOM     10  CD  LYS A 135      31.944  37.074  11.836  1.00 32.00     0.041 C 
BRANCH  10  11
ATOM     11  CE  LYS A 135      31.846  37.937  10.593  1.00 34.25     0.338 C 
ATOM     12  NZ  LYS A 135      30.888  39.059  10.793  1.00 35.99     0.618 N 
ENDBRANCH  10  11
ENDBRANCH   9  10
ENDBRANCH   8   9
ENDBRANCH   7   8
END_RES LYS A 135
