REMARK VINA RESULT:    -4.473      2.409      4.487
REMARK INTER + INTRA:         -14.531
REMARK INTER:                  -7.118
REMARK INTRA:                  -7.413
REMARK UNBOUND:                -5.744
REMARK SMILES CC(=O)N[C@@H]1[C@@H](O)C[C@](O)(C(=O)O)O[C@H]1C(O)[C@H](O)CNC(=O)OCc1cn([C@@H](CC(=O)O)C(=O)O)nn1
REMARK SMILES IDX 21 1 22 2 23 3 20 5 18 6 16 7 15 8 9 9 8 10 14 11 6 12 5 13
REMARK SMILES IDX 10 14 11 16 12 17 13 18 7 20 4 22 2 23 1 25 3 26 17 27 19 29
REMARK SMILES IDX 24 31 25 32 26 33 27 34 38 35 28 36 37 37 29 38 30 39 31 40
REMARK SMILES IDX 32 41 33 42 34 44 35 45 36 46
REMARK H PARENT 21 4 10 15 13 19 7 21 4 24 17 28 19 30 33 43 36 47
REMARK Flexibility Score: inf
ROOT
ATOM      1  N   UNL     1      30.276  32.215  17.638  1.00  0.00    -0.319 N 
ATOM      2  C   UNL     1      29.423  32.594  18.717  1.00  0.00     0.407 C 
ATOM      3  O   UNL     1      29.532  33.731  19.188  1.00  0.00    -0.225 OA
ATOM      4  H   UNL     1      30.127  31.232  17.288  1.00  0.00     0.167 HD
ENDROOT
BRANCH   1   5
ATOM      5  C   UNL     1      31.265  33.062  17.047  1.00  0.00     0.154 C 
BRANCH   5   6
ATOM      6  C   UNL     1      31.458  32.729  15.582  1.00  0.00     0.165 C 
BRANCH   6   7
ATOM      7  C   UNL     1      30.769  33.748  14.693  1.00  0.00     0.176 C 
BRANCH   7   8
ATOM      8  C   UNL     1      31.057  35.162  15.047  1.00  0.00     0.178 C 
ATOM      9  C   UNL     1      30.628  35.942  12.901  1.00  0.00     0.269 C 
ATOM     10  C   UNL     1      32.009  35.633  12.501  1.00  0.00     0.112 C 
ATOM     11  O   UNL     1      30.353  36.060  14.238  1.00  0.00    -0.332 OA
ATOM     12  C   UNL     1      33.035  35.469  13.551  1.00  0.00     0.145 C 
ATOM     13  C   UNL     1      32.520  35.496  14.962  1.00  0.00     0.142 C 
BRANCH   9  14
ATOM     14  O   UNL     1      29.725  34.962  12.414  1.00  0.00    -0.357 OA
ATOM     15  H   UNL     1      28.824  35.308  12.653  1.00  0.00     0.214 HD
ENDBRANCH   9  14
BRANCH   9  16
ATOM     16  C   UNL     1      30.161  37.206  12.267  1.00  0.00     0.364 C 
ATOM     17  O   UNL     1      30.844  38.253  12.193  1.00  0.00    -0.246 OA
BRANCH  16  18
ATOM     18  O   UNL     1      28.885  37.218  11.725  1.00  0.00    -0.477 OA
ATOM     19  H   UNL     1      28.713  37.436  10.735  1.00  0.00     0.296 HD
ENDBRANCH  16  18
ENDBRANCH   9  16
BRANCH  12  20
ATOM     20  O   UNL     1      33.765  34.302  13.345  1.00  0.00    -0.391 OA
ATOM     21  H   UNL     1      34.647  34.297  13.753  1.00  0.00     0.211 HD
ENDBRANCH  12  20
BRANCH  13  22
ATOM     22  N   UNL     1      32.731  36.840  15.555  1.00  0.00    -0.348 N 
ATOM     23  C   UNL     1      33.702  37.045  16.561  1.00  0.00     0.217 C 
ATOM     24  H   UNL     1      32.171  37.663  15.248  1.00  0.00     0.163 HD
ATOM     25  C   UNL     1      33.947  38.378  17.186  1.00  0.00     0.114 C 
ATOM     26  O   UNL     1      34.380  36.067  16.940  1.00  0.00    -0.275 OA
ENDBRANCH  13  22
ENDBRANCH   7   8
BRANCH   7  27
ATOM     27  O   UNL     1      29.388  33.475  14.913  1.00  0.00    -0.388 OA
ATOM     28  H   UNL     1      28.972  34.205  15.429  1.00  0.00     0.211 HD
ENDBRANCH   7  27
ENDBRANCH   6   7
BRANCH   6  29
ATOM     29  O   UNL     1      31.026  31.425  15.373  1.00  0.00    -0.388 OA
ATOM     30  H   UNL     1      30.059  31.359  15.176  1.00  0.00     0.211 HD
ENDBRANCH   6  29
ENDBRANCH   5   6
ENDBRANCH   1   5
BRANCH   2  31
ATOM     31  O   UNL     1      28.479  31.734  19.253  1.00  0.00    -0.443 OA
BRANCH  31  32
ATOM     32  C   UNL     1      27.113  31.931  18.988  1.00  0.00     0.294 C 
BRANCH  32  33
ATOM     33  C   UNL     1      26.840  32.194  17.554  1.00  0.00     0.120 A 
ATOM     34  C   UNL     1      26.048  33.233  17.127  1.00  0.00     0.139 A 
ATOM     35  N   UNL     1      27.256  31.555  16.464  1.00  0.00    -0.132 NA
ATOM     36  N   UNL     1      26.007  33.191  15.770  1.00  0.00    -0.237 N 
ATOM     37  N   UNL     1      26.740  32.175  15.416  1.00  0.00    -0.066 NA
BRANCH  36  38
ATOM     38  C   UNL     1      25.251  34.155  14.976  1.00  0.00     0.229 C 
BRANCH  38  39
ATOM     39  C   UNL     1      25.583  33.976  13.520  1.00  0.00     0.161 C 
BRANCH  39  40
ATOM     40  C   UNL     1      26.618  34.914  13.059  1.00  0.00     0.306 C 
ATOM     41  O   UNL     1      26.807  35.050  11.824  1.00  0.00    -0.252 OA
BRANCH  40  42
ATOM     42  O   UNL     1      27.358  35.622  13.993  1.00  0.00    -0.481 OA
ATOM     43  H   UNL     1      28.369  35.752  13.834  1.00  0.00     0.296 HD
ENDBRANCH  40  42
ENDBRANCH  39  40
ENDBRANCH  38  39
BRANCH  38  44
ATOM     44  C   UNL     1      23.802  33.856  15.135  1.00  0.00     0.329 C 
ATOM     45  O   UNL     1      23.272  32.763  14.812  1.00  0.00    -0.250 OA
BRANCH  44  46
ATOM     46  O   UNL     1      22.987  34.840  15.668  1.00  0.00    -0.480 OA
ATOM     47  H   UNL     1      21.986  34.864  15.515  1.00  0.00     0.296 HD
ENDBRANCH  44  46
ENDBRANCH  38  44
ENDBRANCH  36  38
ENDBRANCH  32  33
ENDBRANCH  31  32
ENDBRANCH   2  31
TORSDOF 20
BEGIN_RES LYS A 131
REMARK  4 active torsions:
REMARK  status: ('A' for Active; 'I' for Inactive)
REMARK    1  A    between atoms: CA   and  CB  
REMARK    2  A    between atoms: CB   and  CG  
REMARK    3  A    between atoms: CG   and  CD  
REMARK    4  A    between atoms: CD   and  CE  
ROOT
ATOM      1  CA  LYS A 131      29.867  25.555  16.977  1.00 20.52     0.186 C 
ENDROOT
BRANCH   1   2
ATOM      2  CB  LYS A 131      28.345  25.722  17.026  1.00 20.94     0.034 C 
BRANCH   2   3
ATOM      3  CG  LYS A 131      27.599  24.441  16.687  1.00 22.96     0.005 C 
BRANCH   3   4
ATOM      4  CD  LYS A 131      27.018  23.784  17.909  1.00 24.33     0.041 C 
BRANCH   4   5
ATOM      5  CE  LYS A 131      25.603  23.304  17.605  1.00 26.91     0.338 C 
ATOM      6  NZ  LYS A 131      24.825  24.373  16.935  1.00 27.40     0.618 N 
ENDBRANCH   4   5
ENDBRANCH   3   4
ENDBRANCH   2   3
ENDBRANCH   1   2
END_RES LYS A 131
BEGIN_RES LYS A 135
REMARK  4 active torsions:
REMARK  status: ('A' for Active; 'I' for Inactive)
REMARK    5  A    between atoms: CA   and  CB  
REMARK    6  A    between atoms: CB   and  CG  
REMARK    7  A    between atoms: CG   and  CD  
REMARK    8  A    between atoms: CD   and  CE  
ROOT
ATOM      7  CA  LYS A 135      33.193  34.663   9.290  1.00 25.02     0.186 C 
ENDROOT
BRANCH   7   8
ATOM      8  CB  LYS A 135      32.060  35.360  10.034  1.00 26.63     0.034 C 
BRANCH   8   9
ATOM      9  CG  LYS A 135      30.873  35.680   9.162  1.00 29.45     0.005 C 
BRANCH   9  10
ATOM     10  CD  LYS A 135      30.253  34.405   8.612  1.00 32.00     0.041 C 
BRANCH  10  11
ATOM     11  CE  LYS A 135      28.919  34.703   7.953  1.00 34.25     0.338 C 
ATOM     12  NZ  LYS A 135      28.717  36.169   7.791  1.00 35.99     0.618 N 
ENDBRANCH  10  11
ENDBRANCH   9  10
ENDBRANCH   8   9
ENDBRANCH   7   8
END_RES LYS A 135
