REMARK VINA RESULT:    -4.863      7.192     12.887
REMARK INTER + INTRA:         -15.675
REMARK INTER:                  -9.555
REMARK INTRA:                  -6.121
REMARK UNBOUND:                -6.121
REMARK SMILES CC(=O)N[C@@H]1[C@@H](O)C[C@](O)(C(=O)O)O[C@H]1C(O)[C@H](O)CNC(=O)OCc1cn(C[C@@H](C)CN2CCN(c3ccc(Cl)cc3)CC2)nn1
REMARK SMILES IDX 24 1 22 2 21 3 23 5 20 6 18 7 16 8 15 9 9 10 8 11 14 12 6 13
REMARK SMILES IDX 5 14 10 15 11 17 12 18 13 19 7 21 4 23 2 24 1 26 3 27 17 28
REMARK SMILES IDX 19 30 25 32 26 33 27 34 47 35 28 36 46 37 29 38 30 39 31 40
REMARK SMILES IDX 32 41 33 42 34 43 45 44 35 45 44 46 36 47 37 48 38 49 43 50
REMARK SMILES IDX 39 51 42 52 40 53 41 54
REMARK H PARENT 21 4 10 16 13 20 7 22 4 25 17 29 19 31
REMARK Flexibility Score: inf
ROOT
ATOM      1  O   UNL     1      27.193  28.138  16.938  1.00  0.00    -0.443 OA
ENDROOT
BRANCH   1   2
ATOM      2  C   UNL     1      27.067  27.745  18.262  1.00  0.00     0.407 C 
ATOM      3  N   UNL     1      28.165  27.535  19.141  1.00  0.00    -0.319 N 
ATOM      4  H   UNL     1      29.112  27.683  18.742  1.00  0.00     0.167 HD
ATOM      5  O   UNL     1      25.888  27.576  18.676  1.00  0.00    -0.225 OA
BRANCH   3   6
ATOM      6  C   UNL     1      27.861  27.145  20.478  1.00  0.00     0.154 C 
BRANCH   6   7
ATOM      7  C   UNL     1      27.661  28.231  21.458  1.00  0.00     0.165 C 
BRANCH   7   8
ATOM      8  C   UNL     1      28.380  28.060  22.784  1.00  0.00     0.176 C 
BRANCH   8   9
ATOM      9  C   UNL     1      29.562  29.027  22.695  1.00  0.00     0.178 C 
ATOM     10  C   UNL     1      30.834  30.069  21.040  1.00  0.00     0.269 C 
ATOM     11  C   UNL     1      32.075  29.849  21.858  1.00  0.00     0.112 C 
ATOM     12  O   UNL     1      29.794  29.240  21.365  1.00  0.00    -0.332 OA
ATOM     13  C   UNL     1      31.833  29.546  23.292  1.00  0.00     0.145 C 
ATOM     14  C   UNL     1      30.764  28.433  23.350  1.00  0.00     0.142 C 
BRANCH  10  15
ATOM     15  O   UNL     1      31.212  29.733  19.714  1.00  0.00    -0.357 OA
ATOM     16  H   UNL     1      32.137  29.426  19.677  1.00  0.00     0.214 HD
ENDBRANCH  10  15
BRANCH  10  17
ATOM     17  C   UNL     1      30.416  31.501  20.992  1.00  0.00     0.364 C 
ATOM     18  O   UNL     1      29.693  31.980  21.902  1.00  0.00    -0.246 OA
BRANCH  17  19
ATOM     19  O   UNL     1      30.792  32.362  19.972  1.00  0.00    -0.477 OA
ATOM     20  H   UNL     1      30.278  32.485  19.107  1.00  0.00     0.296 HD
ENDBRANCH  17  19
ENDBRANCH  10  17
BRANCH  13  21
ATOM     21  O   UNL     1      33.010  29.045  23.850  1.00  0.00    -0.391 OA
ATOM     22  H   UNL     1      32.927  28.071  24.028  1.00  0.00     0.211 HD
ENDBRANCH  13  21
BRANCH  14  23
ATOM     23  N   UNL     1      30.534  28.043  24.716  1.00  0.00    -0.348 N 
ATOM     24  C   UNL     1      31.210  26.944  25.290  1.00  0.00     0.217 C 
ATOM     25  H   UNL     1      29.860  28.581  25.286  1.00  0.00     0.163 HD
ATOM     26  C   UNL     1      30.895  26.626  26.715  1.00  0.00     0.114 C 
ATOM     27  O   UNL     1      32.040  26.248  24.669  1.00  0.00    -0.275 OA
ENDBRANCH  14  23
ENDBRANCH   8   9
BRANCH   8  28
ATOM     28  O   UNL     1      27.507  28.434  23.818  1.00  0.00    -0.388 OA
ATOM     29  H   UNL     1      27.202  27.589  24.237  1.00  0.00     0.211 HD
ENDBRANCH   8  28
ENDBRANCH   7   8
BRANCH   7  30
ATOM     30  O   UNL     1      26.285  28.202  21.819  1.00  0.00    -0.388 OA
ATOM     31  H   UNL     1      25.876  27.578  21.155  1.00  0.00     0.211 HD
ENDBRANCH   7  30
ENDBRANCH   6   7
ENDBRANCH   3   6
ENDBRANCH   1   2
BRANCH   1  32
ATOM     32  C   UNL     1      27.019  29.495  16.564  1.00  0.00     0.294 C 
BRANCH  32  33
ATOM     33  C   UNL     1      28.282  30.246  16.740  1.00  0.00     0.120 A 
ATOM     34  C   UNL     1      29.017  30.793  15.685  1.00  0.00     0.138 A 
ATOM     35  N   UNL     1      28.980  30.582  17.833  1.00  0.00    -0.132 NA
ATOM     36  N   UNL     1      30.103  31.425  16.151  1.00  0.00    -0.252 N 
ATOM     37  N   UNL     1      30.053  31.274  17.494  1.00  0.00    -0.067 NA
BRANCH  36  38
ATOM     38  C   UNL     1      31.133  32.152  15.432  1.00  0.00     0.150 C 
BRANCH  38  39
ATOM     39  C   UNL     1      30.807  33.650  15.460  1.00  0.00     0.022 C 
ATOM     40  C   UNL     1      31.441  34.335  16.612  1.00  0.00     0.011 C 
BRANCH  39  41
ATOM     41  C   UNL     1      30.892  34.255  14.122  1.00  0.00     0.089 C 
BRANCH  41  42
ATOM     42  N   UNL     1      29.621  34.494  13.514  1.00  0.00    -0.299 NA
ATOM     43  C   UNL     1      28.535  34.184  14.483  1.00  0.00     0.106 C 
ATOM     44  C   UNL     1      29.452  35.923  13.268  1.00  0.00     0.106 C 
ATOM     45  C   UNL     1      27.201  34.572  13.950  1.00  0.00     0.132 C 
ATOM     46  C   UNL     1      28.343  35.995  12.207  1.00  0.00     0.132 C 
ATOM     47  N   UNL     1      27.195  35.305  12.722  1.00  0.00    -0.369 N 
BRANCH  47  48
ATOM     48  C   UNL     1      25.994  35.369  11.963  1.00  0.00     0.037 A 
ATOM     49  C   UNL     1      24.870  34.717  12.418  1.00  0.00     0.027 A 
ATOM     50  C   UNL     1      25.943  36.072  10.766  1.00  0.00     0.027 A 
ATOM     51  C   UNL     1      23.714  34.776  11.674  1.00  0.00     0.022 A 
ATOM     52  C   UNL     1      24.786  36.122  10.034  1.00  0.00     0.022 A 
ATOM     53  C   UNL     1      23.659  35.464  10.500  1.00  0.00     0.041 A 
ATOM     54  Cl  UNL     1      22.197  35.532   9.552  1.00  0.00    -0.084 Cl
ENDBRANCH  47  48
ENDBRANCH  41  42
ENDBRANCH  39  41
ENDBRANCH  38  39
ENDBRANCH  36  38
ENDBRANCH  32  33
ENDBRANCH   1  32
TORSDOF 19
BEGIN_RES LYS A 131
REMARK  4 active torsions:
REMARK  status: ('A' for Active; 'I' for Inactive)
REMARK    1  A    between atoms: CA   and  CB  
REMARK    2  A    between atoms: CB   and  CG  
REMARK    3  A    between atoms: CG   and  CD  
REMARK    4  A    between atoms: CD   and  CE  
ROOT
ATOM      1  CA  LYS A 131      29.867  25.555  16.977  1.00 20.52     0.186 C 
ENDROOT
BRANCH   1   2
ATOM      2  CB  LYS A 131      28.345  25.722  17.026  1.00 20.94     0.034 C 
BRANCH   2   3
ATOM      3  CG  LYS A 131      27.600  24.411  16.830  1.00 22.96     0.005 C 
BRANCH   3   4
ATOM      4  CD  LYS A 131      26.757  24.054  18.023  1.00 24.33     0.041 C 
BRANCH   4   5
ATOM      5  CE  LYS A 131      25.396  23.551  17.552  1.00 26.91     0.338 C 
ATOM      6  NZ  LYS A 131      24.612  24.658  16.955  1.00 27.40     0.618 N 
ENDBRANCH   4   5
ENDBRANCH   3   4
ENDBRANCH   2   3
ENDBRANCH   1   2
END_RES LYS A 131
BEGIN_RES LYS A 135
REMARK  4 active torsions:
REMARK  status: ('A' for Active; 'I' for Inactive)
REMARK    5  A    between atoms: CA   and  CB  
REMARK    6  A    between atoms: CB   and  CG  
REMARK    7  A    between atoms: CG   and  CD  
REMARK    8  A    between atoms: CD   and  CE  
ROOT
ATOM      7  CA  LYS A 135      33.193  34.663   9.290  1.00 25.02     0.186 C 
ENDROOT
BRANCH   7   8
ATOM      8  CB  LYS A 135      32.060  35.360  10.034  1.00 26.63     0.034 C 
BRANCH   8   9
ATOM      9  CG  LYS A 135      30.740  34.640   9.932  1.00 29.45     0.005 C 
BRANCH   9  10
ATOM     10  CD  LYS A 135      30.317  34.499   8.479  1.00 32.00     0.041 C 
BRANCH  10  11
ATOM     11  CE  LYS A 135      28.804  34.502   8.361  1.00 34.25     0.338 C 
ATOM     12  NZ  LYS A 135      28.181  33.673   9.430  1.00 35.99     0.618 N 
ENDBRANCH  10  11
ENDBRANCH   9  10
ENDBRANCH   8   9
ENDBRANCH   7   8
END_RES LYS A 135
