REMARK VINA RESULT:    -4.140      8.998     14.319
REMARK INTER + INTRA:         -14.414
REMARK INTER:                  -7.897
REMARK INTRA:                  -6.517
REMARK UNBOUND:                -5.918
REMARK SMILES CC(=O)N[C@@H]1[C@@H](O)C[C@](O)(C(=O)O)O[C@H]1C(O)[C@H](O)CNC(=O)OCc1cn(CCCCCC(=O)O)nn1
REMARK SMILES IDX 25 1 24 2 22 3 21 4 23 6 20 7 18 8 16 9 15 10 9 11 8 12
REMARK SMILES IDX 14 13 6 14 5 15 10 16 11 18 12 19 13 20 7 22 4 24 2 25 1 27
REMARK SMILES IDX 3 28 17 29 19 31 26 33 27 34 38 35 28 36 37 37 29 38 30 39
REMARK SMILES IDX 31 40 32 41 33 42 34 43 35 44 36 45
REMARK H PARENT 21 5 10 17 13 21 7 23 4 26 17 30 19 32 36 46
REMARK Flexibility Score: inf
ROOT
ATOM      1  C   UNL     1      33.205  33.607  21.495  1.00  0.00     0.294 C 
ENDROOT
BRANCH   1   2
ATOM      2  O   UNL     1      32.674  33.120  22.722  1.00  0.00    -0.443 OA
BRANCH   2   3
ATOM      3  C   UNL     1      33.085  31.851  23.148  1.00  0.00     0.407 C 
ATOM      4  N   UNL     1      32.313  30.725  22.745  1.00  0.00    -0.319 N 
ATOM      5  H   UNL     1      31.469  30.903  22.139  1.00  0.00     0.167 HD
ATOM      6  O   UNL     1      34.112  31.771  23.866  1.00  0.00    -0.225 OA
BRANCH   4   7
ATOM      7  C   UNL     1      32.709  29.421  23.172  1.00  0.00     0.154 C 
BRANCH   7   8
ATOM      8  C   UNL     1      32.903  28.423  22.056  1.00  0.00     0.165 C 
BRANCH   8   9
ATOM      9  C   UNL     1      31.725  28.538  21.108  1.00  0.00     0.176 C 
BRANCH   9  10
ATOM     10  C   UNL     1      30.608  27.588  21.386  1.00  0.00     0.178 C 
ATOM     11  C   UNL     1      29.046  28.851  20.180  1.00  0.00     0.269 C 
ATOM     12  C   UNL     1      28.568  29.395  21.536  1.00  0.00     0.112 C 
ATOM     13  O   UNL     1      29.699  27.664  20.351  1.00  0.00    -0.332 OA
ATOM     14  C   UNL     1      28.474  28.186  22.434  1.00  0.00     0.145 C 
ATOM     15  C   UNL     1      29.919  27.720  22.696  1.00  0.00     0.142 C 
BRANCH  11  16
ATOM     16  O   UNL     1      29.763  29.832  19.501  1.00  0.00    -0.357 OA
ATOM     17  H   UNL     1      29.147  30.463  19.008  1.00  0.00     0.214 HD
ENDBRANCH  11  16
BRANCH  11  18
ATOM     18  C   UNL     1      27.814  28.574  19.398  1.00  0.00     0.364 C 
ATOM     19  O   UNL     1      27.595  27.406  18.957  1.00  0.00    -0.246 OA
BRANCH  18  20
ATOM     20  O   UNL     1      26.923  29.607  19.167  1.00  0.00    -0.477 OA
ATOM     21  H   UNL     1      26.107  29.374  18.584  1.00  0.00     0.296 HD
ENDBRANCH  18  20
ENDBRANCH  11  18
BRANCH  14  22
ATOM     22  O   UNL     1      27.834  28.476  23.639  1.00  0.00    -0.391 OA
ATOM     23  H   UNL     1      28.441  28.170  24.363  1.00  0.00     0.211 HD
ENDBRANCH  14  22
BRANCH  15  24
ATOM     24  N   UNL     1      29.886  26.463  23.431  1.00  0.00    -0.348 N 
ATOM     25  C   UNL     1      30.096  26.382  24.822  1.00  0.00     0.217 C 
ATOM     26  H   UNL     1      29.690  25.573  22.890  1.00  0.00     0.163 HD
ATOM     27  C   UNL     1      30.058  25.064  25.554  1.00  0.00     0.114 C 
ATOM     28  O   UNL     1      30.324  27.453  25.462  1.00  0.00    -0.275 OA
ENDBRANCH  15  24
ENDBRANCH   9  10
BRANCH   9  29
ATOM     29  O   UNL     1      32.261  28.126  19.854  1.00  0.00    -0.388 OA
ATOM     30  H   UNL     1      31.616  27.473  19.495  1.00  0.00     0.211 HD
ENDBRANCH   9  29
ENDBRANCH   8   9
BRANCH   8  31
ATOM     31  O   UNL     1      33.037  27.172  22.616  1.00  0.00    -0.388 OA
ATOM     32  H   UNL     1      32.166  26.709  22.680  1.00  0.00     0.211 HD
ENDBRANCH   8  31
ENDBRANCH   7   8
ENDBRANCH   4   7
ENDBRANCH   2   3
ENDBRANCH   1   2
BRANCH   1  33
ATOM     33  C   UNL     1      32.129  33.448  20.489  1.00  0.00     0.120 A 
ATOM     34  C   UNL     1      31.986  34.264  19.385  1.00  0.00     0.138 A 
ATOM     35  N   UNL     1      31.152  32.543  20.450  1.00  0.00    -0.132 NA
ATOM     36  N   UNL     1      30.903  33.795  18.728  1.00  0.00    -0.252 N 
ATOM     37  N   UNL     1      30.409  32.762  19.374  1.00  0.00    -0.067 NA
BRANCH  36  38
ATOM     38  C   UNL     1      30.427  34.415  17.490  1.00  0.00     0.146 C 
BRANCH  38  39
ATOM     39  C   UNL     1      31.583  34.461  16.525  1.00  0.00     0.024 C 
BRANCH  39  40
ATOM     40  C   UNL     1      31.796  33.150  15.799  1.00  0.00     0.002 C 
BRANCH  40  41
ATOM     41  C   UNL     1      30.520  32.443  15.499  1.00  0.00     0.012 C 
BRANCH  41  42
ATOM     42  C   UNL     1      30.387  31.107  16.177  1.00  0.00     0.122 C 
BRANCH  42  43
ATOM     43  C   UNL     1      28.998  30.715  16.456  1.00  0.00     0.303 C 
ATOM     44  O   UNL     1      28.269  31.404  17.188  1.00  0.00    -0.252 OA
BRANCH  43  45
ATOM     45  O   UNL     1      28.457  29.544  15.898  1.00  0.00    -0.481 OA
ATOM     46  H   UNL     1      28.930  29.083  15.113  1.00  0.00     0.296 HD
ENDBRANCH  43  45
ENDBRANCH  42  43
ENDBRANCH  41  42
ENDBRANCH  40  41
ENDBRANCH  39  40
ENDBRANCH  38  39
ENDBRANCH  36  38
ENDBRANCH   1  33
TORSDOF 21
BEGIN_RES LYS A 131
REMARK  4 active torsions:
REMARK  status: ('A' for Active; 'I' for Inactive)
REMARK    1  A    between atoms: CA   and  CB  
REMARK    2  A    between atoms: CB   and  CG  
REMARK    3  A    between atoms: CG   and  CD  
REMARK    4  A    between atoms: CD   and  CE  
ROOT
ATOM      1  CA  LYS A 131      29.867  25.555  16.977  1.00 20.52     0.186 C 
ENDROOT
BRANCH   1   2
ATOM      2  CB  LYS A 131      28.345  25.722  17.026  1.00 20.94     0.034 C 
BRANCH   2   3
ATOM      3  CG  LYS A 131      27.601  24.401  16.904  1.00 22.96     0.005 C 
BRANCH   3   4
ATOM      4  CD  LYS A 131      26.170  24.513  17.349  1.00 24.33     0.041 C 
BRANCH   4   5
ATOM      5  CE  LYS A 131      25.646  23.134  17.733  1.00 26.91     0.338 C 
ATOM      6  NZ  LYS A 131      25.351  23.077  19.185  1.00 27.40     0.618 N 
ENDBRANCH   4   5
ENDBRANCH   3   4
ENDBRANCH   2   3
ENDBRANCH   1   2
END_RES LYS A 131
BEGIN_RES LYS A 135
REMARK  4 active torsions:
REMARK  status: ('A' for Active; 'I' for Inactive)
REMARK    5  A    between atoms: CA   and  CB  
REMARK    6  A    between atoms: CB   and  CG  
REMARK    7  A    between atoms: CG   and  CD  
REMARK    8  A    between atoms: CD   and  CE  
ROOT
ATOM      7  CA  LYS A 135      33.193  34.663   9.290  1.00 25.02     0.186 C 
ENDROOT
BRANCH   7   8
ATOM      8  CB  LYS A 135      32.060  35.360  10.034  1.00 26.63     0.034 C 
BRANCH   8   9
ATOM      9  CG  LYS A 135      30.708  34.739   9.791  1.00 29.45     0.005 C 
BRANCH   9  10
ATOM     10  CD  LYS A 135      30.408  34.672   8.302  1.00 32.00     0.041 C 
BRANCH  10  11
ATOM     11  CE  LYS A 135      29.255  35.592   7.949  1.00 34.25     0.338 C 
ATOM     12  NZ  LYS A 135      27.969  34.843   7.893  1.00 35.99     0.618 N 
ENDBRANCH  10  11
ENDBRANCH   9  10
ENDBRANCH   8   9
ENDBRANCH   7   8
END_RES LYS A 135
