REMARK VINA RESULT:    -5.586      1.568      3.322
REMARK INTER + INTRA:         -14.743
REMARK INTER:                  -9.000
REMARK INTRA:                  -5.743
REMARK UNBOUND:                -4.749
REMARK SMILES CC(=O)N[C@@H]1[C@@H](O)C[C@](O)(C(=O)O)O[C@H]1C(O)[C@H](O)CNC(=O)OCc1cn(-c2ccc([N+](=O)[O-])cc2)nn1
REMARK SMILES IDX 21 1 22 2 23 3 20 5 18 6 16 7 15 8 9 9 8 10 14 11 6 12 5 13
REMARK SMILES IDX 10 14 11 16 12 17 13 18 7 20 4 22 2 23 1 25 3 26 17 27 19 29
REMARK SMILES IDX 24 31 25 32 26 33 27 34 39 35 28 36 38 37 29 38 30 39 37 40
REMARK SMILES IDX 31 41 36 42 32 43 33 44 34 45 35 46
REMARK H PARENT 21 4 10 15 13 19 7 21 4 24 17 28 19 30
REMARK Flexibility Score: inf
ROOT
ATOM      1  N   UNL     1      29.565  27.231  20.267  1.00  0.00    -0.319 N 
ATOM      2  C   UNL     1      28.172  27.382  20.140  1.00  0.00     0.407 C 
ATOM      3  O   UNL     1      27.377  27.198  21.080  1.00  0.00    -0.225 OA
ATOM      4  H   UNL     1      30.147  27.446  19.385  1.00  0.00     0.167 HD
ENDROOT
BRANCH   1   5
ATOM      5  C   UNL     1      30.232  26.823  21.441  1.00  0.00     0.154 C 
BRANCH   5   6
ATOM      6  C   UNL     1      31.104  27.763  22.172  1.00  0.00     0.165 C 
BRANCH   6   7
ATOM      7  C   UNL     1      32.189  28.500  21.533  1.00  0.00     0.176 C 
BRANCH   7   8
ATOM      8  C   UNL     1      32.620  29.728  22.341  1.00  0.00     0.178 C 
ATOM      9  C   UNL     1      33.381  31.891  21.945  1.00  0.00     0.269 C 
ATOM     10  C   UNL     1      33.440  31.929  23.455  1.00  0.00     0.112 C 
ATOM     11  O   UNL     1      32.683  30.816  21.444  1.00  0.00    -0.332 OA
ATOM     12  C   UNL     1      34.046  30.693  24.044  1.00  0.00     0.145 C 
ATOM     13  C   UNL     1      33.963  29.600  22.962  1.00  0.00     0.142 C 
BRANCH   9  14
ATOM     14  O   UNL     1      34.682  31.962  21.478  1.00  0.00    -0.357 OA
ATOM     15  H   UNL     1      34.934  32.901  21.372  1.00  0.00     0.214 HD
ENDBRANCH   9  14
BRANCH   9  16
ATOM     16  C   UNL     1      32.663  33.120  21.518  1.00  0.00     0.364 C 
ATOM     17  O   UNL     1      31.437  33.265  21.756  1.00  0.00    -0.246 OA
BRANCH  16  18
ATOM     18  O   UNL     1      33.324  34.138  20.850  1.00  0.00    -0.477 OA
ATOM     19  H   UNL     1      33.831  33.976  19.977  1.00  0.00     0.296 HD
ENDBRANCH  16  18
ENDBRANCH   9  16
BRANCH  12  20
ATOM     20  O   UNL     1      35.335  30.849  24.498  1.00  0.00    -0.391 OA
ATOM     21  H   UNL     1      35.698  31.687  24.118  1.00  0.00     0.211 HD
ENDBRANCH  12  20
BRANCH  13  22
ATOM     22  N   UNL     1      34.201  28.356  23.663  1.00  0.00    -0.348 N 
ATOM     23  C   UNL     1      35.497  27.741  23.636  1.00  0.00     0.217 C 
ATOM     24  H   UNL     1      33.467  27.863  24.206  1.00  0.00     0.163 HD
ATOM     25  C   UNL     1      35.812  26.472  24.328  1.00  0.00     0.114 C 
ATOM     26  O   UNL     1      36.394  28.320  22.988  1.00  0.00    -0.275 OA
ENDBRANCH  13  22
ENDBRANCH   7   8
BRANCH   7  27
ATOM     27  O   UNL     1      31.889  28.836  20.238  1.00  0.00    -0.388 OA
ATOM     28  H   UNL     1      31.099  28.404  19.845  1.00  0.00     0.211 HD
ENDBRANCH   7  27
ENDBRANCH   6   7
BRANCH   6  29
ATOM     29  O   UNL     1      31.526  27.053  23.333  1.00  0.00    -0.388 OA
ATOM     30  H   UNL     1      32.517  27.058  23.386  1.00  0.00     0.211 HD
ENDBRANCH   6  29
ENDBRANCH   5   6
ENDBRANCH   1   5
BRANCH   2  31
ATOM     31  O   UNL     1      27.675  27.761  18.873  1.00  0.00    -0.443 OA
BRANCH  31  32
ATOM     32  C   UNL     1      27.235  29.099  18.752  1.00  0.00     0.294 C 
BRANCH  32  33
ATOM     33  C   UNL     1      28.416  30.028  18.723  1.00  0.00     0.121 A 
ATOM     34  C   UNL     1      28.868  30.776  17.658  1.00  0.00     0.144 A 
ATOM     35  N   UNL     1      29.274  30.315  19.732  1.00  0.00    -0.131 NA
ATOM     36  N   UNL     1      29.962  31.487  18.025  1.00  0.00    -0.220 N 
ATOM     37  N   UNL     1      30.163  31.170  19.287  1.00  0.00    -0.062 NA
BRANCH  36  38
ATOM     38  C   UNL     1      30.719  32.377  17.208  1.00  0.00     0.067 A 
ATOM     39  C   UNL     1      31.246  33.553  17.698  1.00  0.00     0.035 A 
ATOM     40  C   UNL     1      30.958  32.093  15.876  1.00  0.00     0.035 A 
ATOM     41  C   UNL     1      31.977  34.400  16.889  1.00  0.00     0.088 A 
ATOM     42  C   UNL     1      31.690  32.940  15.066  1.00  0.00     0.088 A 
ATOM     43  C   UNL     1      32.218  34.117  15.553  1.00  0.00     0.269 A 
BRANCH  43  44
ATOM     44  N   UNL     1      32.967  34.978  14.718  1.00  0.00     0.062 N 
ATOM     45  O   UNL     1      32.650  36.179  14.665  1.00  0.00    -0.258 OA
ATOM     46  O   UNL     1      34.028  34.569  13.960  1.00  0.00    -0.258 OA
ENDBRANCH  43  44
ENDBRANCH  36  38
ENDBRANCH  32  33
ENDBRANCH  31  32
ENDBRANCH   2  31
TORSDOF 16
BEGIN_RES LYS A 131
REMARK  4 active torsions:
REMARK  status: ('A' for Active; 'I' for Inactive)
REMARK    1  A    between atoms: CA   and  CB  
REMARK    2  A    between atoms: CB   and  CG  
REMARK    3  A    between atoms: CG   and  CD  
REMARK    4  A    between atoms: CD   and  CE  
ROOT
ATOM      1  CA  LYS A 131      29.867  25.555  16.977  1.00 20.52     0.186 C 
ENDROOT
BRANCH   1   2
ATOM      2  CB  LYS A 131      28.345  25.722  17.026  1.00 20.94     0.034 C 
BRANCH   2   3
ATOM      3  CG  LYS A 131      27.601  24.400  16.908  1.00 22.96     0.005 C 
BRANCH   3   4
ATOM      4  CD  LYS A 131      26.522  24.263  17.946  1.00 24.33     0.041 C 
BRANCH   4   5
ATOM      5  CE  LYS A 131      25.169  24.118  17.257  1.00 26.91     0.338 C 
ATOM      6  NZ  LYS A 131      24.454  22.922  17.764  1.00 27.40     0.618 N 
ENDBRANCH   4   5
ENDBRANCH   3   4
ENDBRANCH   2   3
ENDBRANCH   1   2
END_RES LYS A 131
BEGIN_RES LYS A 135
REMARK  4 active torsions:
REMARK  status: ('A' for Active; 'I' for Inactive)
REMARK    5  A    between atoms: CA   and  CB  
REMARK    6  A    between atoms: CB   and  CG  
REMARK    7  A    between atoms: CG   and  CD  
REMARK    8  A    between atoms: CD   and  CE  
ROOT
ATOM      7  CA  LYS A 135      33.193  34.663   9.290  1.00 25.02     0.186 C 
ENDROOT
BRANCH   7   8
ATOM      8  CB  LYS A 135      32.060  35.360  10.034  1.00 26.63     0.034 C 
BRANCH   8   9
ATOM      9  CG  LYS A 135      30.714  34.717   9.820  1.00 29.45     0.005 C 
BRANCH   9  10
ATOM     10  CD  LYS A 135      30.385  34.641   8.337  1.00 32.00     0.041 C 
BRANCH  10  11
ATOM     11  CE  LYS A 135      29.494  35.799   7.929  1.00 34.25     0.338 C 
ATOM     12  NZ  LYS A 135      28.791  35.510   6.649  1.00 35.99     0.618 N 
ENDBRANCH  10  11
ENDBRANCH   9  10
ENDBRANCH   8   9
ENDBRANCH   7   8
END_RES LYS A 135
