REMARK VINA RESULT:    -4.044      2.388      6.999
REMARK INTER + INTRA:         -13.764
REMARK INTER:                  -6.324
REMARK INTRA:                  -7.440
REMARK UNBOUND:                -6.292
REMARK SMILES CC(=O)N[C@@H]1[C@@H](O)C[C@](O)(C(=O)O)O[C@H]1C(O)[C@H](O)CNC(=O)OCc1cn(CCC2OCCO2)nn1
REMARK SMILES IDX 21 1 22 2 23 3 20 5 18 6 16 7 15 8 9 9 8 10 14 11 6 12 5 13
REMARK SMILES IDX 10 14 11 16 12 17 13 18 7 20 4 22 2 23 1 25 3 26 17 27 19 29
REMARK SMILES IDX 24 31 25 32 26 33 27 34 37 35 28 36 36 37 29 38 30 39 31 40
REMARK SMILES IDX 32 41 35 42 33 43 34 44
REMARK H PARENT 21 4 10 15 13 19 7 21 4 24 17 28 19 30
REMARK Flexibility Score: inf
ROOT
ATOM      1  N   UNL     1      26.221  34.506  13.681  1.00  0.00    -0.319 N 
ATOM      2  C   UNL     1      25.773  34.991  14.933  1.00  0.00     0.407 C 
ATOM      3  O   UNL     1      26.289  36.060  15.406  1.00  0.00    -0.225 OA
ATOM      4  H   UNL     1      25.810  33.642  13.289  1.00  0.00     0.167 HD
ENDROOT
BRANCH   1   5
ATOM      5  C   UNL     1      27.235  35.214  12.972  1.00  0.00     0.154 C 
BRANCH   5   6
ATOM      6  C   UNL     1      28.595  34.578  13.063  1.00  0.00     0.165 C 
BRANCH   6   7
ATOM      7  C   UNL     1      29.497  35.259  14.048  1.00  0.00     0.176 C 
BRANCH   7   8
ATOM      8  C   UNL     1      29.899  34.303  15.148  1.00  0.00     0.178 C 
ATOM      9  C   UNL     1      28.990  32.614  16.464  1.00  0.00     0.269 C 
ATOM     10  C   UNL     1      29.745  33.172  17.635  1.00  0.00     0.112 C 
ATOM     11  O   UNL     1      28.836  33.480  15.414  1.00  0.00    -0.332 OA
ATOM     12  C   UNL     1      29.607  34.679  17.592  1.00  0.00     0.145 C 
ATOM     13  C   UNL     1      30.329  35.150  16.337  1.00  0.00     0.142 C 
BRANCH   9  14
ATOM     14  O   UNL     1      27.689  32.302  16.923  1.00  0.00    -0.357 OA
ATOM     15  H   UNL     1      27.708  31.669  17.667  1.00  0.00     0.214 HD
ENDBRANCH   9  14
BRANCH   9  16
ATOM     16  C   UNL     1      29.580  31.302  16.049  1.00  0.00     0.364 C 
ATOM     17  O   UNL     1      30.773  30.979  16.241  1.00  0.00    -0.246 OA
BRANCH  16  18
ATOM     18  O   UNL     1      28.734  30.403  15.415  1.00  0.00    -0.477 OA
ATOM     19  H   UNL     1      27.914  30.674  14.881  1.00  0.00     0.296 HD
ENDBRANCH  16  18
ENDBRANCH   9  16
BRANCH  12  20
ATOM     20  O   UNL     1      28.246  34.992  17.462  1.00  0.00    -0.391 OA
ATOM     21  H   UNL     1      27.704  34.600  18.186  1.00  0.00     0.211 HD
ENDBRANCH  12  20
BRANCH  13  22
ATOM     22  N   UNL     1      31.761  35.047  16.574  1.00  0.00    -0.348 N 
ATOM     23  C   UNL     1      32.603  36.121  16.190  1.00  0.00     0.217 C 
ATOM     24  H   UNL     1      32.177  34.183  17.026  1.00  0.00     0.163 HD
ATOM     25  C   UNL     1      34.075  36.111  16.388  1.00  0.00     0.114 C 
ATOM     26  O   UNL     1      32.064  37.133  15.655  1.00  0.00    -0.275 OA
ENDBRANCH  13  22
ENDBRANCH   7   8
BRANCH   7  27
ATOM     27  O   UNL     1      30.596  35.835  13.412  1.00  0.00    -0.388 OA
ATOM     28  H   UNL     1      31.217  36.285  14.024  1.00  0.00     0.211 HD
ENDBRANCH   7  27
ENDBRANCH   6   7
BRANCH   6  29
ATOM     29  O   UNL     1      29.183  34.588  11.807  1.00  0.00    -0.388 OA
ATOM     30  H   UNL     1      28.582  34.863  11.090  1.00  0.00     0.211 HD
ENDBRANCH   6  29
ENDBRANCH   5   6
ENDBRANCH   1   5
BRANCH   2  31
ATOM     31  O   UNL     1      24.811  34.394  15.696  1.00  0.00    -0.443 OA
BRANCH  31  32
ATOM     32  C   UNL     1      24.007  33.294  15.315  1.00  0.00     0.294 C 
BRANCH  32  33
ATOM     33  C   UNL     1      24.634  31.993  15.649  1.00  0.00     0.120 A 
ATOM     34  C   UNL     1      24.318  31.179  16.712  1.00  0.00     0.138 A 
ATOM     35  N   UNL     1      25.621  31.370  14.987  1.00  0.00    -0.132 NA
ATOM     36  N   UNL     1      25.118  30.092  16.665  1.00  0.00    -0.252 N 
ATOM     37  N   UNL     1      25.898  30.234  15.609  1.00  0.00    -0.067 NA
BRANCH  36  38
ATOM     38  C   UNL     1      25.155  28.950  17.570  1.00  0.00     0.151 C 
BRANCH  38  39
ATOM     39  C   UNL     1      26.416  28.142  17.353  1.00  0.00     0.086 C 
BRANCH  39  40
ATOM     40  C   UNL     1      27.440  28.442  18.394  1.00  0.00     0.251 C 
ATOM     41  O   UNL     1      27.024  28.182  19.693  1.00  0.00    -0.350 OA
ATOM     42  O   UNL     1      27.902  29.750  18.378  1.00  0.00    -0.350 OA
ATOM     43  C   UNL     1      27.826  28.960  20.524  1.00  0.00     0.192 C 
ATOM     44  C   UNL     1      28.341  30.060  19.643  1.00  0.00     0.192 C 
ENDBRANCH  39  40
ENDBRANCH  38  39
ENDBRANCH  36  38
ENDBRANCH  32  33
ENDBRANCH  31  32
ENDBRANCH   2  31
TORSDOF 17
BEGIN_RES LYS A 131
REMARK  4 active torsions:
REMARK  status: ('A' for Active; 'I' for Inactive)
REMARK    1  A    between atoms: CA   and  CB  
REMARK    2  A    between atoms: CB   and  CG  
REMARK    3  A    between atoms: CG   and  CD  
REMARK    4  A    between atoms: CD   and  CE  
ROOT
ATOM      1  CA  LYS A 131      29.867  25.555  16.977  1.00 20.52     0.186 C 
ENDROOT
BRANCH   1   2
ATOM      2  CB  LYS A 131      28.345  25.722  17.026  1.00 20.94     0.034 C 
BRANCH   2   3
ATOM      3  CG  LYS A 131      27.601  24.401  16.902  1.00 22.96     0.005 C 
BRANCH   3   4
ATOM      4  CD  LYS A 131      26.145  24.536  17.252  1.00 24.33     0.041 C 
BRANCH   4   5
ATOM      5  CE  LYS A 131      25.961  24.334  18.753  1.00 26.91     0.338 C 
ATOM      6  NZ  LYS A 131      25.038  25.353  19.304  1.00 27.40     0.618 N 
ENDBRANCH   4   5
ENDBRANCH   3   4
ENDBRANCH   2   3
ENDBRANCH   1   2
END_RES LYS A 131
BEGIN_RES LYS A 135
REMARK  4 active torsions:
REMARK  status: ('A' for Active; 'I' for Inactive)
REMARK    5  A    between atoms: CA   and  CB  
REMARK    6  A    between atoms: CB   and  CG  
REMARK    7  A    between atoms: CG   and  CD  
REMARK    8  A    between atoms: CD   and  CE  
ROOT
ATOM      7  CA  LYS A 135      33.193  34.663   9.290  1.00 25.02     0.186 C 
ENDROOT
BRANCH   7   8
ATOM      8  CB  LYS A 135      32.060  35.360  10.034  1.00 26.63     0.034 C 
BRANCH   8   9
ATOM      9  CG  LYS A 135      30.904  35.746   9.147  1.00 29.45     0.005 C 
BRANCH   9  10
ATOM     10  CD  LYS A 135      30.351  34.526   8.426  1.00 32.00     0.041 C 
BRANCH  10  11
ATOM     11  CE  LYS A 135      28.905  34.754   8.027  1.00 34.25     0.338 C 
ATOM     12  NZ  LYS A 135      28.815  35.474   6.727  1.00 35.99     0.618 N 
ENDBRANCH  10  11
ENDBRANCH   9  10
ENDBRANCH   8   9
ENDBRANCH   7   8
END_RES LYS A 135
