REMARK VINA RESULT:    -5.258      3.113      6.722
REMARK INTER + INTRA:         -14.698
REMARK INTER:                 -10.461
REMARK INTRA:                  -4.237
REMARK UNBOUND:                -5.290
REMARK SMILES CC(=O)N[C@@H]1[C@@H](O)C[C@](O)(C(=O)O)O[C@H]1C(O)[C@H](O)CNC(=O)OCc1cn(Cc2ccccc2)nn1
REMARK SMILES IDX 21 1 22 2 23 3 20 5 18 6 16 7 15 8 9 9 8 10 14 11 6 12 5 13
REMARK SMILES IDX 10 14 11 16 12 17 13 18 7 20 4 22 2 23 1 25 3 26 17 27 19 29
REMARK SMILES IDX 24 31 25 32 26 33 27 34 37 35 28 36 36 37 29 38 30 39 31 40
REMARK SMILES IDX 35 41 32 42 34 43 33 44
REMARK H PARENT 21 4 10 15 13 19 7 21 4 24 17 28 19 30
REMARK Flexibility Score: inf
ROOT
ATOM      1  N   UNL     1      26.029  39.770   6.052  1.00  0.00    -0.319 N 
ATOM      2  C   UNL     1      24.782  40.128   6.604  1.00  0.00     0.407 C 
ATOM      3  O   UNL     1      24.300  41.265   6.473  1.00  0.00    -0.225 OA
ATOM      4  H   UNL     1      26.332  38.776   6.226  1.00  0.00     0.167 HD
ENDROOT
BRANCH   1   5
ATOM      5  C   UNL     1      26.845  40.677   5.305  1.00  0.00     0.154 C 
BRANCH   5   6
ATOM      6  C   UNL     1      28.085  39.964   4.816  1.00  0.00     0.165 C 
BRANCH   6   7
ATOM      7  C   UNL     1      28.842  39.335   5.951  1.00  0.00     0.176 C 
BRANCH   7   8
ATOM      8  C   UNL     1      29.990  40.180   6.450  1.00  0.00     0.178 C 
ATOM      9  C   UNL     1      32.255  39.736   6.821  1.00  0.00     0.269 C 
ATOM     10  C   UNL     1      32.259  41.067   7.589  1.00  0.00     0.112 C 
ATOM     11  O   UNL     1      31.199  39.790   5.961  1.00  0.00    -0.332 OA
ATOM     12  C   UNL     1      31.119  40.902   8.593  1.00  0.00     0.145 C 
ATOM     13  C   UNL     1      29.873  40.371   7.922  1.00  0.00     0.142 C 
BRANCH   9  14
ATOM     14  O   UNL     1      32.259  38.671   7.698  1.00  0.00    -0.357 OA
ATOM     15  H   UNL     1      31.762  38.927   8.504  1.00  0.00     0.214 HD
ENDBRANCH   9  14
BRANCH   9  16
ATOM     16  C   UNL     1      33.508  39.733   5.985  1.00  0.00     0.364 C 
ATOM     17  O   UNL     1      33.758  40.653   5.178  1.00  0.00    -0.246 OA
BRANCH  16  18
ATOM     18  O   UNL     1      34.414  38.697   6.099  1.00  0.00    -0.477 OA
ATOM     19  H   UNL     1      35.022  38.500   5.321  1.00  0.00     0.296 HD
ENDBRANCH  16  18
ENDBRANCH   9  16
BRANCH  12  20
ATOM     20  O   UNL     1      31.596  40.023   9.565  1.00  0.00    -0.391 OA
ATOM     21  H   UNL     1      31.983  40.540  10.305  1.00  0.00     0.211 HD
ENDBRANCH  12  20
BRANCH  13  22
ATOM     22  N   UNL     1      28.762  41.316   8.138  1.00  0.00    -0.348 N 
ATOM     23  C   UNL     1      27.696  41.049   9.031  1.00  0.00     0.217 C 
ATOM     24  H   UNL     1      28.754  42.233   7.606  1.00  0.00     0.163 HD
ATOM     25  C   UNL     1      26.558  41.968   9.280  1.00  0.00     0.114 C 
ATOM     26  O   UNL     1      27.711  39.961   9.658  1.00  0.00    -0.275 OA
ENDBRANCH  13  22
ENDBRANCH   7   8
BRANCH   7  27
ATOM     27  O   UNL     1      29.235  38.062   5.587  1.00  0.00    -0.388 OA
ATOM     28  H   UNL     1      28.609  37.728   4.901  1.00  0.00     0.211 HD
ENDBRANCH   7  27
ENDBRANCH   6   7
BRANCH   6  29
ATOM     29  O   UNL     1      28.836  40.930   4.146  1.00  0.00    -0.388 OA
ATOM     30  H   UNL     1      29.484  41.384   4.729  1.00  0.00     0.211 HD
ENDBRANCH   6  29
ENDBRANCH   5   6
ENDBRANCH   1   5
BRANCH   2  31
ATOM     31  O   UNL     1      24.036  39.199   7.326  1.00  0.00    -0.443 OA
BRANCH  31  32
ATOM     32  C   UNL     1      24.186  39.122   8.724  1.00  0.00     0.294 C 
BRANCH  32  33
ATOM     33  C   UNL     1      24.887  37.880   9.132  1.00  0.00     0.120 A 
ATOM     34  C   UNL     1      25.119  36.787   8.343  1.00  0.00     0.138 A 
ATOM     35  N   UNL     1      25.404  37.621  10.337  1.00  0.00    -0.132 NA
ATOM     36  N   UNL     1      25.775  35.886   9.092  1.00  0.00    -0.248 N 
ATOM     37  N   UNL     1      25.935  36.423  10.307  1.00  0.00    -0.067 NA
BRANCH  36  38
ATOM     38  C   UNL     1      26.245  34.575   8.724  1.00  0.00     0.181 C 
BRANCH  38  39
ATOM     39  C   UNL     1      27.726  34.557   8.578  1.00  0.00    -0.026 A 
ATOM     40  C   UNL     1      28.353  35.192   7.513  1.00  0.00     0.005 A 
ATOM     41  C   UNL     1      28.538  33.918   9.482  1.00  0.00     0.005 A 
ATOM     42  C   UNL     1      29.720  35.171   7.384  1.00  0.00     0.000 A 
ATOM     43  C   UNL     1      29.916  33.891   9.361  1.00  0.00     0.000 A 
ATOM     44  C   UNL     1      30.522  34.525   8.300  1.00  0.00     0.000 A 
ENDBRANCH  38  39
ENDBRANCH  36  38
ENDBRANCH  32  33
ENDBRANCH  31  32
ENDBRANCH   2  31
TORSDOF 16
BEGIN_RES LYS A 131
REMARK  4 active torsions:
REMARK  status: ('A' for Active; 'I' for Inactive)
REMARK    1  A    between atoms: CA   and  CB  
REMARK    2  A    between atoms: CB   and  CG  
REMARK    3  A    between atoms: CG   and  CD  
REMARK    4  A    between atoms: CD   and  CE  
ROOT
ATOM      1  CA  LYS A 131      29.867  25.555  16.977  1.00 20.52     0.186 C 
ENDROOT
BRANCH   1   2
ATOM      2  CB  LYS A 131      28.345  25.722  17.026  1.00 20.94     0.034 C 
BRANCH   2   3
ATOM      3  CG  LYS A 131      27.599  24.423  16.761  1.00 22.96     0.005 C 
BRANCH   3   4
ATOM      4  CD  LYS A 131      26.889  23.918  17.986  1.00 24.33     0.041 C 
BRANCH   4   5
ATOM      5  CE  LYS A 131      25.763  22.976  17.570  1.00 26.91     0.338 C 
ATOM      6  NZ  LYS A 131      24.588  23.748  17.103  1.00 27.40     0.618 N 
ENDBRANCH   4   5
ENDBRANCH   3   4
ENDBRANCH   2   3
ENDBRANCH   1   2
END_RES LYS A 131
BEGIN_RES LYS A 135
REMARK  4 active torsions:
REMARK  status: ('A' for Active; 'I' for Inactive)
REMARK    5  A    between atoms: CA   and  CB  
REMARK    6  A    between atoms: CB   and  CG  
REMARK    7  A    between atoms: CG   and  CD  
REMARK    8  A    between atoms: CD   and  CE  
ROOT
ATOM      7  CA  LYS A 135      33.193  34.663   9.290  1.00 25.02     0.186 C 
ENDROOT
BRANCH   7   8
ATOM      8  CB  LYS A 135      32.060  35.360  10.034  1.00 26.63     0.034 C 
BRANCH   8   9
ATOM      9  CG  LYS A 135      32.369  35.634  11.483  1.00 29.45     0.005 C 
BRANCH   9  10
ATOM     10  CD  LYS A 135      31.090  35.700  12.302  1.00 32.00     0.041 C 
BRANCH  10  11
ATOM     11  CE  LYS A 135      30.299  36.947  11.955  1.00 34.25     0.338 C 
ATOM     12  NZ  LYS A 135      30.968  38.170  12.481  1.00 35.99     0.618 N 
ENDBRANCH  10  11
ENDBRANCH   9  10
ENDBRANCH   8   9
ENDBRANCH   7   8
END_RES LYS A 135
