REMARK VINA RESULT:    -5.185      8.553     14.790
REMARK INTER + INTRA:         -14.260
REMARK INTER:                  -7.355
REMARK INTRA:                  -6.905
REMARK UNBOUND:                -5.134
REMARK SMILES CC(=O)N[C@@H]1[C@@H](O)C[C@](O)(C(=O)O)O[C@H]1C(O)[C@H](O)CNC(=O)OCc1cn(-c2nc(C)nc(N)n2)nn1
REMARK SMILES IDX 21 1 22 2 23 3 20 5 18 6 16 7 15 8 9 9 8 10 14 11 6 12 5 13
REMARK SMILES IDX 10 14 11 16 12 17 13 18 7 20 4 22 2 23 1 25 3 26 17 27 19 29
REMARK SMILES IDX 24 31 25 32 26 33 27 34 38 35 28 36 37 37 29 38 36 39 30 40
REMARK SMILES IDX 34 41 31 42 33 43 32 44 35 45
REMARK H PARENT 21 4 10 15 13 19 7 21 4 24 17 28 19 30 35 46 35 47
REMARK Flexibility Score: inf
ROOT
ATOM      1  N   UNL     1      25.633  42.310   6.006  1.00  0.00    -0.319 N 
ATOM      2  C   UNL     1      26.014  42.225   4.652  1.00  0.00     0.407 C 
ATOM      3  O   UNL     1      25.244  41.886   3.726  1.00  0.00    -0.225 OA
ATOM      4  H   UNL     1      26.314  42.608   6.767  1.00  0.00     0.167 HD
ENDROOT
BRANCH   1   5
ATOM      5  C   UNL     1      24.276  41.985   6.390  1.00  0.00     0.154 C 
BRANCH   5   6
ATOM      6  C   UNL     1      24.244  40.583   6.913  1.00  0.00     0.165 C 
BRANCH   6   7
ATOM      7  C   UNL     1      24.753  40.544   8.339  1.00  0.00     0.176 C 
BRANCH   7   8
ATOM      8  C   UNL     1      23.958  39.486   9.089  1.00  0.00     0.178 C 
ATOM      9  C   UNL     1      24.236  37.310   8.228  1.00  0.00     0.269 C 
ATOM     10  C   UNL     1      22.914  37.374   7.531  1.00  0.00     0.112 C 
ATOM     11  O   UNL     1      24.604  38.324   9.006  1.00  0.00    -0.332 OA
ATOM     12  C   UNL     1      21.955  38.131   8.441  1.00  0.00     0.145 C 
ATOM     13  C   UNL     1      22.564  39.530   8.523  1.00  0.00     0.142 C 
BRANCH   9  14
ATOM     14  O   UNL     1      25.207  37.159   7.210  1.00  0.00    -0.357 OA
ATOM     15  H   UNL     1      25.521  36.227   7.148  1.00  0.00     0.214 HD
ENDBRANCH   9  14
BRANCH   9  16
ATOM     16  C   UNL     1      24.259  36.049   9.012  1.00  0.00     0.364 C 
ATOM     17  O   UNL     1      23.188  35.494   9.367  1.00  0.00    -0.246 OA
BRANCH  16  18
ATOM     18  O   UNL     1      25.443  35.434   9.385  1.00  0.00    -0.477 OA
ATOM     19  H   UNL     1      25.878  35.580  10.298  1.00  0.00     0.296 HD
ENDBRANCH  16  18
ENDBRANCH   9  16
BRANCH  12  20
ATOM     20  O   UNL     1      20.697  38.241   7.882  1.00  0.00    -0.391 OA
ATOM     21  H   UNL     1      20.544  37.419   7.334  1.00  0.00     0.211 HD
ENDBRANCH  12  20
BRANCH  13  22
ATOM     22  N   UNL     1      21.717  40.419   9.289  1.00  0.00    -0.348 N 
ATOM     23  C   UNL     1      20.867  41.355   8.647  1.00  0.00     0.217 C 
ATOM     24  H   UNL     1      21.775  40.324  10.329  1.00  0.00     0.163 HD
ATOM     25  C   UNL     1      20.026  42.235   9.488  1.00  0.00     0.114 C 
ATOM     26  O   UNL     1      20.807  41.457   7.402  1.00  0.00    -0.275 OA
ENDBRANCH  13  22
ENDBRANCH   7   8
BRANCH   7  27
ATOM     27  O   UNL     1      24.502  41.810   8.934  1.00  0.00    -0.388 OA
ATOM     28  H   UNL     1      23.676  42.132   8.473  1.00  0.00     0.211 HD
ENDBRANCH   7  27
ENDBRANCH   6   7
BRANCH   6  29
ATOM     29  O   UNL     1      25.021  39.768   6.077  1.00  0.00    -0.388 OA
ATOM     30  H   UNL     1      25.939  39.711   6.395  1.00  0.00     0.211 HD
ENDBRANCH   6  29
ENDBRANCH   5   6
ENDBRANCH   1   5
BRANCH   2  31
ATOM     31  O   UNL     1      27.340  42.539   4.309  1.00  0.00    -0.443 OA
BRANCH  31  32
ATOM     32  C   UNL     1      28.147  41.497   3.802  1.00  0.00     0.294 C 
BRANCH  32  33
ATOM     33  C   UNL     1      28.097  40.344   4.760  1.00  0.00     0.121 A 
ATOM     34  C   UNL     1      28.567  40.312   6.059  1.00  0.00     0.148 A 
ATOM     35  N   UNL     1      27.589  39.108   4.553  1.00  0.00    -0.131 NA
ATOM     36  N   UNL     1      28.340  39.097   6.597  1.00  0.00    -0.185 N 
ATOM     37  N   UNL     1      27.747  38.391   5.661  1.00  0.00    -0.059 NA
BRANCH  36  38
ATOM     38  C   UNL     1      28.680  38.674   7.922  1.00  0.00     0.257 A 
ATOM     39  N   UNL     1      27.758  38.181   8.769  1.00  0.00    -0.175 NA
ATOM     40  N   UNL     1      29.948  38.757   8.370  1.00  0.00    -0.196 NA
ATOM     41  C   UNL     1      28.035  37.774  10.018  1.00  0.00     0.225 A 
ATOM     42  C   UNL     1      30.293  38.363   9.622  1.00  0.00     0.133 A 
ATOM     43  N   UNL     1      29.332  37.881  10.417  1.00  0.00    -0.198 NA
ATOM     44  C   UNL     1      31.689  38.451  10.127  1.00  0.00     0.090 C 
BRANCH  41  45
ATOM     45  N   UNL     1      27.071  37.256  10.907  1.00  0.00    -0.368 N 
ATOM     46  H   UNL     1      26.373  36.578  10.572  1.00  0.00     0.159 HD
ATOM     47  H   UNL     1      27.067  37.560  11.890  1.00  0.00     0.159 HD
ENDBRANCH  41  45
ENDBRANCH  36  38
ENDBRANCH  32  33
ENDBRANCH  31  32
ENDBRANCH   2  31
TORSDOF 16
BEGIN_RES LYS A 131
REMARK  4 active torsions:
REMARK  status: ('A' for Active; 'I' for Inactive)
REMARK    1  A    between atoms: CA   and  CB  
REMARK    2  A    between atoms: CB   and  CG  
REMARK    3  A    between atoms: CG   and  CD  
REMARK    4  A    between atoms: CD   and  CE  
ROOT
ATOM      1  CA  LYS A 131      29.867  25.555  16.977  1.00 20.52     0.186 C 
ENDROOT
BRANCH   1   2
ATOM      2  CB  LYS A 131      28.345  25.722  17.026  1.00 20.94     0.034 C 
BRANCH   2   3
ATOM      3  CG  LYS A 131      27.602  24.399  16.925  1.00 22.96     0.005 C 
BRANCH   3   4
ATOM      4  CD  LYS A 131      26.154  24.531  17.309  1.00 24.33     0.041 C 
BRANCH   4   5
ATOM      5  CE  LYS A 131      25.691  23.251  17.996  1.00 26.91     0.338 C 
ATOM      6  NZ  LYS A 131      24.492  22.704  17.320  1.00 27.40     0.618 N 
ENDBRANCH   4   5
ENDBRANCH   3   4
ENDBRANCH   2   3
ENDBRANCH   1   2
END_RES LYS A 131
BEGIN_RES LYS A 135
REMARK  4 active torsions:
REMARK  status: ('A' for Active; 'I' for Inactive)
REMARK    5  A    between atoms: CA   and  CB  
REMARK    6  A    between atoms: CB   and  CG  
REMARK    7  A    between atoms: CG   and  CD  
REMARK    8  A    between atoms: CD   and  CE  
ROOT
ATOM      7  CA  LYS A 135      33.193  34.663   9.290  1.00 25.02     0.186 C 
ENDROOT
BRANCH   7   8
ATOM      8  CB  LYS A 135      32.060  35.360  10.034  1.00 26.63     0.034 C 
BRANCH   8   9
ATOM      9  CG  LYS A 135      30.718  34.703   9.840  1.00 29.45     0.005 C 
BRANCH   9  10
ATOM     10  CD  LYS A 135      30.247  34.857   8.402  1.00 32.00     0.041 C 
BRANCH  10  11
ATOM     11  CE  LYS A 135      28.771  34.530   8.287  1.00 34.25     0.338 C 
ATOM     12  NZ  LYS A 135      28.289  33.794   9.489  1.00 35.99     0.618 N 
ENDBRANCH  10  11
ENDBRANCH   9  10
ENDBRANCH   8   9
ENDBRANCH   7   8
END_RES LYS A 135
