REMARK VINA RESULT:    -5.505      2.118      3.833
REMARK INTER + INTRA:         -15.187
REMARK INTER:                  -8.861
REMARK INTRA:                  -6.326
REMARK UNBOUND:                -5.337
REMARK SMILES CC(=O)N[C@@H]1[C@@H](O)C[C@](O)(C(=O)O)O[C@H]1C(O)[C@H](O)CNC(=O)OCc1cn(CC2=CC[C@H]3C[C@@H]2C3(C)C)nn1
REMARK SMILES IDX 21 1 22 2 23 3 20 5 18 6 16 7 15 8 9 9 8 10 14 11 6 12 5 13
REMARK SMILES IDX 10 14 11 16 12 17 13 18 7 20 4 22 2 23 1 25 3 26 17 27 19 29
REMARK SMILES IDX 24 31 25 32 26 33 27 34 40 35 28 36 39 37 29 38 30 39 31 40
REMARK SMILES IDX 35 41 32 42 34 43 36 44 33 45 37 46 38 47
REMARK H PARENT 21 4 10 15 13 19 7 21 4 24 17 28 19 30
REMARK Flexibility Score: inf
ROOT
ATOM      1  N   UNL     1      29.259  27.527  19.946  1.00  0.00    -0.319 N 
ATOM      2  C   UNL     1      27.920  28.051  19.912  1.00  0.00     0.407 C 
ATOM      3  O   UNL     1      27.324  28.245  21.002  1.00  0.00    -0.225 OA
ATOM      4  H   UNL     1      29.758  27.364  19.046  1.00  0.00     0.167 HD
ENDROOT
BRANCH   1   5
ATOM      5  C   UNL     1      29.884  27.236  21.219  1.00  0.00     0.154 C 
BRANCH   5   6
ATOM      6  C   UNL     1      31.204  27.951  21.266  1.00  0.00     0.165 C 
BRANCH   6   7
ATOM      7  C   UNL     1      31.095  29.318  21.905  1.00  0.00     0.176 C 
BRANCH   7   8
ATOM      8  C   UNL     1      32.232  30.156  21.369  1.00  0.00     0.178 C 
ATOM      9  C   UNL     1      33.974  29.889  22.872  1.00  0.00     0.269 C 
ATOM     10  C   UNL     1      34.029  31.358  23.227  1.00  0.00     0.112 C 
ATOM     11  O   UNL     1      33.472  29.645  21.617  1.00  0.00    -0.332 OA
ATOM     12  C   UNL     1      33.454  32.138  22.071  1.00  0.00     0.145 C 
ATOM     13  C   UNL     1      32.065  31.591  21.812  1.00  0.00     0.142 C 
BRANCH   9  14
ATOM     14  O   UNL     1      33.289  29.194  23.873  1.00  0.00    -0.357 OA
ATOM     15  H   UNL     1      32.505  28.777  23.423  1.00  0.00     0.214 HD
ENDBRANCH   9  14
BRANCH   9  16
ATOM     16  C   UNL     1      35.381  29.391  22.894  1.00  0.00     0.364 C 
ATOM     17  O   UNL     1      36.339  30.237  22.904  1.00  0.00    -0.246 OA
BRANCH  16  18
ATOM     18  O   UNL     1      35.700  28.050  22.905  1.00  0.00    -0.477 OA
ATOM     19  H   UNL     1      36.614  27.719  23.205  1.00  0.00     0.296 HD
ENDBRANCH  16  18
ENDBRANCH   9  16
BRANCH  12  20
ATOM     20  O   UNL     1      33.348  33.488  22.344  1.00  0.00    -0.391 OA
ATOM     21  H   UNL     1      34.149  33.931  21.966  1.00  0.00     0.211 HD
ENDBRANCH  12  20
BRANCH  13  22
ATOM     22  N   UNL     1      31.344  32.395  20.858  1.00  0.00    -0.348 N 
ATOM     23  C   UNL     1      30.179  33.118  21.220  1.00  0.00     0.217 C 
ATOM     24  H   UNL     1      31.704  32.434  19.880  1.00  0.00     0.163 HD
ATOM     25  C   UNL     1      29.496  33.923  20.170  1.00  0.00     0.114 C 
ATOM     26  O   UNL     1      29.741  33.074  22.396  1.00  0.00    -0.275 OA
ENDBRANCH  13  22
ENDBRANCH   7   8
BRANCH   7  27
ATOM     27  O   UNL     1      29.902  29.939  21.543  1.00  0.00    -0.388 OA
ATOM     28  H   UNL     1      29.156  29.324  21.453  1.00  0.00     0.211 HD
ENDBRANCH   7  27
ENDBRANCH   6   7
BRANCH   6  29
ATOM     29  O   UNL     1      31.615  28.123  19.927  1.00  0.00    -0.388 OA
ATOM     30  H   UNL     1      31.340  27.336  19.378  1.00  0.00     0.211 HD
ENDBRANCH   6  29
ENDBRANCH   5   6
ENDBRANCH   1   5
BRANCH   2  31
ATOM     31  O   UNL     1      27.268  28.349  18.747  1.00  0.00    -0.443 OA
BRANCH  31  32
ATOM     32  C   UNL     1      27.077  29.664  18.258  1.00  0.00     0.294 C 
BRANCH  32  33
ATOM     33  C   UNL     1      28.378  30.271  17.909  1.00  0.00     0.120 A 
ATOM     34  C   UNL     1      28.877  30.584  16.667  1.00  0.00     0.138 A 
ATOM     35  N   UNL     1      29.326  30.632  18.786  1.00  0.00    -0.132 NA
ATOM     36  N   UNL     1      30.120  31.131  16.811  1.00  0.00    -0.248 N 
ATOM     37  N   UNL     1      30.360  31.143  18.114  1.00  0.00    -0.067 NA
BRANCH  36  38
ATOM     38  C   UNL     1      30.957  31.583  15.727  1.00  0.00     0.177 C 
BRANCH  38  39
ATOM     39  C   UNL     1      30.965  33.086  15.642  1.00  0.00    -0.049 C 
ATOM     40  C   UNL     1      29.929  33.807  16.060  1.00  0.00    -0.025 C 
ATOM     41  C   UNL     1      32.125  33.814  15.090  1.00  0.00     0.023 C 
ATOM     42  C   UNL     1      30.090  35.282  16.181  1.00  0.00     0.031 C 
ATOM     43  C   UNL     1      32.517  34.853  16.150  1.00  0.00     0.013 C 
ATOM     44  C   UNL     1      31.632  34.980  14.256  1.00  0.00    -0.026 C 
ATOM     45  C   UNL     1      31.396  35.710  15.586  1.00  0.00    -0.000 C 
ATOM     46  C   UNL     1      32.713  35.674  13.477  1.00  0.00     0.012 C 
ATOM     47  C   UNL     1      30.401  34.733  13.451  1.00  0.00     0.012 C 
ENDBRANCH  38  39
ENDBRANCH  36  38
ENDBRANCH  32  33
ENDBRANCH  31  32
ENDBRANCH   2  31
TORSDOF 16
BEGIN_RES LYS A 131
REMARK  4 active torsions:
REMARK  status: ('A' for Active; 'I' for Inactive)
REMARK    1  A    between atoms: CA   and  CB  
REMARK    2  A    between atoms: CB   and  CG  
REMARK    3  A    between atoms: CG   and  CD  
REMARK    4  A    between atoms: CD   and  CE  
ROOT
ATOM      1  CA  LYS A 131      29.867  25.555  16.977  1.00 20.52     0.186 C 
ENDROOT
BRANCH   1   2
ATOM      2  CB  LYS A 131      28.345  25.722  17.026  1.00 20.94     0.034 C 
BRANCH   2   3
ATOM      3  CG  LYS A 131      27.599  24.432  16.722  1.00 22.96     0.005 C 
BRANCH   3   4
ATOM      4  CD  LYS A 131      26.946  23.854  17.947  1.00 24.33     0.041 C 
BRANCH   4   5
ATOM      5  CE  LYS A 131      25.562  23.325  17.584  1.00 26.91     0.338 C 
ATOM      6  NZ  LYS A 131      24.779  24.365  16.875  1.00 27.40     0.618 N 
ENDBRANCH   4   5
ENDBRANCH   3   4
ENDBRANCH   2   3
ENDBRANCH   1   2
END_RES LYS A 131
BEGIN_RES LYS A 135
REMARK  4 active torsions:
REMARK  status: ('A' for Active; 'I' for Inactive)
REMARK    5  A    between atoms: CA   and  CB  
REMARK    6  A    between atoms: CB   and  CG  
REMARK    7  A    between atoms: CG   and  CD  
REMARK    8  A    between atoms: CD   and  CE  
ROOT
ATOM      7  CA  LYS A 135      33.193  34.663   9.290  1.00 25.02     0.186 C 
ENDROOT
BRANCH   7   8
ATOM      8  CB  LYS A 135      32.060  35.360  10.034  1.00 26.63     0.034 C 
BRANCH   8   9
ATOM      9  CG  LYS A 135      30.755  35.360   9.281  1.00 29.45     0.005 C 
BRANCH   9  10
ATOM     10  CD  LYS A 135      29.888  34.186   9.710  1.00 32.00     0.041 C 
BRANCH  10  11
ATOM     11  CE  LYS A 135      28.586  34.173   8.931  1.00 34.25     0.338 C 
ATOM     12  NZ  LYS A 135      28.195  35.549   8.516  1.00 35.99     0.618 N 
ENDBRANCH  10  11
ENDBRANCH   9  10
ENDBRANCH   8   9
ENDBRANCH   7   8
END_RES LYS A 135
