REMARK VINA RESULT:    -4.434      3.844      7.228
REMARK INTER + INTRA:         -14.687
REMARK INTER:                  -8.075
REMARK INTRA:                  -6.611
REMARK UNBOUND:                -6.624
REMARK SMILES CC(=O)N[C@@H]1[C@@H](O)C[C@](O)(C(=O)O)O[C@H]1C(O)[C@H](O)CNC(=O)OCc1cn(-c2cccc(S(N)(=O)=O)c2)nn1
REMARK SMILES IDX 21 1 22 2 23 3 20 5 18 6 16 7 15 8 9 9 8 10 14 11 6 12 5 13
REMARK SMILES IDX 10 14 11 16 12 17 13 18 7 20 4 22 2 23 1 25 3 26 17 27 19 29
REMARK SMILES IDX 24 31 25 32 26 33 27 34 40 35 28 36 39 37 29 38 38 39 30 40
REMARK SMILES IDX 33 41 31 42 32 43 34 44 36 45 37 46 35 47
REMARK H PARENT 21 4 10 15 13 19 7 21 4 24 17 28 19 30 35 48 35 49
REMARK Flexibility Score: inf
ROOT
ATOM      1  N   UNL     1      28.056  36.089  14.810  1.00  0.00    -0.319 N 
ATOM      2  C   UNL     1      26.998  35.429  14.136  1.00  0.00     0.407 C 
ATOM      3  O   UNL     1      26.258  36.091  13.388  1.00  0.00    -0.225 OA
ATOM      4  H   UNL     1      28.645  35.466  15.427  1.00  0.00     0.167 HD
ENDROOT
BRANCH   1   5
ATOM      5  C   UNL     1      28.315  37.499  14.670  1.00  0.00     0.154 C 
BRANCH   5   6
ATOM      6  C   UNL     1      29.585  37.742  13.881  1.00  0.00     0.165 C 
BRANCH   6   7
ATOM      7  C   UNL     1      30.707  38.108  14.843  1.00  0.00     0.176 C 
BRANCH   7   8
ATOM      8  C   UNL     1      31.788  37.033  14.752  1.00  0.00     0.178 C 
ATOM      9  C   UNL     1      31.249  34.829  15.224  1.00  0.00     0.269 C 
ATOM     10  C   UNL     1      32.620  34.524  15.783  1.00  0.00     0.112 C 
ATOM     11  O   UNL     1      31.262  35.860  14.307  1.00  0.00    -0.332 OA
ATOM     12  C   UNL     1      33.448  35.745  15.999  1.00  0.00     0.145 C 
ATOM     13  C   UNL     1      32.516  36.955  16.060  1.00  0.00     0.142 C 
BRANCH   9  14
ATOM     14  O   UNL     1      30.327  35.102  16.231  1.00  0.00    -0.357 OA
ATOM     15  H   UNL     1      29.433  34.729  15.955  1.00  0.00     0.214 HD
ENDBRANCH   9  14
BRANCH   9  16
ATOM     16  C   UNL     1      30.790  33.606  14.513  1.00  0.00     0.364 C 
ATOM     17  O   UNL     1      29.977  33.666  13.554  1.00  0.00    -0.246 OA
BRANCH  16  18
ATOM     18  O   UNL     1      31.238  32.334  14.872  1.00  0.00    -0.477 OA
ATOM     19  H   UNL     1      31.707  31.745  14.194  1.00  0.00     0.296 HD
ENDBRANCH  16  18
ENDBRANCH   9  16
BRANCH  12  20
ATOM     20  O   UNL     1      34.253  35.691  17.124  1.00  0.00    -0.391 OA
ATOM     21  H   UNL     1      34.527  36.592  17.456  1.00  0.00     0.211 HD
ENDBRANCH  12  20
BRANCH  13  22
ATOM     22  N   UNL     1      33.317  38.161  16.189  1.00  0.00    -0.348 N 
ATOM     23  C   UNL     1      33.532  38.805  17.443  1.00  0.00     0.217 C 
ATOM     24  H   UNL     1      33.756  38.574  15.320  1.00  0.00     0.163 HD
ATOM     25  C   UNL     1      34.369  40.032  17.456  1.00  0.00     0.114 C 
ATOM     26  O   UNL     1      33.009  38.305  18.454  1.00  0.00    -0.275 OA
ENDBRANCH  13  22
ENDBRANCH   7   8
BRANCH   7  27
ATOM     27  O   UNL     1      31.252  39.307  14.418  1.00  0.00    -0.388 OA
ATOM     28  H   UNL     1      32.237  39.265  14.392  1.00  0.00     0.211 HD
ENDBRANCH   7  27
ENDBRANCH   6   7
BRANCH   6  29
ATOM     29  O   UNL     1      29.350  38.809  12.997  1.00  0.00    -0.388 OA
ATOM     30  H   UNL     1      29.468  39.695  13.464  1.00  0.00     0.211 HD
ENDBRANCH   6  29
ENDBRANCH   5   6
ENDBRANCH   1   5
BRANCH   2  31
ATOM     31  O   UNL     1      26.773  34.058  14.295  1.00  0.00    -0.443 OA
BRANCH  31  32
ATOM     32  C   UNL     1      26.374  33.521  15.539  1.00  0.00     0.294 C 
BRANCH  32  33
ATOM     33  C   UNL     1      27.447  32.654  16.087  1.00  0.00     0.121 A 
ATOM     34  C   UNL     1      28.012  32.789  17.340  1.00  0.00     0.144 A 
ATOM     35  N   UNL     1      28.060  31.614  15.510  1.00  0.00    -0.131 NA
ATOM     36  N   UNL     1      28.930  31.815  17.431  1.00  0.00    -0.220 N 
ATOM     37  N   UNL     1      28.968  31.093  16.321  1.00  0.00    -0.062 NA
BRANCH  36  38
ATOM     38  C   UNL     1      29.766  31.572  18.560  1.00  0.00     0.068 A 
ATOM     39  C   UNL     1      29.901  30.326  19.134  1.00  0.00     0.050 A 
ATOM     40  C   UNL     1      30.487  32.606  19.132  1.00  0.00     0.028 A 
ATOM     41  C   UNL     1      30.720  30.097  20.238  1.00  0.00     0.084 A 
ATOM     42  C   UNL     1      31.298  32.406  20.216  1.00  0.00     0.004 A 
ATOM     43  C   UNL     1      31.412  31.152  20.766  1.00  0.00     0.022 A 
BRANCH  41  44
ATOM     44  S   UNL     1      30.885  28.527  20.956  1.00  0.00     0.238 S 
ATOM     45  O   UNL     1      29.524  27.880  20.995  1.00  0.00    -0.207 OA
ATOM     46  O   UNL     1      31.326  28.679  22.392  1.00  0.00    -0.207 OA
BRANCH  44  47
ATOM     47  N   UNL     1      31.959  27.528  20.063  1.00  0.00    -0.225 NA
ATOM     48  H   UNL     1      32.157  26.663  20.597  1.00  0.00     0.137 HD
ATOM     49  H   UNL     1      32.836  28.022  19.798  1.00  0.00     0.137 HD
ENDBRANCH  44  47
ENDBRANCH  41  44
ENDBRANCH  36  38
ENDBRANCH  32  33
ENDBRANCH  31  32
ENDBRANCH   2  31
TORSDOF 17
BEGIN_RES LYS A 131
REMARK  4 active torsions:
REMARK  status: ('A' for Active; 'I' for Inactive)
REMARK    1  A    between atoms: CA   and  CB  
REMARK    2  A    between atoms: CB   and  CG  
REMARK    3  A    between atoms: CG   and  CD  
REMARK    4  A    between atoms: CD   and  CE  
ROOT
ATOM      1  CA  LYS A 131      29.867  25.555  16.977  1.00 20.52     0.186 C 
ENDROOT
BRANCH   1   2
ATOM      2  CB  LYS A 131      28.345  25.722  17.026  1.00 20.94     0.034 C 
BRANCH   2   3
ATOM      3  CG  LYS A 131      27.600  24.410  16.830  1.00 22.96     0.005 C 
BRANCH   3   4
ATOM      4  CD  LYS A 131      26.149  24.521  17.208  1.00 24.33     0.041 C 
BRANCH   4   5
ATOM      5  CE  LYS A 131      26.005  24.385  18.720  1.00 26.91     0.338 C 
ATOM      6  NZ  LYS A 131      25.429  25.621  19.300  1.00 27.40     0.618 N 
ENDBRANCH   4   5
ENDBRANCH   3   4
ENDBRANCH   2   3
ENDBRANCH   1   2
END_RES LYS A 131
BEGIN_RES LYS A 135
REMARK  4 active torsions:
REMARK  status: ('A' for Active; 'I' for Inactive)
REMARK    5  A    between atoms: CA   and  CB  
REMARK    6  A    between atoms: CB   and  CG  
REMARK    7  A    between atoms: CG   and  CD  
REMARK    8  A    between atoms: CD   and  CE  
ROOT
ATOM      7  CA  LYS A 135      33.193  34.663   9.290  1.00 25.02     0.186 C 
ENDROOT
BRANCH   7   8
ATOM      8  CB  LYS A 135      32.060  35.360  10.034  1.00 26.63     0.034 C 
BRANCH   8   9
ATOM      9  CG  LYS A 135      30.694  34.824   9.691  1.00 29.45     0.005 C 
BRANCH   9  10
ATOM     10  CD  LYS A 135      30.583  34.553   8.199  1.00 32.00     0.041 C 
BRANCH  10  11
ATOM     11  CE  LYS A 135      29.207  34.935   7.689  1.00 34.25     0.338 C 
ATOM     12  NZ  LYS A 135      28.144  34.503   8.638  1.00 35.99     0.618 N 
ENDBRANCH  10  11
ENDBRANCH   9  10
ENDBRANCH   8   9
ENDBRANCH   7   8
END_RES LYS A 135
