REMARK VINA RESULT:    -3.859      2.631      6.020
REMARK INTER + INTRA:         -14.695
REMARK INTER:                  -6.984
REMARK INTRA:                  -7.711
REMARK UNBOUND:                -7.565
REMARK SMILES CC(=O)N[C@@H]1[C@@H](O)C[C@](O)(C(=O)O)O[C@H]1C(O)[C@H](O)CNC(=O)OCc1cn(CC(=O)Nc2ncccn2)nn1
REMARK SMILES IDX 21 1 22 2 23 3 20 5 18 6 16 7 15 8 9 9 8 10 14 11 6 12 5 13
REMARK SMILES IDX 10 14 11 16 12 17 13 18 7 20 4 22 2 23 1 25 3 26 17 27 19 29
REMARK SMILES IDX 24 31 25 32 26 33 27 34 40 35 28 36 39 37 29 38 30 39 31 40
REMARK SMILES IDX 32 41 33 43 34 44 38 45 35 46 37 47 36 48
REMARK H PARENT 21 4 10 15 13 19 7 21 4 24 17 28 19 30 32 42
REMARK Flexibility Score: inf
ROOT
ATOM      1  N   UNL     1      24.493  32.866  17.739  1.00  0.00    -0.319 N 
ATOM      2  C   UNL     1      23.684  32.912  16.552  1.00  0.00     0.407 C 
ATOM      3  O   UNL     1      23.738  33.893  15.770  1.00  0.00    -0.225 OA
ATOM      4  H   UNL     1      24.436  32.049  18.369  1.00  0.00     0.167 HD
ENDROOT
BRANCH   1   5
ATOM      5  C   UNL     1      25.361  33.981  18.000  1.00  0.00     0.154 C 
BRANCH   5   6
ATOM      6  C   UNL     1      26.824  33.657  17.819  1.00  0.00     0.165 C 
BRANCH   6   7
ATOM      7  C   UNL     1      27.235  34.178  16.464  1.00  0.00     0.176 C 
BRANCH   7   8
ATOM      8  C   UNL     1      28.756  34.142  16.295  1.00  0.00     0.178 C 
ATOM      9  C   UNL     1      30.634  33.133  17.037  1.00  0.00     0.269 C 
ATOM     10  C   UNL     1      31.413  34.349  16.686  1.00  0.00     0.112 C 
ATOM     11  O   UNL     1      29.331  33.428  17.318  1.00  0.00    -0.332 OA
ATOM     12  C   UNL     1      30.673  35.659  16.813  1.00  0.00     0.145 C 
ATOM     13  C   UNL     1      29.258  35.576  16.315  1.00  0.00     0.142 C 
BRANCH   9  14
ATOM     14  O   UNL     1      31.153  32.596  18.263  1.00  0.00    -0.357 OA
ATOM     15  H   UNL     1      31.358  33.355  18.875  1.00  0.00     0.214 HD
ENDBRANCH   9  14
BRANCH   9  16
ATOM     16  C   UNL     1      30.820  32.036  16.043  1.00  0.00     0.364 C 
ATOM     17  O   UNL     1      30.326  30.923  16.227  1.00  0.00    -0.246 OA
BRANCH  16  18
ATOM     18  O   UNL     1      31.560  32.227  14.873  1.00  0.00    -0.477 OA
ATOM     19  H   UNL     1      32.012  31.467  14.396  1.00  0.00     0.296 HD
ENDBRANCH  16  18
ENDBRANCH   9  16
BRANCH  12  20
ATOM     20  O   UNL     1      30.717  36.017  18.163  1.00  0.00    -0.391 OA
ATOM     21  H   UNL     1      30.687  37.009  18.282  1.00  0.00     0.211 HD
ENDBRANCH  12  20
BRANCH  13  22
ATOM     22  N   UNL     1      29.033  36.161  15.039  1.00  0.00    -0.348 N 
ATOM     23  C   UNL     1      29.305  35.534  13.797  1.00  0.00     0.217 C 
ATOM     24  H   UNL     1      28.638  37.132  14.980  1.00  0.00     0.163 HD
ATOM     25  C   UNL     1      29.048  36.213  12.489  1.00  0.00     0.114 C 
ATOM     26  O   UNL     1      29.774  34.382  13.823  1.00  0.00    -0.275 OA
ENDBRANCH  13  22
ENDBRANCH   7   8
BRANCH   7  27
ATOM     27  O   UNL     1      26.613  33.497  15.435  1.00  0.00    -0.388 OA
ATOM     28  H   UNL     1      26.376  32.578  15.770  1.00  0.00     0.211 HD
ENDBRANCH   7  27
ENDBRANCH   6   7
BRANCH   6  29
ATOM     29  O   UNL     1      26.964  32.273  17.901  1.00  0.00    -0.388 OA
ATOM     30  H   UNL     1      26.048  31.885  17.858  1.00  0.00     0.211 HD
ENDBRANCH   6  29
ENDBRANCH   5   6
ENDBRANCH   1   5
BRANCH   2  31
ATOM     31  O   UNL     1      22.827  31.885  16.232  1.00  0.00    -0.443 OA
BRANCH  31  32
ATOM     32  C   UNL     1      23.147  30.738  15.501  1.00  0.00     0.294 C 
BRANCH  32  33
ATOM     33  C   UNL     1      24.508  30.275  15.847  1.00  0.00     0.120 A 
ATOM     34  C   UNL     1      24.883  29.214  16.644  1.00  0.00     0.138 A 
ATOM     35  N   UNL     1      25.641  30.843  15.405  1.00  0.00    -0.132 NA
ATOM     36  N   UNL     1      26.214  29.180  16.656  1.00  0.00    -0.243 N 
ATOM     37  N   UNL     1      26.641  30.175  15.900  1.00  0.00    -0.067 NA
BRANCH  36  38
ATOM     38  C   UNL     1      27.014  28.188  17.383  1.00  0.00     0.246 C 
BRANCH  38  39
ATOM     39  C   UNL     1      27.594  28.810  18.610  1.00  0.00     0.248 C 
ATOM     40  O   UNL     1      27.242  28.531  19.768  1.00  0.00    -0.272 OA
ATOM     41  N   UNL     1      28.623  29.791  18.438  1.00  0.00    -0.293 N 
ATOM     42  H   UNL     1      28.939  30.047  17.475  1.00  0.00     0.173 HD
BRANCH  41  43
ATOM     43  C   UNL     1      29.238  30.431  19.539  1.00  0.00     0.229 A 
ATOM     44  N   UNL     1      28.726  31.519  20.147  1.00  0.00    -0.221 NA
ATOM     45  N   UNL     1      30.397  29.955  20.035  1.00  0.00    -0.221 NA
ATOM     46  C   UNL     1      29.334  32.107  21.196  1.00  0.00     0.117 A 
ATOM     47  C   UNL     1      31.045  30.489  21.067  1.00  0.00     0.117 A 
ATOM     48  C   UNL     1      30.521  31.604  21.689  1.00  0.00     0.040 A 
ENDBRANCH  41  43
ENDBRANCH  38  39
ENDBRANCH  36  38
ENDBRANCH  32  33
ENDBRANCH  31  32
ENDBRANCH   2  31
TORSDOF 17
BEGIN_RES LYS A 131
REMARK  4 active torsions:
REMARK  status: ('A' for Active; 'I' for Inactive)
REMARK    1  A    between atoms: CA   and  CB  
REMARK    2  A    between atoms: CB   and  CG  
REMARK    3  A    between atoms: CG   and  CD  
REMARK    4  A    between atoms: CD   and  CE  
ROOT
ATOM      1  CA  LYS A 131      29.867  25.555  16.977  1.00 20.52     0.186 C 
ENDROOT
BRANCH   1   2
ATOM      2  CB  LYS A 131      28.345  25.722  17.026  1.00 20.94     0.034 C 
BRANCH   2   3
ATOM      3  CG  LYS A 131      27.601  24.403  16.888  1.00 22.96     0.005 C 
BRANCH   3   4
ATOM      4  CD  LYS A 131      26.663  24.158  18.038  1.00 24.33     0.041 C 
BRANCH   4   5
ATOM      5  CE  LYS A 131      25.650  23.087  17.649  1.00 26.91     0.338 C 
ATOM      6  NZ  LYS A 131      24.920  22.605  18.845  1.00 27.40     0.618 N 
ENDBRANCH   4   5
ENDBRANCH   3   4
ENDBRANCH   2   3
ENDBRANCH   1   2
END_RES LYS A 131
BEGIN_RES LYS A 135
REMARK  4 active torsions:
REMARK  status: ('A' for Active; 'I' for Inactive)
REMARK    5  A    between atoms: CA   and  CB  
REMARK    6  A    between atoms: CB   and  CG  
REMARK    7  A    between atoms: CG   and  CD  
REMARK    8  A    between atoms: CD   and  CE  
ROOT
ATOM      7  CA  LYS A 135      33.193  34.663   9.290  1.00 25.02     0.186 C 
ENDROOT
BRANCH   7   8
ATOM      8  CB  LYS A 135      32.060  35.360  10.034  1.00 26.63     0.034 C 
BRANCH   8   9
ATOM      9  CG  LYS A 135      30.776  34.572  10.051  1.00 29.45     0.005 C 
BRANCH   9  10
ATOM     10  CD  LYS A 135      30.388  34.147   8.643  1.00 32.00     0.041 C 
BRANCH  10  11
ATOM     11  CE  LYS A 135      29.558  35.224   7.972  1.00 34.25     0.338 C 
ATOM     12  NZ  LYS A 135      28.113  34.864   7.968  1.00 35.99     0.618 N 
ENDBRANCH  10  11
ENDBRANCH   9  10
ENDBRANCH   8   9
ENDBRANCH   7   8
END_RES LYS A 135
