REMARK VINA RESULT:    -3.893      2.190      3.147
REMARK INTER + INTRA:         -14.391
REMARK INTER:                  -7.931
REMARK INTRA:                  -6.460
REMARK UNBOUND:                -7.426
REMARK SMILES CC(=O)N[C@@H]1[C@@H](O)C[C@](O)(C(=O)O)O[C@H]1C(O)[C@H](O)CNC(=O)OCc1cn(Cc2ccccc2Br)nn1
REMARK SMILES IDX 21 1 22 2 23 3 20 5 18 6 16 7 15 8 9 9 8 10 14 11 6 12 5 13
REMARK SMILES IDX 10 14 11 16 12 17 13 18 7 20 4 22 2 23 1 25 3 26 17 27 19 29
REMARK SMILES IDX 24 31 25 32 26 33 27 34 38 35 28 36 37 37 29 38 30 39 31 40
REMARK SMILES IDX 35 41 32 42 34 43 36 44 33 45
REMARK H PARENT 21 4 10 15 13 19 7 21 4 24 17 28 19 30
REMARK Flexibility Score: inf
ROOT
ATOM      1  N   UNL     1      29.623  27.071  20.365  1.00  0.00    -0.319 N 
ATOM      2  C   UNL     1      28.267  27.219  20.678  1.00  0.00     0.407 C 
ATOM      3  O   UNL     1      27.922  27.309  21.889  1.00  0.00    -0.225 OA
ATOM      4  H   UNL     1      29.871  26.999  19.339  1.00  0.00     0.167 HD
ENDROOT
BRANCH   1   5
ATOM      5  C   UNL     1      30.695  27.007  21.334  1.00  0.00     0.154 C 
BRANCH   5   6
ATOM      6  C   UNL     1      31.877  27.807  20.829  1.00  0.00     0.165 C 
BRANCH   6   7
ATOM      7  C   UNL     1      31.532  29.274  20.697  1.00  0.00     0.176 C 
BRANCH   7   8
ATOM      8  C   UNL     1      30.803  29.801  21.917  1.00  0.00     0.178 C 
ATOM      9  C   UNL     1      29.056  31.248  22.458  1.00  0.00     0.269 C 
ATOM     10  C   UNL     1      29.900  32.017  23.402  1.00  0.00     0.112 C 
ATOM     11  O   UNL     1      29.845  30.664  21.479  1.00  0.00    -0.332 OA
ATOM     12  C   UNL     1      31.355  31.750  23.397  1.00  0.00     0.145 C 
ATOM     13  C   UNL     1      31.761  30.387  22.916  1.00  0.00     0.142 C 
BRANCH   9  14
ATOM     14  O   UNL     1      28.220  32.156  21.757  1.00  0.00    -0.357 OA
ATOM     15  H   UNL     1      27.863  32.855  22.366  1.00  0.00     0.214 HD
ENDBRANCH   9  14
BRANCH   9  16
ATOM     16  C   UNL     1      28.186  30.297  23.153  1.00  0.00     0.364 C 
ATOM     17  O   UNL     1      26.937  30.251  22.984  1.00  0.00    -0.246 OA
BRANCH  16  18
ATOM     18  O   UNL     1      28.744  29.396  24.049  1.00  0.00    -0.477 OA
ATOM     19  H   UNL     1      28.191  28.849  24.697  1.00  0.00     0.296 HD
ENDBRANCH  16  18
ENDBRANCH   9  16
BRANCH  12  20
ATOM     20  O   UNL     1      32.034  32.754  22.683  1.00  0.00    -0.391 OA
ATOM     21  H   UNL     1      32.580  33.233  23.384  1.00  0.00     0.211 HD
ENDBRANCH  12  20
BRANCH  13  22
ATOM     22  N   UNL     1      32.023  29.491  24.020  1.00  0.00    -0.348 N 
ATOM     23  C   UNL     1      33.256  28.808  24.176  1.00  0.00     0.217 C 
ATOM     24  H   UNL     1      31.287  29.333  24.736  1.00  0.00     0.163 HD
ATOM     25  C   UNL     1      33.542  27.881  25.308  1.00  0.00     0.114 C 
ATOM     26  O   UNL     1      34.144  29.020  23.283  1.00  0.00    -0.275 OA
ENDBRANCH  13  22
ENDBRANCH   7   8
BRANCH   7  27
ATOM     27  O   UNL     1      30.814  29.487  19.525  1.00  0.00    -0.388 OA
ATOM     28  H   UNL     1      31.394  29.225  18.744  1.00  0.00     0.211 HD
ENDBRANCH   7  27
ENDBRANCH   6   7
BRANCH   6  29
ATOM     29  O   UNL     1      32.181  27.260  19.560  1.00  0.00    -0.388 OA
ATOM     30  H   UNL     1      31.383  27.095  19.032  1.00  0.00     0.211 HD
ENDBRANCH   6  29
ENDBRANCH   5   6
ENDBRANCH   1   5
BRANCH   2  31
ATOM     31  O   UNL     1      27.246  27.277  19.741  1.00  0.00    -0.443 OA
BRANCH  31  32
ATOM     32  C   UNL     1      27.462  27.907  18.490  1.00  0.00     0.294 C 
BRANCH  32  33
ATOM     33  C   UNL     1      27.414  29.379  18.608  1.00  0.00     0.120 A 
ATOM     34  C   UNL     1      27.921  30.314  17.693  1.00  0.00     0.138 A 
ATOM     35  N   UNL     1      26.897  30.136  19.582  1.00  0.00    -0.132 NA
ATOM     36  N   UNL     1      27.711  31.549  18.114  1.00  0.00    -0.248 N 
ATOM     37  N   UNL     1      27.068  31.409  19.298  1.00  0.00    -0.067 NA
BRANCH  36  38
ATOM     38  C   UNL     1      28.022  32.860  17.596  1.00  0.00     0.182 C 
BRANCH  38  39
ATOM     39  C   UNL     1      29.239  32.957  16.800  1.00  0.00    -0.012 A 
ATOM     40  C   UNL     1      29.199  32.836  15.409  1.00  0.00     0.007 A 
ATOM     41  C   UNL     1      30.459  33.200  17.362  1.00  0.00     0.023 A 
ATOM     42  C   UNL     1      30.346  32.962  14.675  1.00  0.00     0.000 A 
ATOM     43  C   UNL     1      31.617  33.326  16.616  1.00  0.00     0.016 A 
ATOM     44  Br  UNL     1      30.664  33.339  19.276  1.00  0.00    -0.050 Br
ATOM     45  C   UNL     1      31.569  33.207  15.250  1.00  0.00     0.001 A 
ENDBRANCH  38  39
ENDBRANCH  36  38
ENDBRANCH  32  33
ENDBRANCH  31  32
ENDBRANCH   2  31
TORSDOF 16
BEGIN_RES LYS A 131
REMARK  4 active torsions:
REMARK  status: ('A' for Active; 'I' for Inactive)
REMARK    1  A    between atoms: CA   and  CB  
REMARK    2  A    between atoms: CB   and  CG  
REMARK    3  A    between atoms: CG   and  CD  
REMARK    4  A    between atoms: CD   and  CE  
ROOT
ATOM      1  CA  LYS A 131      29.867  25.555  16.977  1.00 20.52     0.186 C 
ENDROOT
BRANCH   1   2
ATOM      2  CB  LYS A 131      28.345  25.722  17.026  1.00 20.94     0.034 C 
BRANCH   2   3
ATOM      3  CG  LYS A 131      27.603  24.395  16.989  1.00 22.96     0.005 C 
BRANCH   3   4
ATOM      4  CD  LYS A 131      26.141  24.554  17.300  1.00 24.33     0.041 C 
BRANCH   4   5
ATOM      5  CE  LYS A 131      25.893  24.216  18.767  1.00 26.91     0.338 C 
ATOM      6  NZ  LYS A 131      25.259  22.882  18.892  1.00 27.40     0.618 N 
ENDBRANCH   4   5
ENDBRANCH   3   4
ENDBRANCH   2   3
ENDBRANCH   1   2
END_RES LYS A 131
BEGIN_RES LYS A 135
REMARK  4 active torsions:
REMARK  status: ('A' for Active; 'I' for Inactive)
REMARK    5  A    between atoms: CA   and  CB  
REMARK    6  A    between atoms: CB   and  CG  
REMARK    7  A    between atoms: CG   and  CD  
REMARK    8  A    between atoms: CD   and  CE  
ROOT
ATOM      7  CA  LYS A 135      33.193  34.663   9.290  1.00 25.02     0.186 C 
ENDROOT
BRANCH   7   8
ATOM      8  CB  LYS A 135      32.060  35.360  10.034  1.00 26.63     0.034 C 
BRANCH   8   9
ATOM      9  CG  LYS A 135      30.788  35.464   9.233  1.00 29.45     0.005 C 
BRANCH   9  10
ATOM     10  CD  LYS A 135      30.217  34.083   8.949  1.00 32.00     0.041 C 
BRANCH  10  11
ATOM     11  CE  LYS A 135      28.716  34.074   9.160  1.00 34.25     0.338 C 
ATOM     12  NZ  LYS A 135      28.015  34.799   8.064  1.00 35.99     0.618 N 
ENDBRANCH  10  11
ENDBRANCH   9  10
ENDBRANCH   8   9
ENDBRANCH   7   8
END_RES LYS A 135
