REMARK VINA RESULT:    -4.938      2.707      4.973
REMARK INTER + INTRA:         -14.942
REMARK INTER:                  -7.697
REMARK INTRA:                  -7.246
REMARK UNBOUND:                -5.964
REMARK SMILES CC(=O)N[C@@H]1[C@@H](O)C[C@](O)(C(=O)O)O[C@H]1C(O)[C@H](O)CNC(=O)OCc1cn(-c2ccc(S(N)(=O)=O)cc2)nn1
REMARK SMILES IDX 21 1 22 2 23 3 20 5 18 6 16 7 15 8 9 9 8 10 14 11 6 12 5 13
REMARK SMILES IDX 10 14 11 16 12 17 13 18 7 20 4 22 2 23 1 25 3 26 17 27 19 29
REMARK SMILES IDX 24 31 25 32 26 33 27 34 40 35 28 36 39 37 29 38 30 39 38 40
REMARK SMILES IDX 31 41 37 42 32 43 33 44 35 45 36 46 34 47
REMARK H PARENT 21 4 10 15 13 19 7 21 4 24 17 28 19 30 34 48 34 49
REMARK Flexibility Score: inf
ROOT
ATOM      1  N   UNL     1      28.449  30.643  25.361  1.00  0.00    -0.319 N 
ATOM      2  C   UNL     1      29.580  31.327  25.828  1.00  0.00     0.407 C 
ATOM      3  O   UNL     1      30.437  30.749  26.515  1.00  0.00    -0.225 OA
ATOM      4  H   UNL     1      27.759  31.191  24.778  1.00  0.00     0.167 HD
ENDROOT
BRANCH   1   5
ATOM      5  C   UNL     1      28.218  29.270  25.643  1.00  0.00     0.154 C 
BRANCH   5   6
ATOM      6  C   UNL     1      28.505  28.357  24.457  1.00  0.00     0.165 C 
BRANCH   6   7
ATOM      7  C   UNL     1      29.254  29.146  23.422  1.00  0.00     0.176 C 
BRANCH   7   8
ATOM      8  C   UNL     1      30.429  28.455  22.845  1.00  0.00     0.178 C 
ATOM      9  C   UNL     1      32.659  28.887  22.328  1.00  0.00     0.269 C 
ATOM     10  C   UNL     1      32.622  27.384  22.195  1.00  0.00     0.112 C 
ATOM     11  O   UNL     1      31.451  29.426  22.672  1.00  0.00    -0.332 OA
ATOM     12  C   UNL     1      31.492  26.894  21.344  1.00  0.00     0.145 C 
ATOM     13  C   UNL     1      30.289  27.785  21.530  1.00  0.00     0.142 C 
BRANCH   9  14
ATOM     14  O   UNL     1      33.195  29.486  21.163  1.00  0.00    -0.357 OA
ATOM     15  H   UNL     1      33.803  28.861  20.695  1.00  0.00     0.214 HD
ENDBRANCH   9  14
BRANCH   9  16
ATOM     16  C   UNL     1      33.627  29.202  23.413  1.00  0.00     0.364 C 
ATOM     17  O   UNL     1      33.666  28.437  24.410  1.00  0.00    -0.246 OA
BRANCH  16  18
ATOM     18  O   UNL     1      34.486  30.285  23.395  1.00  0.00    -0.477 OA
ATOM     19  H   UNL     1      34.441  30.975  22.650  1.00  0.00     0.296 HD
ENDBRANCH  16  18
ENDBRANCH   9  16
BRANCH  12  20
ATOM     20  O   UNL     1      31.928  26.841  20.026  1.00  0.00    -0.391 OA
ATOM     21  H   UNL     1      31.656  27.696  19.606  1.00  0.00     0.211 HD
ENDBRANCH  12  20
BRANCH  13  22
ATOM     22  N   UNL     1      29.060  27.159  21.221  1.00  0.00    -0.348 N 
ATOM     23  C   UNL     1      28.157  27.681  20.268  1.00  0.00     0.217 C 
ATOM     24  H   UNL     1      28.794  26.268  21.685  1.00  0.00     0.163 HD
ATOM     25  C   UNL     1      26.852  27.003  19.952  1.00  0.00     0.114 C 
ATOM     26  O   UNL     1      28.471  28.735  19.686  1.00  0.00    -0.275 OA
ENDBRANCH  13  22
ENDBRANCH   7   8
BRANCH   7  27
ATOM     27  O   UNL     1      28.488  29.907  22.580  1.00  0.00    -0.388 OA
ATOM     28  H   UNL     1      28.631  30.858  22.783  1.00  0.00     0.211 HD
ENDBRANCH   7  27
ENDBRANCH   6   7
BRANCH   6  29
ATOM     29  O   UNL     1      27.331  27.790  24.039  1.00  0.00    -0.388 OA
ATOM     30  H   UNL     1      27.349  26.805  24.189  1.00  0.00     0.211 HD
ENDBRANCH   6  29
ENDBRANCH   5   6
ENDBRANCH   1   5
BRANCH   2  31
ATOM     31  O   UNL     1      29.805  32.685  25.551  1.00  0.00    -0.443 OA
BRANCH  31  32
ATOM     32  C   UNL     1      31.088  33.163  25.295  1.00  0.00     0.294 C 
BRANCH  32  33
ATOM     33  C   UNL     1      31.502  32.934  23.894  1.00  0.00     0.121 A 
ATOM     34  C   UNL     1      30.752  32.899  22.743  1.00  0.00     0.144 A 
ATOM     35  N   UNL     1      32.781  32.707  23.499  1.00  0.00    -0.131 NA
ATOM     36  N   UNL     1      31.556  32.660  21.691  1.00  0.00    -0.220 N 
ATOM     37  N   UNL     1      32.773  32.549  22.187  1.00  0.00    -0.062 NA
BRANCH  36  38
ATOM     38  C   UNL     1      31.212  32.541  20.315  1.00  0.00     0.066 A 
ATOM     39  C   UNL     1      30.657  31.389  19.802  1.00  0.00     0.030 A 
ATOM     40  C   UNL     1      31.423  33.584  19.431  1.00  0.00     0.030 A 
ATOM     41  C   UNL     1      30.319  31.258  18.474  1.00  0.00     0.024 A 
ATOM     42  C   UNL     1      31.086  33.457  18.100  1.00  0.00     0.024 A 
ATOM     43  C   UNL     1      30.531  32.309  17.575  1.00  0.00     0.082 A 
BRANCH  43  44
ATOM     44  S   UNL     1      30.101  32.138  15.888  1.00  0.00     0.238 S 
ATOM     45  O   UNL     1      29.335  30.853  15.753  1.00  0.00    -0.207 OA
ATOM     46  O   UNL     1      29.147  33.252  15.520  1.00  0.00    -0.207 OA
BRANCH  44  47
ATOM     47  N   UNL     1      31.465  32.136  14.852  1.00  0.00    -0.225 NA
ATOM     48  H   UNL     1      31.673  31.235  14.408  1.00  0.00     0.137 HD
ATOM     49  H   UNL     1      31.444  32.924  14.168  1.00  0.00     0.137 HD
ENDBRANCH  44  47
ENDBRANCH  43  44
ENDBRANCH  36  38
ENDBRANCH  32  33
ENDBRANCH  31  32
ENDBRANCH   2  31
TORSDOF 17
BEGIN_RES LYS A 131
REMARK  4 active torsions:
REMARK  status: ('A' for Active; 'I' for Inactive)
REMARK    1  A    between atoms: CA   and  CB  
REMARK    2  A    between atoms: CB   and  CG  
REMARK    3  A    between atoms: CG   and  CD  
REMARK    4  A    between atoms: CD   and  CE  
ROOT
ATOM      1  CA  LYS A 131      29.867  25.555  16.977  1.00 20.52     0.186 C 
ENDROOT
BRANCH   1   2
ATOM      2  CB  LYS A 131      28.345  25.722  17.026  1.00 20.94     0.034 C 
BRANCH   2   3
ATOM      3  CG  LYS A 131      27.599  24.432  16.723  1.00 22.96     0.005 C 
BRANCH   3   4
ATOM      4  CD  LYS A 131      26.922  23.869  17.942  1.00 24.33     0.041 C 
BRANCH   4   5
ATOM      5  CE  LYS A 131      25.572  23.278  17.547  1.00 26.91     0.338 C 
ATOM      6  NZ  LYS A 131      24.720  24.310  16.912  1.00 27.40     0.618 N 
ENDBRANCH   4   5
ENDBRANCH   3   4
ENDBRANCH   2   3
ENDBRANCH   1   2
END_RES LYS A 131
BEGIN_RES LYS A 135
REMARK  4 active torsions:
REMARK  status: ('A' for Active; 'I' for Inactive)
REMARK    5  A    between atoms: CA   and  CB  
REMARK    6  A    between atoms: CB   and  CG  
REMARK    7  A    between atoms: CG   and  CD  
REMARK    8  A    between atoms: CD   and  CE  
ROOT
ATOM      7  CA  LYS A 135      33.193  34.663   9.290  1.00 25.02     0.186 C 
ENDROOT
BRANCH   7   8
ATOM      8  CB  LYS A 135      32.060  35.360  10.034  1.00 26.63     0.034 C 
BRANCH   8   9
ATOM      9  CG  LYS A 135      30.710  34.734   9.798  1.00 29.45     0.005 C 
BRANCH   9  10
ATOM     10  CD  LYS A 135      30.468  34.524   8.312  1.00 32.00     0.041 C 
BRANCH  10  11
ATOM     11  CE  LYS A 135      29.024  34.825   7.959  1.00 34.25     0.338 C 
ATOM     12  NZ  LYS A 135      28.927  35.537   6.655  1.00 35.99     0.618 N 
ENDBRANCH  10  11
ENDBRANCH   9  10
ENDBRANCH   8   9
ENDBRANCH   7   8
END_RES LYS A 135
