REMARK VINA RESULT:    -4.857      5.998      9.835
REMARK INTER + INTRA:         -13.433
REMARK INTER:                  -8.351
REMARK INTRA:                  -5.082
REMARK UNBOUND:                -5.026
REMARK SMILES CC(=O)N[C@@H]1[C@@H](O)C[C@](O)(C(=O)O)O[C@H]1C(O)[C@H](O)CNC(=O)OCc1cn(C2CCCC2)nn1
REMARK SMILES IDX 20 1 18 2 16 3 15 4 9 5 8 6 14 7 6 8 5 9 10 10 11 12 12 13
REMARK SMILES IDX 13 14 7 16 4 18 2 19 1 21 3 22 17 23 19 25 21 27 22 28 23 30
REMARK SMILES IDX 24 31 25 32 26 33 27 34 35 35 28 36 34 37 29 38 30 39 33 40
REMARK SMILES IDX 31 41 32 42
REMARK H PARENT 10 11 13 15 7 17 4 20 17 24 19 26 21 29
REMARK Flexibility Score: inf
ROOT
ATOM      1  C   UNL     1      28.256  35.626   6.027  1.00  0.00     0.154 C 
ENDROOT
BRANCH   1   2
ATOM      2  C   UNL     1      27.649  36.959   5.687  1.00  0.00     0.165 C 
BRANCH   2   3
ATOM      3  C   UNL     1      28.789  37.958   5.682  1.00  0.00     0.176 C 
BRANCH   3   4
ATOM      4  C   UNL     1      28.312  39.373   5.771  1.00  0.00     0.178 C 
ATOM      5  C   UNL     1      26.395  40.646   5.494  1.00  0.00     0.269 C 
ATOM      6  C   UNL     1      27.383  41.742   5.861  1.00  0.00     0.112 C 
ATOM      7  O   UNL     1      27.121  39.519   5.101  1.00  0.00    -0.332 OA
ATOM      8  C   UNL     1      28.546  41.629   4.896  1.00  0.00     0.145 C 
ATOM      9  C   UNL     1      29.322  40.383   5.302  1.00  0.00     0.142 C 
BRANCH   5  10
ATOM     10  O   UNL     1      25.632  41.136   4.440  1.00  0.00    -0.357 OA
ATOM     11  H   UNL     1      25.798  42.128   4.398  1.00  0.00     0.214 HD
ENDBRANCH   5  10
BRANCH   5  12
ATOM     12  C   UNL     1      25.504  40.308   6.610  1.00  0.00     0.364 C 
ATOM     13  O   UNL     1      25.482  40.993   7.663  1.00  0.00    -0.246 OA
BRANCH  12  14
ATOM     14  O   UNL     1      24.656  39.216   6.534  1.00  0.00    -0.477 OA
ATOM     15  H   UNL     1      24.965  38.263   6.767  1.00  0.00     0.296 HD
ENDBRANCH  12  14
ENDBRANCH   5  12
BRANCH   8  16
ATOM     16  O   UNL     1      27.995  41.441   3.617  1.00  0.00    -0.391 OA
ATOM     17  H   UNL     1      27.976  42.332   3.178  1.00  0.00     0.211 HD
ENDBRANCH   8  16
BRANCH   9  18
ATOM     18  N   UNL     1      30.264  40.741   6.343  1.00  0.00    -0.348 N 
ATOM     19  C   UNL     1      31.627  40.387   6.242  1.00  0.00     0.217 C 
ATOM     20  H   UNL     1      29.942  41.265   7.176  1.00  0.00     0.163 HD
ATOM     21  C   UNL     1      32.644  40.722   7.270  1.00  0.00     0.114 C 
ATOM     22  O   UNL     1      32.000  39.754   5.228  1.00  0.00    -0.275 OA
ENDBRANCH   9  18
ENDBRANCH   3   4
BRANCH   3  23
ATOM     23  O   UNL     1      29.554  37.691   6.819  1.00  0.00    -0.388 OA
ATOM     24  H   UNL     1      29.669  36.738   7.001  1.00  0.00     0.211 HD
ENDBRANCH   3  23
ENDBRANCH   2   3
BRANCH   2  25
ATOM     25  O   UNL     1      26.696  37.342   6.601  1.00  0.00    -0.388 OA
ATOM     26  H   UNL     1      25.954  37.805   6.127  1.00  0.00     0.211 HD
ENDBRANCH   2  25
ENDBRANCH   1   2
BRANCH   1  27
ATOM     27  N   UNL     1      27.869  35.067   7.283  1.00  0.00    -0.319 N 
ATOM     28  C   UNL     1      28.722  34.760   8.349  1.00  0.00     0.407 C 
ATOM     29  H   UNL     1      26.826  34.868   7.409  1.00  0.00     0.167 HD
ATOM     30  O   UNL     1      29.953  34.967   8.251  1.00  0.00    -0.225 OA
BRANCH  28  31
ATOM     31  O   UNL     1      28.205  34.219   9.541  1.00  0.00    -0.443 OA
BRANCH  31  32
ATOM     32  C   UNL     1      27.699  35.128  10.500  1.00  0.00     0.294 C 
BRANCH  32  33
ATOM     33  C   UNL     1      26.523  35.812   9.918  1.00  0.00     0.120 A 
ATOM     34  C   UNL     1      25.287  35.204   9.746  1.00  0.00     0.138 A 
ATOM     35  N   UNL     1      26.386  37.051   9.462  1.00  0.00    -0.132 NA
ATOM     36  N   UNL     1      24.467  36.101   9.199  1.00  0.00    -0.249 N 
ATOM     37  N   UNL     1      25.147  37.219   9.031  1.00  0.00    -0.067 NA
BRANCH  36  38
ATOM     38  C   UNL     1      23.073  35.827   8.868  1.00  0.00     0.109 C 
ATOM     39  C   UNL     1      22.340  35.582  10.157  1.00  0.00     0.027 C 
ATOM     40  C   UNL     1      22.468  37.063   8.240  1.00  0.00     0.027 C 
ATOM     41  C   UNL     1      21.212  36.562  10.204  1.00  0.00     0.002 C 
ATOM     42  C   UNL     1      21.699  37.718   9.374  1.00  0.00     0.002 C 
ENDBRANCH  36  38
ENDBRANCH  32  33
ENDBRANCH  31  32
ENDBRANCH  28  31
ENDBRANCH   1  27
TORSDOF 15
BEGIN_RES LYS A 131
REMARK  4 active torsions:
REMARK  status: ('A' for Active; 'I' for Inactive)
REMARK    1  A    between atoms: CA   and  CB  
REMARK    2  A    between atoms: CB   and  CG  
REMARK    3  A    between atoms: CG   and  CD  
REMARK    4  A    between atoms: CD   and  CE  
ROOT
ATOM      1  CA  LYS A 131      29.867  25.555  16.977  1.00 20.52     0.186 C 
ENDROOT
BRANCH   1   2
ATOM      2  CB  LYS A 131      28.345  25.722  17.026  1.00 20.94     0.034 C 
BRANCH   2   3
ATOM      3  CG  LYS A 131      27.601  24.404  16.874  1.00 22.96     0.005 C 
BRANCH   3   4
ATOM      4  CD  LYS A 131      26.639  24.163  18.004  1.00 24.33     0.041 C 
BRANCH   4   5
ATOM      5  CE  LYS A 131      25.210  24.184  17.470  1.00 26.91     0.338 C 
ATOM      6  NZ  LYS A 131      24.679  22.806  17.355  1.00 27.40     0.618 N 
ENDBRANCH   4   5
ENDBRANCH   3   4
ENDBRANCH   2   3
ENDBRANCH   1   2
END_RES LYS A 131
BEGIN_RES LYS A 135
REMARK  4 active torsions:
REMARK  status: ('A' for Active; 'I' for Inactive)
REMARK    5  A    between atoms: CA   and  CB  
REMARK    6  A    between atoms: CB   and  CG  
REMARK    7  A    between atoms: CG   and  CD  
REMARK    8  A    between atoms: CD   and  CE  
ROOT
ATOM      7  CA  LYS A 135      33.193  34.663   9.290  1.00 25.02     0.186 C 
ENDROOT
BRANCH   7   8
ATOM      8  CB  LYS A 135      32.060  35.360  10.034  1.00 26.63     0.034 C 
BRANCH   8   9
ATOM      9  CG  LYS A 135      32.517  36.118  11.254  1.00 29.45     0.005 C 
BRANCH   9  10
ATOM     10  CD  LYS A 135      32.022  37.555  11.209  1.00 32.00     0.041 C 
BRANCH  10  11
ATOM     11  CE  LYS A 135      31.101  37.765  10.023  1.00 34.25     0.338 C 
ATOM     12  NZ  LYS A 135      29.736  38.163  10.467  1.00 35.99     0.618 N 
ENDBRANCH  10  11
ENDBRANCH   9  10
ENDBRANCH   8   9
ENDBRANCH   7   8
END_RES LYS A 135
