REMARK VINA RESULT:    -4.148      2.235      3.434
REMARK INTER + INTRA:         -13.429
REMARK INTER:                  -7.785
REMARK INTRA:                  -5.644
REMARK UNBOUND:                -5.644
REMARK SMILES CC(=O)N[C@@H]1[C@@H](O)C[C@](O)(C(=O)O)O[C@H]1C(O)[C@H](O)CNC(=O)OCc1cn(CCC(=O)O)nn1
REMARK SMILES IDX 21 1 22 2 23 3 20 5 18 6 16 7 15 8 9 9 8 10 14 11 6 12 5 13
REMARK SMILES IDX 10 14 11 16 12 17 13 18 7 20 4 22 2 23 1 25 3 26 17 27 19 29
REMARK SMILES IDX 24 31 25 32 26 33 27 34 35 35 28 36 34 37 29 38 30 39 31 40
REMARK SMILES IDX 32 41 33 42
REMARK H PARENT 21 4 10 15 13 19 7 21 4 24 17 28 19 30 33 43
REMARK Flexibility Score: inf
ROOT
ATOM      1  N   UNL     1      32.577  32.736  21.503  1.00  0.00    -0.319 N 
ATOM      2  C   UNL     1      33.041  33.892  20.825  1.00  0.00     0.407 C 
ATOM      3  O   UNL     1      34.198  34.361  21.043  1.00  0.00    -0.225 OA
ATOM      4  H   UNL     1      31.623  32.381  21.296  1.00  0.00     0.167 HD
ENDROOT
BRANCH   1   5
ATOM      5  C   UNL     1      33.392  32.044  22.472  1.00  0.00     0.154 C 
BRANCH   5   6
ATOM      6  C   UNL     1      34.147  30.874  21.905  1.00  0.00     0.165 C 
BRANCH   6   7
ATOM      7  C   UNL     1      33.686  29.564  22.544  1.00  0.00     0.176 C 
BRANCH   7   8
ATOM      8  C   UNL     1      32.592  28.935  21.701  1.00  0.00     0.178 C 
ATOM      9  C   UNL     1      30.536  29.649  20.853  1.00  0.00     0.269 C 
ATOM     10  C   UNL     1      30.118  28.217  20.668  1.00  0.00     0.112 C 
ATOM     11  O   UNL     1      31.898  29.829  20.952  1.00  0.00    -0.332 OA
ATOM     12  C   UNL     1      30.905  27.225  21.448  1.00  0.00     0.145 C 
ATOM     13  C   UNL     1      31.715  28.003  22.496  1.00  0.00     0.142 C 
BRANCH   9  14
ATOM     14  O   UNL     1      29.844  30.172  21.939  1.00  0.00    -0.357 OA
ATOM     15  H   UNL     1      29.577  29.388  22.494  1.00  0.00     0.214 HD
ENDBRANCH   9  14
BRANCH   9  16
ATOM     16  C   UNL     1      30.093  30.378  19.643  1.00  0.00     0.364 C 
ATOM     17  O   UNL     1      30.511  31.513  19.326  1.00  0.00    -0.246 OA
BRANCH  16  18
ATOM     18  O   UNL     1      29.166  29.789  18.803  1.00  0.00    -0.477 OA
ATOM     19  H   UNL     1      28.557  30.312  18.186  1.00  0.00     0.296 HD
ENDBRANCH  16  18
ENDBRANCH   9  16
BRANCH  12  20
ATOM     20  O   UNL     1      30.115  26.258  22.063  1.00  0.00    -0.391 OA
ATOM     21  H   UNL     1      30.503  25.948  22.927  1.00  0.00     0.211 HD
ENDBRANCH  12  20
BRANCH  13  22
ATOM     22  N   UNL     1      32.495  27.091  23.308  1.00  0.00    -0.348 N 
ATOM     23  C   UNL     1      32.240  26.969  24.703  1.00  0.00     0.217 C 
ATOM     24  H   UNL     1      33.262  26.502  22.908  1.00  0.00     0.163 HD
ATOM     25  C   UNL     1      33.023  26.037  25.583  1.00  0.00     0.114 C 
ATOM     26  O   UNL     1      31.321  27.661  25.246  1.00  0.00    -0.275 OA
ENDBRANCH  13  22
ENDBRANCH   7   8
BRANCH   7  27
ATOM     27  O   UNL     1      34.778  28.701  22.590  1.00  0.00    -0.388 OA
ATOM     28  H   UNL     1      34.511  27.745  22.504  1.00  0.00     0.211 HD
ENDBRANCH   7  27
ENDBRANCH   6   7
BRANCH   6  29
ATOM     29  O   UNL     1      35.502  31.092  22.167  1.00  0.00    -0.388 OA
ATOM     30  H   UNL     1      36.038  30.609  21.489  1.00  0.00     0.211 HD
ENDBRANCH   6  29
ENDBRANCH   5   6
ENDBRANCH   1   5
BRANCH   2  31
ATOM     31  O   UNL     1      32.217  34.511  19.913  1.00  0.00    -0.443 OA
BRANCH  31  32
ATOM     32  C   UNL     1      32.669  35.485  18.988  1.00  0.00     0.294 C 
BRANCH  32  33
ATOM     33  C   UNL     1      32.447  35.004  17.582  1.00  0.00     0.120 A 
ATOM     34  C   UNL     1      31.576  34.031  17.170  1.00  0.00     0.138 A 
ATOM     35  N   UNL     1      33.094  35.465  16.493  1.00  0.00    -0.132 NA
ATOM     36  N   UNL     1      31.712  33.919  15.826  1.00  0.00    -0.252 N 
ATOM     37  N   UNL     1      32.633  34.795  15.449  1.00  0.00    -0.067 NA
BRANCH  36  38
ATOM     38  C   UNL     1      30.956  32.994  15.008  1.00  0.00     0.158 C 
BRANCH  38  39
ATOM     39  C   UNL     1      30.848  31.678  15.775  1.00  0.00     0.146 C 
BRANCH  39  40
ATOM     40  C   UNL     1      29.408  31.282  15.740  1.00  0.00     0.305 C 
ATOM     41  O   UNL     1      28.481  32.102  15.713  1.00  0.00    -0.252 OA
BRANCH  40  42
ATOM     42  O   UNL     1      29.139  29.913  15.740  1.00  0.00    -0.481 OA
ATOM     43  H   UNL     1      29.867  29.257  16.020  1.00  0.00     0.296 HD
ENDBRANCH  40  42
ENDBRANCH  39  40
ENDBRANCH  38  39
ENDBRANCH  36  38
ENDBRANCH  32  33
ENDBRANCH  31  32
ENDBRANCH   2  31
TORSDOF 18
BEGIN_RES LYS A 131
REMARK  4 active torsions:
REMARK  status: ('A' for Active; 'I' for Inactive)
REMARK    1  A    between atoms: CA   and  CB  
REMARK    2  A    between atoms: CB   and  CG  
REMARK    3  A    between atoms: CG   and  CD  
REMARK    4  A    between atoms: CD   and  CE  
ROOT
ATOM      1  CA  LYS A 131      29.867  25.555  16.977  1.00 20.52     0.186 C 
ENDROOT
BRANCH   1   2
ATOM      2  CB  LYS A 131      28.345  25.722  17.026  1.00 20.94     0.034 C 
BRANCH   2   3
ATOM      3  CG  LYS A 131      27.603  24.395  16.976  1.00 22.96     0.005 C 
BRANCH   3   4
ATOM      4  CD  LYS A 131      26.188  24.519  17.469  1.00 24.33     0.041 C 
BRANCH   4   5
ATOM      5  CE  LYS A 131      25.550  23.135  17.537  1.00 26.91     0.338 C 
ATOM      6  NZ  LYS A 131      24.431  23.126  18.509  1.00 27.40     0.618 N 
ENDBRANCH   4   5
ENDBRANCH   3   4
ENDBRANCH   2   3
ENDBRANCH   1   2
END_RES LYS A 131
BEGIN_RES LYS A 135
REMARK  4 active torsions:
REMARK  status: ('A' for Active; 'I' for Inactive)
REMARK    5  A    between atoms: CA   and  CB  
REMARK    6  A    between atoms: CB   and  CG  
REMARK    7  A    between atoms: CG   and  CD  
REMARK    8  A    between atoms: CD   and  CE  
ROOT
ATOM      7  CA  LYS A 135      33.193  34.663   9.290  1.00 25.02     0.186 C 
ENDROOT
BRANCH   7   8
ATOM      8  CB  LYS A 135      32.060  35.360  10.034  1.00 26.63     0.034 C 
BRANCH   8   9
ATOM      9  CG  LYS A 135      30.803  35.507   9.216  1.00 29.45     0.005 C 
BRANCH   9  10
ATOM     10  CD  LYS A 135      30.150  34.152   8.988  1.00 32.00     0.041 C 
BRANCH  10  11
ATOM     11  CE  LYS A 135      28.690  34.320   8.614  1.00 34.25     0.338 C 
ATOM     12  NZ  LYS A 135      27.800  33.698   9.634  1.00 35.99     0.618 N 
ENDBRANCH  10  11
ENDBRANCH   9  10
ENDBRANCH   8   9
ENDBRANCH   7   8
END_RES LYS A 135
