REMARK VINA RESULT:    -5.859      0.000      0.000
REMARK INTER + INTRA:         -15.937
REMARK INTER:                  -9.298
REMARK INTRA:                  -6.639
REMARK UNBOUND:                -5.796
REMARK SMILES CC(=O)N[C@@H]1[C@@H](O)C[C@](O)(C(=O)O)O[C@H]1C(O)[C@H](O)CNC(=O)OCc1cn(C2CCCCC2)nn1
REMARK SMILES IDX 20 1 18 2 16 3 15 4 9 5 8 6 14 7 6 8 5 9 10 10 11 12 12 13
REMARK SMILES IDX 13 14 7 16 4 18 2 19 1 21 3 22 17 23 19 25 21 27 22 28 23 30
REMARK SMILES IDX 24 31 25 32 26 33 27 34 36 35 28 36 35 37 29 38 30 39 34 40
REMARK SMILES IDX 31 41 33 42 32 43
REMARK H PARENT 10 11 13 15 7 17 4 20 17 24 19 26 21 29
REMARK Flexibility Score: inf
ROOT
ATOM      1  C   UNL     1      26.141  28.458  21.180  1.00  0.00     0.154 C 
ENDROOT
BRANCH   1   2
ATOM      2  C   UNL     1      27.260  27.535  21.639  1.00  0.00     0.165 C 
BRANCH   2   3
ATOM      3  C   UNL     1      28.502  27.951  20.913  1.00  0.00     0.176 C 
BRANCH   3   4
ATOM      4  C   UNL     1      29.622  28.454  21.799  1.00  0.00     0.178 C 
ATOM      5  C   UNL     1      30.957  29.991  20.618  1.00  0.00     0.269 C 
ATOM      6  C   UNL     1      32.225  29.278  21.057  1.00  0.00     0.112 C 
ATOM      7  O   UNL     1      29.977  29.745  21.520  1.00  0.00    -0.332 OA
ATOM      8  C   UNL     1      31.993  27.798  21.204  1.00  0.00     0.145 C 
ATOM      9  C   UNL     1      30.742  27.495  22.003  1.00  0.00     0.142 C 
BRANCH   5  10
ATOM     10  O   UNL     1      30.649  29.683  19.294  1.00  0.00    -0.357 OA
ATOM     11  H   UNL     1      29.732  30.055  19.098  1.00  0.00     0.214 HD
ENDBRANCH   5  10
BRANCH   5  12
ATOM     12  C   UNL     1      31.281  31.443  20.687  1.00  0.00     0.364 C 
ATOM     13  O   UNL     1      32.086  31.865  21.547  1.00  0.00    -0.246 OA
BRANCH  12  14
ATOM     14  O   UNL     1      30.699  32.312  19.810  1.00  0.00    -0.477 OA
ATOM     15  H   UNL     1      30.524  33.292  19.999  1.00  0.00     0.296 HD
ENDBRANCH  12  14
ENDBRANCH   5  12
BRANCH   8  16
ATOM     16  O   UNL     1      31.981  27.168  19.967  1.00  0.00    -0.391 OA
ATOM     17  H   UNL     1      31.065  27.170  19.595  1.00  0.00     0.211 HD
ENDBRANCH   8  16
BRANCH   9  18
ATOM     18  N   UNL     1      31.098  27.390  23.420  1.00  0.00    -0.348 N 
ATOM     19  C   UNL     1      30.489  26.379  24.192  1.00  0.00     0.217 C 
ATOM     20  H   UNL     1      31.780  28.036  23.862  1.00  0.00     0.163 HD
ATOM     21  C   UNL     1      30.787  26.191  25.646  1.00  0.00     0.114 C 
ATOM     22  O   UNL     1      29.648  25.559  23.705  1.00  0.00    -0.275 OA
ENDBRANCH   9  18
ENDBRANCH   3   4
BRANCH   3  23
ATOM     23  O   UNL     1      28.881  27.072  19.932  1.00  0.00    -0.388 OA
ATOM     24  H   UNL     1      28.458  26.161  20.029  1.00  0.00     0.211 HD
ENDBRANCH   3  23
ENDBRANCH   2   3
BRANCH   2  25
ATOM     25  O   UNL     1      26.854  26.240  21.425  1.00  0.00    -0.388 OA
ATOM     26  H   UNL     1      27.506  25.629  21.802  1.00  0.00     0.211 HD
ENDBRANCH   2  25
ENDBRANCH   1   2
BRANCH   1  27
ATOM     27  N   UNL     1      26.450  28.909  19.843  1.00  0.00    -0.319 N 
ATOM     28  C   UNL     1      25.621  28.731  18.708  1.00  0.00     0.407 C 
ATOM     29  H   UNL     1      27.363  29.424  19.646  1.00  0.00     0.167 HD
ATOM     30  O   UNL     1      24.525  28.134  18.834  1.00  0.00    -0.225 OA
BRANCH  28  31
ATOM     31  O   UNL     1      25.996  29.201  17.453  1.00  0.00    -0.443 OA
BRANCH  31  32
ATOM     32  C   UNL     1      27.216  28.791  16.891  1.00  0.00     0.294 C 
BRANCH  32  33
ATOM     33  C   UNL     1      28.141  29.955  16.883  1.00  0.00     0.120 A 
ATOM     34  C   UNL     1      28.871  30.424  15.784  1.00  0.00     0.138 A 
ATOM     35  N   UNL     1      28.484  30.794  17.879  1.00  0.00    -0.132 NA
ATOM     36  N   UNL     1      29.600  31.492  16.153  1.00  0.00    -0.249 N 
ATOM     37  N   UNL     1      29.344  31.692  17.434  1.00  0.00    -0.067 NA
BRANCH  36  38
ATOM     38  C   UNL     1      30.494  32.272  15.308  1.00  0.00     0.109 C 
ATOM     39  C   UNL     1      29.689  33.315  14.564  1.00  0.00     0.027 C 
ATOM     40  C   UNL     1      31.516  32.988  16.161  1.00  0.00     0.027 C 
ATOM     41  C   UNL     1      29.879  34.696  15.161  1.00  0.00     0.002 C 
ATOM     42  C   UNL     1      32.247  33.957  15.249  1.00  0.00     0.002 C 
ATOM     43  C   UNL     1      31.313  35.127  15.008  1.00  0.00     0.000 C 
ENDBRANCH  36  38
ENDBRANCH  32  33
ENDBRANCH  31  32
ENDBRANCH  28  31
ENDBRANCH   1  27
TORSDOF 15
BEGIN_RES LYS A 131
REMARK  4 active torsions:
REMARK  status: ('A' for Active; 'I' for Inactive)
REMARK    1  A    between atoms: CA   and  CB  
REMARK    2  A    between atoms: CB   and  CG  
REMARK    3  A    between atoms: CG   and  CD  
REMARK    4  A    between atoms: CD   and  CE  
ROOT
ATOM      1  CA  LYS A 131      29.867  25.555  16.977  1.00 20.52     0.186 C 
ENDROOT
BRANCH   1   2
ATOM      2  CB  LYS A 131      28.345  25.722  17.026  1.00 20.94     0.034 C 
BRANCH   2   3
ATOM      3  CG  LYS A 131      27.599  24.444  16.676  1.00 22.96     0.005 C 
BRANCH   3   4
ATOM      4  CD  LYS A 131      27.012  23.779  17.890  1.00 24.33     0.041 C 
BRANCH   4   5
ATOM      5  CE  LYS A 131      25.914  24.663  18.473  1.00 26.91     0.338 C 
ATOM      6  NZ  LYS A 131      24.868  24.930  17.458  1.00 27.40     0.618 N 
ENDBRANCH   4   5
ENDBRANCH   3   4
ENDBRANCH   2   3
ENDBRANCH   1   2
END_RES LYS A 131
BEGIN_RES LYS A 135
REMARK  4 active torsions:
REMARK  status: ('A' for Active; 'I' for Inactive)
REMARK    5  A    between atoms: CA   and  CB  
REMARK    6  A    between atoms: CB   and  CG  
REMARK    7  A    between atoms: CG   and  CD  
REMARK    8  A    between atoms: CD   and  CE  
ROOT
ATOM      7  CA  LYS A 135      33.193  34.663   9.290  1.00 25.02     0.186 C 
ENDROOT
BRANCH   7   8
ATOM      8  CB  LYS A 135      32.060  35.360  10.034  1.00 26.63     0.034 C 
BRANCH   8   9
ATOM      9  CG  LYS A 135      30.732  34.659   9.903  1.00 29.45     0.005 C 
BRANCH   9  10
ATOM     10  CD  LYS A 135      30.347  34.509   8.440  1.00 32.00     0.041 C 
BRANCH  10  11
ATOM     11  CE  LYS A 135      28.839  34.541   8.280  1.00 34.25     0.338 C 
ATOM     12  NZ  LYS A 135      28.166  33.829   9.402  1.00 35.99     0.618 N 
ENDBRANCH  10  11
ENDBRANCH   9  10
ENDBRANCH   8   9
ENDBRANCH   7   8
END_RES LYS A 135
