REMARK VINA RESULT:    -3.733      4.868      9.742
REMARK INTER + INTRA:         -17.051
REMARK INTER:                  -9.727
REMARK INTRA:                  -7.323
REMARK UNBOUND:                -8.298
REMARK SMILES CC(=O)N[C@@H]1[C@@H](O)C[C@](O)(C(=O)O)O[C@H]1C(O)[C@H](O)CNC(=O)OCc1cn(CCCCCCCCCCC(=O)O)nn1
REMARK SMILES IDX 29 1 28 2 26 3 27 4 43 5 42 6 25 7 24 8 22 9 21 10 23 12
REMARK SMILES IDX 20 13 18 14 16 15 15 16 9 17 8 18 14 19 6 20 5 21 10 22
REMARK SMILES IDX 11 24 12 25 13 26 7 28 4 30 2 31 1 33 3 34 17 35 19 37 30 39
REMARK SMILES IDX 31 40 32 41 33 42 34 43 35 44 36 45 37 46 38 47 39 48 40 49
REMARK SMILES IDX 41 50
REMARK H PARENT 21 11 10 23 13 27 7 29 4 32 17 36 19 38 41 51
REMARK Flexibility Score: inf
ROOT
ATOM      1  C   UNL     1      27.142  32.688  16.623  1.00  0.00     0.146 C 
ENDROOT
BRANCH   1   2
ATOM      2  N   UNL     1      26.483  33.226  15.465  1.00  0.00    -0.252 N 
ATOM      3  C   UNL     1      25.072  33.730  13.862  1.00  0.00     0.120 A 
ATOM      4  C   UNL     1      25.230  32.972  14.990  1.00  0.00     0.138 A 
ATOM      5  N   UNL     1      26.217  34.422  13.676  1.00  0.00    -0.132 NA
ATOM      6  N   UNL     1      27.031  34.100  14.645  1.00  0.00    -0.067 NA
BRANCH   3   7
ATOM      7  C   UNL     1      23.856  33.762  13.022  1.00  0.00     0.294 C 
BRANCH   7   8
ATOM      8  O   UNL     1      24.109  34.427  11.803  1.00  0.00    -0.443 OA
BRANCH   8   9
ATOM      9  C   UNL     1      23.067  34.961  11.057  1.00  0.00     0.407 C 
ATOM     10  N   UNL     1      23.200  35.214   9.666  1.00  0.00    -0.319 N 
ATOM     11  H   UNL     1      24.094  35.003   9.174  1.00  0.00     0.167 HD
ATOM     12  O   UNL     1      21.969  35.223  11.658  1.00  0.00    -0.225 OA
BRANCH  10  13
ATOM     13  C   UNL     1      22.101  35.764   8.936  1.00  0.00     0.154 C 
BRANCH  13  14
ATOM     14  C   UNL     1      22.546  36.655   7.796  1.00  0.00     0.165 C 
BRANCH  14  15
ATOM     15  C   UNL     1      22.860  38.028   8.308  1.00  0.00     0.176 C 
BRANCH  15  16
ATOM     16  C   UNL     1      24.359  38.221   8.385  1.00  0.00     0.178 C 
ATOM     17  C   UNL     1      26.340  37.222   7.716  1.00  0.00     0.269 C 
ATOM     18  C   UNL     1      26.918  38.014   8.868  1.00  0.00     0.112 C 
ATOM     19  O   UNL     1      24.956  37.160   7.759  1.00  0.00    -0.332 OA
ATOM     20  C   UNL     1      26.094  37.732  10.093  1.00  0.00     0.145 C 
ATOM     21  C   UNL     1      24.721  38.372   9.841  1.00  0.00     0.142 C 
BRANCH  17  22
ATOM     22  O   UNL     1      26.810  35.919   7.853  1.00  0.00    -0.357 OA
ATOM     23  H   UNL     1      26.657  35.395   7.034  1.00  0.00     0.214 HD
ENDBRANCH  17  22
BRANCH  17  24
ATOM     24  C   UNL     1      26.861  37.792   6.473  1.00  0.00     0.364 C 
ATOM     25  O   UNL     1      27.157  39.011   6.432  1.00  0.00    -0.246 OA
BRANCH  24  26
ATOM     26  O   UNL     1      27.057  37.065   5.306  1.00  0.00    -0.477 OA
ATOM     27  H   UNL     1      28.017  36.984   4.935  1.00  0.00     0.296 HD
ENDBRANCH  24  26
ENDBRANCH  17  24
BRANCH  20  28
ATOM     28  O   UNL     1      25.996  36.378  10.330  1.00  0.00    -0.391 OA
ATOM     29  H   UNL     1      25.826  36.246  11.296  1.00  0.00     0.211 HD
ENDBRANCH  20  28
BRANCH  21  30
ATOM     30  N   UNL     1      24.870  39.766  10.202  1.00  0.00    -0.348 N 
ATOM     31  C   UNL     1      24.177  40.246  11.339  1.00  0.00     0.217 C 
ATOM     32  H   UNL     1      25.473  40.425   9.649  1.00  0.00     0.163 HD
ATOM     33  C   UNL     1      24.305  41.680  11.745  1.00  0.00     0.114 C 
ATOM     34  O   UNL     1      23.459  39.477  12.005  1.00  0.00    -0.275 OA
ENDBRANCH  21  30
ENDBRANCH  15  16
BRANCH  15  35
ATOM     35  O   UNL     1      22.247  38.171   9.557  1.00  0.00    -0.388 OA
ATOM     36  H   UNL     1      22.839  37.976  10.304  1.00  0.00     0.211 HD
ENDBRANCH  15  35
ENDBRANCH  14  15
BRANCH  14  37
ATOM     37  O   UNL     1      21.553  36.773   6.823  1.00  0.00    -0.388 OA
ATOM     38  H   UNL     1      21.878  36.495   5.946  1.00  0.00     0.211 HD
ENDBRANCH  14  37
ENDBRANCH  13  14
ENDBRANCH  10  13
ENDBRANCH   8   9
ENDBRANCH   7   8
ENDBRANCH   3   7
ENDBRANCH   1   2
BRANCH   1  39
ATOM     39  C   UNL     1      26.850  31.214  16.713  1.00  0.00     0.024 C 
BRANCH  39  40
ATOM     40  C   UNL     1      28.093  30.375  16.800  1.00  0.00     0.002 C 
BRANCH  40  41
ATOM     41  C   UNL     1      29.158  30.820  15.829  1.00  0.00     0.000 C 
BRANCH  41  42
ATOM     42  C   UNL     1      30.454  31.098  16.584  1.00  0.00     0.000 C 
BRANCH  42  43
ATOM     43  C   UNL     1      30.998  32.430  16.140  1.00  0.00     0.000 C 
BRANCH  43  44
ATOM     44  C   UNL     1      30.438  32.841  14.809  1.00  0.00     0.000 C 
BRANCH  44  45
ATOM     45  C   UNL     1      30.954  34.184  14.412  1.00  0.00     0.001 C 
BRANCH  45  46
ATOM     46  C   UNL     1      30.324  34.649  13.102  1.00  0.00     0.012 C 
BRANCH  46  47
ATOM     47  C   UNL     1      30.568  36.111  12.842  1.00  0.00     0.122 C 
BRANCH  47  48
ATOM     48  C   UNL     1      29.283  36.670  12.319  1.00  0.00     0.303 C 
ATOM     49  O   UNL     1      29.151  37.853  11.942  1.00  0.00    -0.252 OA
BRANCH  48  50
ATOM     50  O   UNL     1      28.164  35.839  12.241  1.00  0.00    -0.481 OA
ATOM     51  H   UNL     1      28.003  35.170  12.974  1.00  0.00     0.296 HD
ENDBRANCH  48  50
ENDBRANCH  47  48
ENDBRANCH  46  47
ENDBRANCH  45  46
ENDBRANCH  44  45
ENDBRANCH  43  44
ENDBRANCH  42  43
ENDBRANCH  41  42
ENDBRANCH  40  41
ENDBRANCH  39  40
ENDBRANCH   1  39
TORSDOF 26
BEGIN_RES LYS A 131
REMARK  4 active torsions:
REMARK  status: ('A' for Active; 'I' for Inactive)
REMARK    1  A    between atoms: CA   and  CB  
REMARK    2  A    between atoms: CB   and  CG  
REMARK    3  A    between atoms: CG   and  CD  
REMARK    4  A    between atoms: CD   and  CE  
ROOT
ATOM      1  CA  LYS A 131      29.867  25.555  16.977  1.00 20.52     0.186 C 
ENDROOT
BRANCH   1   2
ATOM      2  CB  LYS A 131      28.345  25.722  17.026  1.00 20.94     0.034 C 
BRANCH   2   3
ATOM      3  CG  LYS A 131      27.602  24.398  16.928  1.00 22.96     0.005 C 
BRANCH   3   4
ATOM      4  CD  LYS A 131      26.160  24.528  17.333  1.00 24.33     0.041 C 
BRANCH   4   5
ATOM      5  CE  LYS A 131      25.828  23.470  18.380  1.00 26.91     0.338 C 
ATOM      6  NZ  LYS A 131      25.496  24.108  19.676  1.00 27.40     0.618 N 
ENDBRANCH   4   5
ENDBRANCH   3   4
ENDBRANCH   2   3
ENDBRANCH   1   2
END_RES LYS A 131
BEGIN_RES LYS A 135
REMARK  4 active torsions:
REMARK  status: ('A' for Active; 'I' for Inactive)
REMARK    5  A    between atoms: CA   and  CB  
REMARK    6  A    between atoms: CB   and  CG  
REMARK    7  A    between atoms: CG   and  CD  
REMARK    8  A    between atoms: CD   and  CE  
ROOT
ATOM      7  CA  LYS A 135      33.193  34.663   9.290  1.00 25.02     0.186 C 
ENDROOT
BRANCH   7   8
ATOM      8  CB  LYS A 135      32.060  35.360  10.034  1.00 26.63     0.034 C 
BRANCH   8   9
ATOM      9  CG  LYS A 135      30.960  35.855   9.130  1.00 29.45     0.005 C 
BRANCH   9  10
ATOM     10  CD  LYS A 135      30.209  34.687   8.510  1.00 32.00     0.041 C 
BRANCH  10  11
ATOM     11  CE  LYS A 135      29.667  33.769   9.588  1.00 34.25     0.338 C 
ATOM     12  NZ  LYS A 135      28.180  33.697   9.534  1.00 35.99     0.618 N 
ENDBRANCH  10  11
ENDBRANCH   9  10
ENDBRANCH   8   9
ENDBRANCH   7   8
END_RES LYS A 135
