REMARK VINA RESULT:    -6.092      4.551     12.160
REMARK INTER + INTRA:         -15.426
REMARK INTER:                 -10.199
REMARK INTRA:                  -5.227
REMARK UNBOUND:                -3.993
REMARK SMILES CC(=O)N[C@@H]1[C@@H](O)C[C@](O)(C(=O)O)O[C@H]1C(O)[C@H](O)CNC(=O)OCc1cn(Cc2ccc(C(=O)O)cc2)nn1
REMARK SMILES IDX 21 1 22 2 23 3 20 5 18 6 16 7 15 8 9 9 8 10 14 11 6 12 5 13
REMARK SMILES IDX 10 14 11 16 12 17 13 18 7 20 4 22 2 23 1 25 3 26 17 27 19 29
REMARK SMILES IDX 24 31 25 32 26 33 27 34 40 35 28 36 39 37 29 38 30 39 31 40
REMARK SMILES IDX 38 41 32 42 37 43 33 44 34 45 35 46 36 47
REMARK H PARENT 21 4 10 15 13 19 7 21 4 24 17 28 19 30 36 48
REMARK Flexibility Score: inf
ROOT
ATOM      1  N   UNL     1      26.154  36.014  11.159  1.00  0.00    -0.319 N 
ATOM      2  C   UNL     1      25.931  35.463  12.432  1.00  0.00     0.407 C 
ATOM      3  O   UNL     1      24.963  34.708  12.619  1.00  0.00    -0.225 OA
ATOM      4  H   UNL     1      27.003  36.654  11.084  1.00  0.00     0.167 HD
ENDROOT
BRANCH   1   5
ATOM      5  C   UNL     1      25.322  35.755  10.014  1.00  0.00     0.154 C 
BRANCH   5   6
ATOM      6  C   UNL     1      25.640  36.746   8.926  1.00  0.00     0.165 C 
BRANCH   6   7
ATOM      7  C   UNL     1      26.594  37.821   9.339  1.00  0.00     0.176 C 
BRANCH   7   8
ATOM      8  C   UNL     1      27.159  38.538   8.100  1.00  0.00     0.178 C 
ATOM      9  C   UNL     1      27.591  38.093   5.872  1.00  0.00     0.269 C 
ATOM     10  C   UNL     1      29.102  38.099   6.048  1.00  0.00     0.112 C 
ATOM     11  O   UNL     1      27.055  37.644   7.056  1.00  0.00    -0.332 OA
ATOM     12  C   UNL     1      29.487  38.966   7.202  1.00  0.00     0.145 C 
ATOM     13  C   UNL     1      28.586  38.829   8.398  1.00  0.00     0.142 C 
BRANCH   9  14
ATOM     14  O   UNL     1      27.364  37.076   4.901  1.00  0.00    -0.357 OA
ATOM     15  H   UNL     1      26.369  37.016   4.752  1.00  0.00     0.214 HD
ENDBRANCH   9  14
BRANCH   9  16
ATOM     16  C   UNL     1      27.089  39.377   5.374  1.00  0.00     0.364 C 
ATOM     17  O   UNL     1      27.833  40.071   4.601  1.00  0.00    -0.246 OA
BRANCH  16  18
ATOM     18  O   UNL     1      25.862  39.945   5.652  1.00  0.00    -0.477 OA
ATOM     19  H   UNL     1      25.694  40.234   6.606  1.00  0.00     0.296 HD
ENDBRANCH  16  18
ENDBRANCH   9  16
BRANCH  12  20
ATOM     20  O   UNL     1      30.776  38.548   7.611  1.00  0.00    -0.391 OA
ATOM     21  H   UNL     1      31.029  39.148   8.354  1.00  0.00     0.211 HD
ENDBRANCH  12  20
BRANCH  13  22
ATOM     22  N   UNL     1      28.770  39.970   9.271  1.00  0.00    -0.348 N 
ATOM     23  C   UNL     1      29.560  39.898  10.445  1.00  0.00     0.217 C 
ATOM     24  H   UNL     1      28.323  40.887   9.056  1.00  0.00     0.163 HD
ATOM     25  C   UNL     1      29.739  41.099  11.339  1.00  0.00     0.114 C 
ATOM     26  O   UNL     1      30.110  38.818  10.731  1.00  0.00    -0.275 OA
ENDBRANCH  13  22
ENDBRANCH   7   8
BRANCH   7  27
ATOM     27  O   UNL     1      26.099  38.714  10.259  1.00  0.00    -0.388 OA
ATOM     28  H   UNL     1      26.742  39.458  10.387  1.00  0.00     0.211 HD
ENDBRANCH   7  27
ENDBRANCH   6   7
BRANCH   6  29
ATOM     29  O   UNL     1      24.485  37.322   8.380  1.00  0.00    -0.388 OA
ATOM     30  H   UNL     1      24.752  37.965   7.663  1.00  0.00     0.211 HD
ENDBRANCH   6  29
ENDBRANCH   5   6
ENDBRANCH   1   5
BRANCH   2  31
ATOM     31  O   UNL     1      26.747  35.717  13.527  1.00  0.00    -0.443 OA
BRANCH  31  32
ATOM     32  C   UNL     1      27.857  36.580  13.497  1.00  0.00     0.294 C 
BRANCH  32  33
ATOM     33  C   UNL     1      29.105  35.792  13.448  1.00  0.00     0.120 A 
ATOM     34  C   UNL     1      29.954  35.553  14.530  1.00  0.00     0.138 A 
ATOM     35  N   UNL     1      29.693  35.158  12.415  1.00  0.00    -0.132 NA
ATOM     36  N   UNL     1      30.986  34.808  14.115  1.00  0.00    -0.248 N 
ATOM     37  N   UNL     1      30.806  34.583  12.836  1.00  0.00    -0.067 NA
BRANCH  36  38
ATOM     38  C   UNL     1      32.113  34.342  14.936  1.00  0.00     0.181 C 
BRANCH  38  39
ATOM     39  C   UNL     1      31.511  33.406  15.939  1.00  0.00    -0.026 A 
ATOM     40  C   UNL     1      31.467  33.770  17.256  1.00  0.00     0.006 A 
ATOM     41  C   UNL     1      31.005  32.184  15.572  1.00  0.00     0.006 A 
ATOM     42  C   UNL     1      30.916  32.917  18.217  1.00  0.00     0.016 A 
ATOM     43  C   UNL     1      30.457  31.335  16.527  1.00  0.00     0.016 A 
ATOM     44  C   UNL     1      30.407  31.692  17.860  1.00  0.00     0.059 A 
BRANCH  44  45
ATOM     45  C   UNL     1      29.828  30.795  18.851  1.00  0.00     0.335 C 
ATOM     46  O   UNL     1      28.714  30.248  18.707  1.00  0.00    -0.246 OA
BRANCH  45  47
ATOM     47  O   UNL     1      30.536  30.524  20.017  1.00  0.00    -0.478 OA
ATOM     48  H   UNL     1      30.065  30.368  20.891  1.00  0.00     0.297 HD
ENDBRANCH  45  47
ENDBRANCH  44  45
ENDBRANCH  38  39
ENDBRANCH  36  38
ENDBRANCH  32  33
ENDBRANCH  31  32
ENDBRANCH   2  31
TORSDOF 18
BEGIN_RES LYS A 131
REMARK  4 active torsions:
REMARK  status: ('A' for Active; 'I' for Inactive)
REMARK    1  A    between atoms: CA   and  CB  
REMARK    2  A    between atoms: CB   and  CG  
REMARK    3  A    between atoms: CG   and  CD  
REMARK    4  A    between atoms: CD   and  CE  
ROOT
ATOM      1  CA  LYS A 131      29.867  25.555  16.977  1.00 20.52     0.186 C 
ENDROOT
BRANCH   1   2
ATOM      2  CB  LYS A 131      28.345  25.722  17.026  1.00 20.94     0.034 C 
BRANCH   2   3
ATOM      3  CG  LYS A 131      27.602  24.399  16.922  1.00 22.96     0.005 C 
BRANCH   3   4
ATOM      4  CD  LYS A 131      26.632  24.203  18.054  1.00 24.33     0.041 C 
BRANCH   4   5
ATOM      5  CE  LYS A 131      25.830  25.484  18.264  1.00 26.91     0.338 C 
ATOM      6  NZ  LYS A 131      24.595  25.464  17.445  1.00 27.40     0.618 N 
ENDBRANCH   4   5
ENDBRANCH   3   4
ENDBRANCH   2   3
ENDBRANCH   1   2
END_RES LYS A 131
BEGIN_RES LYS A 135
REMARK  4 active torsions:
REMARK  status: ('A' for Active; 'I' for Inactive)
REMARK    5  A    between atoms: CA   and  CB  
REMARK    6  A    between atoms: CB   and  CG  
REMARK    7  A    between atoms: CG   and  CD  
REMARK    8  A    between atoms: CD   and  CE  
ROOT
ATOM      7  CA  LYS A 135      33.193  34.663   9.290  1.00 25.02     0.186 C 
ENDROOT
BRANCH   7   8
ATOM      8  CB  LYS A 135      32.060  35.360  10.034  1.00 26.63     0.034 C 
BRANCH   8   9
ATOM      9  CG  LYS A 135      30.886  35.706   9.155  1.00 29.45     0.005 C 
BRANCH   9  10
ATOM     10  CD  LYS A 135      30.328  34.458   8.489  1.00 32.00     0.041 C 
BRANCH  10  11
ATOM     11  CE  LYS A 135      28.812  34.504   8.457  1.00 34.25     0.338 C 
ATOM     12  NZ  LYS A 135      28.228  33.676   9.548  1.00 35.99     0.618 N 
ENDBRANCH  10  11
ENDBRANCH   9  10
ENDBRANCH   8   9
ENDBRANCH   7   8
END_RES LYS A 135
