REMARK VINA RESULT:    -4.844      3.426      7.515
REMARK INTER + INTRA:         -14.301
REMARK INTER:                 -10.561
REMARK INTRA:                  -3.740
REMARK UNBOUND:                -4.785
REMARK SMILES C=CCCCCn1cc(COC(=O)NC[C@@H](O)C(O)[C@@H]2O[C@@](O)(C(=O)O)C[C@H](O)[C@H]2NC(C)=O)nn1
REMARK SMILES IDX 11 1 12 2 14 3 13 5 15 6 16 7 18 8 20 9 22 10 27 11 21 12
REMARK SMILES IDX 28 13 30 14 23 15 24 17 25 18 26 19 29 21 31 23 32 24 33 26
REMARK SMILES IDX 34 27 19 28 17 30 10 32 9 33 8 34 35 35 7 36 36 37 6 38 5 39
REMARK SMILES IDX 4 40 3 41 2 42 1 43
REMARK H PARENT 14 4 23 16 26 20 29 22 31 25 19 29 17 31
REMARK Flexibility Score: inf
ROOT
ATOM      1  O   UNL     1      29.164  34.897  14.460  1.00  0.00    -0.443 OA
ENDROOT
BRANCH   1   2
ATOM      2  C   UNL     1      29.926  34.253  15.416  1.00  0.00     0.407 C 
ATOM      3  N   UNL     1      30.313  32.899  15.141  1.00  0.00    -0.319 N 
ATOM      4  H   UNL     1      30.007  32.469  14.247  1.00  0.00     0.167 HD
ATOM      5  O   UNL     1      30.275  34.828  16.496  1.00  0.00    -0.225 OA
BRANCH   3   6
ATOM      6  C   UNL     1      31.097  32.143  16.057  1.00  0.00     0.154 C 
BRANCH   6   7
ATOM      7  C   UNL     1      30.275  31.447  17.144  1.00  0.00     0.165 C 
BRANCH   7   8
ATOM      8  C   UNL     1      28.904  31.240  16.552  1.00  0.00     0.176 C 
BRANCH   8   9
ATOM      9  C   UNL     1      27.885  30.753  17.530  1.00  0.00     0.178 C 
ATOM     10  C   UNL     1      27.446  28.712  18.542  1.00  0.00     0.269 C 
ATOM     11  C   UNL     1      26.113  29.347  18.878  1.00  0.00     0.112 C 
ATOM     12  O   UNL     1      28.377  29.688  18.236  1.00  0.00    -0.332 OA
ATOM     13  C   UNL     1      25.529  29.880  17.589  1.00  0.00     0.145 C 
ATOM     14  C   UNL     1      26.651  30.366  16.702  1.00  0.00     0.142 C 
BRANCH  10  15
ATOM     15  O   UNL     1      27.311  27.770  17.526  1.00  0.00    -0.357 OA
ATOM     16  H   UNL     1      26.388  27.431  17.498  1.00  0.00     0.214 HD
ENDBRANCH  10  15
BRANCH  10  17
ATOM     17  C   UNL     1      27.892  27.981  19.755  1.00  0.00     0.364 C 
ATOM     18  O   UNL     1      27.672  28.411  20.917  1.00  0.00    -0.246 OA
BRANCH  17  19
ATOM     19  O   UNL     1      28.588  26.763  19.679  1.00  0.00    -0.477 OA
ATOM     20  H   UNL     1      28.793  26.400  18.751  1.00  0.00     0.296 HD
ENDBRANCH  17  19
ENDBRANCH  10  17
BRANCH  13  21
ATOM     21  O   UNL     1      24.887  28.850  16.928  1.00  0.00    -0.391 OA
ATOM     22  H   UNL     1      25.458  28.518  16.192  1.00  0.00     0.211 HD
ENDBRANCH  13  21
BRANCH  14  23
ATOM     23  N   UNL     1      26.259  31.530  15.928  1.00  0.00    -0.348 N 
ATOM     24  C   UNL     1      25.454  31.452  14.757  1.00  0.00     0.217 C 
ATOM     25  H   UNL     1      26.558  32.508  16.202  1.00  0.00     0.163 HD
ATOM     26  C   UNL     1      25.057  32.657  13.968  1.00  0.00     0.114 C 
ATOM     27  O   UNL     1      25.080  30.300  14.402  1.00  0.00    -0.275 OA
ENDBRANCH  14  23
ENDBRANCH   8   9
BRANCH   8  28
ATOM     28  O   UNL     1      29.077  30.361  15.470  1.00  0.00    -0.388 OA
ATOM     29  H   UNL     1      28.858  30.794  14.607  1.00  0.00     0.211 HD
ENDBRANCH   8  28
ENDBRANCH   7   8
BRANCH   7  30
ATOM     30  O   UNL     1      30.275  32.165  18.321  1.00  0.00    -0.388 OA
ATOM     31  H   UNL     1      30.192  31.640  19.134  1.00  0.00     0.211 HD
ENDBRANCH   7  30
ENDBRANCH   6   7
ENDBRANCH   3   6
ENDBRANCH   1   2
BRANCH   1  32
ATOM     32  C   UNL     1      29.131  34.422  13.140  1.00  0.00     0.294 C 
BRANCH  32  33
ATOM     33  C   UNL     1      28.255  35.362  12.365  1.00  0.00     0.120 A 
ATOM     34  C   UNL     1      27.437  34.968  11.318  1.00  0.00     0.138 A 
ATOM     35  N   UNL     1      28.077  36.676  12.492  1.00  0.00    -0.132 NA
ATOM     36  N   UNL     1      26.797  36.047  10.852  1.00  0.00    -0.252 N 
ATOM     37  N   UNL     1      27.204  37.069  11.581  1.00  0.00    -0.067 NA
BRANCH  36  38
ATOM     38  C   UNL     1      25.835  36.156   9.765  1.00  0.00     0.146 C 
BRANCH  38  39
ATOM     39  C   UNL     1      26.556  36.405   8.466  1.00  0.00     0.024 C 
BRANCH  39  40
ATOM     40  C   UNL     1      27.032  35.116   7.844  1.00  0.00     0.006 C 
BRANCH  40  41
ATOM     41  C   UNL     1      28.466  35.195   7.388  1.00  0.00     0.027 C 
BRANCH  41  42
ATOM     42  C   UNL     1      29.358  34.609   8.414  1.00  0.00    -0.035 C 
ATOM     43  C   UNL     1      30.655  34.482   8.242  1.00  0.00     0.004 C 
ENDBRANCH  41  42
ENDBRANCH  40  41
ENDBRANCH  39  40
ENDBRANCH  38  39
ENDBRANCH  36  38
ENDBRANCH  32  33
ENDBRANCH   1  32
TORSDOF 19
BEGIN_RES LYS A 131
REMARK  4 active torsions:
REMARK  status: ('A' for Active; 'I' for Inactive)
REMARK    1  A    between atoms: CA   and  CB  
REMARK    2  A    between atoms: CB   and  CG  
REMARK    3  A    between atoms: CG   and  CD  
REMARK    4  A    between atoms: CD   and  CE  
ROOT
ATOM      1  CA  LYS A 131      29.867  25.555  16.977  1.00 20.52     0.186 C 
ENDROOT
BRANCH   1   2
ATOM      2  CB  LYS A 131      28.345  25.722  17.026  1.00 20.94     0.034 C 
BRANCH   2   3
ATOM      3  CG  LYS A 131      27.601  24.403  16.888  1.00 22.96     0.005 C 
BRANCH   3   4
ATOM      4  CD  LYS A 131      26.514  24.255  17.916  1.00 24.33     0.041 C 
BRANCH   4   5
ATOM      5  CE  LYS A 131      25.162  24.158  17.217  1.00 26.91     0.338 C 
ATOM      6  NZ  LYS A 131      24.422  25.437  17.339  1.00 27.40     0.618 N 
ENDBRANCH   4   5
ENDBRANCH   3   4
ENDBRANCH   2   3
ENDBRANCH   1   2
END_RES LYS A 131
BEGIN_RES LYS A 135
REMARK  4 active torsions:
REMARK  status: ('A' for Active; 'I' for Inactive)
REMARK    5  A    between atoms: CA   and  CB  
REMARK    6  A    between atoms: CB   and  CG  
REMARK    7  A    between atoms: CG   and  CD  
REMARK    8  A    between atoms: CD   and  CE  
ROOT
ATOM      7  CA  LYS A 135      33.193  34.663   9.290  1.00 25.02     0.186 C 
ENDROOT
BRANCH   7   8
ATOM      8  CB  LYS A 135      32.060  35.360  10.034  1.00 26.63     0.034 C 
BRANCH   8   9
ATOM      9  CG  LYS A 135      32.230  35.355  11.531  1.00 29.45     0.005 C 
BRANCH   9  10
ATOM     10  CD  LYS A 135      32.066  36.759  12.094  1.00 32.00     0.041 C 
BRANCH  10  11
ATOM     11  CE  LYS A 135      32.092  36.731  13.611  1.00 34.25     0.338 C 
ATOM     12  NZ  LYS A 135      32.903  35.587  14.112  1.00 35.99     0.618 N 
ENDBRANCH  10  11
ENDBRANCH   9  10
ENDBRANCH   8   9
ENDBRANCH   7   8
END_RES LYS A 135
