REMARK VINA RESULT:    -4.169      2.764      5.400
REMARK INTER + INTRA:         -14.223
REMARK INTER:                  -8.272
REMARK INTRA:                  -5.950
REMARK UNBOUND:                -6.277
REMARK SMILES CC(=O)N[C@@H]1[C@@H](O)C[C@](O)(C(=O)O)O[C@H]1C(O)[C@H](O)CNC(=O)OCc1cn(CCNS(C)(=O)=O)nn1
REMARK SMILES IDX 21 1 22 2 23 3 20 5 18 6 16 7 15 8 9 9 8 10 14 11 6 12 5 13
REMARK SMILES IDX 10 14 11 16 12 17 13 18 7 20 4 22 2 23 1 25 3 26 17 27 19 29
REMARK SMILES IDX 24 31 25 32 26 33 27 34 37 35 28 36 36 37 29 38 30 39 31 40
REMARK SMILES IDX 32 42 34 43 35 44 33 45
REMARK H PARENT 21 4 10 15 13 19 7 21 4 24 17 28 19 30 31 41
REMARK Flexibility Score: inf
ROOT
ATOM      1  N   UNL     1      29.942  30.851  18.021  1.00  0.00    -0.319 N 
ATOM      2  C   UNL     1      29.128  31.417  19.024  1.00  0.00     0.407 C 
ATOM      3  O   UNL     1      28.306  32.322  18.808  1.00  0.00    -0.225 OA
ATOM      4  H   UNL     1      30.603  30.074  18.325  1.00  0.00     0.167 HD
ENDROOT
BRANCH   1   5
ATOM      5  C   UNL     1      29.959  31.222  16.656  1.00  0.00     0.154 C 
BRANCH   5   6
ATOM      6  C   UNL     1      31.015  32.209  16.225  1.00  0.00     0.165 C 
BRANCH   6   7
ATOM      7  C   UNL     1      30.410  33.574  16.339  1.00  0.00     0.176 C 
BRANCH   7   8
ATOM      8  C   UNL     1      30.894  34.618  15.384  1.00  0.00     0.178 C 
ATOM      9  C   UNL     1      30.969  35.032  13.078  1.00  0.00     0.269 C 
ATOM     10  C   UNL     1      32.262  35.760  13.223  1.00  0.00     0.112 C 
ATOM     11  O   UNL     1      30.525  34.336  14.133  1.00  0.00    -0.332 OA
ATOM     12  C   UNL     1      33.111  35.259  14.360  1.00  0.00     0.145 C 
ATOM     13  C   UNL     1      32.313  35.049  15.601  1.00  0.00     0.142 C 
BRANCH   9  14
ATOM     14  O   UNL     1      31.073  34.170  11.980  1.00  0.00    -0.357 OA
ATOM     15  H   UNL     1      31.086  33.245  12.309  1.00  0.00     0.214 HD
ENDBRANCH   9  14
BRANCH   9  16
ATOM     16  C   UNL     1      29.923  36.031  12.714  1.00  0.00     0.364 C 
ATOM     17  O   UNL     1      29.887  37.195  13.154  1.00  0.00    -0.246 OA
BRANCH  16  18
ATOM     18  O   UNL     1      28.896  35.675  11.819  1.00  0.00    -0.477 OA
ATOM     19  H   UNL     1      28.270  36.370  11.434  1.00  0.00     0.296 HD
ENDBRANCH  16  18
ENDBRANCH   9  16
BRANCH  12  20
ATOM     20  O   UNL     1      33.805  34.135  13.932  1.00  0.00    -0.391 OA
ATOM     21  H   UNL     1      33.148  33.394  13.885  1.00  0.00     0.211 HD
ENDBRANCH  12  20
BRANCH  13  22
ATOM     22  N   UNL     1      32.402  36.260  16.396  1.00  0.00    -0.348 N 
ATOM     23  C   UNL     1      32.913  36.295  17.720  1.00  0.00     0.217 C 
ATOM     24  H   UNL     1      32.081  37.201  16.014  1.00  0.00     0.163 HD
ATOM     25  C   UNL     1      32.984  37.575  18.502  1.00  0.00     0.114 C 
ATOM     26  O   UNL     1      33.304  35.204  18.209  1.00  0.00    -0.275 OA
ENDBRANCH  13  22
ENDBRANCH   7   8
BRANCH   7  27
ATOM     27  O   UNL     1      30.677  33.968  17.683  1.00  0.00    -0.388 OA
ATOM     28  H   UNL     1      31.642  34.010  17.848  1.00  0.00     0.211 HD
ENDBRANCH   7  27
ENDBRANCH   6   7
BRANCH   6  29
ATOM     29  O   UNL     1      31.483  31.858  14.988  1.00  0.00    -0.388 OA
ATOM     30  H   UNL     1      31.631  32.619  14.415  1.00  0.00     0.211 HD
ENDBRANCH   6  29
ENDBRANCH   5   6
ENDBRANCH   1   5
BRANCH   2  31
ATOM     31  O   UNL     1      29.231  30.956  20.332  1.00  0.00    -0.443 OA
BRANCH  31  32
ATOM     32  C   UNL     1      29.497  29.619  20.672  1.00  0.00     0.294 C 
BRANCH  32  33
ATOM     33  C   UNL     1      28.344  28.757  20.356  1.00  0.00     0.120 A 
ATOM     34  C   UNL     1      26.999  29.011  20.538  1.00  0.00     0.138 A 
ATOM     35  N   UNL     1      28.413  27.542  19.818  1.00  0.00    -0.132 NA
ATOM     36  N   UNL     1      26.298  27.951  20.111  1.00  0.00    -0.251 N 
ATOM     37  N   UNL     1      27.191  27.070  19.676  1.00  0.00    -0.067 NA
BRANCH  36  38
ATOM     38  C   UNL     1      24.877  27.723  20.085  1.00  0.00     0.162 C 
BRANCH  38  39
ATOM     39  C   UNL     1      24.215  28.365  18.880  1.00  0.00     0.122 C 
BRANCH  39  40
ATOM     40  N   UNL     1      25.029  28.059  17.724  1.00  0.00    -0.214 NA
ATOM     41  H   UNL     1      24.528  27.479  17.036  1.00  0.00     0.141 HD
BRANCH  40  42
ATOM     42  S   UNL     1      25.652  29.474  16.971  1.00  0.00     0.208 S 
ATOM     43  O   UNL     1      27.154  29.364  16.985  1.00  0.00    -0.213 OA
ATOM     44  O   UNL     1      25.115  29.579  15.580  1.00  0.00    -0.213 OA
ATOM     45  C   UNL     1      25.201  30.929  17.889  1.00  0.00     0.176 C 
ENDBRANCH  40  42
ENDBRANCH  39  40
ENDBRANCH  38  39
ENDBRANCH  36  38
ENDBRANCH  32  33
ENDBRANCH  31  32
ENDBRANCH   2  31
TORSDOF 18
BEGIN_RES LYS A 131
REMARK  4 active torsions:
REMARK  status: ('A' for Active; 'I' for Inactive)
REMARK    1  A    between atoms: CA   and  CB  
REMARK    2  A    between atoms: CB   and  CG  
REMARK    3  A    between atoms: CG   and  CD  
REMARK    4  A    between atoms: CD   and  CE  
ROOT
ATOM      1  CA  LYS A 131      29.867  25.555  16.977  1.00 20.52     0.186 C 
ENDROOT
BRANCH   1   2
ATOM      2  CB  LYS A 131      28.345  25.722  17.026  1.00 20.94     0.034 C 
BRANCH   2   3
ATOM      3  CG  LYS A 131      27.602  24.399  16.917  1.00 22.96     0.005 C 
BRANCH   3   4
ATOM      4  CD  LYS A 131      26.159  24.526  17.322  1.00 24.33     0.041 C 
BRANCH   4   5
ATOM      5  CE  LYS A 131      25.887  23.627  18.524  1.00 26.91     0.338 C 
ATOM      6  NZ  LYS A 131      24.629  22.869  18.330  1.00 27.40     0.618 N 
ENDBRANCH   4   5
ENDBRANCH   3   4
ENDBRANCH   2   3
ENDBRANCH   1   2
END_RES LYS A 131
BEGIN_RES LYS A 135
REMARK  4 active torsions:
REMARK  status: ('A' for Active; 'I' for Inactive)
REMARK    5  A    between atoms: CA   and  CB  
REMARK    6  A    between atoms: CB   and  CG  
REMARK    7  A    between atoms: CG   and  CD  
REMARK    8  A    between atoms: CD   and  CE  
ROOT
ATOM      7  CA  LYS A 135      33.193  34.663   9.290  1.00 25.02     0.186 C 
ENDROOT
BRANCH   7   8
ATOM      8  CB  LYS A 135      32.060  35.360  10.034  1.00 26.63     0.034 C 
BRANCH   8   9
ATOM      9  CG  LYS A 135      30.885  35.705   9.156  1.00 29.45     0.005 C 
BRANCH   9  10
ATOM     10  CD  LYS A 135      30.258  34.445   8.579  1.00 32.00     0.041 C 
BRANCH  10  11
ATOM     11  CE  LYS A 135      28.875  34.741   8.030  1.00 34.25     0.338 C 
ATOM     12  NZ  LYS A 135      28.497  36.161   8.268  1.00 35.99     0.618 N 
ENDBRANCH  10  11
ENDBRANCH   9  10
ENDBRANCH   8   9
ENDBRANCH   7   8
END_RES LYS A 135
