REMARK VINA RESULT:    -3.992     11.220     17.532
REMARK INTER + INTRA:         -13.917
REMARK INTER:                  -9.661
REMARK INTRA:                  -4.256
REMARK UNBOUND:                -7.007
REMARK SMILES CC(=O)N[C@@H]1[C@@H](O)C[C@](O)(C(=O)O)O[C@H]1C(O)[C@H](O)CNC(=O)OCc1cn(-c2ccc(Cl)cc2)nn1
REMARK SMILES IDX 20 1 18 2 16 3 15 4 9 5 8 6 14 7 6 8 5 9 10 10 11 12 12 13
REMARK SMILES IDX 13 14 7 16 4 18 2 19 1 21 3 22 17 23 19 25 21 27 22 28 23 30
REMARK SMILES IDX 24 31 25 32 26 33 27 34 37 35 28 36 36 37 29 38 30 39 35 40
REMARK SMILES IDX 31 41 34 42 32 43 33 44
REMARK H PARENT 10 11 13 15 7 17 4 20 17 24 19 26 21 29
REMARK Flexibility Score: inf
ROOT
ATOM      1  C   UNL     1      17.345  33.780   9.076  1.00  0.00     0.154 C 
ENDROOT
BRANCH   1   2
ATOM      2  C   UNL     1      17.196  33.176   7.715  1.00  0.00     0.165 C 
BRANCH   2   3
ATOM      3  C   UNL     1      17.180  31.648   7.878  1.00  0.00     0.176 C 
BRANCH   3   4
ATOM      4  C   UNL     1      17.175  30.953   6.519  1.00  0.00     0.178 C 
ATOM      5  C   UNL     1      15.274  31.458   5.238  1.00  0.00     0.269 C 
ATOM      6  C   UNL     1      15.157  30.096   4.590  1.00  0.00     0.112 C 
ATOM      7  O   UNL     1      16.514  31.801   5.654  1.00  0.00    -0.332 OA
ATOM      8  C   UNL     1      16.225  29.211   5.126  1.00  0.00     0.145 C 
ATOM      9  C   UNL     1      16.528  29.629   6.552  1.00  0.00     0.142 C 
BRANCH   5  10
ATOM     10  O   UNL     1      14.295  31.504   6.227  1.00  0.00    -0.357 OA
ATOM     11  H   UNL     1      14.102  32.464   6.380  1.00  0.00     0.214 HD
ENDBRANCH   5  10
BRANCH   5  12
ATOM     12  C   UNL     1      14.874  32.434   4.191  1.00  0.00     0.364 C 
ATOM     13  O   UNL     1      14.390  31.989   3.126  1.00  0.00    -0.246 OA
BRANCH  12  14
ATOM     14  O   UNL     1      15.020  33.783   4.361  1.00  0.00    -0.477 OA
ATOM     15  H   UNL     1      14.332  34.300   4.916  1.00  0.00     0.296 HD
ENDBRANCH  12  14
ENDBRANCH   5  12
BRANCH   8  16
ATOM     16  O   UNL     1      15.924  27.858   5.031  1.00  0.00    -0.391 OA
ATOM     17  H   UNL     1      15.369  27.570   5.784  1.00  0.00     0.211 HD
ENDBRANCH   8  16
BRANCH   9  18
ATOM     18  N   UNL     1      17.231  28.560   7.172  1.00  0.00    -0.348 N 
ATOM     19  C   UNL     1      16.798  27.929   8.362  1.00  0.00     0.217 C 
ATOM     20  H   UNL     1      18.115  28.253   6.686  1.00  0.00     0.163 HD
ATOM     21  C   UNL     1      17.555  26.820   8.977  1.00  0.00     0.114 C 
ATOM     22  O   UNL     1      15.726  28.391   8.842  1.00  0.00    -0.275 OA
ENDBRANCH   9  18
ENDBRANCH   3   4
BRANCH   3  23
ATOM     23  O   UNL     1      16.051  31.265   8.611  1.00  0.00    -0.388 OA
ATOM     24  H   UNL     1      15.565  30.513   8.169  1.00  0.00     0.211 HD
ENDBRANCH   3  23
ENDBRANCH   2   3
BRANCH   2  25
ATOM     25  O   UNL     1      18.176  33.571   6.834  1.00  0.00    -0.388 OA
ATOM     26  H   UNL     1      17.950  33.548   5.888  1.00  0.00     0.211 HD
ENDBRANCH   2  25
ENDBRANCH   1   2
BRANCH   1  27
ATOM     27  N   UNL     1      18.622  34.327   9.391  1.00  0.00    -0.319 N 
ATOM     28  C   UNL     1      19.083  35.604   8.987  1.00  0.00     0.407 C 
ATOM     29  H   UNL     1      19.295  33.751   9.970  1.00  0.00     0.167 HD
ATOM     30  O   UNL     1      18.378  36.372   8.311  1.00  0.00    -0.225 OA
BRANCH  28  31
ATOM     31  O   UNL     1      20.374  36.036   9.351  1.00  0.00    -0.443 OA
BRANCH  31  32
ATOM     32  C   UNL     1      20.846  35.868  10.685  1.00  0.00     0.294 C 
BRANCH  32  33
ATOM     33  C   UNL     1      22.315  35.681  10.598  1.00  0.00     0.121 A 
ATOM     34  C   UNL     1      23.081  35.852   9.482  1.00  0.00     0.144 A 
ATOM     35  N   UNL     1      23.127  35.320  11.580  1.00  0.00    -0.131 NA
ATOM     36  N   UNL     1      24.356  35.583   9.834  1.00  0.00    -0.220 N 
ATOM     37  N   UNL     1      24.368  35.260  11.114  1.00  0.00    -0.062 NA
BRANCH  36  38
ATOM     38  C   UNL     1      25.452  35.656   8.916  1.00  0.00     0.066 A 
ATOM     39  C   UNL     1      25.619  36.786   8.153  1.00  0.00     0.030 A 
ATOM     40  C   UNL     1      26.298  34.579   8.842  1.00  0.00     0.030 A 
ATOM     41  C   UNL     1      26.690  36.815   7.280  1.00  0.00     0.023 A 
ATOM     42  C   UNL     1      27.359  34.640   7.960  1.00  0.00     0.023 A 
ATOM     43  C   UNL     1      27.568  35.746   7.175  1.00  0.00     0.041 A 
ATOM     44  Cl  UNL     1      28.925  35.761   6.082  1.00  0.00    -0.084 Cl
ENDBRANCH  36  38
ENDBRANCH  32  33
ENDBRANCH  31  32
ENDBRANCH  28  31
ENDBRANCH   1  27
TORSDOF 15
BEGIN_RES LYS A 131
REMARK  4 active torsions:
REMARK  status: ('A' for Active; 'I' for Inactive)
REMARK    1  A    between atoms: CA   and  CB  
REMARK    2  A    between atoms: CB   and  CG  
REMARK    3  A    between atoms: CG   and  CD  
REMARK    4  A    between atoms: CD   and  CE  
ROOT
ATOM      1  CA  LYS A 131      29.867  25.555  16.977  1.00 20.52     0.186 C 
ENDROOT
BRANCH   1   2
ATOM      2  CB  LYS A 131      28.345  25.722  17.026  1.00 20.94     0.034 C 
BRANCH   2   3
ATOM      3  CG  LYS A 131      27.599  24.478  16.569  1.00 22.96     0.005 C 
BRANCH   3   4
ATOM      4  CD  LYS A 131      27.024  23.706  17.724  1.00 24.33     0.041 C 
BRANCH   4   5
ATOM      5  CE  LYS A 131      25.684  24.313  18.126  1.00 26.91     0.338 C 
ATOM      6  NZ  LYS A 131      24.764  24.353  16.965  1.00 27.40     0.618 N 
ENDBRANCH   4   5
ENDBRANCH   3   4
ENDBRANCH   2   3
ENDBRANCH   1   2
END_RES LYS A 131
BEGIN_RES LYS A 135
REMARK  4 active torsions:
REMARK  status: ('A' for Active; 'I' for Inactive)
REMARK    5  A    between atoms: CA   and  CB  
REMARK    6  A    between atoms: CB   and  CG  
REMARK    7  A    between atoms: CG   and  CD  
REMARK    8  A    between atoms: CD   and  CE  
ROOT
ATOM      7  CA  LYS A 135      33.193  34.663   9.290  1.00 25.02     0.186 C 
ENDROOT
BRANCH   7   8
ATOM      8  CB  LYS A 135      32.060  35.360  10.034  1.00 26.63     0.034 C 
BRANCH   8   9
ATOM      9  CG  LYS A 135      30.689  34.908   9.603  1.00 29.45     0.005 C 
BRANCH   9  10
ATOM     10  CD  LYS A 135      29.645  35.296  10.640  1.00 32.00     0.041 C 
BRANCH  10  11
ATOM     11  CE  LYS A 135      30.234  35.235  12.036  1.00 34.25     0.338 C 
ATOM     12  NZ  LYS A 135      29.343  34.482  12.961  1.00 35.99     0.618 N 
ENDBRANCH  10  11
ENDBRANCH   9  10
ENDBRANCH   8   9
ENDBRANCH   7   8
END_RES LYS A 135
