REMARK VINA RESULT:    -4.842      7.115     11.642
REMARK INTER + INTRA:         -14.297
REMARK INTER:                  -9.239
REMARK INTRA:                  -5.058
REMARK UNBOUND:                -5.917
REMARK SMILES CC(=O)N[C@@H]1[C@@H](O)C[C@](O)(C(=O)O)O[C@H]1C(O)[C@H](O)CNC(=O)OCc1cn(-c2c(C)cc(C)cc2C)nn1
REMARK SMILES IDX 20 1 18 2 16 3 15 4 9 5 8 6 14 7 6 8 5 9 10 10 11 12 12 13
REMARK SMILES IDX 13 14 7 16 4 18 2 19 1 21 3 22 17 23 19 25 21 27 22 28 23 30
REMARK SMILES IDX 24 31 25 32 26 33 27 34 39 35 28 36 38 37 29 38 30 39 36 40
REMARK SMILES IDX 31 41 32 42 35 43 37 44 33 45 34 46
REMARK H PARENT 10 11 13 15 7 17 4 20 17 24 19 26 21 29
REMARK Flexibility Score: inf
ROOT
ATOM      1  C   UNL     1      27.557  38.892   8.654  1.00  0.00     0.154 C 
ENDROOT
BRANCH   1   2
ATOM      2  C   UNL     1      26.281  38.132   8.603  1.00  0.00     0.165 C 
BRANCH   2   3
ATOM      3  C   UNL     1      25.952  37.341   9.828  1.00  0.00     0.176 C 
BRANCH   3   4
ATOM      4  C   UNL     1      24.738  36.493   9.752  1.00  0.00     0.178 C 
ATOM      5  C   UNL     1      22.544  36.734   8.979  1.00  0.00     0.269 C 
ATOM      6  C   UNL     1      22.124  35.495   9.717  1.00  0.00     0.112 C 
ATOM      7  O   UNL     1      23.883  36.844   8.749  1.00  0.00    -0.332 OA
ATOM      8  C   UNL     1      23.074  35.081  10.789  1.00  0.00     0.145 C 
ATOM      9  C   UNL     1      24.041  36.249  11.056  1.00  0.00     0.142 C 
BRANCH   5  10
ATOM     10  O   UNL     1      22.072  37.834   9.690  1.00  0.00    -0.357 OA
ATOM     11  H   UNL     1      22.037  37.576  10.656  1.00  0.00     0.214 HD
ENDBRANCH   5  10
BRANCH   5  12
ATOM     12  C   UNL     1      21.857  36.700   7.660  1.00  0.00     0.364 C 
ATOM     13  O   UNL     1      20.656  36.373   7.579  1.00  0.00    -0.246 OA
BRANCH  12  14
ATOM     14  O   UNL     1      22.545  37.031   6.485  1.00  0.00    -0.477 OA
ATOM     15  H   UNL     1      22.769  38.021   6.313  1.00  0.00     0.296 HD
ENDBRANCH  12  14
ENDBRANCH   5  12
BRANCH   8  16
ATOM     16  O   UNL     1      22.474  34.638  11.950  1.00  0.00    -0.391 OA
ATOM     17  H   UNL     1      22.004  33.778  11.731  1.00  0.00     0.211 HD
ENDBRANCH   8  16
BRANCH   9  18
ATOM     18  N   UNL     1      24.939  35.762  12.070  1.00  0.00    -0.348 N 
ATOM     19  C   UNL     1      25.090  36.523  13.261  1.00  0.00     0.217 C 
ATOM     20  H   UNL     1      25.483  34.870  11.963  1.00  0.00     0.163 HD
ATOM     21  C   UNL     1      25.993  36.108  14.366  1.00  0.00     0.114 C 
ATOM     22  O   UNL     1      24.450  37.593  13.417  1.00  0.00    -0.275 OA
ENDBRANCH   9  18
ENDBRANCH   3   4
BRANCH   3  23
ATOM     23  O   UNL     1      27.055  36.550  10.135  1.00  0.00    -0.388 OA
ATOM     24  H   UNL     1      27.639  37.068  10.743  1.00  0.00     0.211 HD
ENDBRANCH   3  23
ENDBRANCH   2   3
BRANCH   2  25
ATOM     25  O   UNL     1      26.186  37.375   7.433  1.00  0.00    -0.388 OA
ATOM     26  H   UNL     1      26.146  37.944   6.625  1.00  0.00     0.211 HD
ENDBRANCH   2  25
ENDBRANCH   1   2
BRANCH   1  27
ATOM     27  N   UNL     1      28.000  39.169  10.006  1.00  0.00    -0.319 N 
ATOM     28  C   UNL     1      29.372  39.296  10.363  1.00  0.00     0.407 C 
ATOM     29  H   UNL     1      27.318  39.294  10.812  1.00  0.00     0.167 HD
ATOM     30  O   UNL     1      30.260  39.168   9.500  1.00  0.00    -0.225 OA
BRANCH  28  31
ATOM     31  O   UNL     1      29.751  39.565  11.681  1.00  0.00    -0.443 OA
BRANCH  31  32
ATOM     32  C   UNL     1      31.142  39.495  12.033  1.00  0.00     0.294 C 
BRANCH  32  33
ATOM     33  C   UNL     1      31.488  38.072  12.277  1.00  0.00     0.121 A 
ATOM     34  C   UNL     1      30.936  37.267  13.260  1.00  0.00     0.144 A 
ATOM     35  N   UNL     1      32.358  37.308  11.631  1.00  0.00    -0.131 NA
ATOM     36  N   UNL     1      31.477  36.049  13.190  1.00  0.00    -0.220 N 
ATOM     37  N   UNL     1      32.348  36.122  12.169  1.00  0.00    -0.062 NA
BRANCH  36  38
ATOM     38  C   UNL     1      31.235  34.892  13.979  1.00  0.00     0.072 A 
ATOM     39  C   UNL     1      30.097  34.142  13.781  1.00  0.00    -0.025 A 
ATOM     40  C   UNL     1      32.119  34.480  14.964  1.00  0.00    -0.025 A 
ATOM     41  C   UNL     1      29.138  34.559  12.735  1.00  0.00     0.047 C 
ATOM     42  C   UNL     1      29.862  33.002  14.562  1.00  0.00     0.009 A 
ATOM     43  C   UNL     1      31.878  33.355  15.728  1.00  0.00     0.009 A 
ATOM     44  C   UNL     1      33.357  35.313  15.166  1.00  0.00     0.047 C 
ATOM     45  C   UNL     1      30.743  32.595  15.540  1.00  0.00    -0.050 A 
ATOM     46  C   UNL     1      30.469  31.376  16.359  1.00  0.00     0.044 C 
ENDBRANCH  36  38
ENDBRANCH  32  33
ENDBRANCH  31  32
ENDBRANCH  28  31
ENDBRANCH   1  27
TORSDOF 15
BEGIN_RES LYS A 131
REMARK  4 active torsions:
REMARK  status: ('A' for Active; 'I' for Inactive)
REMARK    1  A    between atoms: CA   and  CB  
REMARK    2  A    between atoms: CB   and  CG  
REMARK    3  A    between atoms: CG   and  CD  
REMARK    4  A    between atoms: CD   and  CE  
ROOT
ATOM      1  CA  LYS A 131      29.867  25.555  16.977  1.00 20.52     0.186 C 
ENDROOT
BRANCH   1   2
ATOM      2  CB  LYS A 131      28.345  25.722  17.026  1.00 20.94     0.034 C 
BRANCH   2   3
ATOM      3  CG  LYS A 131      27.601  24.403  16.884  1.00 22.96     0.005 C 
BRANCH   3   4
ATOM      4  CD  LYS A 131      26.580  24.209  17.971  1.00 24.33     0.041 C 
BRANCH   4   5
ATOM      5  CE  LYS A 131      25.630  23.081  17.581  1.00 26.91     0.338 C 
ATOM      6  NZ  LYS A 131      24.388  23.630  16.989  1.00 27.40     0.618 N 
ENDBRANCH   4   5
ENDBRANCH   3   4
ENDBRANCH   2   3
ENDBRANCH   1   2
END_RES LYS A 131
BEGIN_RES LYS A 135
REMARK  4 active torsions:
REMARK  status: ('A' for Active; 'I' for Inactive)
REMARK    5  A    between atoms: CA   and  CB  
REMARK    6  A    between atoms: CB   and  CG  
REMARK    7  A    between atoms: CG   and  CD  
REMARK    8  A    between atoms: CD   and  CE  
ROOT
ATOM      7  CA  LYS A 135      33.193  34.663   9.290  1.00 25.02     0.186 C 
ENDROOT
BRANCH   7   8
ATOM      8  CB  LYS A 135      32.060  35.360  10.034  1.00 26.63     0.034 C 
BRANCH   8   9
ATOM      9  CG  LYS A 135      30.788  35.464   9.233  1.00 29.45     0.005 C 
BRANCH   9  10
ATOM     10  CD  LYS A 135      30.195  34.085   8.985  1.00 32.00     0.041 C 
BRANCH  10  11
ATOM     11  CE  LYS A 135      28.722  34.193   8.641  1.00 34.25     0.338 C 
ATOM     12  NZ  LYS A 135      28.511  35.061   7.450  1.00 35.99     0.618 N 
ENDBRANCH  10  11
ENDBRANCH   9  10
ENDBRANCH   8   9
ENDBRANCH   7   8
END_RES LYS A 135
