REMARK VINA RESULT:    -4.505      3.601      7.662
REMARK INTER + INTRA:         -15.522
REMARK INTER:                  -8.666
REMARK INTRA:                  -6.856
REMARK UNBOUND:                -6.934
REMARK SMILES CC(=O)N[C@@H]1[C@@H](O)C[C@](O)(C(=O)O)O[C@H]1C(O)[C@H](O)CNC(=O)OCc1cn(C(C)CC(=O)c2ccccc2)nn1
REMARK SMILES IDX 21 1 22 2 23 3 20 5 18 6 16 7 15 8 9 9 8 10 14 11 6 12 5 13
REMARK SMILES IDX 10 14 11 16 12 17 13 18 7 20 4 22 2 23 1 25 3 26 17 27 19 29
REMARK SMILES IDX 24 31 25 32 26 33 27 34 41 35 28 36 40 37 29 38 30 39 31 40
REMARK SMILES IDX 32 41 33 42 34 43 35 44 39 45 36 46 38 47 37 48
REMARK H PARENT 21 4 10 15 13 19 7 21 4 24 17 28 19 30
REMARK Flexibility Score: inf
ROOT
ATOM      1  N   UNL     1      28.510  30.326  17.992  1.00  0.00    -0.319 N 
ATOM      2  C   UNL     1      27.508  31.010  18.738  1.00  0.00     0.407 C 
ATOM      3  O   UNL     1      27.855  31.929  19.503  1.00  0.00    -0.225 OA
ATOM      4  H   UNL     1      28.133  29.556  17.359  1.00  0.00     0.167 HD
ENDROOT
BRANCH   1   5
ATOM      5  C   UNL     1      29.925  30.622  18.059  1.00  0.00     0.154 C 
BRANCH   5   6
ATOM      6  C   UNL     1      30.428  31.267  16.786  1.00  0.00     0.165 C 
BRANCH   6   7
ATOM      7  C   UNL     1      30.431  32.778  16.882  1.00  0.00     0.176 C 
BRANCH   7   8
ATOM      8  C   UNL     1      29.399  33.425  16.007  1.00  0.00     0.178 C 
ATOM      9  C   UNL     1      30.583  34.423  14.261  1.00  0.00     0.269 C 
ATOM     10  C   UNL     1      30.277  35.812  14.764  1.00  0.00     0.112 C 
ATOM     11  O   UNL     1      29.731  33.446  14.679  1.00  0.00    -0.332 OA
ATOM     12  C   UNL     1      30.003  35.856  16.237  1.00  0.00     0.145 C 
ATOM     13  C   UNL     1      28.977  34.785  16.533  1.00  0.00     0.142 C 
BRANCH   9  14
ATOM     14  O   UNL     1      31.945  34.132  14.497  1.00  0.00    -0.357 OA
ATOM     15  H   UNL     1      32.479  34.173  13.681  1.00  0.00     0.214 HD
ENDBRANCH   9  14
BRANCH   9  16
ATOM     16  C   UNL     1      30.448  34.501  12.760  1.00  0.00     0.364 C 
ATOM     17  O   UNL     1      29.362  34.586  12.173  1.00  0.00    -0.246 OA
BRANCH  16  18
ATOM     18  O   UNL     1      31.666  34.470  12.060  1.00  0.00    -0.477 OA
ATOM     19  H   UNL     1      32.331  35.223  12.146  1.00  0.00     0.296 HD
ENDBRANCH  16  18
ENDBRANCH   9  16
BRANCH  12  20
ATOM     20  O   UNL     1      31.138  35.735  17.004  1.00  0.00    -0.391 OA
ATOM     21  H   UNL     1      31.736  35.053  16.615  1.00  0.00     0.211 HD
ENDBRANCH  12  20
BRANCH  13  22
ATOM     22  N   UNL     1      27.786  35.158  15.752  1.00  0.00    -0.348 N 
ATOM     23  C   UNL     1      26.726  35.851  16.399  1.00  0.00     0.217 C 
ATOM     24  H   UNL     1      27.694  34.933  14.744  1.00  0.00     0.163 HD
ATOM     25  C   UNL     1      25.533  36.222  15.596  1.00  0.00     0.114 C 
ATOM     26  O   UNL     1      26.836  36.124  17.614  1.00  0.00    -0.275 OA
ENDBRANCH  13  22
ENDBRANCH   7   8
BRANCH   7  27
ATOM     27  O   UNL     1      30.229  33.095  18.227  1.00  0.00    -0.388 OA
ATOM     28  H   UNL     1      29.305  32.806  18.492  1.00  0.00     0.211 HD
ENDBRANCH   7  27
ENDBRANCH   6   7
BRANCH   6  29
ATOM     29  O   UNL     1      29.610  30.851  15.715  1.00  0.00    -0.388 OA
ATOM     30  H   UNL     1      29.486  29.869  15.708  1.00  0.00     0.211 HD
ENDBRANCH   6  29
ENDBRANCH   5   6
ENDBRANCH   1   5
BRANCH   2  31
ATOM     31  O   UNL     1      26.170  30.698  18.648  1.00  0.00    -0.443 OA
BRANCH  31  32
ATOM     32  C   UNL     1      25.641  29.447  18.272  1.00  0.00     0.294 C 
BRANCH  32  33
ATOM     33  C   UNL     1      24.955  29.438  16.977  1.00  0.00     0.120 A 
ATOM     34  C   UNL     1      25.286  30.230  15.869  1.00  0.00     0.138 A 
ATOM     35  N   UNL     1      23.895  28.694  16.570  1.00  0.00    -0.132 NA
ATOM     36  N   UNL     1      24.451  29.942  14.890  1.00  0.00    -0.249 N 
ATOM     37  N   UNL     1      23.630  29.029  15.321  1.00  0.00    -0.067 NA
BRANCH  36  38
ATOM     38  C   UNL     1      24.469  30.572  13.532  1.00  0.00     0.114 C 
ATOM     39  C   UNL     1      23.522  29.726  12.721  1.00  0.00     0.034 C 
BRANCH  38  40
ATOM     40  C   UNL     1      24.015  31.946  13.700  1.00  0.00     0.108 C 
BRANCH  40  41
ATOM     41  C   UNL     1      24.873  33.044  13.383  1.00  0.00     0.164 C 
ATOM     42  O   UNL     1      25.866  33.184  14.267  1.00  0.00    -0.294 OA
BRANCH  41  43
ATOM     43  C   UNL     1      24.903  34.020  12.339  1.00  0.00     0.018 A 
ATOM     44  C   UNL     1      23.673  34.535  11.861  1.00  0.00     0.012 A 
ATOM     45  C   UNL     1      26.036  34.531  11.755  1.00  0.00     0.012 A 
ATOM     46  C   UNL     1      23.630  35.486  10.873  1.00  0.00     0.001 A 
ATOM     47  C   UNL     1      25.955  35.493  10.758  1.00  0.00     0.001 A 
ATOM     48  C   UNL     1      24.775  35.983  10.302  1.00  0.00     0.000 A 
ENDBRANCH  41  43
ENDBRANCH  40  41
ENDBRANCH  38  40
ENDBRANCH  36  38
ENDBRANCH  32  33
ENDBRANCH  31  32
ENDBRANCH   2  31
TORSDOF 18
BEGIN_RES LYS A 131
REMARK  4 active torsions:
REMARK  status: ('A' for Active; 'I' for Inactive)
REMARK    1  A    between atoms: CA   and  CB  
REMARK    2  A    between atoms: CB   and  CG  
REMARK    3  A    between atoms: CG   and  CD  
REMARK    4  A    between atoms: CD   and  CE  
ROOT
ATOM      1  CA  LYS A 131      29.867  25.555  16.977  1.00 20.52     0.186 C 
ENDROOT
BRANCH   1   2
ATOM      2  CB  LYS A 131      28.345  25.722  17.026  1.00 20.94     0.034 C 
BRANCH   2   3
ATOM      3  CG  LYS A 131      27.599  24.433  16.718  1.00 22.96     0.005 C 
BRANCH   3   4
ATOM      4  CD  LYS A 131      26.930  23.860  17.937  1.00 24.33     0.041 C 
BRANCH   4   5
ATOM      5  CE  LYS A 131      26.253  24.980  18.720  1.00 26.91     0.338 C 
ATOM      6  NZ  LYS A 131      24.813  25.056  18.377  1.00 27.40     0.618 N 
ENDBRANCH   4   5
ENDBRANCH   3   4
ENDBRANCH   2   3
ENDBRANCH   1   2
END_RES LYS A 131
BEGIN_RES LYS A 135
REMARK  4 active torsions:
REMARK  status: ('A' for Active; 'I' for Inactive)
REMARK    5  A    between atoms: CA   and  CB  
REMARK    6  A    between atoms: CB   and  CG  
REMARK    7  A    between atoms: CG   and  CD  
REMARK    8  A    between atoms: CD   and  CE  
ROOT
ATOM      7  CA  LYS A 135      33.193  34.663   9.290  1.00 25.02     0.186 C 
ENDROOT
BRANCH   7   8
ATOM      8  CB  LYS A 135      32.060  35.360  10.034  1.00 26.63     0.034 C 
BRANCH   8   9
ATOM      9  CG  LYS A 135      30.845  35.615   9.180  1.00 29.45     0.005 C 
BRANCH   9  10
ATOM     10  CD  LYS A 135      30.150  34.308   8.832  1.00 32.00     0.041 C 
BRANCH  10  11
ATOM     11  CE  LYS A 135      28.778  34.575   8.243  1.00 34.25     0.338 C 
ATOM     12  NZ  LYS A 135      28.833  35.658   7.223  1.00 35.99     0.618 N 
ENDBRANCH  10  11
ENDBRANCH   9  10
ENDBRANCH   8   9
ENDBRANCH   7   8
END_RES LYS A 135
