REMARK VINA RESULT:    -3.930      3.956      8.731
REMARK INTER + INTRA:         -14.458
REMARK INTER:                 -10.346
REMARK INTRA:                  -4.112
REMARK UNBOUND:                -7.311
REMARK SMILES CC(=O)N[C@@H]1[C@@H](O)C[C@](O)(C(=O)O)O[C@H]1C(O)[C@H](O)CNC(=O)OCc1cn(-c2ccc(O)c([N+](=O)[O-])c2)nn1
REMARK SMILES IDX 21 1 22 2 23 3 20 5 18 6 16 7 15 8 9 9 8 10 14 11 6 12 5 13
REMARK SMILES IDX 10 14 11 16 12 17 13 18 7 20 4 22 2 23 1 25 3 26 17 27 19 29
REMARK SMILES IDX 24 31 25 32 26 33 27 34 40 35 28 36 39 37 29 38 30 39 38 40
REMARK SMILES IDX 31 41 34 42 32 43 35 44 36 45 37 46 33 47
REMARK H PARENT 21 4 10 15 13 19 7 21 4 24 17 28 19 30 33 48
REMARK Flexibility Score: inf
ROOT
ATOM      1  N   UNL     1      24.969  34.622  13.232  1.00  0.00    -0.319 N 
ATOM      2  C   UNL     1      23.574  34.839  13.075  1.00  0.00     0.407 C 
ATOM      3  O   UNL     1      22.903  35.525  13.916  1.00  0.00    -0.225 OA
ATOM      4  H   UNL     1      25.477  34.068  12.526  1.00  0.00     0.167 HD
ENDROOT
BRANCH   1   5
ATOM      5  C   UNL     1      25.642  35.189  14.364  1.00  0.00     0.154 C 
BRANCH   5   6
ATOM      6  C   UNL     1      26.697  34.355  14.998  1.00  0.00     0.165 C 
BRANCH   6   7
ATOM      7  C   UNL     1      28.097  34.580  14.488  1.00  0.00     0.176 C 
BRANCH   7   8
ATOM      8  C   UNL     1      29.131  33.684  15.094  1.00  0.00     0.178 C 
ATOM      9  C   UNL     1      29.515  32.000  16.607  1.00  0.00     0.269 C 
ATOM     10  C   UNL     1      30.788  31.932  15.795  1.00  0.00     0.112 C 
ATOM     11  O   UNL     1      28.625  32.959  16.160  1.00  0.00    -0.332 OA
ATOM     12  C   UNL     1      31.446  33.271  15.795  1.00  0.00     0.145 C 
ATOM     13  C   UNL     1      30.446  34.333  15.322  1.00  0.00     0.142 C 
BRANCH   9  14
ATOM     14  O   UNL     1      29.883  32.296  17.912  1.00  0.00    -0.357 OA
ATOM     15  H   UNL     1      30.879  32.277  17.943  1.00  0.00     0.214 HD
ENDBRANCH   9  14
BRANCH   9  16
ATOM     16  C   UNL     1      28.907  30.646  16.589  1.00  0.00     0.364 C 
ATOM     17  O   UNL     1      28.277  30.199  17.583  1.00  0.00    -0.246 OA
BRANCH  16  18
ATOM     18  O   UNL     1      29.022  29.844  15.470  1.00  0.00    -0.477 OA
ATOM     19  H   UNL     1      29.736  29.954  14.776  1.00  0.00     0.296 HD
ENDBRANCH  16  18
ENDBRANCH   9  16
BRANCH  12  20
ATOM     20  O   UNL     1      31.868  33.524  17.114  1.00  0.00    -0.391 OA
ATOM     21  H   UNL     1      31.634  32.699  17.638  1.00  0.00     0.211 HD
ENDBRANCH  12  20
BRANCH  13  22
ATOM     22  N   UNL     1      30.918  34.808  14.011  1.00  0.00    -0.348 N 
ATOM     23  C   UNL     1      31.893  35.817  13.871  1.00  0.00     0.217 C 
ATOM     24  H   UNL     1      30.509  34.376  13.150  1.00  0.00     0.163 HD
ATOM     25  C   UNL     1      32.340  36.270  12.531  1.00  0.00     0.114 C 
ATOM     26  O   UNL     1      32.386  36.337  14.880  1.00  0.00    -0.275 OA
ENDBRANCH  13  22
ENDBRANCH   7   8
BRANCH   7  27
ATOM     27  O   UNL     1      28.160  34.435  13.103  1.00  0.00    -0.388 OA
ATOM     28  H   UNL     1      28.240  33.512  12.809  1.00  0.00     0.211 HD
ENDBRANCH   7  27
ENDBRANCH   6   7
BRANCH   6  29
ATOM     29  O   UNL     1      26.327  33.018  14.792  1.00  0.00    -0.388 OA
ATOM     30  H   UNL     1      27.002  32.618  14.173  1.00  0.00     0.211 HD
ENDBRANCH   6  29
ENDBRANCH   5   6
ENDBRANCH   1   5
BRANCH   2  31
ATOM     31  O   UNL     1      22.951  34.285  11.982  1.00  0.00    -0.443 OA
BRANCH  31  32
ATOM     32  C   UNL     1      22.242  35.100  11.100  1.00  0.00     0.294 C 
BRANCH  32  33
ATOM     33  C   UNL     1      23.115  35.887  10.189  1.00  0.00     0.121 A 
ATOM     34  C   UNL     1      24.273  35.477   9.545  1.00  0.00     0.144 A 
ATOM     35  N   UNL     1      22.952  37.167   9.805  1.00  0.00    -0.131 NA
ATOM     36  N   UNL     1      24.771  36.483   8.809  1.00  0.00    -0.220 N 
ATOM     37  N   UNL     1      23.948  37.503   8.983  1.00  0.00    -0.062 NA
BRANCH  36  38
ATOM     38  C   UNL     1      25.937  36.503   7.994  1.00  0.00     0.073 A 
ATOM     39  C   UNL     1      26.700  35.364   7.848  1.00  0.00     0.033 A 
ATOM     40  C   UNL     1      26.358  37.631   7.321  1.00  0.00     0.118 A 
ATOM     41  C   UNL     1      27.839  35.361   7.059  1.00  0.00     0.056 A 
ATOM     42  C   UNL     1      27.489  37.677   6.522  1.00  0.00     0.312 A 
ATOM     43  C   UNL     1      28.229  36.504   6.403  1.00  0.00     0.194 A 
BRANCH  42  44
ATOM     44  N   UNL     1      27.906  38.839   5.841  1.00  0.00     0.066 N 
ATOM     45  O   UNL     1      28.948  39.401   6.180  1.00  0.00    -0.258 OA
ATOM     46  O   UNL     1      27.159  39.333   4.819  1.00  0.00    -0.258 OA
ENDBRANCH  42  44
BRANCH  43  47
ATOM     47  O   UNL     1      29.366  36.553   5.599  1.00  0.00    -0.502 OA
ATOM     48  H   UNL     1      29.703  35.671   5.187  1.00  0.00     0.293 HD
ENDBRANCH  43  47
ENDBRANCH  36  38
ENDBRANCH  32  33
ENDBRANCH  31  32
ENDBRANCH   2  31
TORSDOF 17
BEGIN_RES LYS A 131
REMARK  4 active torsions:
REMARK  status: ('A' for Active; 'I' for Inactive)
REMARK    1  A    between atoms: CA   and  CB  
REMARK    2  A    between atoms: CB   and  CG  
REMARK    3  A    between atoms: CG   and  CD  
REMARK    4  A    between atoms: CD   and  CE  
ROOT
ATOM      1  CA  LYS A 131      29.867  25.555  16.977  1.00 20.52     0.186 C 
ENDROOT
BRANCH   1   2
ATOM      2  CB  LYS A 131      28.345  25.722  17.026  1.00 20.94     0.034 C 
BRANCH   2   3
ATOM      3  CG  LYS A 131      27.602  24.400  16.916  1.00 22.96     0.005 C 
BRANCH   3   4
ATOM      4  CD  LYS A 131      26.169  24.517  17.357  1.00 24.33     0.041 C 
BRANCH   4   5
ATOM      5  CE  LYS A 131      25.882  23.478  18.436  1.00 26.91     0.338 C 
ATOM      6  NZ  LYS A 131      24.478  23.586  18.900  1.00 27.40     0.618 N 
ENDBRANCH   4   5
ENDBRANCH   3   4
ENDBRANCH   2   3
ENDBRANCH   1   2
END_RES LYS A 131
BEGIN_RES LYS A 135
REMARK  4 active torsions:
REMARK  status: ('A' for Active; 'I' for Inactive)
REMARK    5  A    between atoms: CA   and  CB  
REMARK    6  A    between atoms: CB   and  CG  
REMARK    7  A    between atoms: CG   and  CD  
REMARK    8  A    between atoms: CD   and  CE  
ROOT
ATOM      7  CA  LYS A 135      33.193  34.663   9.290  1.00 25.02     0.186 C 
ENDROOT
BRANCH   7   8
ATOM      8  CB  LYS A 135      32.060  35.360  10.034  1.00 26.63     0.034 C 
BRANCH   8   9
ATOM      9  CG  LYS A 135      30.758  35.369   9.276  1.00 29.45     0.005 C 
BRANCH   9  10
ATOM     10  CD  LYS A 135      29.584  35.544  10.228  1.00 32.00     0.041 C 
BRANCH  10  11
ATOM     11  CE  LYS A 135      29.141  36.994  10.266  1.00 34.25     0.338 C 
ATOM     12  NZ  LYS A 135      29.031  37.485  11.668  1.00 35.99     0.618 N 
ENDBRANCH  10  11
ENDBRANCH   9  10
ENDBRANCH   8   9
ENDBRANCH   7   8
END_RES LYS A 135
