REMARK VINA RESULT:    -4.174      6.366     12.777
REMARK INTER + INTRA:         -14.705
REMARK INTER:                  -9.424
REMARK INTRA:                  -5.281
REMARK UNBOUND:                -7.237
REMARK SMILES CC(=O)N[C@@H]1[C@@H](O)C[C@](O)(C(=O)O)O[C@H]1C(O)[C@H](O)CNC(=O)OCc1cn(-c2ccccc2C(C)C)nn1
REMARK SMILES IDX 21 1 22 2 23 3 20 5 18 6 16 7 15 8 9 9 8 10 14 11 6 12 5 13
REMARK SMILES IDX 10 14 11 16 12 17 13 18 7 20 4 22 2 23 1 25 3 26 17 27 19 29
REMARK SMILES IDX 24 31 25 32 26 33 27 34 39 35 28 36 38 37 29 38 34 39 30 40
REMARK SMILES IDX 33 41 31 42 32 43 35 44 36 45 37 46
REMARK H PARENT 21 4 10 15 13 19 7 21 4 24 17 28 19 30
REMARK Flexibility Score: inf
ROOT
ATOM      1  N   UNL     1      27.492  29.844  17.851  1.00  0.00    -0.319 N 
ATOM      2  C   UNL     1      27.045  29.989  16.524  1.00  0.00     0.407 C 
ATOM      3  O   UNL     1      25.902  29.622  16.181  1.00  0.00    -0.225 OA
ATOM      4  H   UNL     1      28.463  30.184  18.085  1.00  0.00     0.167 HD
ENDROOT
BRANCH   1   5
ATOM      5  C   UNL     1      26.685  29.266  18.869  1.00  0.00     0.154 C 
BRANCH   5   6
ATOM      6  C   UNL     1      26.875  27.761  19.050  1.00  0.00     0.165 C 
BRANCH   6   7
ATOM      7  C   UNL     1      26.922  27.596  20.571  1.00  0.00     0.176 C 
BRANCH   7   8
ATOM      8  C   UNL     1      28.054  28.338  21.205  1.00  0.00     0.178 C 
ATOM      9  C   UNL     1      30.176  27.593  21.770  1.00  0.00     0.269 C 
ATOM     10  C   UNL     1      30.224  28.486  22.959  1.00  0.00     0.112 C 
ATOM     11  O   UNL     1      29.251  27.850  20.803  1.00  0.00    -0.332 OA
ATOM     12  C   UNL     1      28.885  28.987  23.456  1.00  0.00     0.145 C 
ATOM     13  C   UNL     1      27.840  28.216  22.706  1.00  0.00     0.142 C 
BRANCH   9  14
ATOM     14  O   UNL     1      30.124  26.240  22.194  1.00  0.00    -0.357 OA
ATOM     15  H   UNL     1      30.708  26.047  22.949  1.00  0.00     0.214 HD
ENDBRANCH   9  14
BRANCH   9  16
ATOM     16  C   UNL     1      31.513  27.735  21.085  1.00  0.00     0.364 C 
ATOM     17  O   UNL     1      32.361  28.497  21.597  1.00  0.00    -0.246 OA
BRANCH  16  18
ATOM     18  O   UNL     1      31.842  27.053  19.921  1.00  0.00    -0.477 OA
ATOM     19  H   UNL     1      32.441  26.231  19.887  1.00  0.00     0.296 HD
ENDBRANCH  16  18
ENDBRANCH   9  16
BRANCH  12  20
ATOM     20  O   UNL     1      28.786  28.670  24.846  1.00  0.00    -0.391 OA
ATOM     21  H   UNL     1      27.977  28.135  25.027  1.00  0.00     0.211 HD
ENDBRANCH  12  20
BRANCH  13  22
ATOM     22  N   UNL     1      26.483  28.415  23.036  1.00  0.00    -0.348 N 
ATOM     23  C   UNL     1      25.728  27.602  23.916  1.00  0.00     0.217 C 
ATOM     24  H   UNL     1      25.956  29.243  22.595  1.00  0.00     0.163 HD
ATOM     25  C   UNL     1      24.316  27.827  24.246  1.00  0.00     0.114 C 
ATOM     26  O   UNL     1      26.375  26.596  24.436  1.00  0.00    -0.275 OA
ENDBRANCH  13  22
ENDBRANCH   7   8
BRANCH   7  27
ATOM     27  O   UNL     1      26.981  26.214  20.778  1.00  0.00    -0.388 OA
ATOM     28  H   UNL     1      26.223  25.977  21.375  1.00  0.00     0.211 HD
ENDBRANCH   7  27
ENDBRANCH   6   7
BRANCH   6  29
ATOM     29  O   UNL     1      28.010  27.271  18.493  1.00  0.00    -0.388 OA
ATOM     30  H   UNL     1      28.672  27.932  18.303  1.00  0.00     0.211 HD
ENDBRANCH   6  29
ENDBRANCH   5   6
ENDBRANCH   1   5
BRANCH   2  31
ATOM     31  O   UNL     1      27.870  30.552  15.549  1.00  0.00    -0.443 OA
BRANCH  31  32
ATOM     32  C   UNL     1      29.256  30.656  15.842  1.00  0.00     0.294 C 
BRANCH  32  33
ATOM     33  C   UNL     1      29.560  32.108  15.809  1.00  0.00     0.121 A 
ATOM     34  C   UNL     1      30.204  32.743  14.739  1.00  0.00     0.144 A 
ATOM     35  N   UNL     1      29.206  33.067  16.678  1.00  0.00    -0.131 NA
ATOM     36  N   UNL     1      30.185  34.056  15.039  1.00  0.00    -0.220 N 
ATOM     37  N   UNL     1      29.601  34.199  16.158  1.00  0.00    -0.062 NA
BRANCH  36  38
ATOM     38  C   UNL     1      30.619  35.069  14.152  1.00  0.00     0.070 A 
ATOM     39  C   UNL     1      31.863  35.565  14.240  1.00  0.00    -0.020 A 
ATOM     40  C   UNL     1      29.679  35.666  13.300  1.00  0.00     0.029 A 
ATOM     41  C   UNL     1      32.206  36.678  13.474  1.00  0.00     0.006 A 
ATOM     42  C   UNL     1      29.992  36.741  12.553  1.00  0.00     0.002 A 
ATOM     43  C   UNL     1      31.270  37.278  12.622  1.00  0.00     0.000 A 
BRANCH  39  44
ATOM     44  C   UNL     1      32.891  34.889  15.006  1.00  0.00     0.015 C 
ATOM     45  C   UNL     1      33.623  35.823  15.958  1.00  0.00     0.012 C 
ATOM     46  C   UNL     1      34.065  34.615  13.963  1.00  0.00     0.012 C 
ENDBRANCH  39  44
ENDBRANCH  36  38
ENDBRANCH  32  33
ENDBRANCH  31  32
ENDBRANCH   2  31
TORSDOF 16
BEGIN_RES LYS A 131
REMARK  4 active torsions:
REMARK  status: ('A' for Active; 'I' for Inactive)
REMARK    1  A    between atoms: CA   and  CB  
REMARK    2  A    between atoms: CB   and  CG  
REMARK    3  A    between atoms: CG   and  CD  
REMARK    4  A    between atoms: CD   and  CE  
ROOT
ATOM      1  CA  LYS A 131      29.867  25.555  16.977  1.00 20.52     0.186 C 
ENDROOT
BRANCH   1   2
ATOM      2  CB  LYS A 131      28.345  25.722  17.026  1.00 20.94     0.034 C 
BRANCH   2   3
ATOM      3  CG  LYS A 131      27.599  24.431  16.725  1.00 22.96     0.005 C 
BRANCH   3   4
ATOM      4  CD  LYS A 131      26.994  23.825  17.960  1.00 24.33     0.041 C 
BRANCH   4   5
ATOM      5  CE  LYS A 131      25.707  23.095  17.592  1.00 26.91     0.338 C 
ATOM      6  NZ  LYS A 131      24.920  22.783  18.808  1.00 27.40     0.618 N 
ENDBRANCH   4   5
ENDBRANCH   3   4
ENDBRANCH   2   3
ENDBRANCH   1   2
END_RES LYS A 131
BEGIN_RES LYS A 135
REMARK  4 active torsions:
REMARK  status: ('A' for Active; 'I' for Inactive)
REMARK    5  A    between atoms: CA   and  CB  
REMARK    6  A    between atoms: CB   and  CG  
REMARK    7  A    between atoms: CG   and  CD  
REMARK    8  A    between atoms: CD   and  CE  
ROOT
ATOM      7  CA  LYS A 135      33.193  34.663   9.290  1.00 25.02     0.186 C 
ENDROOT
BRANCH   7   8
ATOM      8  CB  LYS A 135      32.060  35.360  10.034  1.00 26.63     0.034 C 
BRANCH   8   9
ATOM      9  CG  LYS A 135      30.868  35.667   9.165  1.00 29.45     0.005 C 
BRANCH   9  10
ATOM     10  CD  LYS A 135      30.392  34.415   8.445  1.00 32.00     0.041 C 
BRANCH  10  11
ATOM     11  CE  LYS A 135      28.876  34.363   8.412  1.00 34.25     0.338 C 
ATOM     12  NZ  LYS A 135      28.326  33.918   9.723  1.00 35.99     0.618 N 
ENDBRANCH  10  11
ENDBRANCH   9  10
ENDBRANCH   8   9
ENDBRANCH   7   8
END_RES LYS A 135
