REMARK VINA RESULT:    -4.077      4.332     10.804
REMARK INTER + INTRA:         -14.560
REMARK INTER:                  -9.216
REMARK INTRA:                  -5.344
REMARK UNBOUND:                -6.788
REMARK SMILES CC(=O)N[C@@H]1[C@@H](O)C[C@](O)(C(=O)O)O[C@H]1C(O)[C@H](O)CNC(=O)OCc1cn(CC(=O)NCc2cccs2)nn1
REMARK SMILES IDX 21 1 22 2 23 3 20 5 18 6 16 7 15 8 9 9 8 10 14 11 6 12 5 13
REMARK SMILES IDX 10 14 11 16 12 17 13 18 7 20 4 22 2 23 1 25 3 26 17 27 19 29
REMARK SMILES IDX 24 31 25 32 26 33 27 34 40 35 28 36 39 37 29 38 30 39 31 40
REMARK SMILES IDX 32 41 33 43 34 44 35 45 38 46 36 47 37 48
REMARK H PARENT 21 4 10 15 13 19 7 21 4 24 17 28 19 30 32 42
REMARK Flexibility Score: inf
ROOT
ATOM      1  N   UNL     1      29.409  32.832  16.528  1.00  0.00    -0.319 N 
ATOM      2  C   UNL     1      30.608  33.118  17.214  1.00  0.00     0.407 C 
ATOM      3  O   UNL     1      30.671  32.861  18.441  1.00  0.00    -0.225 OA
ATOM      4  H   UNL     1      29.378  33.055  15.509  1.00  0.00     0.167 HD
ENDROOT
BRANCH   1   5
ATOM      5  C   UNL     1      28.224  32.254  17.129  1.00  0.00     0.154 C 
BRANCH   5   6
ATOM      6  C   UNL     1      28.271  30.752  17.074  1.00  0.00     0.165 C 
BRANCH   6   7
ATOM      7  C   UNL     1      28.437  30.084  18.396  1.00  0.00     0.176 C 
BRANCH   7   8
ATOM      8  C   UNL     1      27.576  28.917  18.702  1.00  0.00     0.178 C 
ATOM      9  C   UNL     1      25.354  28.544  19.330  1.00  0.00     0.269 C 
ATOM     10  C   UNL     1      25.765  27.122  18.991  1.00  0.00     0.112 C 
ATOM     11  O   UNL     1      26.300  29.480  19.037  1.00  0.00    -0.332 OA
ATOM     12  C   UNL     1      27.005  26.809  19.753  1.00  0.00     0.145 C 
ATOM     13  C   UNL     1      27.917  28.049  19.845  1.00  0.00     0.142 C 
BRANCH   9  14
ATOM     14  O   UNL     1      25.027  28.519  20.699  1.00  0.00    -0.357 OA
ATOM     15  H   UNL     1      25.377  29.351  21.121  1.00  0.00     0.214 HD
ENDBRANCH   9  14
BRANCH   9  16
ATOM     16  C   UNL     1      24.119  28.915  18.591  1.00  0.00     0.364 C 
ATOM     17  O   UNL     1      23.032  28.941  19.205  1.00  0.00    -0.246 OA
BRANCH  16  18
ATOM     18  O   UNL     1      24.136  29.233  17.236  1.00  0.00    -0.477 OA
ATOM     19  H   UNL     1      24.760  29.994  16.963  1.00  0.00     0.296 HD
ENDBRANCH  16  18
ENDBRANCH   9  16
BRANCH  12  20
ATOM     20  O   UNL     1      26.777  26.275  21.002  1.00  0.00    -0.391 OA
ATOM     21  H   UNL     1      26.571  25.308  20.949  1.00  0.00     0.211 HD
ENDBRANCH  12  20
BRANCH  13  22
ATOM     22  N   UNL     1      29.233  27.543  19.958  1.00  0.00    -0.348 N 
ATOM     23  C   UNL     1      29.842  27.422  21.225  1.00  0.00     0.217 C 
ATOM     24  H   UNL     1      29.777  27.253  19.134  1.00  0.00     0.163 HD
ATOM     25  C   UNL     1      31.232  26.894  21.395  1.00  0.00     0.114 C 
ATOM     26  O   UNL     1      29.248  27.755  22.304  1.00  0.00    -0.275 OA
ENDBRANCH  13  22
ENDBRANCH   7   8
BRANCH   7  27
ATOM     27  O   UNL     1      29.738  30.029  18.874  1.00  0.00    -0.388 OA
ATOM     28  H   UNL     1      30.303  29.382  18.433  1.00  0.00     0.211 HD
ENDBRANCH   7  27
ENDBRANCH   6   7
BRANCH   6  29
ATOM     29  O   UNL     1      29.108  30.243  16.090  1.00  0.00    -0.388 OA
ATOM     30  H   UNL     1      28.656  30.113  15.224  1.00  0.00     0.211 HD
ENDBRANCH   6  29
ENDBRANCH   5   6
ENDBRANCH   1   5
BRANCH   2  31
ATOM     31  O   UNL     1      31.725  33.676  16.577  1.00  0.00    -0.443 OA
BRANCH  31  32
ATOM     32  C   UNL     1      31.984  33.407  15.211  1.00  0.00     0.294 C 
BRANCH  32  33
ATOM     33  C   UNL     1      31.377  34.501  14.403  1.00  0.00     0.120 A 
ATOM     34  C   UNL     1      31.969  35.669  13.968  1.00  0.00     0.138 A 
ATOM     35  N   UNL     1      30.120  34.564  13.936  1.00  0.00    -0.132 NA
ATOM     36  N   UNL     1      31.072  36.382  13.270  1.00  0.00    -0.243 N 
ATOM     37  N   UNL     1      29.956  35.687  13.265  1.00  0.00    -0.067 NA
BRANCH  36  38
ATOM     38  C   UNL     1      31.343  37.687  12.644  1.00  0.00     0.245 C 
BRANCH  38  39
ATOM     39  C   UNL     1      30.039  38.212  12.178  1.00  0.00     0.242 C 
ATOM     40  O   UNL     1      29.457  39.101  12.883  1.00  0.00    -0.273 OA
ATOM     41  N   UNL     1      29.371  37.805  10.999  1.00  0.00    -0.350 N 
ATOM     42  H   UNL     1      29.844  37.082  10.427  1.00  0.00     0.163 HD
BRANCH  41  43
ATOM     43  C   UNL     1      28.098  38.346  10.581  1.00  0.00     0.162 C 
BRANCH  43  44
ATOM     44  C   UNL     1      27.206  37.158  10.278  1.00  0.00     0.024 A 
ATOM     45  C   UNL     1      27.272  35.911  10.728  1.00  0.00     0.017 A 
ATOM     46  S   UNL     1      25.832  37.163   9.222  1.00  0.00    -0.147 S 
ATOM     47  C   UNL     1      26.370  34.988  10.332  1.00  0.00     0.012 A 
ATOM     48  C   UNL     1      25.390  35.440   9.435  1.00  0.00     0.065 A 
ENDBRANCH  43  44
ENDBRANCH  41  43
ENDBRANCH  38  39
ENDBRANCH  36  38
ENDBRANCH  32  33
ENDBRANCH  31  32
ENDBRANCH   2  31
TORSDOF 18
BEGIN_RES LYS A 131
REMARK  4 active torsions:
REMARK  status: ('A' for Active; 'I' for Inactive)
REMARK    1  A    between atoms: CA   and  CB  
REMARK    2  A    between atoms: CB   and  CG  
REMARK    3  A    between atoms: CG   and  CD  
REMARK    4  A    between atoms: CD   and  CE  
ROOT
ATOM      1  CA  LYS A 131      29.867  25.555  16.977  1.00 20.52     0.186 C 
ENDROOT
BRANCH   1   2
ATOM      2  CB  LYS A 131      28.345  25.722  17.026  1.00 20.94     0.034 C 
BRANCH   2   3
ATOM      3  CG  LYS A 131      27.599  24.449  16.659  1.00 22.96     0.005 C 
BRANCH   3   4
ATOM      4  CD  LYS A 131      27.051  23.744  17.868  1.00 24.33     0.041 C 
BRANCH   4   5
ATOM      5  CE  LYS A 131      25.682  23.157  17.540  1.00 26.91     0.338 C 
ATOM      6  NZ  LYS A 131      24.747  24.226  17.117  1.00 27.40     0.618 N 
ENDBRANCH   4   5
ENDBRANCH   3   4
ENDBRANCH   2   3
ENDBRANCH   1   2
END_RES LYS A 131
BEGIN_RES LYS A 135
REMARK  4 active torsions:
REMARK  status: ('A' for Active; 'I' for Inactive)
REMARK    5  A    between atoms: CA   and  CB  
REMARK    6  A    between atoms: CB   and  CG  
REMARK    7  A    between atoms: CG   and  CD  
REMARK    8  A    between atoms: CD   and  CE  
ROOT
ATOM      7  CA  LYS A 135      33.193  34.663   9.290  1.00 25.02     0.186 C 
ENDROOT
BRANCH   7   8
ATOM      8  CB  LYS A 135      32.060  35.360  10.034  1.00 26.63     0.034 C 
BRANCH   8   9
ATOM      9  CG  LYS A 135      30.721  34.691   9.856  1.00 29.45     0.005 C 
BRANCH   9  10
ATOM     10  CD  LYS A 135      30.404  34.510   8.380  1.00 32.00     0.041 C 
BRANCH  10  11
ATOM     11  CE  LYS A 135      29.603  35.688   7.858  1.00 34.25     0.338 C 
ATOM     12  NZ  LYS A 135      28.336  35.235   7.221  1.00 35.99     0.618 N 
ENDBRANCH  10  11
ENDBRANCH   9  10
ENDBRANCH   8   9
ENDBRANCH   7   8
END_RES LYS A 135
