REMARK VINA RESULT:    -3.205      7.779     14.637
REMARK INTER + INTRA:         -13.400
REMARK INTER:                  -6.657
REMARK INTRA:                  -6.743
REMARK UNBOUND:                -7.572
REMARK SMILES CC(=O)N[C@@H]1[C@@H](O)C[C@](O)(C(=O)O)O[C@H]1C(O)[C@H](O)CNC(=O)OCc1cn(CCO)nn1
REMARK SMILES IDX 21 1 22 2 23 3 20 5 18 6 16 7 15 8 9 9 8 10 14 11 6 12 5 13
REMARK SMILES IDX 10 14 11 16 12 17 13 18 7 20 4 22 2 23 1 25 3 26 17 27 19 29
REMARK SMILES IDX 24 31 25 32 26 33 27 34 33 35 28 36 32 37 29 38 30 39 31 40
REMARK H PARENT 21 4 10 15 13 19 7 21 4 24 17 28 19 30 31 41
REMARK Flexibility Score: inf
ROOT
ATOM      1  N   UNL     1      30.749  29.944  22.241  1.00  0.00    -0.319 N 
ATOM      2  C   UNL     1      31.264  28.668  22.498  1.00  0.00     0.407 C 
ATOM      3  O   UNL     1      32.284  28.290  21.930  1.00  0.00    -0.225 OA
ATOM      4  H   UNL     1      29.852  30.179  22.786  1.00  0.00     0.167 HD
ENDROOT
BRANCH   1   5
ATOM      5  C   UNL     1      31.227  30.956  21.382  1.00  0.00     0.154 C 
BRANCH   5   6
ATOM      6  C   UNL     1      30.841  30.885  19.938  1.00  0.00     0.165 C 
BRANCH   6   7
ATOM      7  C   UNL     1      29.585  31.648  19.643  1.00  0.00     0.176 C 
BRANCH   7   8
ATOM      8  C   UNL     1      29.029  31.610  18.284  1.00  0.00     0.178 C 
ATOM      9  C   UNL     1      28.172  30.301  16.591  1.00  0.00     0.269 C 
ATOM     10  C   UNL     1      27.583  31.626  16.153  1.00  0.00     0.112 C 
ATOM     11  O   UNL     1      28.727  30.337  17.870  1.00  0.00    -0.332 OA
ATOM     12  C   UNL     1      28.658  32.706  16.149  1.00  0.00     0.145 C 
ATOM     13  C   UNL     1      29.731  32.349  17.196  1.00  0.00     0.142 C 
BRANCH   9  14
ATOM     14  O   UNL     1      29.191  29.910  15.728  1.00  0.00    -0.357 OA
ATOM     15  H   UNL     1      29.588  30.665  15.238  1.00  0.00     0.214 HD
ENDBRANCH   9  14
BRANCH   9  16
ATOM     16  C   UNL     1      27.138  29.242  16.620  1.00  0.00     0.364 C 
ATOM     17  O   UNL     1      25.982  29.402  16.151  1.00  0.00    -0.246 OA
BRANCH  16  18
ATOM     18  O   UNL     1      27.445  28.018  17.186  1.00  0.00    -0.477 OA
ATOM     19  H   UNL     1      28.395  27.632  17.082  1.00  0.00     0.296 HD
ENDBRANCH  16  18
ENDBRANCH   9  16
BRANCH  12  20
ATOM     20  O   UNL     1      29.218  32.784  14.881  1.00  0.00    -0.391 OA
ATOM     21  H   UNL     1      29.101  33.721  14.572  1.00  0.00     0.211 HD
ENDBRANCH  12  20
BRANCH  13  22
ATOM     22  N   UNL     1      30.379  33.572  17.622  1.00  0.00    -0.348 N 
ATOM     23  C   UNL     1      31.555  33.990  16.947  1.00  0.00     0.217 C 
ATOM     24  H   UNL     1      30.005  34.153  18.412  1.00  0.00     0.163 HD
ATOM     25  C   UNL     1      32.289  35.231  17.316  1.00  0.00     0.114 C 
ATOM     26  O   UNL     1      32.002  33.298  16.005  1.00  0.00    -0.275 OA
ENDBRANCH  13  22
ENDBRANCH   7   8
BRANCH   7  27
ATOM     27  O   UNL     1      28.634  31.089  20.575  1.00  0.00    -0.388 OA
ATOM     28  H   UNL     1      28.963  31.246  21.476  1.00  0.00     0.211 HD
ENDBRANCH   7  27
ENDBRANCH   6   7
BRANCH   6  29
ATOM     29  O   UNL     1      30.826  29.610  19.478  1.00  0.00    -0.388 OA
ATOM     30  H   UNL     1      30.695  28.910  20.147  1.00  0.00     0.211 HD
ENDBRANCH   6  29
ENDBRANCH   5   6
ENDBRANCH   1   5
BRANCH   2  31
ATOM     31  O   UNL     1      30.645  27.798  23.394  1.00  0.00    -0.443 OA
BRANCH  31  32
ATOM     32  C   UNL     1      29.737  26.808  22.962  1.00  0.00     0.294 C 
BRANCH  32  33
ATOM     33  C   UNL     1      28.724  27.420  22.070  1.00  0.00     0.120 A 
ATOM     34  C   UNL     1      27.427  27.749  22.381  1.00  0.00     0.138 A 
ATOM     35  N   UNL     1      28.907  27.758  20.802  1.00  0.00    -0.132 NA
ATOM     36  N   UNL     1      26.899  28.274  21.261  1.00  0.00    -0.250 N 
ATOM     37  N   UNL     1      27.797  28.283  20.290  1.00  0.00    -0.067 NA
BRANCH  36  38
ATOM     38  C   UNL     1      25.537  28.755  21.152  1.00  0.00     0.174 C 
BRANCH  38  39
ATOM     39  C   UNL     1      25.124  28.721  19.683  1.00  0.00     0.179 C 
BRANCH  39  40
ATOM     40  O   UNL     1      25.309  27.411  19.196  1.00  0.00    -0.394 OA
ATOM     41  H   UNL     1      25.436  27.435  18.199  1.00  0.00     0.210 HD
ENDBRANCH  39  40
ENDBRANCH  38  39
ENDBRANCH  36  38
ENDBRANCH  32  33
ENDBRANCH  31  32
ENDBRANCH   2  31
TORSDOF 17
BEGIN_RES LYS A 131
REMARK  4 active torsions:
REMARK  status: ('A' for Active; 'I' for Inactive)
REMARK    1  A    between atoms: CA   and  CB  
REMARK    2  A    between atoms: CB   and  CG  
REMARK    3  A    between atoms: CG   and  CD  
REMARK    4  A    between atoms: CD   and  CE  
ROOT
ATOM      1  CA  LYS A 131      29.867  25.555  16.977  1.00 20.52     0.186 C 
ENDROOT
BRANCH   1   2
ATOM      2  CB  LYS A 131      28.345  25.722  17.026  1.00 20.94     0.034 C 
BRANCH   2   3
ATOM      3  CG  LYS A 131      27.602  24.398  16.932  1.00 22.96     0.005 C 
BRANCH   3   4
ATOM      4  CD  LYS A 131      26.619  24.219  18.055  1.00 24.33     0.041 C 
BRANCH   4   5
ATOM      5  CE  LYS A 131      25.242  23.901  17.480  1.00 26.91     0.338 C 
ATOM      6  NZ  LYS A 131      24.996  22.440  17.503  1.00 27.40     0.618 N 
ENDBRANCH   4   5
ENDBRANCH   3   4
ENDBRANCH   2   3
ENDBRANCH   1   2
END_RES LYS A 131
BEGIN_RES LYS A 135
REMARK  4 active torsions:
REMARK  status: ('A' for Active; 'I' for Inactive)
REMARK    5  A    between atoms: CA   and  CB  
REMARK    6  A    between atoms: CB   and  CG  
REMARK    7  A    between atoms: CG   and  CD  
REMARK    8  A    between atoms: CD   and  CE  
ROOT
ATOM      7  CA  LYS A 135      33.193  34.663   9.290  1.00 25.02     0.186 C 
ENDROOT
BRANCH   7   8
ATOM      8  CB  LYS A 135      32.060  35.360  10.034  1.00 26.63     0.034 C 
BRANCH   8   9
ATOM      9  CG  LYS A 135      30.732  34.661   9.901  1.00 29.45     0.005 C 
BRANCH   9  10
ATOM     10  CD  LYS A 135      30.325  34.556   8.439  1.00 32.00     0.041 C 
BRANCH  10  11
ATOM     11  CE  LYS A 135      28.814  34.573   8.304  1.00 34.25     0.338 C 
ATOM     12  NZ  LYS A 135      28.166  33.871   9.446  1.00 35.99     0.618 N 
ENDBRANCH  10  11
ENDBRANCH   9  10
ENDBRANCH   8   9
ENDBRANCH   7   8
END_RES LYS A 135
