REMARK VINA RESULT:    -5.882      7.105     13.268
REMARK INTER + INTRA:         -14.985
REMARK INTER:                  -9.407
REMARK INTRA:                  -5.578
REMARK UNBOUND:                -3.774
REMARK SMILES CC(=O)N[C@@H]1[C@@H](O)C[C@](O)(C(=O)O)O[C@H]1C(O)[C@H](O)CNC(=O)OCc1cn(COCc2ccccc2)nn1
REMARK SMILES IDX 21 1 22 2 23 3 20 5 18 6 16 7 15 8 9 9 8 10 14 11 6 12 5 13
REMARK SMILES IDX 10 14 11 16 12 17 13 18 7 20 4 22 2 23 1 25 3 26 17 27 19 29
REMARK SMILES IDX 24 31 25 32 26 33 27 34 39 35 28 36 38 37 29 38 30 39 31 40
REMARK SMILES IDX 32 41 33 42 37 43 34 44 36 45 35 46
REMARK H PARENT 21 4 10 15 13 19 7 21 4 24 17 28 19 30
REMARK Flexibility Score: inf
ROOT
ATOM      1  N   UNL     1      27.780  28.953  17.421  1.00  0.00    -0.319 N 
ATOM      2  C   UNL     1      27.005  29.708  16.492  1.00  0.00     0.407 C 
ATOM      3  O   UNL     1      25.741  29.609  16.459  1.00  0.00    -0.225 OA
ATOM      4  H   UNL     1      28.807  29.059  17.420  1.00  0.00     0.167 HD
ENDROOT
BRANCH   1   5
ATOM      5  C   UNL     1      27.062  28.073  18.321  1.00  0.00     0.154 C 
BRANCH   5   6
ATOM      6  C   UNL     1      27.758  27.926  19.647  1.00  0.00     0.165 C 
BRANCH   6   7
ATOM      7  C   UNL     1      28.526  29.190  19.971  1.00  0.00     0.176 C 
BRANCH   7   8
ATOM      8  C   UNL     1      29.452  29.023  21.129  1.00  0.00     0.178 C 
ATOM      9  C   UNL     1      31.582  28.223  21.635  1.00  0.00     0.269 C 
ATOM     10  C   UNL     1      31.057  28.105  23.058  1.00  0.00     0.112 C 
ATOM     11  O   UNL     1      30.566  28.315  20.689  1.00  0.00    -0.332 OA
ATOM     12  C   UNL     1      29.734  27.375  22.975  1.00  0.00     0.145 C 
ATOM     13  C   UNL     1      28.774  28.339  22.296  1.00  0.00     0.142 C 
BRANCH   9  14
ATOM     14  O   UNL     1      32.238  27.021  21.378  1.00  0.00    -0.357 OA
ATOM     15  H   UNL     1      32.501  26.936  20.427  1.00  0.00     0.214 HD
ENDBRANCH   9  14
BRANCH   9  16
ATOM     16  C   UNL     1      32.550  29.322  21.530  1.00  0.00     0.364 C 
ATOM     17  O   UNL     1      32.170  30.443  21.111  1.00  0.00    -0.246 OA
BRANCH  16  18
ATOM     18  O   UNL     1      33.891  29.198  21.873  1.00  0.00    -0.477 OA
ATOM     19  H   UNL     1      34.146  29.337  22.846  1.00  0.00     0.296 HD
ENDBRANCH  16  18
ENDBRANCH   9  16
BRANCH  12  20
ATOM     20  O   UNL     1      29.843  26.197  22.242  1.00  0.00    -0.391 OA
ATOM     21  H   UNL     1      29.231  26.262  21.446  1.00  0.00     0.211 HD
ENDBRANCH  12  20
BRANCH  13  22
ATOM     22  N   UNL     1      28.409  29.334  23.281  1.00  0.00    -0.348 N 
ATOM     23  C   UNL     1      27.062  29.773  23.385  1.00  0.00     0.217 C 
ATOM     24  H   UNL     1      29.095  29.767  23.947  1.00  0.00     0.163 HD
ATOM     25  C   UNL     1      26.631  30.793  24.380  1.00  0.00     0.114 C 
ATOM     26  O   UNL     1      26.175  29.305  22.625  1.00  0.00    -0.275 OA
ENDBRANCH  13  22
ENDBRANCH   7   8
BRANCH   7  27
ATOM     27  O   UNL     1      27.657  30.249  20.070  1.00  0.00    -0.388 OA
ATOM     28  H   UNL     1      27.711  30.762  19.214  1.00  0.00     0.211 HD
ENDBRANCH   7  27
ENDBRANCH   6   7
BRANCH   6  29
ATOM     29  O   UNL     1      28.594  26.818  19.598  1.00  0.00    -0.388 OA
ATOM     30  H   UNL     1      29.480  27.080  19.231  1.00  0.00     0.211 HD
ENDBRANCH   6  29
ENDBRANCH   5   6
ENDBRANCH   1   5
BRANCH   2  31
ATOM     31  O   UNL     1      27.585  30.582  15.583  1.00  0.00    -0.443 OA
BRANCH  31  32
ATOM     32  C   UNL     1      27.799  31.955  15.838  1.00  0.00     0.294 C 
BRANCH  32  33
ATOM     33  C   UNL     1      29.192  32.377  15.575  1.00  0.00     0.120 A 
ATOM     34  C   UNL     1      29.696  33.552  15.057  1.00  0.00     0.141 A 
ATOM     35  N   UNL     1      30.273  31.615  15.820  1.00  0.00    -0.132 NA
ATOM     36  N   UNL     1      31.048  33.474  15.001  1.00  0.00    -0.226 N 
ATOM     37  N   UNL     1      31.353  32.281  15.475  1.00  0.00    -0.065 NA
BRANCH  36  38
ATOM     38  C   UNL     1      31.983  34.501  14.515  1.00  0.00     0.307 C 
BRANCH  38  39
ATOM     39  O   UNL     1      32.917  34.778  15.509  1.00  0.00    -0.355 OA
BRANCH  39  40
ATOM     40  C   UNL     1      32.450  35.676  16.440  1.00  0.00     0.198 C 
BRANCH  40  41
ATOM     41  C   UNL     1      32.593  35.236  17.842  1.00  0.00    -0.022 A 
ATOM     42  C   UNL     1      31.688  34.339  18.374  1.00  0.00     0.006 A 
ATOM     43  C   UNL     1      33.615  35.697  18.632  1.00  0.00     0.006 A 
ATOM     44  C   UNL     1      31.808  33.904  19.697  1.00  0.00     0.000 A 
ATOM     45  C   UNL     1      33.729  35.263  19.943  1.00  0.00     0.000 A 
ATOM     46  C   UNL     1      32.843  34.380  20.477  1.00  0.00     0.000 A 
ENDBRANCH  40  41
ENDBRANCH  39  40
ENDBRANCH  38  39
ENDBRANCH  36  38
ENDBRANCH  32  33
ENDBRANCH  31  32
ENDBRANCH   2  31
TORSDOF 18
BEGIN_RES LYS A 131
REMARK  4 active torsions:
REMARK  status: ('A' for Active; 'I' for Inactive)
REMARK    1  A    between atoms: CA   and  CB  
REMARK    2  A    between atoms: CB   and  CG  
REMARK    3  A    between atoms: CG   and  CD  
REMARK    4  A    between atoms: CD   and  CE  
ROOT
ATOM      1  CA  LYS A 131      29.867  25.555  16.977  1.00 20.52     0.186 C 
ENDROOT
BRANCH   1   2
ATOM      2  CB  LYS A 131      28.345  25.722  17.026  1.00 20.94     0.034 C 
BRANCH   2   3
ATOM      3  CG  LYS A 131      27.602  24.400  16.916  1.00 22.96     0.005 C 
BRANCH   3   4
ATOM      4  CD  LYS A 131      26.531  24.263  17.962  1.00 24.33     0.041 C 
BRANCH   4   5
ATOM      5  CE  LYS A 131      25.159  24.358  17.302  1.00 26.91     0.338 C 
ATOM      6  NZ  LYS A 131      24.442  25.569  17.768  1.00 27.40     0.618 N 
ENDBRANCH   4   5
ENDBRANCH   3   4
ENDBRANCH   2   3
ENDBRANCH   1   2
END_RES LYS A 131
BEGIN_RES LYS A 135
REMARK  4 active torsions:
REMARK  status: ('A' for Active; 'I' for Inactive)
REMARK    5  A    between atoms: CA   and  CB  
REMARK    6  A    between atoms: CB   and  CG  
REMARK    7  A    between atoms: CG   and  CD  
REMARK    8  A    between atoms: CD   and  CE  
ROOT
ATOM      7  CA  LYS A 135      33.193  34.663   9.290  1.00 25.02     0.186 C 
ENDROOT
BRANCH   7   8
ATOM      8  CB  LYS A 135      32.060  35.360  10.034  1.00 26.63     0.034 C 
BRANCH   8   9
ATOM      9  CG  LYS A 135      30.712  34.725   9.810  1.00 29.45     0.005 C 
BRANCH   9  10
ATOM     10  CD  LYS A 135      30.485  34.454   8.331  1.00 32.00     0.041 C 
BRANCH  10  11
ATOM     11  CE  LYS A 135      29.406  35.368   7.782  1.00 34.25     0.338 C 
ATOM     12  NZ  LYS A 135      28.053  34.776   7.973  1.00 35.99     0.618 N 
ENDBRANCH  10  11
ENDBRANCH   9  10
ENDBRANCH   8   9
ENDBRANCH   7   8
END_RES LYS A 135
