REMARK VINA RESULT:    -5.225      4.706      8.294
REMARK INTER + INTRA:         -14.639
REMARK INTER:                 -10.245
REMARK INTRA:                  -4.394
REMARK UNBOUND:                -5.290
REMARK SMILES CC(=O)N[C@@H]1[C@@H](O)C[C@](O)(C(=O)O)O[C@H]1C(O)[C@H](O)CNC(=O)OCc1cn(Cc2ccccc2)nn1
REMARK SMILES IDX 21 1 22 2 23 3 20 5 18 6 16 7 15 8 9 9 8 10 14 11 6 12 5 13
REMARK SMILES IDX 10 14 11 16 12 17 13 18 7 20 4 22 2 23 1 25 3 26 17 27 19 29
REMARK SMILES IDX 24 31 25 32 26 33 27 34 37 35 28 36 36 37 29 38 30 39 31 40
REMARK SMILES IDX 35 41 32 42 34 43 33 44
REMARK H PARENT 21 4 10 15 13 19 7 21 4 24 17 28 19 30
REMARK Flexibility Score: inf
ROOT
ATOM      1  N   UNL     1      25.564  36.642  14.955  1.00  0.00    -0.319 N 
ATOM      2  C   UNL     1      26.223  37.687  14.277  1.00  0.00     0.407 C 
ATOM      3  O   UNL     1      27.451  37.855  14.350  1.00  0.00    -0.225 OA
ATOM      4  H   UNL     1      24.521  36.598  14.814  1.00  0.00     0.167 HD
ENDROOT
BRANCH   1   5
ATOM      5  C   UNL     1      26.242  35.696  15.786  1.00  0.00     0.154 C 
BRANCH   5   6
ATOM      6  C   UNL     1      26.189  34.326  15.148  1.00  0.00     0.165 C 
BRANCH   6   7
ATOM      7  C   UNL     1      27.450  34.021  14.392  1.00  0.00     0.176 C 
BRANCH   7   8
ATOM      8  C   UNL     1      28.680  33.969  15.268  1.00  0.00     0.178 C 
ATOM      9  C   UNL     1      30.906  34.595  14.931  1.00  0.00     0.269 C 
ATOM     10  C   UNL     1      31.192  33.790  16.209  1.00  0.00     0.112 C 
ATOM     11  O   UNL     1      29.589  34.940  14.979  1.00  0.00    -0.332 OA
ATOM     12  C   UNL     1      30.572  32.425  15.916  1.00  0.00     0.145 C 
ATOM     13  C   UNL     1      29.175  32.568  15.358  1.00  0.00     0.142 C 
BRANCH   9  14
ATOM     14  O   UNL     1      31.300  33.886  13.815  1.00  0.00    -0.357 OA
ATOM     15  H   UNL     1      30.508  33.699  13.268  1.00  0.00     0.214 HD
ENDBRANCH   9  14
BRANCH   9  16
ATOM     16  C   UNL     1      31.703  35.868  15.054  1.00  0.00     0.364 C 
ATOM     17  O   UNL     1      31.163  36.950  15.363  1.00  0.00    -0.246 OA
BRANCH  16  18
ATOM     18  O   UNL     1      33.064  35.857  14.820  1.00  0.00    -0.477 OA
ATOM     19  H   UNL     1      33.487  36.665  14.392  1.00  0.00     0.296 HD
ENDBRANCH  16  18
ENDBRANCH   9  16
BRANCH  12  20
ATOM     20  O   UNL     1      31.431  31.808  15.005  1.00  0.00    -0.391 OA
ATOM     21  H   UNL     1      31.792  32.486  14.394  1.00  0.00     0.211 HD
ENDBRANCH  12  20
BRANCH  13  22
ATOM     22  N   UNL     1      28.228  31.840  16.222  1.00  0.00    -0.348 N 
ATOM     23  C   UNL     1      28.078  30.433  16.175  1.00  0.00     0.217 C 
ATOM     24  H   UNL     1      27.630  32.386  16.908  1.00  0.00     0.163 HD
ATOM     25  C   UNL     1      27.140  29.658  17.023  1.00  0.00     0.114 C 
ATOM     26  O   UNL     1      28.789  29.792  15.361  1.00  0.00    -0.275 OA
ENDBRANCH  13  22
ENDBRANCH   7   8
BRANCH   7  27
ATOM     27  O   UNL     1      27.579  34.911  13.343  1.00  0.00    -0.388 OA
ATOM     28  H   UNL     1      28.514  35.227  13.316  1.00  0.00     0.211 HD
ENDBRANCH   7  27
ENDBRANCH   6   7
BRANCH   6  29
ATOM     29  O   UNL     1      25.064  34.337  14.323  1.00  0.00    -0.388 OA
ATOM     30  H   UNL     1      24.529  35.157  14.415  1.00  0.00     0.211 HD
ENDBRANCH   6  29
ENDBRANCH   5   6
ENDBRANCH   1   5
BRANCH   2  31
ATOM     31  O   UNL     1      25.504  38.581  13.485  1.00  0.00    -0.443 OA
BRANCH  31  32
ATOM     32  C   UNL     1      25.746  38.632  12.099  1.00  0.00     0.294 C 
BRANCH  32  33
ATOM     33  C   UNL     1      25.679  37.286  11.481  1.00  0.00     0.120 A 
ATOM     34  C   UNL     1      26.152  36.941  10.244  1.00  0.00     0.138 A 
ATOM     35  N   UNL     1      25.145  36.188  12.024  1.00  0.00    -0.132 NA
ATOM     36  N   UNL     1      25.891  35.635  10.066  1.00  0.00    -0.248 N 
ATOM     37  N   UNL     1      25.275  35.202  11.172  1.00  0.00    -0.067 NA
BRANCH  36  38
ATOM     38  C   UNL     1      26.189  34.800   8.931  1.00  0.00     0.181 C 
BRANCH  38  39
ATOM     39  C   UNL     1      27.657  34.688   8.718  1.00  0.00    -0.026 A 
ATOM     40  C   UNL     1      28.262  35.199   7.575  1.00  0.00     0.005 A 
ATOM     41  C   UNL     1      28.481  34.079   9.633  1.00  0.00     0.005 A 
ATOM     42  C   UNL     1      29.617  35.092   7.385  1.00  0.00     0.000 A 
ATOM     43  C   UNL     1      29.848  33.966   9.450  1.00  0.00     0.000 A 
ATOM     44  C   UNL     1      30.431  34.478   8.314  1.00  0.00     0.000 A 
ENDBRANCH  38  39
ENDBRANCH  36  38
ENDBRANCH  32  33
ENDBRANCH  31  32
ENDBRANCH   2  31
TORSDOF 16
BEGIN_RES LYS A 131
REMARK  4 active torsions:
REMARK  status: ('A' for Active; 'I' for Inactive)
REMARK    1  A    between atoms: CA   and  CB  
REMARK    2  A    between atoms: CB   and  CG  
REMARK    3  A    between atoms: CG   and  CD  
REMARK    4  A    between atoms: CD   and  CE  
ROOT
ATOM      1  CA  LYS A 131      29.867  25.555  16.977  1.00 20.52     0.186 C 
ENDROOT
BRANCH   1   2
ATOM      2  CB  LYS A 131      28.345  25.722  17.026  1.00 20.94     0.034 C 
BRANCH   2   3
ATOM      3  CG  LYS A 131      27.602  24.400  16.914  1.00 22.96     0.005 C 
BRANCH   3   4
ATOM      4  CD  LYS A 131      26.526  24.264  17.956  1.00 24.33     0.041 C 
BRANCH   4   5
ATOM      5  CE  LYS A 131      25.242  23.769  17.300  1.00 26.91     0.338 C 
ATOM      6  NZ  LYS A 131      25.009  22.342  17.628  1.00 27.40     0.618 N 
ENDBRANCH   4   5
ENDBRANCH   3   4
ENDBRANCH   2   3
ENDBRANCH   1   2
END_RES LYS A 131
BEGIN_RES LYS A 135
REMARK  4 active torsions:
REMARK  status: ('A' for Active; 'I' for Inactive)
REMARK    5  A    between atoms: CA   and  CB  
REMARK    6  A    between atoms: CB   and  CG  
REMARK    7  A    between atoms: CG   and  CD  
REMARK    8  A    between atoms: CD   and  CE  
ROOT
ATOM      7  CA  LYS A 135      33.193  34.663   9.290  1.00 25.02     0.186 C 
ENDROOT
BRANCH   7   8
ATOM      8  CB  LYS A 135      32.060  35.360  10.034  1.00 26.63     0.034 C 
BRANCH   8   9
ATOM      9  CG  LYS A 135      32.533  36.251  11.153  1.00 29.45     0.005 C 
BRANCH   9  10
ATOM     10  CD  LYS A 135      31.363  36.999  11.774  1.00 32.00     0.041 C 
BRANCH  10  11
ATOM     11  CE  LYS A 135      31.545  38.497  11.618  1.00 34.25     0.338 C 
ATOM     12  NZ  LYS A 135      31.876  38.853  10.210  1.00 35.99     0.618 N 
ENDBRANCH  10  11
ENDBRANCH   9  10
ENDBRANCH   8   9
ENDBRANCH   7   8
END_RES LYS A 135
