REMARK VINA RESULT:    -3.724      6.015     10.920
REMARK INTER + INTRA:         -17.029
REMARK INTER:                  -9.567
REMARK INTRA:                  -7.461
REMARK UNBOUND:                -8.298
REMARK SMILES CC(=O)N[C@@H]1[C@@H](O)C[C@](O)(C(=O)O)O[C@H]1C(O)[C@H](O)CNC(=O)OCc1cn(CCCCCCCCCCC(=O)O)nn1
REMARK SMILES IDX 29 1 28 2 26 3 27 4 43 5 42 6 25 7 24 8 22 9 21 10 23 12
REMARK SMILES IDX 20 13 18 14 16 15 15 16 9 17 8 18 14 19 6 20 5 21 10 22
REMARK SMILES IDX 11 24 12 25 13 26 7 28 4 30 2 31 1 33 3 34 17 35 19 37 30 39
REMARK SMILES IDX 31 40 32 41 33 42 34 43 35 44 36 45 37 46 38 47 39 48 40 49
REMARK SMILES IDX 41 50
REMARK H PARENT 21 11 10 23 13 27 7 29 4 32 17 36 19 38 41 51
REMARK Flexibility Score: inf
ROOT
ATOM      1  C   UNL     1      27.774  37.173  14.262  1.00  0.00     0.146 C 
ENDROOT
BRANCH   1   2
ATOM      2  N   UNL     1      26.418  37.313  13.806  1.00  0.00    -0.252 N 
ATOM      3  C   UNL     1      24.241  37.222  13.544  1.00  0.00     0.120 A 
ATOM      4  C   UNL     1      25.271  36.809  14.346  1.00  0.00     0.138 A 
ATOM      5  N   UNL     1      24.776  37.959  12.546  1.00  0.00    -0.132 NA
ATOM      6  N   UNL     1      26.068  37.993  12.733  1.00  0.00    -0.067 NA
BRANCH   3   7
ATOM      7  C   UNL     1      22.815  36.901  13.759  1.00  0.00     0.294 C 
BRANCH   7   8
ATOM      8  O   UNL     1      22.508  35.622  13.246  1.00  0.00    -0.443 OA
BRANCH   8   9
ATOM      9  C   UNL     1      23.042  35.197  12.036  1.00  0.00     0.407 C 
ATOM     10  N   UNL     1      22.777  35.885  10.822  1.00  0.00    -0.319 N 
ATOM     11  H   UNL     1      22.168  36.731  10.817  1.00  0.00     0.167 HD
ATOM     12  O   UNL     1      23.789  34.159  12.039  1.00  0.00    -0.225 OA
BRANCH  10  13
ATOM     13  C   UNL     1      23.347  35.414   9.599  1.00  0.00     0.154 C 
BRANCH  13  14
ATOM     14  C   UNL     1      24.326  36.398   8.995  1.00  0.00     0.165 C 
BRANCH  14  15
ATOM     15  C   UNL     1      23.700  37.093   7.824  1.00  0.00     0.176 C 
BRANCH  15  16
ATOM     16  C   UNL     1      24.149  38.538   7.781  1.00  0.00     0.178 C 
ATOM     17  C   UNL     1      26.015  39.831   7.317  1.00  0.00     0.269 C 
ATOM     18  C   UNL     1      25.308  40.844   8.189  1.00  0.00     0.112 C 
ATOM     19  O   UNL     1      25.473  38.561   7.435  1.00  0.00    -0.332 OA
ATOM     20  C   UNL     1      24.931  40.171   9.480  1.00  0.00     0.145 C 
ATOM     21  C   UNL     1      23.844  39.146   9.126  1.00  0.00     0.142 C 
BRANCH  17  22
ATOM     22  O   UNL     1      27.328  39.758   7.775  1.00  0.00    -0.357 OA
ATOM     23  H   UNL     1      27.411  40.127   8.683  1.00  0.00     0.214 HD
ENDBRANCH  17  22
BRANCH  17  24
ATOM     24  C   UNL     1      26.014  40.341   5.946  1.00  0.00     0.364 C 
ATOM     25  O   UNL     1      25.055  41.049   5.553  1.00  0.00    -0.246 OA
BRANCH  24  26
ATOM     26  O   UNL     1      27.021  40.095   5.022  1.00  0.00    -0.477 OA
ATOM     27  H   UNL     1      26.992  39.212   4.488  1.00  0.00     0.296 HD
ENDBRANCH  24  26
ENDBRANCH  17  24
BRANCH  20  28
ATOM     28  O   UNL     1      26.025  39.579  10.073  1.00  0.00    -0.391 OA
ATOM     29  H   UNL     1      25.852  39.518  11.046  1.00  0.00     0.211 HD
ENDBRANCH  20  28
BRANCH  21  30
ATOM     30  N   UNL     1      22.603  39.890   9.096  1.00  0.00    -0.348 N 
ATOM     31  C   UNL     1      21.540  39.464   9.927  1.00  0.00     0.217 C 
ATOM     32  H   UNL     1      22.471  40.732   8.481  1.00  0.00     0.163 HD
ATOM     33  C   UNL     1      20.242  40.206   9.925  1.00  0.00     0.114 C 
ATOM     34  O   UNL     1      21.681  38.469  10.663  1.00  0.00    -0.275 OA
ENDBRANCH  21  30
ENDBRANCH  15  16
BRANCH  15  35
ATOM     35  O   UNL     1      22.312  36.977   7.947  1.00  0.00    -0.388 OA
ATOM     36  H   UNL     1      21.867  37.823   8.131  1.00  0.00     0.211 HD
ENDBRANCH  15  35
ENDBRANCH  14  15
BRANCH  14  37
ATOM     37  O   UNL     1      25.483  35.758   8.551  1.00  0.00    -0.388 OA
ATOM     38  H   UNL     1      25.565  35.801   7.579  1.00  0.00     0.211 HD
ENDBRANCH  14  37
ENDBRANCH  13  14
ENDBRANCH  10  13
ENDBRANCH   8   9
ENDBRANCH   7   8
ENDBRANCH   3   7
ENDBRANCH   1   2
BRANCH   1  39
ATOM     39  C   UNL     1      28.655  36.844  13.087  1.00  0.00     0.024 C 
BRANCH  39  40
ATOM     40  C   UNL     1      29.434  35.574  13.278  1.00  0.00     0.002 C 
BRANCH  40  41
ATOM     41  C   UNL     1      29.533  34.761  12.011  1.00  0.00     0.000 C 
BRANCH  41  42
ATOM     42  C   UNL     1      28.235  34.892  11.218  1.00  0.00     0.000 C 
BRANCH  42  43
ATOM     43  C   UNL     1      28.437  34.287   9.854  1.00  0.00     0.000 C 
BRANCH  43  44
ATOM     44  C   UNL     1      29.894  34.144   9.522  1.00  0.00     0.000 C 
BRANCH  44  45
ATOM     45  C   UNL     1      30.167  34.616   8.132  1.00  0.00     0.001 C 
BRANCH  45  46
ATOM     46  C   UNL     1      29.199  35.725   7.730  1.00  0.00     0.012 C 
BRANCH  46  47
ATOM     47  C   UNL     1      28.744  35.590   6.302  1.00  0.00     0.122 C 
BRANCH  47  48
ATOM     48  C   UNL     1      28.250  36.940   5.884  1.00  0.00     0.303 C 
ATOM     49  O   UNL     1      28.921  37.985   6.005  1.00  0.00    -0.252 OA
BRANCH  48  50
ATOM     50  O   UNL     1      26.974  37.052   5.328  1.00  0.00    -0.481 OA
ATOM     51  H   UNL     1      26.488  36.216   5.054  1.00  0.00     0.296 HD
ENDBRANCH  48  50
ENDBRANCH  47  48
ENDBRANCH  46  47
ENDBRANCH  45  46
ENDBRANCH  44  45
ENDBRANCH  43  44
ENDBRANCH  42  43
ENDBRANCH  41  42
ENDBRANCH  40  41
ENDBRANCH  39  40
ENDBRANCH   1  39
TORSDOF 26
BEGIN_RES LYS A 131
REMARK  4 active torsions:
REMARK  status: ('A' for Active; 'I' for Inactive)
REMARK    1  A    between atoms: CA   and  CB  
REMARK    2  A    between atoms: CB   and  CG  
REMARK    3  A    between atoms: CG   and  CD  
REMARK    4  A    between atoms: CD   and  CE  
ROOT
ATOM      1  CA  LYS A 131      29.867  25.555  16.977  1.00 20.52     0.186 C 
ENDROOT
BRANCH   1   2
ATOM      2  CB  LYS A 131      28.345  25.722  17.026  1.00 20.94     0.034 C 
BRANCH   2   3
ATOM      3  CG  LYS A 131      27.602  24.398  16.935  1.00 22.96     0.005 C 
BRANCH   3   4
ATOM      4  CD  LYS A 131      26.147  24.540  17.284  1.00 24.33     0.041 C 
BRANCH   4   5
ATOM      5  CE  LYS A 131      25.986  24.547  18.801  1.00 26.91     0.338 C 
ATOM      6  NZ  LYS A 131      25.525  23.223  19.280  1.00 27.40     0.618 N 
ENDBRANCH   4   5
ENDBRANCH   3   4
ENDBRANCH   2   3
ENDBRANCH   1   2
END_RES LYS A 131
BEGIN_RES LYS A 135
REMARK  4 active torsions:
REMARK  status: ('A' for Active; 'I' for Inactive)
REMARK    5  A    between atoms: CA   and  CB  
REMARK    6  A    between atoms: CB   and  CG  
REMARK    7  A    between atoms: CG   and  CD  
REMARK    8  A    between atoms: CD   and  CE  
ROOT
ATOM      7  CA  LYS A 135      33.193  34.663   9.290  1.00 25.02     0.186 C 
ENDROOT
BRANCH   7   8
ATOM      8  CB  LYS A 135      32.060  35.360  10.034  1.00 26.63     0.034 C 
BRANCH   8   9
ATOM      9  CG  LYS A 135      32.528  36.465  10.946  1.00 29.45     0.005 C 
BRANCH   9  10
ATOM     10  CD  LYS A 135      31.851  37.779  10.589  1.00 32.00     0.041 C 
BRANCH  10  11
ATOM     11  CE  LYS A 135      31.501  38.556  11.843  1.00 34.25     0.338 C 
ATOM     12  NZ  LYS A 135      30.561  39.671  11.539  1.00 35.99     0.618 N 
ENDBRANCH  10  11
ENDBRANCH   9  10
ENDBRANCH   8   9
ENDBRANCH   7   8
END_RES LYS A 135
