REMARK VINA RESULT:    -4.893      8.288     13.753
REMARK INTER + INTRA:         -15.522
REMARK INTER:                  -8.986
REMARK INTRA:                  -6.536
REMARK UNBOUND:                -5.909
REMARK SMILES CC(=O)N[C@@H]1[C@@H](O)C[C@](O)(C(=O)O)O[C@H]1C(O)[C@H](O)CNC(=O)OCc1cn(CCNC(=O)NCc2ccco2)nn1
REMARK SMILES IDX 24 1 22 2 21 3 23 5 20 6 18 7 16 8 15 9 9 10 8 11 14 12 6 13
REMARK SMILES IDX 5 14 10 15 11 17 12 18 13 19 7 21 4 23 2 24 1 26 3 27 17 28
REMARK SMILES IDX 19 30 25 32 26 33 27 34 42 35 28 36 41 37 29 38 30 39 31 40
REMARK SMILES IDX 32 41 33 43 34 44 35 46 36 47 37 48 40 49 38 50 39 51
REMARK H PARENT 21 4 10 16 13 20 7 22 4 25 17 29 19 31 31 42 34 45
REMARK Flexibility Score: inf
ROOT
ATOM      1  O   UNL     1      27.368  41.367  10.757  1.00  0.00    -0.443 OA
ENDROOT
BRANCH   1   2
ATOM      2  C   UNL     1      26.584  40.670  11.670  1.00  0.00     0.407 C 
ATOM      3  N   UNL     1      26.381  39.283  11.647  1.00  0.00    -0.319 N 
ATOM      4  H   UNL     1      26.828  38.710  10.917  1.00  0.00     0.167 HD
ATOM      5  O   UNL     1      26.022  41.339  12.577  1.00  0.00    -0.225 OA
BRANCH   3   6
ATOM      6  C   UNL     1      25.533  38.649  12.661  1.00  0.00     0.154 C 
BRANCH   6   7
ATOM      7  C   UNL     1      24.761  37.529  12.017  1.00  0.00     0.165 C 
BRANCH   7   8
ATOM      8  C   UNL     1      23.368  37.940  11.627  1.00  0.00     0.176 C 
BRANCH   8   9
ATOM      9  C   UNL     1      23.019  37.549  10.221  1.00  0.00     0.178 C 
ATOM     10  C   UNL     1      21.879  38.440   8.385  1.00  0.00     0.269 C 
ATOM     11  C   UNL     1      21.611  37.075   7.840  1.00  0.00     0.112 C 
ATOM     12  O   UNL     1      22.115  38.504   9.721  1.00  0.00    -0.332 OA
ATOM     13  C   UNL     1      22.170  35.952   8.615  1.00  0.00     0.145 C 
ATOM     14  C   UNL     1      22.277  36.240  10.101  1.00  0.00     0.142 C 
BRANCH  10  15
ATOM     15  O   UNL     1      20.686  39.175   8.160  1.00  0.00    -0.357 OA
ATOM     16  H   UNL     1      19.901  38.681   8.502  1.00  0.00     0.214 HD
ENDBRANCH  10  15
BRANCH  10  17
ATOM     17  C   UNL     1      22.954  39.154   7.653  1.00  0.00     0.364 C 
ATOM     18  O   UNL     1      22.922  40.406   7.488  1.00  0.00    -0.246 OA
BRANCH  17  19
ATOM     19  O   UNL     1      24.052  38.501   7.106  1.00  0.00    -0.477 OA
ATOM     20  H   UNL     1      24.771  38.122   7.714  1.00  0.00     0.296 HD
ENDBRANCH  17  19
ENDBRANCH  10  17
BRANCH  13  21
ATOM     21  O   UNL     1      21.388  34.796   8.414  1.00  0.00    -0.391 OA
ATOM     22  H   UNL     1      21.935  34.029   8.148  1.00  0.00     0.211 HD
ENDBRANCH  13  21
BRANCH  14  23
ATOM     23  N   UNL     1      22.853  35.136  10.789  1.00  0.00    -0.348 N 
ATOM     24  C   UNL     1      22.082  34.475  11.795  1.00  0.00     0.217 C 
ATOM     25  H   UNL     1      23.806  34.758  10.609  1.00  0.00     0.163 HD
ATOM     26  C   UNL     1      22.589  33.319  12.566  1.00  0.00     0.114 C 
ATOM     27  O   UNL     1      20.911  34.879  12.054  1.00  0.00    -0.275 OA
ENDBRANCH  14  23
ENDBRANCH   8   9
BRANCH   8  28
ATOM     28  O   UNL     1      22.407  37.603  12.563  1.00  0.00    -0.388 OA
ATOM     29  H   UNL     1      21.731  36.960  12.230  1.00  0.00     0.211 HD
ENDBRANCH   8  28
ENDBRANCH   7   8
BRANCH   7  30
ATOM     30  O   UNL     1      24.588  36.553  13.037  1.00  0.00    -0.388 OA
ATOM     31  H   UNL     1      25.200  36.867  13.771  1.00  0.00     0.211 HD
ENDBRANCH   7  30
ENDBRANCH   6   7
ENDBRANCH   3   6
ENDBRANCH   1   2
BRANCH   1  32
ATOM     32  C   UNL     1      28.202  40.694   9.838  1.00  0.00     0.294 C 
BRANCH  32  33
ATOM     33  C   UNL     1      27.594  40.806   8.493  1.00  0.00     0.120 A 
ATOM     34  C   UNL     1      28.147  41.384   7.383  1.00  0.00     0.138 A 
ATOM     35  N   UNL     1      26.384  40.353   8.131  1.00  0.00    -0.132 NA
ATOM     36  N   UNL     1      27.260  41.267   6.379  1.00  0.00    -0.250 N 
ATOM     37  N   UNL     1      26.189  40.639   6.837  1.00  0.00    -0.067 NA
BRANCH  36  38
ATOM     38  C   UNL     1      27.419  41.741   5.001  1.00  0.00     0.167 C 
BRANCH  38  39
ATOM     39  C   UNL     1      28.171  40.681   4.242  1.00  0.00     0.141 C 
BRANCH  39  40
ATOM     40  N   UNL     1      27.520  39.408   4.425  1.00  0.00    -0.336 N 
ATOM     41  C   UNL     1      28.084  38.318   5.130  1.00  0.00     0.315 C 
ATOM     42  H   UNL     1      26.556  39.250   4.017  1.00  0.00     0.165 HD
ATOM     43  O   UNL     1      29.236  38.465   5.638  1.00  0.00    -0.249 OA
ATOM     44  N   UNL     1      27.362  37.103   5.254  1.00  0.00    -0.331 N 
ATOM     45  H   UNL     1      26.420  36.957   4.848  1.00  0.00     0.165 HD
BRANCH  44  46
ATOM     46  C   UNL     1      27.971  36.011   5.981  1.00  0.00     0.193 C 
BRANCH  46  47
ATOM     47  C   UNL     1      27.213  35.804   7.234  1.00  0.00     0.122 A 
ATOM     48  C   UNL     1      27.265  34.636   7.987  1.00  0.00     0.047 A 
ATOM     49  O   UNL     1      26.409  36.639   7.814  1.00  0.00    -0.467 OA
ATOM     50  C   UNL     1      26.425  34.853   9.058  1.00  0.00     0.042 A 
ATOM     51  C   UNL     1      25.916  36.125   8.898  1.00  0.00     0.195 A 
ENDBRANCH  46  47
ENDBRANCH  44  46
ENDBRANCH  39  40
ENDBRANCH  38  39
ENDBRANCH  36  38
ENDBRANCH  32  33
ENDBRANCH   1  32
TORSDOF 19
BEGIN_RES LYS A 131
REMARK  4 active torsions:
REMARK  status: ('A' for Active; 'I' for Inactive)
REMARK    1  A    between atoms: CA   and  CB  
REMARK    2  A    between atoms: CB   and  CG  
REMARK    3  A    between atoms: CG   and  CD  
REMARK    4  A    between atoms: CD   and  CE  
ROOT
ATOM      1  CA  LYS A 131      29.867  25.555  16.977  1.00 20.52     0.186 C 
ENDROOT
BRANCH   1   2
ATOM      2  CB  LYS A 131      28.345  25.722  17.026  1.00 20.94     0.034 C 
BRANCH   2   3
ATOM      3  CG  LYS A 131      27.602  24.399  16.927  1.00 22.96     0.005 C 
BRANCH   3   4
ATOM      4  CD  LYS A 131      26.500  24.290  17.943  1.00 24.33     0.041 C 
BRANCH   4   5
ATOM      5  CE  LYS A 131      25.241  24.963  17.404  1.00 26.91     0.338 C 
ATOM      6  NZ  LYS A 131      24.050  24.523  18.168  1.00 27.40     0.618 N 
ENDBRANCH   4   5
ENDBRANCH   3   4
ENDBRANCH   2   3
ENDBRANCH   1   2
END_RES LYS A 131
BEGIN_RES LYS A 135
REMARK  4 active torsions:
REMARK  status: ('A' for Active; 'I' for Inactive)
REMARK    5  A    between atoms: CA   and  CB  
REMARK    6  A    between atoms: CB   and  CG  
REMARK    7  A    between atoms: CG   and  CD  
REMARK    8  A    between atoms: CD   and  CE  
ROOT
ATOM      7  CA  LYS A 135      33.193  34.663   9.290  1.00 25.02     0.186 C 
ENDROOT
BRANCH   7   8
ATOM      8  CB  LYS A 135      32.060  35.360  10.034  1.00 26.63     0.034 C 
BRANCH   8   9
ATOM      9  CG  LYS A 135      30.688  34.946   9.568  1.00 29.45     0.005 C 
BRANCH   9  10
ATOM     10  CD  LYS A 135      29.736  34.818  10.747  1.00 32.00     0.041 C 
BRANCH  10  11
ATOM     11  CE  LYS A 135      30.503  34.844  12.055  1.00 34.25     0.338 C 
ATOM     12  NZ  LYS A 135      29.631  34.447  13.195  1.00 35.99     0.618 N 
ENDBRANCH  10  11
ENDBRANCH   9  10
ENDBRANCH   8   9
ENDBRANCH   7   8
END_RES LYS A 135
