REMARK VINA RESULT:    -5.485      0.000      0.000
REMARK INTER + INTRA:         -15.769
REMARK INTER:                  -9.396
REMARK INTRA:                  -6.373
REMARK UNBOUND:                -5.794
REMARK SMILES CC(=O)N[C@@H]1[C@@H](O)C[C@](O)(C(=O)O)O[C@H]1C(O)[C@H](O)CNC(=O)OCc1cn(Cc2cc(Br)cc(Br)c2O)nn1
REMARK SMILES IDX 21 1 22 2 23 3 20 5 18 6 16 7 15 8 9 9 8 10 14 11 6 12 5 13
REMARK SMILES IDX 10 14 11 16 12 17 13 18 7 20 4 22 2 23 1 25 3 26 17 27 19 29
REMARK SMILES IDX 24 31 25 32 26 33 27 34 40 35 28 36 39 37 29 38 30 39 31 40
REMARK SMILES IDX 37 41 32 42 35 43 33 44 34 45 36 46 38 47
REMARK H PARENT 21 4 10 15 13 19 7 21 4 24 17 28 19 30 38 48
REMARK Flexibility Score: inf
ROOT
ATOM      1  N   UNL     1      26.669  28.824  17.198  1.00  0.00    -0.319 N 
ATOM      2  C   UNL     1      25.697  29.608  16.515  1.00  0.00     0.407 C 
ATOM      3  O   UNL     1      24.504  29.558  16.891  1.00  0.00    -0.225 OA
ATOM      4  H   UNL     1      27.648  28.883  16.867  1.00  0.00     0.167 HD
ENDROOT
BRANCH   1   5
ATOM      5  C   UNL     1      26.324  27.975  18.306  1.00  0.00     0.154 C 
BRANCH   5   6
ATOM      6  C   UNL     1      27.413  27.966  19.340  1.00  0.00     0.165 C 
BRANCH   6   7
ATOM      7  C   UNL     1      28.068  29.321  19.492  1.00  0.00     0.176 C 
BRANCH   7   8
ATOM      8  C   UNL     1      28.810  29.380  20.840  1.00  0.00     0.178 C 
ATOM      9  C   UNL     1      30.570  27.949  21.468  1.00  0.00     0.269 C 
ATOM     10  C   UNL     1      30.046  28.124  22.902  1.00  0.00     0.112 C 
ATOM     11  O   UNL     1      30.034  28.877  20.640  1.00  0.00    -0.332 OA
ATOM     12  C   UNL     1      28.569  27.785  22.779  1.00  0.00     0.145 C 
ATOM     13  C   UNL     1      27.958  28.848  21.912  1.00  0.00     0.142 C 
BRANCH   9  14
ATOM     14  O   UNL     1      30.300  26.638  21.131  1.00  0.00    -0.357 OA
ATOM     15  H   UNL     1      29.393  26.339  21.384  1.00  0.00     0.214 HD
ENDBRANCH   9  14
BRANCH   9  16
ATOM     16  C   UNL     1      32.043  28.138  21.470  1.00  0.00     0.364 C 
ATOM     17  O   UNL     1      32.538  29.034  20.742  1.00  0.00    -0.246 OA
BRANCH  16  18
ATOM     18  O   UNL     1      32.892  27.358  22.249  1.00  0.00    -0.477 OA
ATOM     19  H   UNL     1      33.478  26.690  21.727  1.00  0.00     0.296 HD
ENDBRANCH  16  18
ENDBRANCH   9  16
BRANCH  12  20
ATOM     20  O   UNL     1      28.397  26.507  22.250  1.00  0.00    -0.391 OA
ATOM     21  H   UNL     1      29.216  26.274  21.767  1.00  0.00     0.211 HD
ENDBRANCH  12  20
BRANCH  13  22
ATOM     22  N   UNL     1      27.450  29.884  22.811  1.00  0.00    -0.348 N 
ATOM     23  C   UNL     1      26.159  30.454  22.687  1.00  0.00     0.217 C 
ATOM     24  H   UNL     1      28.043  30.253  23.605  1.00  0.00     0.163 HD
ATOM     25  C   UNL     1      25.680  31.512  23.628  1.00  0.00     0.114 C 
ATOM     26  O   UNL     1      25.395  30.066  21.766  1.00  0.00    -0.275 OA
ENDBRANCH  13  22
ENDBRANCH   7   8
BRANCH   7  27
ATOM     27  O   UNL     1      28.870  29.678  18.436  1.00  0.00    -0.388 OA
ATOM     28  H   UNL     1      29.786  29.341  18.526  1.00  0.00     0.211 HD
ENDBRANCH   7  27
ENDBRANCH   6   7
BRANCH   6  29
ATOM     29  O   UNL     1      28.296  26.938  19.096  1.00  0.00    -0.388 OA
ATOM     30  H   UNL     1      28.210  26.178  19.702  1.00  0.00     0.211 HD
ENDBRANCH   6  29
ENDBRANCH   5   6
ENDBRANCH   1   5
BRANCH   2  31
ATOM     31  O   UNL     1      26.056  30.409  15.459  1.00  0.00    -0.443 OA
BRANCH  31  32
ATOM     32  C   UNL     1      26.216  31.809  15.599  1.00  0.00     0.294 C 
BRANCH  32  33
ATOM     33  C   UNL     1      27.563  32.080  16.166  1.00  0.00     0.120 A 
ATOM     34  C   UNL     1      28.778  32.013  15.496  1.00  0.00     0.138 A 
ATOM     35  N   UNL     1      27.902  32.440  17.418  1.00  0.00    -0.132 NA
ATOM     36  N   UNL     1      29.770  32.326  16.343  1.00  0.00    -0.248 N 
ATOM     37  N   UNL     1      29.203  32.588  17.532  1.00  0.00    -0.067 NA
BRANCH  36  38
ATOM     38  C   UNL     1      31.179  32.384  16.071  1.00  0.00     0.185 C 
BRANCH  38  39
ATOM     39  C   UNL     1      31.675  33.768  15.863  1.00  0.00     0.018 A 
ATOM     40  C   UNL     1      32.207  34.439  16.946  1.00  0.00     0.025 A 
ATOM     41  C   UNL     1      31.630  34.412  14.649  1.00  0.00     0.134 A 
ATOM     42  C   UNL     1      32.694  35.726  16.868  1.00  0.00     0.019 A 
ATOM     43  C   UNL     1      32.118  35.719  14.542  1.00  0.00     0.061 A 
ATOM     44  Br  UNL     1      33.421  36.625  18.376  1.00  0.00    -0.051 Br
ATOM     45  C   UNL     1      32.641  36.364  15.636  1.00  0.00     0.035 A 
ATOM     46  Br  UNL     1      32.016  36.543  12.811  1.00  0.00    -0.047 Br
BRANCH  41  47
ATOM     47  O   UNL     1      31.104  33.768  13.545  1.00  0.00    -0.506 OA
ATOM     48  H   UNL     1      31.664  33.077  13.064  1.00  0.00     0.293 HD
ENDBRANCH  41  47
ENDBRANCH  38  39
ENDBRANCH  36  38
ENDBRANCH  32  33
ENDBRANCH  31  32
ENDBRANCH   2  31
TORSDOF 17
BEGIN_RES LYS A 131
REMARK  4 active torsions:
REMARK  status: ('A' for Active; 'I' for Inactive)
REMARK    1  A    between atoms: CA   and  CB  
REMARK    2  A    between atoms: CB   and  CG  
REMARK    3  A    between atoms: CG   and  CD  
REMARK    4  A    between atoms: CD   and  CE  
ROOT
ATOM      1  CA  LYS A 131      29.867  25.555  16.977  1.00 20.52     0.186 C 
ENDROOT
BRANCH   1   2
ATOM      2  CB  LYS A 131      28.345  25.722  17.026  1.00 20.94     0.034 C 
BRANCH   2   3
ATOM      3  CG  LYS A 131      27.600  24.412  16.819  1.00 22.96     0.005 C 
BRANCH   3   4
ATOM      4  CD  LYS A 131      26.564  24.175  17.883  1.00 24.33     0.041 C 
BRANCH   4   5
ATOM      5  CE  LYS A 131      25.172  24.352  17.286  1.00 26.91     0.338 C 
ATOM      6  NZ  LYS A 131      24.457  23.054  17.243  1.00 27.40     0.618 N 
ENDBRANCH   4   5
ENDBRANCH   3   4
ENDBRANCH   2   3
ENDBRANCH   1   2
END_RES LYS A 131
BEGIN_RES LYS A 135
REMARK  4 active torsions:
REMARK  status: ('A' for Active; 'I' for Inactive)
REMARK    5  A    between atoms: CA   and  CB  
REMARK    6  A    between atoms: CB   and  CG  
REMARK    7  A    between atoms: CG   and  CD  
REMARK    8  A    between atoms: CD   and  CE  
ROOT
ATOM      7  CA  LYS A 135      33.193  34.663   9.290  1.00 25.02     0.186 C 
ENDROOT
BRANCH   7   8
ATOM      8  CB  LYS A 135      32.060  35.360  10.034  1.00 26.63     0.034 C 
BRANCH   8   9
ATOM      9  CG  LYS A 135      30.804  35.509   9.215  1.00 29.45     0.005 C 
BRANCH   9  10
ATOM     10  CD  LYS A 135      30.154  34.155   8.977  1.00 32.00     0.041 C 
BRANCH  10  11
ATOM     11  CE  LYS A 135      28.695  34.323   8.600  1.00 34.25     0.338 C 
ATOM     12  NZ  LYS A 135      27.803  33.688   9.610  1.00 35.99     0.618 N 
ENDBRANCH  10  11
ENDBRANCH   9  10
ENDBRANCH   8   9
ENDBRANCH   7   8
END_RES LYS A 135
