REMARK VINA RESULT:    -5.496      0.000      0.000
REMARK INTER + INTRA:         -15.730
REMARK INTER:                  -8.998
REMARK INTRA:                  -6.732
REMARK UNBOUND:                -5.735
REMARK SMILES CC(=O)N[C@@H]1[C@@H](O)C[C@](O)(C(=O)O)O[C@H]1C(O)[C@H](O)CNC(=O)OCc1cn(-c2ccc(CO)cn2)nn1
REMARK SMILES IDX 21 1 22 2 23 3 20 5 18 6 16 7 15 8 9 9 8 10 14 11 6 12 5 13
REMARK SMILES IDX 10 14 11 16 12 17 13 18 7 20 4 22 2 23 1 25 3 26 17 27 19 29
REMARK SMILES IDX 24 31 25 32 26 33 27 34 38 35 28 36 37 37 29 38 30 39 36 40
REMARK SMILES IDX 31 41 35 42 32 43 33 44 34 45
REMARK H PARENT 21 4 10 15 13 19 7 21 4 24 17 28 19 30 34 46
REMARK Flexibility Score: inf
ROOT
ATOM      1  N   UNL     1      27.754  27.932  18.471  1.00  0.00    -0.319 N 
ATOM      2  C   UNL     1      26.655  28.021  17.552  1.00  0.00     0.407 C 
ATOM      3  O   UNL     1      25.703  27.233  17.747  1.00  0.00    -0.225 OA
ATOM      4  H   UNL     1      28.518  28.615  18.279  1.00  0.00     0.167 HD
ENDROOT
BRANCH   1   5
ATOM      5  C   UNL     1      27.739  26.990  19.557  1.00  0.00     0.154 C 
BRANCH   5   6
ATOM      6  C   UNL     1      27.748  27.740  20.880  1.00  0.00     0.165 C 
BRANCH   6   7
ATOM      7  C   UNL     1      29.191  27.862  21.278  1.00  0.00     0.176 C 
BRANCH   7   8
ATOM      8  C   UNL     1      29.772  29.245  21.330  1.00  0.00     0.178 C 
ATOM      9  C   UNL     1      28.843  31.400  21.082  1.00  0.00     0.269 C 
ATOM     10  C   UNL     1      30.019  31.891  20.274  1.00  0.00     0.112 C 
ATOM     11  O   UNL     1      28.705  30.056  21.041  1.00  0.00    -0.332 OA
ATOM     12  C   UNL     1      30.473  30.685  19.474  1.00  0.00     0.145 C 
ATOM     13  C   UNL     1      30.902  29.559  20.447  1.00  0.00     0.142 C 
BRANCH   9  14
ATOM     14  O   UNL     1      27.697  32.003  20.475  1.00  0.00    -0.357 OA
ATOM     15  H   UNL     1      27.678  32.966  20.709  1.00  0.00     0.214 HD
ENDBRANCH   9  14
BRANCH   9  16
ATOM     16  C   UNL     1      28.845  31.876  22.481  1.00  0.00     0.364 C 
ATOM     17  O   UNL     1      29.866  32.421  22.943  1.00  0.00    -0.246 OA
BRANCH  16  18
ATOM     18  O   UNL     1      27.732  31.732  23.286  1.00  0.00    -0.477 OA
ATOM     19  H   UNL     1      27.585  30.853  23.767  1.00  0.00     0.296 HD
ENDBRANCH  16  18
ENDBRANCH   9  16
BRANCH  12  20
ATOM     20  O   UNL     1      29.527  30.252  18.579  1.00  0.00    -0.391 OA
ATOM     21  H   UNL     1      29.191  29.353  18.859  1.00  0.00     0.211 HD
ENDBRANCH  12  20
BRANCH  13  22
ATOM     22  N   UNL     1      32.076  30.070  21.076  1.00  0.00    -0.348 N 
ATOM     23  C   UNL     1      32.926  29.264  21.851  1.00  0.00     0.217 C 
ATOM     24  H   UNL     1      32.307  31.072  20.962  1.00  0.00     0.163 HD
ATOM     25  C   UNL     1      34.146  29.795  22.504  1.00  0.00     0.114 C 
ATOM     26  O   UNL     1      32.651  28.056  21.998  1.00  0.00    -0.275 OA
ENDBRANCH  13  22
ENDBRANCH   7   8
BRANCH   7  27
ATOM     27  O   UNL     1      29.955  27.168  20.322  1.00  0.00    -0.388 OA
ATOM     28  H   UNL     1      29.403  26.510  19.820  1.00  0.00     0.211 HD
ENDBRANCH   7  27
ENDBRANCH   6   7
BRANCH   6  29
ATOM     29  O   UNL     1      27.092  26.836  21.760  1.00  0.00    -0.388 OA
ATOM     30  H   UNL     1      26.134  26.921  21.630  1.00  0.00     0.211 HD
ENDBRANCH   6  29
ENDBRANCH   5   6
ENDBRANCH   1   5
BRANCH   2  31
ATOM     31  O   UNL     1      26.619  28.907  16.510  1.00  0.00    -0.443 OA
BRANCH  31  32
ATOM     32  C   UNL     1      26.012  30.162  16.560  1.00  0.00     0.294 C 
BRANCH  32  33
ATOM     33  C   UNL     1      26.967  31.280  16.764  1.00  0.00     0.121 A 
ATOM     34  C   UNL     1      27.992  31.605  15.870  1.00  0.00     0.146 A 
ATOM     35  N   UNL     1      27.086  32.166  17.744  1.00  0.00    -0.131 NA
ATOM     36  N   UNL     1      28.666  32.651  16.349  1.00  0.00    -0.202 N 
ATOM     37  N   UNL     1      28.108  32.984  17.488  1.00  0.00    -0.061 NA
BRANCH  36  38
ATOM     38  C   UNL     1      29.797  33.282  15.730  1.00  0.00     0.155 A 
ATOM     39  C   UNL     1      31.063  33.255  16.276  1.00  0.00     0.049 A 
ATOM     40  N   UNL     1      29.640  33.947  14.575  1.00  0.00    -0.237 NA
ATOM     41  C   UNL     1      32.144  33.865  15.698  1.00  0.00     0.011 A 
ATOM     42  C   UNL     1      30.669  34.560  13.970  1.00  0.00     0.119 A 
ATOM     43  C   UNL     1      31.951  34.541  14.508  1.00  0.00    -0.004 A 
BRANCH  43  44
ATOM     44  C   UNL     1      33.059  35.238  13.794  1.00  0.00     0.193 C 
BRANCH  44  45
ATOM     45  O   UNL     1      33.028  34.876  12.453  1.00  0.00    -0.392 OA
ATOM     46  H   UNL     1      33.380  33.956  12.344  1.00  0.00     0.211 HD
ENDBRANCH  44  45
ENDBRANCH  43  44
ENDBRANCH  36  38
ENDBRANCH  32  33
ENDBRANCH  31  32
ENDBRANCH   2  31
TORSDOF 17
BEGIN_RES LYS A 131
REMARK  4 active torsions:
REMARK  status: ('A' for Active; 'I' for Inactive)
REMARK    1  A    between atoms: CA   and  CB  
REMARK    2  A    between atoms: CB   and  CG  
REMARK    3  A    between atoms: CG   and  CD  
REMARK    4  A    between atoms: CD   and  CE  
ROOT
ATOM      1  CA  LYS A 131      29.867  25.555  16.977  1.00 20.52     0.186 C 
ENDROOT
BRANCH   1   2
ATOM      2  CB  LYS A 131      28.345  25.722  17.026  1.00 20.94     0.034 C 
BRANCH   2   3
ATOM      3  CG  LYS A 131      27.599  24.476  16.575  1.00 22.96     0.005 C 
BRANCH   3   4
ATOM      4  CD  LYS A 131      26.980  23.738  17.730  1.00 24.33     0.041 C 
BRANCH   4   5
ATOM      5  CE  LYS A 131      25.464  23.703  17.558  1.00 26.91     0.338 C 
ATOM      6  NZ  LYS A 131      24.955  22.320  17.716  1.00 27.40     0.618 N 
ENDBRANCH   4   5
ENDBRANCH   3   4
ENDBRANCH   2   3
ENDBRANCH   1   2
END_RES LYS A 131
BEGIN_RES LYS A 135
REMARK  4 active torsions:
REMARK  status: ('A' for Active; 'I' for Inactive)
REMARK    5  A    between atoms: CA   and  CB  
REMARK    6  A    between atoms: CB   and  CG  
REMARK    7  A    between atoms: CG   and  CD  
REMARK    8  A    between atoms: CD   and  CE  
ROOT
ATOM      7  CA  LYS A 135      33.193  34.663   9.290  1.00 25.02     0.186 C 
ENDROOT
BRANCH   7   8
ATOM      8  CB  LYS A 135      32.060  35.360  10.034  1.00 26.63     0.034 C 
BRANCH   8   9
ATOM      9  CG  LYS A 135      30.798  35.493   9.222  1.00 29.45     0.005 C 
BRANCH   9  10
ATOM     10  CD  LYS A 135      30.063  34.163   9.150  1.00 32.00     0.041 C 
BRANCH  10  11
ATOM     11  CE  LYS A 135      28.627  34.372   8.710  1.00 34.25     0.338 C 
ATOM     12  NZ  LYS A 135      27.681  33.652   9.607  1.00 35.99     0.618 N 
ENDBRANCH  10  11
ENDBRANCH   9  10
ENDBRANCH   8   9
ENDBRANCH   7   8
END_RES LYS A 135
