REMARK VINA RESULT:    -4.717      2.068      5.551
REMARK INTER + INTRA:         -15.011
REMARK INTER:                  -8.549
REMARK INTRA:                  -6.462
REMARK UNBOUND:                -5.744
REMARK SMILES CC(=O)N[C@@H]1[C@@H](O)C[C@](O)(C(=O)O)O[C@H]1C(O)[C@H](O)CNC(=O)OCc1cn([C@@H](CC(=O)O)C(=O)O)nn1
REMARK SMILES IDX 21 1 22 2 23 3 20 5 18 6 16 7 15 8 9 9 8 10 14 11 6 12 5 13
REMARK SMILES IDX 10 14 11 16 12 17 13 18 7 20 4 22 2 23 1 25 3 26 17 27 19 29
REMARK SMILES IDX 24 31 25 32 26 33 27 34 38 35 28 36 37 37 29 38 30 39 31 40
REMARK SMILES IDX 32 41 33 42 34 44 35 45 36 46
REMARK H PARENT 21 4 10 15 13 19 7 21 4 24 17 28 19 30 33 43 36 47
REMARK Flexibility Score: inf
ROOT
ATOM      1  N   UNL     1      25.364  33.506  15.252  1.00  0.00    -0.319 N 
ATOM      2  C   UNL     1      24.539  32.838  14.298  1.00  0.00     0.407 C 
ATOM      3  O   UNL     1      24.832  32.919  13.100  1.00  0.00    -0.225 OA
ATOM      4  H   UNL     1      25.053  33.393  16.253  1.00  0.00     0.167 HD
ENDROOT
BRANCH   1   5
ATOM      5  C   UNL     1      26.524  34.275  14.928  1.00  0.00     0.154 C 
BRANCH   5   6
ATOM      6  C   UNL     1      27.760  33.693  15.582  1.00  0.00     0.165 C 
BRANCH   6   7
ATOM      7  C   UNL     1      29.026  34.241  14.949  1.00  0.00     0.176 C 
BRANCH   7   8
ATOM      8  C   UNL     1      30.068  34.655  15.924  1.00  0.00     0.178 C 
ATOM      9  C   UNL     1      31.814  34.302  14.432  1.00  0.00     0.269 C 
ATOM     10  C   UNL     1      31.858  32.880  14.804  1.00  0.00     0.112 C 
ATOM     11  O   UNL     1      31.201  35.177  15.292  1.00  0.00    -0.332 OA
ATOM     12  C   UNL     1      31.248  32.458  16.081  1.00  0.00     0.145 C 
ATOM     13  C   UNL     1      30.502  33.531  16.822  1.00  0.00     0.142 C 
BRANCH   9  14
ATOM     14  O   UNL     1      31.166  34.484  13.184  1.00  0.00    -0.357 OA
ATOM     15  H   UNL     1      31.082  35.470  13.084  1.00  0.00     0.214 HD
ENDBRANCH   9  14
BRANCH   9  16
ATOM     16  C   UNL     1      33.186  34.836  14.205  1.00  0.00     0.364 C 
ATOM     17  O   UNL     1      33.923  35.295  15.107  1.00  0.00    -0.246 OA
BRANCH  16  18
ATOM     18  O   UNL     1      33.673  34.819  12.908  1.00  0.00    -0.477 OA
ATOM     19  H   UNL     1      33.839  35.682  12.374  1.00  0.00     0.296 HD
ENDBRANCH  16  18
ENDBRANCH   9  16
BRANCH  12  20
ATOM     20  O   UNL     1      30.413  31.361  15.886  1.00  0.00    -0.391 OA
ATOM     21  H   UNL     1      29.469  31.540  16.034  1.00  0.00     0.211 HD
ENDBRANCH  12  20
BRANCH  13  22
ATOM     22  N   UNL     1      31.355  34.092  17.898  1.00  0.00    -0.348 N 
ATOM     23  C   UNL     1      31.346  33.534  19.197  1.00  0.00     0.217 C 
ATOM     24  H   UNL     1      31.979  34.908  17.727  1.00  0.00     0.163 HD
ATOM     25  C   UNL     1      32.186  34.065  20.310  1.00  0.00     0.114 C 
ATOM     26  O   UNL     1      30.602  32.555  19.417  1.00  0.00    -0.275 OA
ENDBRANCH  13  22
ENDBRANCH   7   8
BRANCH   7  27
ATOM     27  O   UNL     1      28.554  35.387  14.244  1.00  0.00    -0.388 OA
ATOM     28  H   UNL     1      27.699  35.186  13.796  1.00  0.00     0.211 HD
ENDBRANCH   7  27
ENDBRANCH   6   7
BRANCH   6  29
ATOM     29  O   UNL     1      27.666  32.308  15.530  1.00  0.00    -0.388 OA
ATOM     30  H   UNL     1      26.887  31.986  15.013  1.00  0.00     0.211 HD
ENDBRANCH   6  29
ENDBRANCH   5   6
ENDBRANCH   1   5
BRANCH   2  31
ATOM     31  O   UNL     1      23.424  32.104  14.667  1.00  0.00    -0.443 OA
BRANCH  31  32
ATOM     32  C   UNL     1      23.366  31.494  15.932  1.00  0.00     0.294 C 
BRANCH  32  33
ATOM     33  C   UNL     1      24.592  30.724  16.253  1.00  0.00     0.120 A 
ATOM     34  C   UNL     1      24.964  30.422  17.540  1.00  0.00     0.139 A 
ATOM     35  N   UNL     1      25.519  30.203  15.453  1.00  0.00    -0.132 NA
ATOM     36  N   UNL     1      26.122  29.715  17.481  1.00  0.00    -0.237 N 
ATOM     37  N   UNL     1      26.418  29.607  16.218  1.00  0.00    -0.066 NA
BRANCH  36  38
ATOM     38  C   UNL     1      26.806  29.225  18.675  1.00  0.00     0.229 C 
BRANCH  38  39
ATOM     39  C   UNL     1      27.407  27.876  18.390  1.00  0.00     0.161 C 
BRANCH  39  40
ATOM     40  C   UNL     1      27.502  27.037  19.594  1.00  0.00     0.306 C 
ATOM     41  O   UNL     1      26.444  26.664  20.160  1.00  0.00    -0.252 OA
BRANCH  40  42
ATOM     42  O   UNL     1      28.752  26.678  20.075  1.00  0.00    -0.481 OA
ATOM     43  H   UNL     1      28.947  26.781  21.083  1.00  0.00     0.296 HD
ENDBRANCH  40  42
ENDBRANCH  39  40
ENDBRANCH  38  39
BRANCH  38  44
ATOM     44  C   UNL     1      27.932  30.150  18.980  1.00  0.00     0.329 C 
ATOM     45  O   UNL     1      28.521  30.195  20.089  1.00  0.00    -0.250 OA
BRANCH  44  46
ATOM     46  O   UNL     1      28.354  31.014  17.984  1.00  0.00    -0.480 OA
ATOM     47  H   UNL     1      27.841  31.849  17.730  1.00  0.00     0.296 HD
ENDBRANCH  44  46
ENDBRANCH  38  44
ENDBRANCH  36  38
ENDBRANCH  32  33
ENDBRANCH  31  32
ENDBRANCH   2  31
TORSDOF 20
BEGIN_RES LYS A 131
REMARK  4 active torsions:
REMARK  status: ('A' for Active; 'I' for Inactive)
REMARK    1  A    between atoms: CA   and  CB  
REMARK    2  A    between atoms: CB   and  CG  
REMARK    3  A    between atoms: CG   and  CD  
REMARK    4  A    between atoms: CD   and  CE  
ROOT
ATOM      1  CA  LYS A 131      29.867  25.555  16.977  1.00 20.52     0.186 C 
ENDROOT
BRANCH   1   2
ATOM      2  CB  LYS A 131      28.345  25.722  17.026  1.00 20.94     0.034 C 
BRANCH   2   3
ATOM      3  CG  LYS A 131      27.601  24.402  16.892  1.00 22.96     0.005 C 
BRANCH   3   4
ATOM      4  CD  LYS A 131      26.145  24.535  17.242  1.00 24.33     0.041 C 
BRANCH   4   5
ATOM      5  CE  LYS A 131      25.769  23.469  18.266  1.00 26.91     0.338 C 
ATOM      6  NZ  LYS A 131      25.069  22.340  17.608  1.00 27.40     0.618 N 
ENDBRANCH   4   5
ENDBRANCH   3   4
ENDBRANCH   2   3
ENDBRANCH   1   2
END_RES LYS A 131
BEGIN_RES LYS A 135
REMARK  4 active torsions:
REMARK  status: ('A' for Active; 'I' for Inactive)
REMARK    5  A    between atoms: CA   and  CB  
REMARK    6  A    between atoms: CB   and  CG  
REMARK    7  A    between atoms: CG   and  CD  
REMARK    8  A    between atoms: CD   and  CE  
ROOT
ATOM      7  CA  LYS A 135      33.193  34.663   9.290  1.00 25.02     0.186 C 
ENDROOT
BRANCH   7   8
ATOM      8  CB  LYS A 135      32.060  35.360  10.034  1.00 26.63     0.034 C 
BRANCH   8   9
ATOM      9  CG  LYS A 135      30.796  35.488   9.223  1.00 29.45     0.005 C 
BRANCH   9  10
ATOM     10  CD  LYS A 135      30.055  34.161   9.171  1.00 32.00     0.041 C 
BRANCH  10  11
ATOM     11  CE  LYS A 135      28.667  34.349   8.589  1.00 34.25     0.338 C 
ATOM     12  NZ  LYS A 135      28.688  35.311   7.452  1.00 35.99     0.618 N 
ENDBRANCH  10  11
ENDBRANCH   9  10
ENDBRANCH   8   9
ENDBRANCH   7   8
END_RES LYS A 135
