REMARK VINA RESULT:    -3.818      2.962      5.165
REMARK INTER + INTRA:         -14.031
REMARK INTER:                  -7.278
REMARK INTRA:                  -6.753
REMARK UNBOUND:                -6.753
REMARK SMILES COCC(C(N)=O)n1cc(COC(=O)NC[C@@H](O)C(O)[C@@H]2O[C@@](O)(C(=O)O)C[C@H](O)[C@H]2NC(C)=O)nn1
REMARK SMILES IDX 15 1 13 2 14 3 16 5 17 6 19 7 21 8 23 9 28 10 22 11 29 12
REMARK SMILES IDX 31 13 24 14 25 16 26 17 27 18 30 20 32 22 33 23 34 25 35 26
REMARK SMILES IDX 20 27 18 29 12 31 11 32 10 33 9 34 36 35 8 36 37 37 4 38
REMARK SMILES IDX 3 39 2 40 1 41 5 42 7 43 6 44
REMARK H PARENT 15 4 24 15 27 19 30 21 32 24 20 28 18 30 6 45 6 46
REMARK Flexibility Score: inf
ROOT
ATOM      1  N   UNL     1      25.011  32.649  13.177  1.00  0.00    -0.319 N 
ATOM      2  C   UNL     1      24.502  33.902  12.779  1.00  0.00     0.407 C 
ATOM      3  O   UNL     1      23.288  34.078  12.528  1.00  0.00    -0.225 OA
ATOM      4  H   UNL     1      26.044  32.603  13.371  1.00  0.00     0.167 HD
ENDROOT
BRANCH   1   5
ATOM      5  C   UNL     1      24.262  31.451  13.338  1.00  0.00     0.154 C 
BRANCH   5   6
ATOM      6  C   UNL     1      24.344  30.758  14.648  1.00  0.00     0.165 C 
BRANCH   6   7
ATOM      7  C   UNL     1      25.753  30.681  15.194  1.00  0.00     0.176 C 
BRANCH   7   8
ATOM      8  C   UNL     1      25.983  29.595  16.196  1.00  0.00     0.178 C 
ATOM      9  C   UNL     1      24.916  28.594  17.988  1.00  0.00     0.269 C 
ATOM     10  C   UNL     1      26.083  27.668  17.773  1.00  0.00     0.112 C 
ATOM     11  O   UNL     1      24.862  29.613  17.053  1.00  0.00    -0.332 OA
ATOM     12  C   UNL     1      27.399  28.359  17.719  1.00  0.00     0.145 C 
ATOM     13  C   UNL     1      27.192  29.729  17.055  1.00  0.00     0.142 C 
BRANCH   9  14
ATOM     14  O   UNL     1      24.947  29.056  19.292  1.00  0.00    -0.357 OA
ATOM     15  H   UNL     1      25.167  30.018  19.365  1.00  0.00     0.214 HD
ENDBRANCH   9  14
BRANCH   9  16
ATOM     16  C   UNL     1      23.677  27.785  17.830  1.00  0.00     0.364 C 
ATOM     17  O   UNL     1      23.295  26.973  18.718  1.00  0.00    -0.246 OA
BRANCH  16  18
ATOM     18  O   UNL     1      22.871  27.878  16.691  1.00  0.00    -0.477 OA
ATOM     19  H   UNL     1      23.263  28.048  15.775  1.00  0.00     0.296 HD
ENDBRANCH  16  18
ENDBRANCH   9  16
BRANCH  12  20
ATOM     20  O   UNL     1      27.993  28.510  18.970  1.00  0.00    -0.391 OA
ATOM     21  H   UNL     1      27.843  27.655  19.460  1.00  0.00     0.211 HD
ENDBRANCH  12  20
BRANCH  13  22
ATOM     22  N   UNL     1      28.423  30.042  16.414  1.00  0.00    -0.348 N 
ATOM     23  C   UNL     1      29.162  31.253  16.690  1.00  0.00     0.217 C 
ATOM     24  H   UNL     1      28.876  29.414  15.715  1.00  0.00     0.163 HD
ATOM     25  C   UNL     1      30.441  31.536  15.998  1.00  0.00     0.114 C 
ATOM     26  O   UNL     1      28.724  32.064  17.514  1.00  0.00    -0.275 OA
ENDBRANCH  13  22
ENDBRANCH   7   8
BRANCH   7  27
ATOM     27  O   UNL     1      25.892  31.896  15.936  1.00  0.00    -0.388 OA
ATOM     28  H   UNL     1      25.097  32.075  16.463  1.00  0.00     0.211 HD
ENDBRANCH   7  27
ENDBRANCH   6   7
BRANCH   6  29
ATOM     29  O   UNL     1      23.909  29.441  14.523  1.00  0.00    -0.388 OA
ATOM     30  H   UNL     1      24.482  28.844  15.059  1.00  0.00     0.211 HD
ENDBRANCH   6  29
ENDBRANCH   5   6
ENDBRANCH   1   5
BRANCH   2  31
ATOM     31  O   UNL     1      25.338  35.007  12.648  1.00  0.00    -0.443 OA
BRANCH  31  32
ATOM     32  C   UNL     1      26.660  34.883  12.194  1.00  0.00     0.294 C 
BRANCH  32  33
ATOM     33  C   UNL     1      27.606  34.865  13.325  1.00  0.00     0.120 A 
ATOM     34  C   UNL     1      28.898  35.355  13.351  1.00  0.00     0.139 A 
ATOM     35  N   UNL     1      27.343  34.347  14.544  1.00  0.00    -0.132 NA
ATOM     36  N   UNL     1      29.367  35.121  14.572  1.00  0.00    -0.237 N 
ATOM     37  N   UNL     1      28.447  34.526  15.274  1.00  0.00    -0.066 NA
BRANCH  36  38
ATOM     38  C   UNL     1      30.698  35.470  15.062  1.00  0.00     0.223 C 
BRANCH  38  39
ATOM     39  C   UNL     1      31.718  34.908  14.112  1.00  0.00     0.197 C 
BRANCH  39  40
ATOM     40  O   UNL     1      32.875  34.569  14.776  1.00  0.00    -0.382 OA
ATOM     41  C   UNL     1      34.020  34.639  14.013  1.00  0.00     0.195 C 
ENDBRANCH  39  40
ENDBRANCH  38  39
BRANCH  38  42
ATOM     42  C   UNL     1      30.831  36.964  15.073  1.00  0.00     0.244 C 
ATOM     43  O   UNL     1      30.097  37.660  15.790  1.00  0.00    -0.273 OA
ATOM     44  N   UNL     1      31.821  37.544  14.237  1.00  0.00    -0.368 N 
ATOM     45  H   UNL     1      32.198  38.485  14.490  1.00  0.00     0.159 HD
ATOM     46  H   UNL     1      32.162  37.053  13.402  1.00  0.00     0.159 HD
ENDBRANCH  38  42
ENDBRANCH  36  38
ENDBRANCH  32  33
ENDBRANCH  31  32
ENDBRANCH   2  31
TORSDOF 18
BEGIN_RES LYS A 131
REMARK  4 active torsions:
REMARK  status: ('A' for Active; 'I' for Inactive)
REMARK    1  A    between atoms: CA   and  CB  
REMARK    2  A    between atoms: CB   and  CG  
REMARK    3  A    between atoms: CG   and  CD  
REMARK    4  A    between atoms: CD   and  CE  
ROOT
ATOM      1  CA  LYS A 131      29.867  25.555  16.977  1.00 20.52     0.186 C 
ENDROOT
BRANCH   1   2
ATOM      2  CB  LYS A 131      28.345  25.722  17.026  1.00 20.94     0.034 C 
BRANCH   2   3
ATOM      3  CG  LYS A 131      27.599  24.434  16.715  1.00 22.96     0.005 C 
BRANCH   3   4
ATOM      4  CD  LYS A 131      26.974  23.830  17.942  1.00 24.33     0.041 C 
BRANCH   4   5
ATOM      5  CE  LYS A 131      25.584  23.305  17.600  1.00 26.91     0.338 C 
ATOM      6  NZ  LYS A 131      24.794  24.346  16.901  1.00 27.40     0.618 N 
ENDBRANCH   4   5
ENDBRANCH   3   4
ENDBRANCH   2   3
ENDBRANCH   1   2
END_RES LYS A 131
BEGIN_RES LYS A 135
REMARK  4 active torsions:
REMARK  status: ('A' for Active; 'I' for Inactive)
REMARK    5  A    between atoms: CA   and  CB  
REMARK    6  A    between atoms: CB   and  CG  
REMARK    7  A    between atoms: CG   and  CD  
REMARK    8  A    between atoms: CD   and  CE  
ROOT
ATOM      7  CA  LYS A 135      33.193  34.663   9.290  1.00 25.02     0.186 C 
ENDROOT
BRANCH   7   8
ATOM      8  CB  LYS A 135      32.060  35.360  10.034  1.00 26.63     0.034 C 
BRANCH   8   9
ATOM      9  CG  LYS A 135      30.710  34.733   9.799  1.00 29.45     0.005 C 
BRANCH   9  10
ATOM     10  CD  LYS A 135      30.467  34.523   8.313  1.00 32.00     0.041 C 
BRANCH  10  11
ATOM     11  CE  LYS A 135      29.019  34.813   7.964  1.00 34.25     0.338 C 
ATOM     12  NZ  LYS A 135      28.914  35.516   6.655  1.00 35.99     0.618 N 
ENDBRANCH  10  11
ENDBRANCH   9  10
ENDBRANCH   8   9
ENDBRANCH   7   8
END_RES LYS A 135
