REMARK VINA RESULT:    -5.326      6.489     12.157
REMARK INTER + INTRA:         -14.852
REMARK INTER:                  -8.988
REMARK INTRA:                  -5.864
REMARK UNBOUND:                -5.011
REMARK SMILES CC(=O)N[C@@H]1[C@@H](O)C[C@](O)(C(=O)O)O[C@H]1C(O)[C@H](O)CNC(=O)OCc1cn(CS(=O)(=O)c2ccccc2)nn1
REMARK SMILES IDX 21 1 22 2 23 3 20 5 18 6 16 7 15 8 9 9 8 10 14 11 6 12 5 13
REMARK SMILES IDX 10 14 11 16 12 17 13 18 7 20 4 22 2 23 1 25 3 26 17 27 19 29
REMARK SMILES IDX 24 31 25 32 26 33 27 34 40 35 28 36 39 37 29 38 30 39 31 40
REMARK SMILES IDX 32 41 33 42 34 43 38 44 35 45 37 46 36 47
REMARK H PARENT 21 4 10 15 13 19 7 21 4 24 17 28 19 30
REMARK Flexibility Score: inf
ROOT
ATOM      1  N   UNL     1      30.895  40.917   8.785  1.00  0.00    -0.319 N 
ATOM      2  C   UNL     1      30.061  41.533   9.786  1.00  0.00     0.407 C 
ATOM      3  O   UNL     1      28.840  41.606   9.587  1.00  0.00    -0.225 OA
ATOM      4  H   UNL     1      31.903  40.890   9.032  1.00  0.00     0.167 HD
ENDROOT
BRANCH   1   5
ATOM      5  C   UNL     1      30.313  40.391   7.564  1.00  0.00     0.154 C 
BRANCH   5   6
ATOM      6  C   UNL     1      30.220  38.903   7.565  1.00  0.00     0.165 C 
BRANCH   6   7
ATOM      7  C   UNL     1      28.938  38.364   8.103  1.00  0.00     0.176 C 
BRANCH   7   8
ATOM      8  C   UNL     1      27.692  39.078   7.721  1.00  0.00     0.178 C 
ATOM      9  C   UNL     1      26.255  37.513   8.699  1.00  0.00     0.269 C 
ATOM     10  C   UNL     1      26.270  36.735   7.425  1.00  0.00     0.112 C 
ATOM     11  O   UNL     1      26.675  38.817   8.636  1.00  0.00    -0.332 OA
ATOM     12  C   UNL     1      26.538  37.489   6.182  1.00  0.00     0.145 C 
ATOM     13  C   UNL     1      27.109  38.865   6.381  1.00  0.00     0.142 C 
BRANCH   9  14
ATOM     14  O   UNL     1      27.023  36.891   9.685  1.00  0.00    -0.357 OA
ATOM     15  H   UNL     1      26.619  36.896  10.567  1.00  0.00     0.214 HD
ENDBRANCH   9  14
BRANCH   9  16
ATOM     16  C   UNL     1      24.861  37.556   9.212  1.00  0.00     0.364 C 
ATOM     17  O   UNL     1      24.055  38.376   8.724  1.00  0.00    -0.246 OA
BRANCH  16  18
ATOM     18  O   UNL     1      24.398  36.721  10.222  1.00  0.00    -0.477 OA
ATOM     19  H   UNL     1      23.794  35.916  10.005  1.00  0.00     0.296 HD
ENDBRANCH  16  18
ENDBRANCH   9  16
BRANCH  12  20
ATOM     20  O   UNL     1      27.351  36.725   5.347  1.00  0.00    -0.391 OA
ATOM     21  H   UNL     1      27.159  35.770   5.397  1.00  0.00     0.211 HD
ENDBRANCH  12  20
BRANCH  13  22
ATOM     22  N   UNL     1      26.095  39.900   6.156  1.00  0.00    -0.348 N 
ATOM     23  C   UNL     1      26.091  40.701   4.993  1.00  0.00     0.217 C 
ATOM     24  H   UNL     1      25.352  40.059   6.865  1.00  0.00     0.163 HD
ATOM     25  C   UNL     1      25.065  41.759   4.749  1.00  0.00     0.114 C 
ATOM     26  O   UNL     1      26.997  40.492   4.149  1.00  0.00    -0.275 OA
ENDBRANCH  13  22
ENDBRANCH   7   8
BRANCH   7  27
ATOM     27  O   UNL     1      29.043  38.689   9.527  1.00  0.00    -0.388 OA
ATOM     28  H   UNL     1      28.902  39.650   9.585  1.00  0.00     0.211 HD
ENDBRANCH   7  27
ENDBRANCH   6   7
BRANCH   6  29
ATOM     29  O   UNL     1      31.335  38.230   8.023  1.00  0.00    -0.388 OA
ATOM     30  H   UNL     1      31.833  37.781   7.298  1.00  0.00     0.211 HD
ENDBRANCH   6  29
ENDBRANCH   5   6
ENDBRANCH   1   5
BRANCH   2  31
ATOM     31  O   UNL     1      30.598  42.039  10.955  1.00  0.00    -0.443 OA
BRANCH  31  32
ATOM     32  C   UNL     1      31.678  41.421  11.630  1.00  0.00     0.294 C 
BRANCH  32  33
ATOM     33  C   UNL     1      31.501  39.965  11.728  1.00  0.00     0.120 A 
ATOM     34  C   UNL     1      30.974  39.199  12.729  1.00  0.00     0.139 A 
ATOM     35  N   UNL     1      31.862  39.094  10.762  1.00  0.00    -0.132 NA
ATOM     36  N   UNL     1      31.031  37.898  12.347  1.00  0.00    -0.237 N 
ATOM     37  N   UNL     1      31.578  37.866  11.143  1.00  0.00    -0.066 NA
BRANCH  36  38
ATOM     38  C   UNL     1      30.567  36.791  13.140  1.00  0.00     0.287 C 
BRANCH  38  39
ATOM     39  S   UNL     1      31.947  35.958  13.913  1.00  0.00     0.198 S 
ATOM     40  O   UNL     1      32.567  36.912  14.901  1.00  0.00    -0.222 OA
ATOM     41  O   UNL     1      32.924  35.621  12.850  1.00  0.00    -0.222 OA
BRANCH  39  42
ATOM     42  C   UNL     1      31.348  34.525  14.728  1.00  0.00     0.069 A 
ATOM     43  C   UNL     1      30.284  33.843  14.149  1.00  0.00     0.020 A 
ATOM     44  C   UNL     1      31.923  34.102  15.903  1.00  0.00     0.020 A 
ATOM     45  C   UNL     1      29.816  32.720  14.789  1.00  0.00     0.001 A 
ATOM     46  C   UNL     1      31.416  32.972  16.505  1.00  0.00     0.001 A 
ATOM     47  C   UNL     1      30.367  32.256  15.980  1.00  0.00     0.000 A 
ENDBRANCH  39  42
ENDBRANCH  38  39
ENDBRANCH  36  38
ENDBRANCH  32  33
ENDBRANCH  31  32
ENDBRANCH   2  31
TORSDOF 17
BEGIN_RES LYS A 131
REMARK  4 active torsions:
REMARK  status: ('A' for Active; 'I' for Inactive)
REMARK    1  A    between atoms: CA   and  CB  
REMARK    2  A    between atoms: CB   and  CG  
REMARK    3  A    between atoms: CG   and  CD  
REMARK    4  A    between atoms: CD   and  CE  
ROOT
ATOM      1  CA  LYS A 131      29.867  25.555  16.977  1.00 20.52     0.186 C 
ENDROOT
BRANCH   1   2
ATOM      2  CB  LYS A 131      28.345  25.722  17.026  1.00 20.94     0.034 C 
BRANCH   2   3
ATOM      3  CG  LYS A 131      27.601  24.401  16.904  1.00 22.96     0.005 C 
BRANCH   3   4
ATOM      4  CD  LYS A 131      26.628  24.192  18.031  1.00 24.33     0.041 C 
BRANCH   4   5
ATOM      5  CE  LYS A 131      25.605  23.134  17.631  1.00 26.91     0.338 C 
ATOM      6  NZ  LYS A 131      24.925  22.591  18.830  1.00 27.40     0.618 N 
ENDBRANCH   4   5
ENDBRANCH   3   4
ENDBRANCH   2   3
ENDBRANCH   1   2
END_RES LYS A 131
BEGIN_RES LYS A 135
REMARK  4 active torsions:
REMARK  status: ('A' for Active; 'I' for Inactive)
REMARK    5  A    between atoms: CA   and  CB  
REMARK    6  A    between atoms: CB   and  CG  
REMARK    7  A    between atoms: CG   and  CD  
REMARK    8  A    between atoms: CD   and  CE  
ROOT
ATOM      7  CA  LYS A 135      33.193  34.663   9.290  1.00 25.02     0.186 C 
ENDROOT
BRANCH   7   8
ATOM      8  CB  LYS A 135      32.060  35.360  10.034  1.00 26.63     0.034 C 
BRANCH   8   9
ATOM      9  CG  LYS A 135      30.739  34.643   9.929  1.00 29.45     0.005 C 
BRANCH   9  10
ATOM     10  CD  LYS A 135      30.350  34.445   8.472  1.00 32.00     0.041 C 
BRANCH  10  11
ATOM     11  CE  LYS A 135      28.841  34.425   8.321  1.00 34.25     0.338 C 
ATOM     12  NZ  LYS A 135      28.197  33.724   9.467  1.00 35.99     0.618 N 
ENDBRANCH  10  11
ENDBRANCH   9  10
ENDBRANCH   8   9
ENDBRANCH   7   8
END_RES LYS A 135
