REMARK VINA RESULT:    -4.899      4.412      7.918
REMARK INTER + INTRA:         -15.745
REMARK INTER:                  -9.320
REMARK INTRA:                  -6.425
REMARK UNBOUND:                -6.408
REMARK SMILES CC(=O)N[C@@H]1[C@@H](O)C[C@](O)(C(=O)O)O[C@H]1C(O)[C@H](O)CNC(=O)OCc1cn(-c2ccc(S(=O)(=O)Nc3nccs3)cc2)nn1
REMARK SMILES IDX 21 1 22 2 23 3 20 5 18 6 16 7 15 8 9 9 8 10 14 11 6 12 5 13
REMARK SMILES IDX 10 14 11 16 12 17 13 18 7 20 4 22 2 23 1 25 3 26 17 27 19 29
REMARK SMILES IDX 24 31 25 32 26 33 27 34 45 35 28 36 44 37 29 38 30 39 43 40
REMARK SMILES IDX 31 41 42 42 32 43 33 44 34 45 35 46 36 47 37 49 38 50 41 51
REMARK SMILES IDX 39 52 40 53
REMARK H PARENT 21 4 10 15 13 19 7 21 4 24 17 28 19 30 36 48
REMARK Flexibility Score: inf
ROOT
ATOM      1  N   UNL     1      31.418  33.761  17.507  1.00  0.00    -0.319 N 
ATOM      2  C   UNL     1      32.156  34.923  17.191  1.00  0.00     0.407 C 
ATOM      3  O   UNL     1      32.115  35.911  18.001  1.00  0.00    -0.225 OA
ATOM      4  H   UNL     1      31.448  32.957  16.857  1.00  0.00     0.167 HD
ENDROOT
BRANCH   1   5
ATOM      5  C   UNL     1      30.630  33.666  18.706  1.00  0.00     0.154 C 
BRANCH   5   6
ATOM      6  C   UNL     1      29.147  33.715  18.435  1.00  0.00     0.165 C 
BRANCH   6   7
ATOM      7  C   UNL     1      28.790  33.085  17.120  1.00  0.00     0.176 C 
BRANCH   7   8
ATOM      8  C   UNL     1      27.487  32.275  17.241  1.00  0.00     0.178 C 
ATOM      9  C   UNL     1      28.220  30.189  18.064  1.00  0.00     0.269 C 
ATOM     10  C   UNL     1      27.586  29.512  16.865  1.00  0.00     0.112 C 
ATOM     11  O   UNL     1      27.658  31.400  18.269  1.00  0.00    -0.332 OA
ATOM     12  C   UNL     1      27.872  30.412  15.687  1.00  0.00     0.145 C 
ATOM     13  C   UNL     1      27.147  31.716  15.915  1.00  0.00     0.142 C 
BRANCH   9  14
ATOM     14  O   UNL     1      29.572  30.353  17.734  1.00  0.00    -0.357 OA
ATOM     15  H   UNL     1      29.756  31.199  17.286  1.00  0.00     0.214 HD
ENDBRANCH   9  14
BRANCH   9  16
ATOM     16  C   UNL     1      28.166  29.309  19.261  1.00  0.00     0.364 C 
ATOM     17  O   UNL     1      28.053  29.814  20.387  1.00  0.00    -0.246 OA
BRANCH  16  18
ATOM     18  O   UNL     1      28.243  27.936  19.134  1.00  0.00    -0.477 OA
ATOM     19  H   UNL     1      27.551  27.334  19.604  1.00  0.00     0.296 HD
ENDBRANCH  16  18
ENDBRANCH   9  16
BRANCH  12  20
ATOM     20  O   UNL     1      29.245  30.570  15.534  1.00  0.00    -0.391 OA
ATOM     21  H   UNL     1      29.469  30.315  14.591  1.00  0.00     0.211 HD
ENDBRANCH  12  20
BRANCH  13  22
ATOM     22  N   UNL     1      25.760  31.486  15.671  1.00  0.00    -0.348 N 
ATOM     23  C   UNL     1      25.012  32.390  14.886  1.00  0.00     0.217 C 
ATOM     24  H   UNL     1      25.289  30.656  16.069  1.00  0.00     0.163 HD
ATOM     25  C   UNL     1      23.567  32.230  14.583  1.00  0.00     0.114 C 
ATOM     26  O   UNL     1      25.599  33.377  14.423  1.00  0.00    -0.275 OA
ENDBRANCH  13  22
ENDBRANCH   7   8
BRANCH   7  27
ATOM     27  O   UNL     1      28.647  34.042  16.088  1.00  0.00    -0.388 OA
ATOM     28  H   UNL     1      28.593  33.556  15.246  1.00  0.00     0.211 HD
ENDBRANCH   7  27
ENDBRANCH   6   7
BRANCH   6  29
ATOM     29  O   UNL     1      28.809  35.086  18.456  1.00  0.00    -0.388 OA
ATOM     30  H   UNL     1      29.250  35.489  17.668  1.00  0.00     0.211 HD
ENDBRANCH   6  29
ENDBRANCH   5   6
ENDBRANCH   1   5
BRANCH   2  31
ATOM     31  O   UNL     1      32.925  35.060  16.054  1.00  0.00    -0.443 OA
BRANCH  31  32
ATOM     32  C   UNL     1      32.601  36.011  15.031  1.00  0.00     0.294 C 
BRANCH  32  33
ATOM     33  C   UNL     1      31.433  35.446  14.293  1.00  0.00     0.121 A 
ATOM     34  C   UNL     1      30.506  36.155  13.526  1.00  0.00     0.144 A 
ATOM     35  N   UNL     1      31.026  34.163  14.206  1.00  0.00    -0.131 NA
ATOM     36  N   UNL     1      29.601  35.301  13.021  1.00  0.00    -0.220 N 
ATOM     37  N   UNL     1      29.953  34.108  13.456  1.00  0.00    -0.062 NA
BRANCH  36  38
ATOM     38  C   UNL     1      28.506  35.664  12.190  1.00  0.00     0.066 A 
ATOM     39  C   UNL     1      27.446  34.821  11.949  1.00  0.00     0.030 A 
ATOM     40  C   UNL     1      28.487  36.905  11.590  1.00  0.00     0.030 A 
ATOM     41  C   UNL     1      26.383  35.196  11.128  1.00  0.00     0.024 A 
ATOM     42  C   UNL     1      27.439  37.278  10.780  1.00  0.00     0.024 A 
ATOM     43  C   UNL     1      26.353  36.432  10.526  1.00  0.00     0.088 A 
BRANCH  43  44
ATOM     44  S   UNL     1      25.044  36.949   9.506  1.00  0.00     0.263 S 
ATOM     45  O   UNL     1      25.669  37.481   8.223  1.00  0.00    -0.201 OA
ATOM     46  O   UNL     1      24.383  38.110  10.165  1.00  0.00    -0.201 OA
BRANCH  44  47
ATOM     47  N   UNL     1      23.927  35.728   9.117  1.00  0.00    -0.255 N 
ATOM     48  H   UNL     1      24.209  35.027   8.378  1.00  0.00     0.182 HD
BRANCH  47  49
ATOM     49  C   UNL     1      22.651  35.537   9.670  1.00  0.00     0.196 A 
ATOM     50  N   UNL     1      21.463  35.655   9.414  1.00  0.00    -0.228 NA
ATOM     51  S   UNL     1      22.505  34.855  11.426  1.00  0.00    -0.105 S 
ATOM     52  C   UNL     1      20.442  35.380  10.160  1.00  0.00     0.125 A 
ATOM     53  C   UNL     1      20.646  34.892  11.404  1.00  0.00     0.089 A 
ENDBRANCH  47  49
ENDBRANCH  44  47
ENDBRANCH  43  44
ENDBRANCH  36  38
ENDBRANCH  32  33
ENDBRANCH  31  32
ENDBRANCH   2  31
TORSDOF 18
BEGIN_RES LYS A 131
REMARK  4 active torsions:
REMARK  status: ('A' for Active; 'I' for Inactive)
REMARK    1  A    between atoms: CA   and  CB  
REMARK    2  A    between atoms: CB   and  CG  
REMARK    3  A    between atoms: CG   and  CD  
REMARK    4  A    between atoms: CD   and  CE  
ROOT
ATOM      1  CA  LYS A 131      29.867  25.555  16.977  1.00 20.52     0.186 C 
ENDROOT
BRANCH   1   2
ATOM      2  CB  LYS A 131      28.345  25.722  17.026  1.00 20.94     0.034 C 
BRANCH   2   3
ATOM      3  CG  LYS A 131      27.601  24.403  16.888  1.00 22.96     0.005 C 
BRANCH   3   4
ATOM      4  CD  LYS A 131      26.585  24.208  17.979  1.00 24.33     0.041 C 
BRANCH   4   5
ATOM      5  CE  LYS A 131      25.213  23.965  17.358  1.00 26.91     0.338 C 
ATOM      6  NZ  LYS A 131      24.801  22.554  17.548  1.00 27.40     0.618 N 
ENDBRANCH   4   5
ENDBRANCH   3   4
ENDBRANCH   2   3
ENDBRANCH   1   2
END_RES LYS A 131
BEGIN_RES LYS A 135
REMARK  4 active torsions:
REMARK  status: ('A' for Active; 'I' for Inactive)
REMARK    5  A    between atoms: CA   and  CB  
REMARK    6  A    between atoms: CB   and  CG  
REMARK    7  A    between atoms: CG   and  CD  
REMARK    8  A    between atoms: CD   and  CE  
ROOT
ATOM      7  CA  LYS A 135      33.193  34.663   9.290  1.00 25.02     0.186 C 
ENDROOT
BRANCH   7   8
ATOM      8  CB  LYS A 135      32.060  35.360  10.034  1.00 26.63     0.034 C 
BRANCH   8   9
ATOM      9  CG  LYS A 135      30.889  35.714   9.154  1.00 29.45     0.005 C 
BRANCH   9  10
ATOM     10  CD  LYS A 135      30.410  34.494   8.382  1.00 32.00     0.041 C 
BRANCH  10  11
ATOM     11  CE  LYS A 135      28.964  34.184   8.721  1.00 34.25     0.338 C 
ATOM     12  NZ  LYS A 135      28.032  34.927   7.828  1.00 35.99     0.618 N 
ENDBRANCH  10  11
ENDBRANCH   9  10
ENDBRANCH   8   9
ENDBRANCH   7   8
END_RES LYS A 135
