REMARK VINA RESULT:    -4.261      3.173      7.728
REMARK INTER + INTRA:         -13.930
REMARK INTER:                  -8.893
REMARK INTRA:                  -5.037
REMARK UNBOUND:                -6.555
REMARK SMILES CC(=O)N[C@@H]1[C@@H](O)C[C@](O)(C(=O)O)O[C@H]1C(O)[C@H](O)CNC(=O)OCc1cn([C@H]2C[C@H]3CC[C@@H](C2)N3C)nn1
REMARK SMILES IDX 20 1 18 2 16 3 15 4 9 5 8 6 14 7 6 8 5 9 10 10 11 12 12 13
REMARK SMILES IDX 13 14 7 16 4 18 2 19 1 21 3 22 17 23 19 25 21 27 22 28 23 30
REMARK SMILES IDX 24 31 25 32 26 33 27 34 39 35 28 36 38 37 29 38 35 39 30 40
REMARK SMILES IDX 34 41 31 42 36 43 33 44 32 45 37 46
REMARK H PARENT 10 11 13 15 7 17 4 20 17 24 19 26 21 29
REMARK Flexibility Score: inf
ROOT
ATOM      1  C   UNL     1      30.426  32.015  16.859  1.00  0.00     0.154 C 
ENDROOT
BRANCH   1   2
ATOM      2  C   UNL     1      31.248  32.260  15.641  1.00  0.00     0.165 C 
BRANCH   2   3
ATOM      3  C   UNL     1      31.996  33.557  15.663  1.00  0.00     0.176 C 
BRANCH   3   4
ATOM      4  C   UNL     1      31.085  34.759  15.564  1.00  0.00     0.178 C 
ATOM      5  C   UNL     1      30.090  36.157  14.015  1.00  0.00     0.269 C 
ATOM      6  C   UNL     1      29.697  36.851  15.292  1.00  0.00     0.112 C 
ATOM      7  O   UNL     1      30.755  34.961  14.232  1.00  0.00    -0.332 OA
ATOM      8  C   UNL     1      30.844  37.078  16.228  1.00  0.00     0.145 C 
ATOM      9  C   UNL     1      31.853  35.982  16.023  1.00  0.00     0.142 C 
BRANCH   5  10
ATOM     10  O   UNL     1      30.819  36.982  13.161  1.00  0.00    -0.357 OA
ATOM     11  H   UNL     1      30.214  37.490  12.571  1.00  0.00     0.214 HD
ENDBRANCH   5  10
BRANCH   5  12
ATOM     12  C   UNL     1      28.821  35.816  13.296  1.00  0.00     0.364 C 
ATOM     13  O   UNL     1      27.844  35.281  13.920  1.00  0.00    -0.246 OA
BRANCH  12  14
ATOM     14  O   UNL     1      28.633  36.054  11.955  1.00  0.00    -0.477 OA
ATOM     15  H   UNL     1      28.831  37.000  11.605  1.00  0.00     0.296 HD
ENDBRANCH  12  14
ENDBRANCH   5  12
BRANCH   8  16
ATOM     16  O   UNL     1      31.374  38.345  16.163  1.00  0.00    -0.391 OA
ATOM     17  H   UNL     1      30.923  38.899  16.854  1.00  0.00     0.211 HD
ENDBRANCH   8  16
BRANCH   9  18
ATOM     18  N   UNL     1      32.657  35.721  17.189  1.00  0.00    -0.348 N 
ATOM     19  C   UNL     1      33.899  36.385  17.428  1.00  0.00     0.217 C 
ATOM     20  H   UNL     1      32.351  35.026  17.907  1.00  0.00     0.163 HD
ATOM     21  C   UNL     1      34.676  36.072  18.644  1.00  0.00     0.114 C 
ATOM     22  O   UNL     1      34.284  37.222  16.579  1.00  0.00    -0.275 OA
ENDBRANCH   9  18
ENDBRANCH   3   4
BRANCH   3  23
ATOM     23  O   UNL     1      32.872  33.594  14.579  1.00  0.00    -0.388 OA
ATOM     24  H   UNL     1      33.749  33.232  14.800  1.00  0.00     0.211 HD
ENDBRANCH   3  23
ENDBRANCH   2   3
BRANCH   2  25
ATOM     25  O   UNL     1      30.447  32.240  14.477  1.00  0.00    -0.388 OA
ATOM     26  H   UNL     1      29.866  31.434  14.577  1.00  0.00     0.211 HD
ENDBRANCH   2  25
ENDBRANCH   1   2
BRANCH   1  27
ATOM     27  N   UNL     1      29.804  30.712  16.851  1.00  0.00    -0.319 N 
ATOM     28  C   UNL     1      28.471  30.571  16.384  1.00  0.00     0.407 C 
ATOM     29  H   UNL     1      30.294  29.845  17.176  1.00  0.00     0.167 HD
ATOM     30  O   UNL     1      27.780  31.541  15.968  1.00  0.00    -0.225 OA
BRANCH  28  31
ATOM     31  O   UNL     1      27.822  29.337  16.352  1.00  0.00    -0.443 OA
BRANCH  31  32
ATOM     32  C   UNL     1      26.733  29.026  17.199  1.00  0.00     0.294 C 
BRANCH  32  33
ATOM     33  C   UNL     1      27.218  28.307  18.408  1.00  0.00     0.120 A 
ATOM     34  C   UNL     1      28.104  28.819  19.333  1.00  0.00     0.138 A 
ATOM     35  N   UNL     1      26.921  27.072  18.849  1.00  0.00    -0.132 NA
ATOM     36  N   UNL     1      28.322  27.890  20.305  1.00  0.00    -0.249 N 
ATOM     37  N   UNL     1      27.580  26.851  19.961  1.00  0.00    -0.067 NA
BRANCH  36  38
ATOM     38  C   UNL     1      29.189  28.023  21.472  1.00  0.00     0.112 C 
ATOM     39  C   UNL     1      29.530  29.458  21.633  1.00  0.00     0.046 C 
ATOM     40  C   UNL     1      30.346  27.107  21.283  1.00  0.00     0.046 C 
ATOM     41  C   UNL     1      30.878  29.740  22.190  1.00  0.00     0.058 C 
ATOM     42  C   UNL     1      31.681  27.721  21.615  1.00  0.00     0.058 C 
ATOM     43  N   UNL     1      31.486  28.568  22.779  1.00  0.00    -0.300 NA
ATOM     44  C   UNL     1      31.816  30.034  21.030  1.00  0.00     0.021 C 
ATOM     45  C   UNL     1      32.066  28.642  20.485  1.00  0.00     0.021 C 
ATOM     46  C   UNL     1      32.733  28.919  23.411  1.00  0.00     0.105 C 
ENDBRANCH  36  38
ENDBRANCH  32  33
ENDBRANCH  31  32
ENDBRANCH  28  31
ENDBRANCH   1  27
TORSDOF 15
BEGIN_RES LYS A 131
REMARK  4 active torsions:
REMARK  status: ('A' for Active; 'I' for Inactive)
REMARK    1  A    between atoms: CA   and  CB  
REMARK    2  A    between atoms: CB   and  CG  
REMARK    3  A    between atoms: CG   and  CD  
REMARK    4  A    between atoms: CD   and  CE  
ROOT
ATOM      1  CA  LYS A 131      29.867  25.555  16.977  1.00 20.52     0.186 C 
ENDROOT
BRANCH   1   2
ATOM      2  CB  LYS A 131      28.345  25.722  17.026  1.00 20.94     0.034 C 
BRANCH   2   3
ATOM      3  CG  LYS A 131      27.599  24.467  16.599  1.00 22.96     0.005 C 
BRANCH   3   4
ATOM      4  CD  LYS A 131      27.116  23.668  17.778  1.00 24.33     0.041 C 
BRANCH   4   5
ATOM      5  CE  LYS A 131      25.593  23.726  17.842  1.00 26.91     0.338 C 
ATOM      6  NZ  LYS A 131      25.015  22.370  17.689  1.00 27.40     0.618 N 
ENDBRANCH   4   5
ENDBRANCH   3   4
ENDBRANCH   2   3
ENDBRANCH   1   2
END_RES LYS A 131
BEGIN_RES LYS A 135
REMARK  4 active torsions:
REMARK  status: ('A' for Active; 'I' for Inactive)
REMARK    5  A    between atoms: CA   and  CB  
REMARK    6  A    between atoms: CB   and  CG  
REMARK    7  A    between atoms: CG   and  CD  
REMARK    8  A    between atoms: CD   and  CE  
ROOT
ATOM      7  CA  LYS A 135      33.193  34.663   9.290  1.00 25.02     0.186 C 
ENDROOT
BRANCH   7   8
ATOM      8  CB  LYS A 135      32.060  35.360  10.034  1.00 26.63     0.034 C 
BRANCH   8   9
ATOM      9  CG  LYS A 135      30.800  35.500   9.219  1.00 29.45     0.005 C 
BRANCH   9  10
ATOM     10  CD  LYS A 135      30.066  34.170   9.134  1.00 32.00     0.041 C 
BRANCH  10  11
ATOM     11  CE  LYS A 135      28.627  34.383   8.703  1.00 34.25     0.338 C 
ATOM     12  NZ  LYS A 135      27.685  33.665   9.605  1.00 35.99     0.618 N 
ENDBRANCH  10  11
ENDBRANCH   9  10
ENDBRANCH   8   9
ENDBRANCH   7   8
END_RES LYS A 135
