REMARK VINA RESULT:    -5.166      4.844      9.074
REMARK INTER + INTRA:         -14.656
REMARK INTER:                  -9.904
REMARK INTRA:                  -4.753
REMARK UNBOUND:                -5.414
REMARK SMILES CC(=O)N[C@@H]1[C@@H](O)C[C@](O)(C(=O)O)O[C@H]1C(O)[C@H](O)CNC(=O)OCc1cn(-c2ccccc2C(N)=O)nn1
REMARK SMILES IDX 21 1 22 2 23 3 20 5 18 6 16 7 15 8 9 9 8 10 14 11 6 12 5 13
REMARK SMILES IDX 10 14 11 16 12 17 13 18 7 20 4 22 2 23 1 25 3 26 17 27 19 29
REMARK SMILES IDX 24 31 25 32 26 33 27 34 39 35 28 36 38 37 29 38 34 39 30 40
REMARK SMILES IDX 33 41 31 42 32 43 35 44 37 45 36 46
REMARK H PARENT 21 4 10 15 13 19 7 21 4 24 17 28 19 30 36 47 36 48
REMARK Flexibility Score: inf
ROOT
ATOM      1  N   UNL     1      24.464  34.697  14.151  1.00  0.00    -0.319 N 
ATOM      2  C   UNL     1      24.116  33.766  13.137  1.00  0.00     0.407 C 
ATOM      3  O   UNL     1      24.834  32.764  12.964  1.00  0.00    -0.225 OA
ATOM      4  H   UNL     1      23.811  35.527  14.244  1.00  0.00     0.167 HD
ENDROOT
BRANCH   1   5
ATOM      5  C   UNL     1      25.608  34.578  15.021  1.00  0.00     0.154 C 
BRANCH   5   6
ATOM      6  C   UNL     1      26.581  35.734  14.863  1.00  0.00     0.165 C 
BRANCH   6   7
ATOM      7  C   UNL     1      27.631  35.445  13.832  1.00  0.00     0.176 C 
BRANCH   7   8
ATOM      8  C   UNL     1      29.018  35.408  14.352  1.00  0.00     0.178 C 
ATOM      9  C   UNL     1      31.196  35.612  13.522  1.00  0.00     0.269 C 
ATOM     10  C   UNL     1      31.519  35.614  14.987  1.00  0.00     0.112 C 
ATOM     11  O   UNL     1      29.868  35.625  13.235  1.00  0.00    -0.332 OA
ATOM     12  C   UNL     1      30.781  34.590  15.779  1.00  0.00     0.145 C 
ATOM     13  C   UNL     1      29.517  34.194  15.024  1.00  0.00     0.142 C 
BRANCH   9  14
ATOM     14  O   UNL     1      31.875  34.537  12.902  1.00  0.00    -0.357 OA
ATOM     15  H   UNL     1      31.397  34.336  12.045  1.00  0.00     0.214 HD
ENDBRANCH   9  14
BRANCH   9  16
ATOM     16  C   UNL     1      31.800  36.849  12.947  1.00  0.00     0.364 C 
ATOM     17  O   UNL     1      32.556  36.728  11.934  1.00  0.00    -0.246 OA
BRANCH  16  18
ATOM     18  O   UNL     1      31.585  38.113  13.452  1.00  0.00    -0.477 OA
ATOM     19  H   UNL     1      32.338  38.650  13.854  1.00  0.00     0.296 HD
ENDBRANCH  16  18
ENDBRANCH   9  16
BRANCH  12  20
ATOM     20  O   UNL     1      31.608  33.498  15.988  1.00  0.00    -0.391 OA
ATOM     21  H   UNL     1      31.122  32.638  16.048  1.00  0.00     0.211 HD
ENDBRANCH  12  20
BRANCH  13  22
ATOM     22  N   UNL     1      28.630  33.420  15.804  1.00  0.00    -0.348 N 
ATOM     23  C   UNL     1      28.691  32.011  15.838  1.00  0.00     0.217 C 
ATOM     24  H   UNL     1      27.909  33.872  16.401  1.00  0.00     0.163 HD
ATOM     25  C   UNL     1      27.790  31.152  16.634  1.00  0.00     0.114 C 
ATOM     26  O   UNL     1      29.569  31.450  15.147  1.00  0.00    -0.275 OA
ENDBRANCH  13  22
ENDBRANCH   7   8
BRANCH   7  27
ATOM     27  O   UNL     1      27.288  34.514  12.881  1.00  0.00    -0.388 OA
ATOM     28  H   UNL     1      27.670  33.618  13.126  1.00  0.00     0.211 HD
ENDBRANCH   7  27
ENDBRANCH   6   7
BRANCH   6  29
ATOM     29  O   UNL     1      27.031  36.209  16.062  1.00  0.00    -0.388 OA
ATOM     30  H   UNL     1      26.999  35.504  16.765  1.00  0.00     0.211 HD
ENDBRANCH   6  29
ENDBRANCH   5   6
ENDBRANCH   1   5
BRANCH   2  31
ATOM     31  O   UNL     1      22.999  33.931  12.328  1.00  0.00    -0.443 OA
BRANCH  31  32
ATOM     32  C   UNL     1      22.756  35.129  11.610  1.00  0.00     0.294 C 
BRANCH  32  33
ATOM     33  C   UNL     1      24.028  35.642  11.016  1.00  0.00     0.121 A 
ATOM     34  C   UNL     1      24.409  35.504   9.695  1.00  0.00     0.144 A 
ATOM     35  N   UNL     1      25.015  36.316  11.626  1.00  0.00    -0.131 NA
ATOM     36  N   UNL     1      25.628  36.108   9.557  1.00  0.00    -0.220 N 
ATOM     37  N   UNL     1      25.959  36.580  10.722  1.00  0.00    -0.062 NA
BRANCH  36  38
ATOM     38  C   UNL     1      26.373  36.176   8.335  1.00  0.00     0.079 A 
ATOM     39  C   UNL     1      26.246  37.229   7.460  1.00  0.00     0.065 A 
ATOM     40  C   UNL     1      27.247  35.134   8.047  1.00  0.00     0.029 A 
ATOM     41  C   UNL     1      27.009  37.223   6.288  1.00  0.00     0.016 A 
ATOM     42  C   UNL     1      27.988  35.146   6.890  1.00  0.00     0.002 A 
ATOM     43  C   UNL     1      27.860  36.194   6.018  1.00  0.00     0.001 A 
BRANCH  39  44
ATOM     44  C   UNL     1      25.351  38.351   7.702  1.00  0.00     0.250 C 
ATOM     45  O   UNL     1      25.756  39.261   8.496  1.00  0.00    -0.269 OA
ATOM     46  N   UNL     1      24.071  38.463   7.097  1.00  0.00    -0.366 N 
ATOM     47  H   UNL     1      23.947  38.675   6.094  1.00  0.00     0.159 HD
ATOM     48  H   UNL     1      23.233  38.323   7.738  1.00  0.00     0.159 HD
ENDBRANCH  39  44
ENDBRANCH  36  38
ENDBRANCH  32  33
ENDBRANCH  31  32
ENDBRANCH   2  31
TORSDOF 16
BEGIN_RES LYS A 131
REMARK  4 active torsions:
REMARK  status: ('A' for Active; 'I' for Inactive)
REMARK    1  A    between atoms: CA   and  CB  
REMARK    2  A    between atoms: CB   and  CG  
REMARK    3  A    between atoms: CG   and  CD  
REMARK    4  A    between atoms: CD   and  CE  
ROOT
ATOM      1  CA  LYS A 131      29.867  25.555  16.977  1.00 20.52     0.186 C 
ENDROOT
BRANCH   1   2
ATOM      2  CB  LYS A 131      28.345  25.722  17.026  1.00 20.94     0.034 C 
BRANCH   2   3
ATOM      3  CG  LYS A 131      27.601  24.402  16.897  1.00 22.96     0.005 C 
BRANCH   3   4
ATOM      4  CD  LYS A 131      26.528  24.252  17.939  1.00 24.33     0.041 C 
BRANCH   4   5
ATOM      5  CE  LYS A 131      25.186  24.005  17.257  1.00 26.91     0.338 C 
ATOM      6  NZ  LYS A 131      24.372  25.243  17.250  1.00 27.40     0.618 N 
ENDBRANCH   4   5
ENDBRANCH   3   4
ENDBRANCH   2   3
ENDBRANCH   1   2
END_RES LYS A 131
BEGIN_RES LYS A 135
REMARK  4 active torsions:
REMARK  status: ('A' for Active; 'I' for Inactive)
REMARK    5  A    between atoms: CA   and  CB  
REMARK    6  A    between atoms: CB   and  CG  
REMARK    7  A    between atoms: CG   and  CD  
REMARK    8  A    between atoms: CD   and  CE  
ROOT
ATOM      7  CA  LYS A 135      33.193  34.663   9.290  1.00 25.02     0.186 C 
ENDROOT
BRANCH   7   8
ATOM      8  CB  LYS A 135      32.060  35.360  10.034  1.00 26.63     0.034 C 
BRANCH   8   9
ATOM      9  CG  LYS A 135      30.778  35.436   9.245  1.00 29.45     0.005 C 
BRANCH   9  10
ATOM     10  CD  LYS A 135      30.374  36.884   9.015  1.00 32.00     0.041 C 
BRANCH  10  11
ATOM     11  CE  LYS A 135      29.468  37.368  10.130  1.00 34.25     0.338 C 
ATOM     12  NZ  LYS A 135      28.809  38.653   9.766  1.00 35.99     0.618 N 
ENDBRANCH  10  11
ENDBRANCH   9  10
ENDBRANCH   8   9
ENDBRANCH   7   8
END_RES LYS A 135
