REMARK VINA RESULT:    -4.507      2.646      4.542
REMARK INTER + INTRA:         -14.992
REMARK INTER:                  -8.819
REMARK INTRA:                  -6.173
REMARK UNBOUND:                -5.875
REMARK SMILES CC[N+](C)(CC)CCCn1cc(COC(=O)NC[C@@H](O)C(O)[C@@H]2O[C@@](O)(C(=O)O)C[C@H](O)[C@H]2NC(C)=O)nn1
REMARK SMILES IDX 14 1 15 2 17 3 16 5 18 6 19 7 21 8 23 9 25 10 30 11 24 12
REMARK SMILES IDX 31 13 33 14 26 15 27 17 28 18 29 19 32 21 34 23 35 24 36 26
REMARK SMILES IDX 37 27 22 28 20 30 13 32 12 33 11 34 38 35 10 36 39 37 9 38
REMARK SMILES IDX 8 39 7 40 3 41 4 42 2 43 1 44 5 45 6 46
REMARK H PARENT 17 4 26 16 29 20 32 22 34 25 22 29 20 31
REMARK Flexibility Score: inf
ROOT
ATOM      1  O   UNL     1      25.158  31.024  16.396  1.00  0.00    -0.443 OA
ENDROOT
BRANCH   1   2
ATOM      2  C   UNL     1      25.253  29.910  17.207  1.00  0.00     0.407 C 
ATOM      3  N   UNL     1      26.125  28.817  16.901  1.00  0.00    -0.319 N 
ATOM      4  H   UNL     1      26.685  28.913  16.047  1.00  0.00     0.167 HD
ATOM      5  O   UNL     1      24.549  29.858  18.242  1.00  0.00    -0.225 OA
BRANCH   3   6
ATOM      6  C   UNL     1      26.166  27.709  17.782  1.00  0.00     0.154 C 
BRANCH   6   7
ATOM      7  C   UNL     1      27.298  27.662  18.753  1.00  0.00     0.165 C 
BRANCH   7   8
ATOM      8  C   UNL     1      26.913  27.665  20.200  1.00  0.00     0.176 C 
BRANCH   8   9
ATOM      9  C   UNL     1      28.055  27.808  21.160  1.00  0.00     0.178 C 
ATOM     10  C   UNL     1      30.315  27.440  21.363  1.00  0.00     0.269 C 
ATOM     11  C   UNL     1      30.059  28.304  22.583  1.00  0.00     0.112 C 
ATOM     12  O   UNL     1      29.196  27.312  20.577  1.00  0.00    -0.332 OA
ATOM     13  C   UNL     1      28.966  27.721  23.425  1.00  0.00     0.145 C 
ATOM     14  C   UNL     1      27.851  27.211  22.509  1.00  0.00     0.142 C 
BRANCH  10  15
ATOM     15  O   UNL     1      30.674  26.163  21.832  1.00  0.00    -0.357 OA
ATOM     16  H   UNL     1      29.858  25.796  22.261  1.00  0.00     0.214 HD
ENDBRANCH  10  15
BRANCH  10  17
ATOM     17  C   UNL     1      31.441  27.988  20.591  1.00  0.00     0.364 C 
ATOM     18  O   UNL     1      31.737  29.213  20.676  1.00  0.00    -0.246 OA
BRANCH  17  19
ATOM     19  O   UNL     1      32.204  27.194  19.760  1.00  0.00    -0.477 OA
ATOM     20  H   UNL     1      31.818  26.384  19.314  1.00  0.00     0.296 HD
ENDBRANCH  17  19
ENDBRANCH  10  17
BRANCH  13  21
ATOM     21  O   UNL     1      29.496  26.667  24.181  1.00  0.00    -0.391 OA
ATOM     22  H   UNL     1      30.186  26.204  23.658  1.00  0.00     0.211 HD
ENDBRANCH  13  21
BRANCH  14  23
ATOM     23  N   UNL     1      26.619  27.698  23.139  1.00  0.00    -0.348 N 
ATOM     24  C   UNL     1      25.781  26.811  23.856  1.00  0.00     0.217 C 
ATOM     25  H   UNL     1      26.369  28.709  23.049  1.00  0.00     0.163 HD
ATOM     26  C   UNL     1      24.524  27.322  24.490  1.00  0.00     0.114 C 
ATOM     27  O   UNL     1      26.038  25.576  23.999  1.00  0.00    -0.275 OA
ENDBRANCH  14  23
ENDBRANCH   8   9
BRANCH   8  28
ATOM     28  O   UNL     1      25.964  28.676  20.414  1.00  0.00    -0.388 OA
ATOM     29  H   UNL     1      26.064  28.975  21.360  1.00  0.00     0.211 HD
ENDBRANCH   8  28
ENDBRANCH   7   8
BRANCH   7  30
ATOM     30  O   UNL     1      28.117  28.777  18.472  1.00  0.00    -0.388 OA
ATOM     31  H   UNL     1      28.097  29.026  17.526  1.00  0.00     0.211 HD
ENDBRANCH   7  30
ENDBRANCH   6   7
ENDBRANCH   3   6
ENDBRANCH   1   2
BRANCH   1  32
ATOM     32  C   UNL     1      26.144  31.230  15.394  1.00  0.00     0.294 C 
BRANCH  32  33
ATOM     33  C   UNL     1      27.485  31.318  16.017  1.00  0.00     0.120 A 
ATOM     34  C   UNL     1      27.987  32.242  16.907  1.00  0.00     0.138 A 
ATOM     35  N   UNL     1      28.506  30.461  15.804  1.00  0.00    -0.132 NA
ATOM     36  N   UNL     1      29.265  31.941  17.212  1.00  0.00    -0.252 N 
ATOM     37  N   UNL     1      29.540  30.854  16.522  1.00  0.00    -0.067 NA
BRANCH  36  38
ATOM     38  C   UNL     1      30.170  32.619  18.081  1.00  0.00     0.152 C 
BRANCH  38  39
ATOM     39  C   UNL     1      31.196  33.426  17.382  1.00  0.00     0.085 C 
BRANCH  39  40
ATOM     40  C   UNL     1      30.767  34.608  16.617  1.00  0.00     0.265 C 
BRANCH  40  41
ATOM     41  N   UNL     1      31.052  34.726  15.246  1.00  0.00    -0.326 N 
ATOM     42  C   UNL     1      31.298  36.050  14.740  1.00  0.00     0.334 C 
BRANCH  41  43
ATOM     43  C   UNL     1      32.325  34.008  15.036  1.00  0.00     0.260 C 
ATOM     44  C   UNL     1      33.454  34.871  14.624  1.00  0.00     0.071 C 
ENDBRANCH  41  43
BRANCH  41  45
ATOM     45  C   UNL     1      30.091  34.087  14.391  1.00  0.00     0.260 C 
ATOM     46  C   UNL     1      30.122  34.521  12.970  1.00  0.00     0.071 C 
ENDBRANCH  41  45
ENDBRANCH  40  41
ENDBRANCH  39  40
ENDBRANCH  38  39
ENDBRANCH  36  38
ENDBRANCH  32  33
ENDBRANCH   1  32
TORSDOF 20
BEGIN_RES LYS A 131
REMARK  4 active torsions:
REMARK  status: ('A' for Active; 'I' for Inactive)
REMARK    1  A    between atoms: CA   and  CB  
REMARK    2  A    between atoms: CB   and  CG  
REMARK    3  A    between atoms: CG   and  CD  
REMARK    4  A    between atoms: CD   and  CE  
ROOT
ATOM      1  CA  LYS A 131      29.867  25.555  16.977  1.00 20.52     0.186 C 
ENDROOT
BRANCH   1   2
ATOM      2  CB  LYS A 131      28.345  25.722  17.026  1.00 20.94     0.034 C 
BRANCH   2   3
ATOM      3  CG  LYS A 131      27.599  24.427  16.745  1.00 22.96     0.005 C 
BRANCH   3   4
ATOM      4  CD  LYS A 131      26.992  23.841  17.989  1.00 24.33     0.041 C 
BRANCH   4   5
ATOM      5  CE  LYS A 131      25.578  23.356  17.687  1.00 26.91     0.338 C 
ATOM      6  NZ  LYS A 131      24.831  24.381  16.920  1.00 27.40     0.618 N 
ENDBRANCH   4   5
ENDBRANCH   3   4
ENDBRANCH   2   3
ENDBRANCH   1   2
END_RES LYS A 131
BEGIN_RES LYS A 135
REMARK  4 active torsions:
REMARK  status: ('A' for Active; 'I' for Inactive)
REMARK    5  A    between atoms: CA   and  CB  
REMARK    6  A    between atoms: CB   and  CG  
REMARK    7  A    between atoms: CG   and  CD  
REMARK    8  A    between atoms: CD   and  CE  
ROOT
ATOM      7  CA  LYS A 135      33.193  34.663   9.290  1.00 25.02     0.186 C 
ENDROOT
BRANCH   7   8
ATOM      8  CB  LYS A 135      32.060  35.360  10.034  1.00 26.63     0.034 C 
BRANCH   8   9
ATOM      9  CG  LYS A 135      30.899  35.734   9.150  1.00 29.45     0.005 C 
BRANCH   9  10
ATOM     10  CD  LYS A 135      30.445  34.539   8.325  1.00 32.00     0.041 C 
BRANCH  10  11
ATOM     11  CE  LYS A 135      29.151  34.853   7.599  1.00 34.25     0.338 C 
ATOM     12  NZ  LYS A 135      27.976  34.671   8.494  1.00 35.99     0.618 N 
ENDBRANCH  10  11
ENDBRANCH   9  10
ENDBRANCH   8   9
ENDBRANCH   7   8
END_RES LYS A 135
