REMARK VINA RESULT:    -5.384      2.589      4.431
REMARK INTER + INTRA:         -15.046
REMARK INTER:                  -9.095
REMARK INTRA:                  -5.951
REMARK UNBOUND:                -5.414
REMARK SMILES CC(=O)N[C@@H]1[C@@H](O)C[C@](O)(C(=O)O)O[C@H]1C(O)[C@H](O)CNC(=O)OCc1cn(-c2ccccc2C(N)=O)nn1
REMARK SMILES IDX 21 1 22 2 23 3 20 5 18 6 16 7 15 8 9 9 8 10 14 11 6 12 5 13
REMARK SMILES IDX 10 14 11 16 12 17 13 18 7 20 4 22 2 23 1 25 3 26 17 27 19 29
REMARK SMILES IDX 24 31 25 32 26 33 27 34 39 35 28 36 38 37 29 38 34 39 30 40
REMARK SMILES IDX 33 41 31 42 32 43 35 44 37 45 36 46
REMARK H PARENT 21 4 10 15 13 19 7 21 4 24 17 28 19 30 36 47 36 48
REMARK Flexibility Score: inf
ROOT
ATOM      1  N   UNL     1      29.242  27.497  20.259  1.00  0.00    -0.319 N 
ATOM      2  C   UNL     1      27.877  27.504  20.647  1.00  0.00     0.407 C 
ATOM      3  O   UNL     1      27.567  27.082  21.775  1.00  0.00    -0.225 OA
ATOM      4  H   UNL     1      29.437  27.870  19.285  1.00  0.00     0.167 HD
ENDROOT
BRANCH   1   5
ATOM      5  C   UNL     1      30.330  27.030  21.082  1.00  0.00     0.154 C 
BRANCH   5   6
ATOM      6  C   UNL     1      31.651  27.693  20.731  1.00  0.00     0.165 C 
BRANCH   6   7
ATOM      7  C   UNL     1      31.540  29.189  20.714  1.00  0.00     0.176 C 
BRANCH   7   8
ATOM      8  C   UNL     1      32.695  29.904  21.303  1.00  0.00     0.178 C 
ATOM      9  C   UNL     1      34.161  29.658  23.110  1.00  0.00     0.269 C 
ATOM     10  C   UNL     1      34.851  30.799  22.422  1.00  0.00     0.112 C 
ATOM     11  O   UNL     1      33.105  29.142  22.428  1.00  0.00    -0.332 OA
ATOM     12  C   UNL     1      33.934  31.871  21.943  1.00  0.00     0.145 C 
ATOM     13  C   UNL     1      32.534  31.291  21.778  1.00  0.00     0.142 C 
BRANCH   9  14
ATOM     14  O   UNL     1      33.818  30.053  24.425  1.00  0.00    -0.357 OA
ATOM     15  H   UNL     1      34.384  29.518  25.054  1.00  0.00     0.214 HD
ENDBRANCH   9  14
BRANCH   9  16
ATOM     16  C   UNL     1      35.176  28.577  23.272  1.00  0.00     0.364 C 
ATOM     17  O   UNL     1      36.328  28.900  23.694  1.00  0.00    -0.246 OA
BRANCH  16  18
ATOM     18  O   UNL     1      34.934  27.250  22.990  1.00  0.00    -0.477 OA
ATOM     19  H   UNL     1      34.306  26.980  22.249  1.00  0.00     0.296 HD
ENDBRANCH  16  18
ENDBRANCH   9  16
BRANCH  12  20
ATOM     20  O   UNL     1      33.945  32.916  22.854  1.00  0.00    -0.391 OA
ATOM     21  H   UNL     1      33.096  33.423  22.886  1.00  0.00     0.211 HD
ENDBRANCH  12  20
BRANCH  13  22
ATOM     22  N   UNL     1      31.655  32.160  21.094  1.00  0.00    -0.348 N 
ATOM     23  C   UNL     1      30.761  33.013  21.774  1.00  0.00     0.217 C 
ATOM     24  H   UNL     1      31.655  32.213  20.056  1.00  0.00     0.163 HD
ATOM     25  C   UNL     1      29.821  33.941  21.111  1.00  0.00     0.114 C 
ATOM     26  O   UNL     1      30.764  32.983  23.024  1.00  0.00    -0.275 OA
ENDBRANCH  13  22
ENDBRANCH   7   8
BRANCH   7  27
ATOM     27  O   UNL     1      30.969  29.728  19.586  1.00  0.00    -0.388 OA
ATOM     28  H   UNL     1      31.688  30.047  18.959  1.00  0.00     0.211 HD
ENDBRANCH   7  27
ENDBRANCH   6   7
BRANCH   6  29
ATOM     29  O   UNL     1      32.251  27.125  19.643  1.00  0.00    -0.388 OA
ATOM     30  H   UNL     1      32.744  26.295  19.894  1.00  0.00     0.211 HD
ENDBRANCH   6  29
ENDBRANCH   5   6
ENDBRANCH   1   5
BRANCH   2  31
ATOM     31  O   UNL     1      26.869  27.970  19.810  1.00  0.00    -0.443 OA
BRANCH  31  32
ATOM     32  C   UNL     1      27.088  28.223  18.433  1.00  0.00     0.294 C 
BRANCH  32  33
ATOM     33  C   UNL     1      27.771  29.539  18.251  1.00  0.00     0.121 A 
ATOM     34  C   UNL     1      28.240  30.040  17.051  1.00  0.00     0.144 A 
ATOM     35  N   UNL     1      28.055  30.462  19.182  1.00  0.00    -0.131 NA
ATOM     36  N   UNL     1      28.796  31.262  17.308  1.00  0.00    -0.220 N 
ATOM     37  N   UNL     1      28.669  31.483  18.584  1.00  0.00    -0.062 NA
BRANCH  36  38
ATOM     38  C   UNL     1      29.405  32.107  16.325  1.00  0.00     0.079 A 
ATOM     39  C   UNL     1      28.686  33.047  15.624  1.00  0.00     0.065 A 
ATOM     40  C   UNL     1      30.767  31.956  16.090  1.00  0.00     0.029 A 
ATOM     41  C   UNL     1      29.353  33.835  14.681  1.00  0.00     0.016 A 
ATOM     42  C   UNL     1      31.404  32.739  15.158  1.00  0.00     0.002 A 
ATOM     43  C   UNL     1      30.687  33.674  14.459  1.00  0.00     0.001 A 
BRANCH  39  44
ATOM     44  C   UNL     1      27.260  33.257  15.823  1.00  0.00     0.250 C 
ATOM     45  O   UNL     1      26.912  34.127  16.685  1.00  0.00    -0.269 OA
ATOM     46  N   UNL     1      26.266  32.541  15.104  1.00  0.00    -0.366 N 
ATOM     47  H   UNL     1      26.076  32.707  14.103  1.00  0.00     0.159 HD
ATOM     48  H   UNL     1      25.712  31.820  15.657  1.00  0.00     0.159 HD
ENDBRANCH  39  44
ENDBRANCH  36  38
ENDBRANCH  32  33
ENDBRANCH  31  32
ENDBRANCH   2  31
TORSDOF 16
BEGIN_RES LYS A 131
REMARK  4 active torsions:
REMARK  status: ('A' for Active; 'I' for Inactive)
REMARK    1  A    between atoms: CA   and  CB  
REMARK    2  A    between atoms: CB   and  CG  
REMARK    3  A    between atoms: CG   and  CD  
REMARK    4  A    between atoms: CD   and  CE  
ROOT
ATOM      1  CA  LYS A 131      29.867  25.555  16.977  1.00 20.52     0.186 C 
ENDROOT
BRANCH   1   2
ATOM      2  CB  LYS A 131      28.345  25.722  17.026  1.00 20.94     0.034 C 
BRANCH   2   3
ATOM      3  CG  LYS A 131      27.599  24.466  16.602  1.00 22.96     0.005 C 
BRANCH   3   4
ATOM      4  CD  LYS A 131      27.039  23.716  17.779  1.00 24.33     0.041 C 
BRANCH   4   5
ATOM      5  CE  LYS A 131      26.219  24.666  18.645  1.00 26.91     0.338 C 
ATOM      6  NZ  LYS A 131      25.498  23.916  19.700  1.00 27.40     0.618 N 
ENDBRANCH   4   5
ENDBRANCH   3   4
ENDBRANCH   2   3
ENDBRANCH   1   2
END_RES LYS A 131
BEGIN_RES LYS A 135
REMARK  4 active torsions:
REMARK  status: ('A' for Active; 'I' for Inactive)
REMARK    5  A    between atoms: CA   and  CB  
REMARK    6  A    between atoms: CB   and  CG  
REMARK    7  A    between atoms: CG   and  CD  
REMARK    8  A    between atoms: CD   and  CE  
ROOT
ATOM      7  CA  LYS A 135      33.193  34.663   9.290  1.00 25.02     0.186 C 
ENDROOT
BRANCH   7   8
ATOM      8  CB  LYS A 135      32.060  35.360  10.034  1.00 26.63     0.034 C 
BRANCH   8   9
ATOM      9  CG  LYS A 135      30.721  34.693   9.853  1.00 29.45     0.005 C 
BRANCH   9  10
ATOM     10  CD  LYS A 135      30.406  34.512   8.376  1.00 32.00     0.041 C 
BRANCH  10  11
ATOM     11  CE  LYS A 135      29.392  35.542   7.918  1.00 34.25     0.338 C 
ATOM     12  NZ  LYS A 135      28.035  34.941   7.796  1.00 35.99     0.618 N 
ENDBRANCH  10  11
ENDBRANCH   9  10
ENDBRANCH   8   9
ENDBRANCH   7   8
END_RES LYS A 135
