REMARK VINA RESULT:    -4.924      1.655      2.228
REMARK INTER + INTRA:         -14.688
REMARK INTER:                  -8.520
REMARK INTRA:                  -6.168
REMARK UNBOUND:                -5.735
REMARK SMILES CC(=O)N[C@@H]1[C@@H](O)C[C@](O)(C(=O)O)O[C@H]1C(O)[C@H](O)CNC(=O)OCc1cn(-c2ccc(CO)cn2)nn1
REMARK SMILES IDX 21 1 22 2 23 3 20 5 18 6 16 7 15 8 9 9 8 10 14 11 6 12 5 13
REMARK SMILES IDX 10 14 11 16 12 17 13 18 7 20 4 22 2 23 1 25 3 26 17 27 19 29
REMARK SMILES IDX 24 31 25 32 26 33 27 34 38 35 28 36 37 37 29 38 30 39 36 40
REMARK SMILES IDX 31 41 35 42 32 43 33 44 34 45
REMARK H PARENT 21 4 10 15 13 19 7 21 4 24 17 28 19 30 34 46
REMARK Flexibility Score: inf
ROOT
ATOM      1  N   UNL     1      28.532  27.562  19.414  1.00  0.00    -0.319 N 
ATOM      2  C   UNL     1      27.321  27.837  18.695  1.00  0.00     0.407 C 
ATOM      3  O   UNL     1      26.303  28.059  19.388  1.00  0.00    -0.225 OA
ATOM      4  H   UNL     1      29.358  27.396  18.799  1.00  0.00     0.167 HD
ENDROOT
BRANCH   1   5
ATOM      5  C   UNL     1      28.558  27.557  20.851  1.00  0.00     0.154 C 
BRANCH   5   6
ATOM      6  C   UNL     1      29.996  27.653  21.335  1.00  0.00     0.165 C 
BRANCH   6   7
ATOM      7  C   UNL     1      30.354  29.110  21.289  1.00  0.00     0.176 C 
BRANCH   7   8
ATOM      8  C   UNL     1      29.405  30.069  21.948  1.00  0.00     0.178 C 
ATOM      9  C   UNL     1      27.306  30.950  21.327  1.00  0.00     0.269 C 
ATOM     10  C   UNL     1      27.656  32.328  21.831  1.00  0.00     0.112 C 
ATOM     11  O   UNL     1      28.397  30.208  21.030  1.00  0.00    -0.332 OA
ATOM     12  C   UNL     1      29.141  32.475  21.562  1.00  0.00     0.145 C 
ATOM     13  C   UNL     1      29.913  31.387  22.348  1.00  0.00     0.142 C 
BRANCH   9  14
ATOM     14  O   UNL     1      26.554  31.171  20.131  1.00  0.00    -0.357 OA
ATOM     15  H   UNL     1      26.864  32.010  19.705  1.00  0.00     0.214 HD
ENDBRANCH   9  14
BRANCH   9  16
ATOM     16  C   UNL     1      26.403  30.202  22.226  1.00  0.00     0.364 C 
ATOM     17  O   UNL     1      26.363  30.493  23.438  1.00  0.00    -0.246 OA
BRANCH  16  18
ATOM     18  O   UNL     1      25.598  29.186  21.749  1.00  0.00    -0.477 OA
ATOM     19  H   UNL     1      24.595  29.260  21.864  1.00  0.00     0.296 HD
ENDBRANCH  16  18
ENDBRANCH   9  16
BRANCH  12  20
ATOM     20  O   UNL     1      29.447  32.449  20.224  1.00  0.00    -0.391 OA
ATOM     21  H   UNL     1      29.858  31.568  19.994  1.00  0.00     0.211 HD
ENDBRANCH  12  20
BRANCH  13  22
ATOM     22  N   UNL     1      29.730  31.749  23.716  1.00  0.00    -0.348 N 
ATOM     23  C   UNL     1      30.732  31.569  24.683  1.00  0.00     0.217 C 
ATOM     24  H   UNL     1      28.823  32.153  24.008  1.00  0.00     0.163 HD
ATOM     25  C   UNL     1      30.542  31.946  26.104  1.00  0.00     0.114 C 
ATOM     26  O   UNL     1      31.826  31.077  24.341  1.00  0.00    -0.275 OA
ENDBRANCH  13  22
ENDBRANCH   7   8
BRANCH   7  27
ATOM     27  O   UNL     1      30.399  29.494  19.936  1.00  0.00    -0.388 OA
ATOM     28  H   UNL     1      29.964  28.818  19.350  1.00  0.00     0.211 HD
ENDBRANCH   7  27
ENDBRANCH   6   7
BRANCH   6  29
ATOM     29  O   UNL     1      30.717  26.960  20.324  1.00  0.00    -0.388 OA
ATOM     30  H   UNL     1      30.173  26.221  20.009  1.00  0.00     0.211 HD
ENDBRANCH   6  29
ENDBRANCH   5   6
ENDBRANCH   1   5
BRANCH   2  31
ATOM     31  O   UNL     1      27.249  27.862  17.329  1.00  0.00    -0.443 OA
BRANCH  31  32
ATOM     32  C   UNL     1      27.045  29.014  16.570  1.00  0.00     0.294 C 
BRANCH  32  33
ATOM     33  C   UNL     1      28.063  30.070  16.799  1.00  0.00     0.121 A 
ATOM     34  C   UNL     1      28.609  30.863  15.786  1.00  0.00     0.146 A 
ATOM     35  N   UNL     1      28.658  30.489  17.908  1.00  0.00    -0.131 NA
ATOM     36  N   UNL     1      29.492  31.704  16.324  1.00  0.00    -0.202 N 
ATOM     37  N   UNL     1      29.515  31.469  17.614  1.00  0.00    -0.061 NA
BRANCH  36  38
ATOM     38  C   UNL     1      30.274  32.676  15.615  1.00  0.00     0.155 A 
ATOM     39  C   UNL     1      31.524  33.083  16.033  1.00  0.00     0.049 A 
ATOM     40  N   UNL     1      29.786  33.240  14.499  1.00  0.00    -0.237 NA
ATOM     41  C   UNL     1      32.270  34.019  15.368  1.00  0.00     0.011 A 
ATOM     42  C   UNL     1      30.480  34.160  13.813  1.00  0.00     0.119 A 
ATOM     43  C   UNL     1      31.741  34.581  14.222  1.00  0.00    -0.004 A 
BRANCH  43  44
ATOM     44  C   UNL     1      32.469  35.606  13.422  1.00  0.00     0.193 C 
BRANCH  44  45
ATOM     45  O   UNL     1      33.201  34.967  12.430  1.00  0.00    -0.392 OA
ATOM     46  H   UNL     1      32.596  34.425  11.860  1.00  0.00     0.211 HD
ENDBRANCH  44  45
ENDBRANCH  43  44
ENDBRANCH  36  38
ENDBRANCH  32  33
ENDBRANCH  31  32
ENDBRANCH   2  31
TORSDOF 17
BEGIN_RES LYS A 131
REMARK  4 active torsions:
REMARK  status: ('A' for Active; 'I' for Inactive)
REMARK    1  A    between atoms: CA   and  CB  
REMARK    2  A    between atoms: CB   and  CG  
REMARK    3  A    between atoms: CG   and  CD  
REMARK    4  A    between atoms: CD   and  CE  
ROOT
ATOM      1  CA  LYS A 131      29.867  25.555  16.977  1.00 20.52     0.186 C 
ENDROOT
BRANCH   1   2
ATOM      2  CB  LYS A 131      28.345  25.722  17.026  1.00 20.94     0.034 C 
BRANCH   2   3
ATOM      3  CG  LYS A 131      27.602  24.399  16.924  1.00 22.96     0.005 C 
BRANCH   3   4
ATOM      4  CD  LYS A 131      26.603  24.223  18.034  1.00 24.33     0.041 C 
BRANCH   4   5
ATOM      5  CE  LYS A 131      25.252  24.777  17.595  1.00 26.91     0.338 C 
ATOM      6  NZ  LYS A 131      24.393  25.044  18.774  1.00 27.40     0.618 N 
ENDBRANCH   4   5
ENDBRANCH   3   4
ENDBRANCH   2   3
ENDBRANCH   1   2
END_RES LYS A 131
BEGIN_RES LYS A 135
REMARK  4 active torsions:
REMARK  status: ('A' for Active; 'I' for Inactive)
REMARK    5  A    between atoms: CA   and  CB  
REMARK    6  A    between atoms: CB   and  CG  
REMARK    7  A    between atoms: CG   and  CD  
REMARK    8  A    between atoms: CD   and  CE  
ROOT
ATOM      7  CA  LYS A 135      33.193  34.663   9.290  1.00 25.02     0.186 C 
ENDROOT
BRANCH   7   8
ATOM      8  CB  LYS A 135      32.060  35.360  10.034  1.00 26.63     0.034 C 
BRANCH   8   9
ATOM      9  CG  LYS A 135      30.797  35.491   9.222  1.00 29.45     0.005 C 
BRANCH   9  10
ATOM     10  CD  LYS A 135      30.142  34.133   9.026  1.00 32.00     0.041 C 
BRANCH  10  11
ATOM     11  CE  LYS A 135      28.680  34.295   8.657  1.00 34.25     0.338 C 
ATOM     12  NZ  LYS A 135      27.796  33.653   9.668  1.00 35.99     0.618 N 
ENDBRANCH  10  11
ENDBRANCH   9  10
ENDBRANCH   8   9
ENDBRANCH   7   8
END_RES LYS A 135
