REMARK VINA RESULT:    -5.293      4.066      7.040
REMARK INTER + INTRA:         -13.657
REMARK INTER:                  -9.161
REMARK INTRA:                  -4.497
REMARK UNBOUND:                -4.497
REMARK SMILES CC(=O)N[C@@H]1[C@@H](O)C[C@](O)(C(=O)O)O[C@H]1C(O)[C@H](O)CNC(=O)OCc1cn(-c2cccc(Cl)c2)nn1
REMARK SMILES IDX 20 1 18 2 16 3 15 4 9 5 8 6 14 7 6 8 5 9 10 10 11 12 12 13
REMARK SMILES IDX 13 14 7 16 4 18 2 19 1 21 3 22 17 23 19 25 21 27 22 28 23 30
REMARK SMILES IDX 24 31 25 32 26 33 27 34 37 35 28 36 36 37 29 38 30 39 35 40
REMARK SMILES IDX 31 41 33 42 32 43 34 44
REMARK H PARENT 10 11 13 15 7 17 4 20 17 24 19 26 21 29
REMARK Flexibility Score: inf
ROOT
ATOM      1  C   UNL     1      28.475  30.903  16.685  1.00  0.00     0.154 C 
ENDROOT
BRANCH   1   2
ATOM      2  C   UNL     1      29.679  31.450  17.395  1.00  0.00     0.165 C 
BRANCH   2   3
ATOM      3  C   UNL     1      30.661  32.109  16.471  1.00  0.00     0.176 C 
BRANCH   3   4
ATOM      4  C   UNL     1      30.660  33.627  16.670  1.00  0.00     0.178 C 
ATOM      5  C   UNL     1      28.995  34.698  15.400  1.00  0.00     0.269 C 
ATOM      6  C   UNL     1      30.034  35.715  14.948  1.00  0.00     0.112 C 
ATOM      7  O   UNL     1      29.407  34.072  16.526  1.00  0.00    -0.332 OA
ATOM      8  C   UNL     1      31.233  34.858  14.546  1.00  0.00     0.145 C 
ATOM      9  C   UNL     1      31.727  34.203  15.807  1.00  0.00     0.142 C 
BRANCH   5  10
ATOM     10  O   UNL     1      28.789  33.857  14.315  1.00  0.00    -0.357 OA
ATOM     11  H   UNL     1      29.465  34.065  13.624  1.00  0.00     0.214 HD
ENDBRANCH   5  10
BRANCH   5  12
ATOM     12  C   UNL     1      27.723  35.398  15.696  1.00  0.00     0.364 C 
ATOM     13  O   UNL     1      27.108  35.121  16.751  1.00  0.00    -0.246 OA
BRANCH  12  14
ATOM     14  O   UNL     1      27.178  36.353  14.851  1.00  0.00    -0.477 OA
ATOM     15  H   UNL     1      27.435  37.335  15.001  1.00  0.00     0.296 HD
ENDBRANCH  12  14
ENDBRANCH   5  12
BRANCH   8  16
ATOM     16  O   UNL     1      30.868  33.856  13.655  1.00  0.00    -0.391 OA
ATOM     17  H   UNL     1      30.560  33.028  14.122  1.00  0.00     0.211 HD
ENDBRANCH   8  16
BRANCH   9  18
ATOM     18  N   UNL     1      32.494  35.198  16.525  1.00  0.00    -0.348 N 
ATOM     19  C   UNL     1      33.781  35.565  16.056  1.00  0.00     0.217 C 
ATOM     20  H   UNL     1      32.115  35.661  17.402  1.00  0.00     0.163 HD
ATOM     21  C   UNL     1      34.563  36.587  16.799  1.00  0.00     0.114 C 
ATOM     22  O   UNL     1      34.248  35.027  15.019  1.00  0.00    -0.275 OA
ENDBRANCH   9  18
ENDBRANCH   3   4
BRANCH   3  23
ATOM     23  O   UNL     1      30.232  31.809  15.160  1.00  0.00    -0.388 OA
ATOM     24  H   UNL     1      30.589  32.442  14.522  1.00  0.00     0.211 HD
ENDBRANCH   3  23
ENDBRANCH   2   3
BRANCH   2  25
ATOM     25  O   UNL     1      30.327  30.395  18.063  1.00  0.00    -0.388 OA
ATOM     26  H   UNL     1      31.249  30.653  18.236  1.00  0.00     0.211 HD
ENDBRANCH   2  25
ENDBRANCH   1   2
BRANCH   1  27
ATOM     27  N   UNL     1      27.444  31.932  16.594  1.00  0.00    -0.319 N 
ATOM     28  C   UNL     1      26.237  31.687  15.894  1.00  0.00     0.407 C 
ATOM     29  H   UNL     1      27.625  32.844  17.057  1.00  0.00     0.167 HD
ATOM     30  O   UNL     1      26.061  30.568  15.349  1.00  0.00    -0.225 OA
BRANCH  28  31
ATOM     31  O   UNL     1      25.233  32.636  15.783  1.00  0.00    -0.443 OA
BRANCH  31  32
ATOM     32  C   UNL     1      24.392  32.590  14.651  1.00  0.00     0.294 C 
BRANCH  32  33
ATOM     33  C   UNL     1      24.837  33.613  13.669  1.00  0.00     0.121 A 
ATOM     34  C   UNL     1      25.475  33.380  12.464  1.00  0.00     0.144 A 
ATOM     35  N   UNL     1      24.715  34.951  13.742  1.00  0.00    -0.131 NA
ATOM     36  N   UNL     1      25.720  34.560  11.847  1.00  0.00    -0.220 N 
ATOM     37  N   UNL     1      25.244  35.493  12.655  1.00  0.00    -0.062 NA
BRANCH  36  38
ATOM     38  C   UNL     1      26.359  34.750  10.591  1.00  0.00     0.068 A 
ATOM     39  C   UNL     1      25.667  35.370   9.572  1.00  0.00     0.028 A 
ATOM     40  C   UNL     1      27.650  34.343  10.328  1.00  0.00     0.049 A 
ATOM     41  C   UNL     1      26.246  35.577   8.331  1.00  0.00     0.004 A 
ATOM     42  C   UNL     1      28.257  34.533   9.106  1.00  0.00     0.043 A 
ATOM     43  C   UNL     1      27.538  35.157   8.107  1.00  0.00     0.020 A 
ATOM     44  Cl  UNL     1      29.917  33.994   8.811  1.00  0.00    -0.084 Cl
ENDBRANCH  36  38
ENDBRANCH  32  33
ENDBRANCH  31  32
ENDBRANCH  28  31
ENDBRANCH   1  27
TORSDOF 15
BEGIN_RES LYS A 131
REMARK  4 active torsions:
REMARK  status: ('A' for Active; 'I' for Inactive)
REMARK    1  A    between atoms: CA   and  CB  
REMARK    2  A    between atoms: CB   and  CG  
REMARK    3  A    between atoms: CG   and  CD  
REMARK    4  A    between atoms: CD   and  CE  
ROOT
ATOM      1  CA  LYS A 131      29.867  25.555  16.977  1.00 20.52     0.186 C 
ENDROOT
BRANCH   1   2
ATOM      2  CB  LYS A 131      28.345  25.722  17.026  1.00 20.94     0.034 C 
BRANCH   2   3
ATOM      3  CG  LYS A 131      27.601  24.402  16.890  1.00 22.96     0.005 C 
BRANCH   3   4
ATOM      4  CD  LYS A 131      26.157  24.522  17.292  1.00 24.33     0.041 C 
BRANCH   4   5
ATOM      5  CE  LYS A 131      25.880  23.599  18.474  1.00 26.91     0.338 C 
ATOM      6  NZ  LYS A 131      25.487  24.386  19.667  1.00 27.40     0.618 N 
ENDBRANCH   4   5
ENDBRANCH   3   4
ENDBRANCH   2   3
ENDBRANCH   1   2
END_RES LYS A 131
BEGIN_RES LYS A 135
REMARK  4 active torsions:
REMARK  status: ('A' for Active; 'I' for Inactive)
REMARK    5  A    between atoms: CA   and  CB  
REMARK    6  A    between atoms: CB   and  CG  
REMARK    7  A    between atoms: CG   and  CD  
REMARK    8  A    between atoms: CD   and  CE  
ROOT
ATOM      7  CA  LYS A 135      33.193  34.663   9.290  1.00 25.02     0.186 C 
ENDROOT
BRANCH   7   8
ATOM      8  CB  LYS A 135      32.060  35.360  10.034  1.00 26.63     0.034 C 
BRANCH   8   9
ATOM      9  CG  LYS A 135      32.506  36.061  11.291  1.00 29.45     0.005 C 
BRANCH   9  10
ATOM     10  CD  LYS A 135      32.212  37.550  11.209  1.00 32.00     0.041 C 
BRANCH  10  11
ATOM     11  CE  LYS A 135      31.035  37.911  12.096  1.00 34.25     0.338 C 
ATOM     12  NZ  LYS A 135      29.811  37.165  11.692  1.00 35.99     0.618 N 
ENDBRANCH  10  11
ENDBRANCH   9  10
ENDBRANCH   8   9
ENDBRANCH   7   8
END_RES LYS A 135
