REMARK VINA RESULT:    -4.279      4.808     10.538
REMARK INTER + INTRA:         -13.925
REMARK INTER:                  -7.097
REMARK INTRA:                  -6.828
REMARK UNBOUND:                -6.145
REMARK SMILES CC(=O)N[C@@H]1[C@@H](O)C[C@](O)(C(=O)O)O[C@H]1C(O)[C@H](O)CNC(=O)OCc1cn(C(C)(C)CO)nn1
REMARK SMILES IDX 21 1 22 2 23 3 20 5 18 6 16 7 15 8 9 9 8 10 14 11 6 12 5 13
REMARK SMILES IDX 10 14 11 16 12 17 13 18 7 20 4 22 2 23 1 25 3 26 17 27 19 29
REMARK SMILES IDX 24 31 25 32 26 33 27 34 35 35 28 36 34 37 29 38 30 39 31 40
REMARK SMILES IDX 32 41 33 42
REMARK H PARENT 21 4 10 15 13 19 7 21 4 24 17 28 19 30 33 43
REMARK Flexibility Score: inf
ROOT
ATOM      1  N   UNL     1      32.104  34.755  16.772  1.00  0.00    -0.319 N 
ATOM      2  C   UNL     1      31.810  35.360  18.036  1.00  0.00     0.407 C 
ATOM      3  O   UNL     1      32.220  36.536  18.321  1.00  0.00    -0.225 OA
ATOM      4  H   UNL     1      31.736  33.803  16.586  1.00  0.00     0.167 HD
ENDROOT
BRANCH   1   5
ATOM      5  C   UNL     1      32.880  35.488  15.794  1.00  0.00     0.154 C 
BRANCH   5   6
ATOM      6  C   UNL     1      33.062  34.751  14.525  1.00  0.00     0.165 C 
BRANCH   6   7
ATOM      7  C   UNL     1      32.365  35.249  13.316  1.00  0.00     0.176 C 
BRANCH   7   8
ATOM      8  C   UNL     1      31.191  36.128  13.675  1.00  0.00     0.178 C 
ATOM      9  C   UNL     1      29.484  34.571  14.176  1.00  0.00     0.269 C 
ATOM     10  C   UNL     1      28.731  35.014  12.907  1.00  0.00     0.112 C 
ATOM     11  O   UNL     1      30.387  35.492  14.597  1.00  0.00    -0.332 OA
ATOM     12  C   UNL     1      28.939  36.488  12.819  1.00  0.00     0.145 C 
ATOM     13  C   UNL     1      30.448  36.694  12.503  1.00  0.00     0.142 C 
BRANCH   9  14
ATOM     14  O   UNL     1      29.961  33.291  13.980  1.00  0.00    -0.357 OA
ATOM     15  H   UNL     1      29.341  32.636  14.381  1.00  0.00     0.214 HD
ENDBRANCH   9  14
BRANCH   9  16
ATOM     16  C   UNL     1      28.446  34.485  15.278  1.00  0.00     0.364 C 
ATOM     17  O   UNL     1      27.234  34.312  15.007  1.00  0.00    -0.246 OA
BRANCH  16  18
ATOM     18  O   UNL     1      28.876  34.604  16.582  1.00  0.00    -0.477 OA
ATOM     19  H   UNL     1      29.405  33.867  17.035  1.00  0.00     0.296 HD
ENDBRANCH  16  18
ENDBRANCH   9  16
BRANCH  12  20
ATOM     20  O   UNL     1      28.169  37.104  11.852  1.00  0.00    -0.391 OA
ATOM     21  H   UNL     1      28.685  37.889  11.529  1.00  0.00     0.211 HD
ENDBRANCH  12  20
BRANCH  13  22
ATOM     22  N   UNL     1      30.539  38.160  12.417  1.00  0.00    -0.348 N 
ATOM     23  C   UNL     1      31.386  38.828  11.526  1.00  0.00     0.217 C 
ATOM     24  H   UNL     1      29.931  38.704  13.064  1.00  0.00     0.163 HD
ATOM     25  C   UNL     1      31.497  40.306  11.427  1.00  0.00     0.114 C 
ATOM     26  O   UNL     1      32.107  38.141  10.752  1.00  0.00    -0.275 OA
ENDBRANCH  13  22
ENDBRANCH   7   8
BRANCH   7  27
ATOM     27  O   UNL     1      33.103  35.625  12.243  1.00  0.00    -0.388 OA
ATOM     28  H   UNL     1      33.556  34.883  11.766  1.00  0.00     0.211 HD
ENDBRANCH   7  27
ENDBRANCH   6   7
BRANCH   6  29
ATOM     29  O   UNL     1      32.702  33.397  14.716  1.00  0.00    -0.388 OA
ATOM     30  H   UNL     1      32.572  33.257  15.680  1.00  0.00     0.211 HD
ENDBRANCH   6  29
ENDBRANCH   5   6
ENDBRANCH   1   5
BRANCH   2  31
ATOM     31  O   UNL     1      31.072  34.644  18.942  1.00  0.00    -0.443 OA
BRANCH  31  32
ATOM     32  C   UNL     1      31.272  33.285  19.195  1.00  0.00     0.294 C 
BRANCH  32  33
ATOM     33  C   UNL     1      30.483  32.439  18.262  1.00  0.00     0.120 A 
ATOM     34  C   UNL     1      29.371  31.717  18.618  1.00  0.00     0.139 A 
ATOM     35  N   UNL     1      30.679  32.217  16.963  1.00  0.00    -0.132 NA
ATOM     36  N   UNL     1      28.918  31.077  17.535  1.00  0.00    -0.244 N 
ATOM     37  N   UNL     1      29.740  31.403  16.535  1.00  0.00    -0.066 NA
BRANCH  36  38
ATOM     38  C   UNL     1      27.767  30.213  17.492  1.00  0.00     0.082 C 
ATOM     39  C   UNL     1      27.748  29.283  18.687  1.00  0.00     0.039 C 
ATOM     40  C   UNL     1      27.812  29.407  16.200  1.00  0.00     0.039 C 
BRANCH  38  41
ATOM     41  C   UNL     1      26.510  31.043  17.445  1.00  0.00     0.186 C 
BRANCH  41  42
ATOM     42  O   UNL     1      26.531  31.879  16.324  1.00  0.00    -0.394 OA
ATOM     43  H   UNL     1      25.830  31.577  15.694  1.00  0.00     0.210 HD
ENDBRANCH  41  42
ENDBRANCH  38  41
ENDBRANCH  36  38
ENDBRANCH  32  33
ENDBRANCH  31  32
ENDBRANCH   2  31
TORSDOF 17
BEGIN_RES LYS A 131
REMARK  4 active torsions:
REMARK  status: ('A' for Active; 'I' for Inactive)
REMARK    1  A    between atoms: CA   and  CB  
REMARK    2  A    between atoms: CB   and  CG  
REMARK    3  A    between atoms: CG   and  CD  
REMARK    4  A    between atoms: CD   and  CE  
ROOT
ATOM      1  CA  LYS A 131      29.867  25.555  16.977  1.00 20.52     0.186 C 
ENDROOT
BRANCH   1   2
ATOM      2  CB  LYS A 131      28.345  25.722  17.026  1.00 20.94     0.034 C 
BRANCH   2   3
ATOM      3  CG  LYS A 131      27.602  24.399  16.920  1.00 22.96     0.005 C 
BRANCH   3   4
ATOM      4  CD  LYS A 131      26.405  24.348  17.829  1.00 24.33     0.041 C 
BRANCH   4   5
ATOM      5  CE  LYS A 131      26.323  25.639  18.636  1.00 26.91     0.338 C 
ATOM      6  NZ  LYS A 131      25.012  26.299  18.428  1.00 27.40     0.618 N 
ENDBRANCH   4   5
ENDBRANCH   3   4
ENDBRANCH   2   3
ENDBRANCH   1   2
END_RES LYS A 131
BEGIN_RES LYS A 135
REMARK  4 active torsions:
REMARK  status: ('A' for Active; 'I' for Inactive)
REMARK    5  A    between atoms: CA   and  CB  
REMARK    6  A    between atoms: CB   and  CG  
REMARK    7  A    between atoms: CG   and  CD  
REMARK    8  A    between atoms: CD   and  CE  
ROOT
ATOM      7  CA  LYS A 135      33.193  34.663   9.290  1.00 25.02     0.186 C 
ENDROOT
BRANCH   7   8
ATOM      8  CB  LYS A 135      32.060  35.360  10.034  1.00 26.63     0.034 C 
BRANCH   8   9
ATOM      9  CG  LYS A 135      30.708  34.743   9.787  1.00 29.45     0.005 C 
BRANCH   9  10
ATOM     10  CD  LYS A 135      30.468  34.552   8.298  1.00 32.00     0.041 C 
BRANCH  10  11
ATOM     11  CE  LYS A 135      29.021  34.841   7.949  1.00 34.25     0.338 C 
ATOM     12  NZ  LYS A 135      28.915  35.561   6.650  1.00 35.99     0.618 N 
ENDBRANCH  10  11
ENDBRANCH   9  10
ENDBRANCH   8   9
ENDBRANCH   7   8
END_RES LYS A 135
