REMARK VINA RESULT:    -5.857      5.762     11.604
REMARK INTER + INTRA:         -14.985
REMARK INTER:                  -9.772
REMARK INTRA:                  -5.214
REMARK UNBOUND:                -3.993
REMARK SMILES CC(=O)N[C@@H]1[C@@H](O)C[C@](O)(C(=O)O)O[C@H]1C(O)[C@H](O)CNC(=O)OCc1cn(Cc2ccc(C(=O)O)cc2)nn1
REMARK SMILES IDX 21 1 22 2 23 3 20 5 18 6 16 7 15 8 9 9 8 10 14 11 6 12 5 13
REMARK SMILES IDX 10 14 11 16 12 17 13 18 7 20 4 22 2 23 1 25 3 26 17 27 19 29
REMARK SMILES IDX 24 31 25 32 26 33 27 34 40 35 28 36 39 37 29 38 30 39 31 40
REMARK SMILES IDX 38 41 32 42 37 43 33 44 34 45 35 46 36 47
REMARK H PARENT 21 4 10 15 13 19 7 21 4 24 17 28 19 30 36 48
REMARK Flexibility Score: inf
ROOT
ATOM      1  N   UNL     1      25.206  35.054  10.731  1.00  0.00    -0.319 N 
ATOM      2  C   UNL     1      25.319  35.291  12.111  1.00  0.00     0.407 C 
ATOM      3  O   UNL     1      24.642  36.185  12.644  1.00  0.00    -0.225 OA
ATOM      4  H   UNL     1      25.824  34.273  10.352  1.00  0.00     0.167 HD
ENDROOT
BRANCH   1   5
ATOM      5  C   UNL     1      24.330  35.790   9.858  1.00  0.00     0.154 C 
BRANCH   5   6
ATOM      6  C   UNL     1      25.145  36.517   8.822  1.00  0.00     0.165 C 
BRANCH   6   7
ATOM      7  C   UNL     1      26.295  37.292   9.383  1.00  0.00     0.176 C 
BRANCH   7   8
ATOM      8  C   UNL     1      26.993  38.092   8.269  1.00  0.00     0.178 C 
ATOM      9  C   UNL     1      27.553  37.854   6.038  1.00  0.00     0.269 C 
ATOM     10  C   UNL     1      29.044  37.730   6.310  1.00  0.00     0.112 C 
ATOM     11  O   UNL     1      26.906  37.324   7.128  1.00  0.00    -0.332 OA
ATOM     12  C   UNL     1      29.403  38.440   7.575  1.00  0.00     0.145 C 
ATOM     13  C   UNL     1      28.411  38.244   8.687  1.00  0.00     0.142 C 
BRANCH   9  14
ATOM     14  O   UNL     1      27.329  36.964   4.948  1.00  0.00    -0.357 OA
ATOM     15  H   UNL     1      26.465  36.477   5.127  1.00  0.00     0.214 HD
ENDBRANCH   9  14
BRANCH   9  16
ATOM     16  C   UNL     1      27.174  39.216   5.653  1.00  0.00     0.364 C 
ATOM     17  O   UNL     1      28.068  39.991   5.167  1.00  0.00    -0.246 OA
BRANCH  16  18
ATOM     18  O   UNL     1      25.920  39.784   5.758  1.00  0.00    -0.477 OA
ATOM     19  H   UNL     1      25.127  39.187   5.565  1.00  0.00     0.296 HD
ENDBRANCH  16  18
ENDBRANCH   9  16
BRANCH  12  20
ATOM     20  O   UNL     1      30.629  37.887   8.016  1.00  0.00    -0.391 OA
ATOM     21  H   UNL     1      31.085  37.561   7.202  1.00  0.00     0.211 HD
ENDBRANCH  12  20
BRANCH  13  22
ATOM     22  N   UNL     1      28.608  39.270   9.691  1.00  0.00    -0.348 N 
ATOM     23  C   UNL     1      29.348  39.031  10.876  1.00  0.00     0.217 C 
ATOM     24  H   UNL     1      28.208  40.225   9.568  1.00  0.00     0.163 HD
ATOM     25  C   UNL     1      29.540  40.114  11.907  1.00  0.00     0.114 C 
ATOM     26  O   UNL     1      29.842  37.902  11.055  1.00  0.00    -0.275 OA
ENDBRANCH  13  22
ENDBRANCH   7   8
BRANCH   7  27
ATOM     27  O   UNL     1      25.988  38.086  10.461  1.00  0.00    -0.388 OA
ATOM     28  H   UNL     1      26.199  37.609  11.304  1.00  0.00     0.211 HD
ENDBRANCH   7  27
ENDBRANCH   6   7
BRANCH   6  29
ATOM     29  O   UNL     1      24.359  37.352   8.017  1.00  0.00    -0.388 OA
ATOM     30  H   UNL     1      23.622  37.737   8.572  1.00  0.00     0.211 HD
ENDBRANCH   6  29
ENDBRANCH   5   6
ENDBRANCH   1   5
BRANCH   2  31
ATOM     31  O   UNL     1      26.164  34.567  12.942  1.00  0.00    -0.443 OA
BRANCH  31  32
ATOM     32  C   UNL     1      26.853  35.121  14.037  1.00  0.00     0.294 C 
BRANCH  32  33
ATOM     33  C   UNL     1      27.732  34.102  14.645  1.00  0.00     0.120 A 
ATOM     34  C   UNL     1      29.099  33.961  14.399  1.00  0.00     0.138 A 
ATOM     35  N   UNL     1      27.447  33.120  15.523  1.00  0.00    -0.132 NA
ATOM     36  N   UNL     1      29.564  32.932  15.118  1.00  0.00    -0.248 N 
ATOM     37  N   UNL     1      28.549  32.441  15.786  1.00  0.00    -0.067 NA
BRANCH  36  38
ATOM     38  C   UNL     1      30.950  32.439  15.141  1.00  0.00     0.181 C 
BRANCH  38  39
ATOM     39  C   UNL     1      31.778  33.606  15.585  1.00  0.00    -0.026 A 
ATOM     40  C   UNL     1      31.685  34.042  16.877  1.00  0.00     0.006 A 
ATOM     41  C   UNL     1      32.628  34.255  14.725  1.00  0.00     0.006 A 
ATOM     42  C   UNL     1      32.441  35.131  17.321  1.00  0.00     0.016 A 
ATOM     43  C   UNL     1      33.380  35.339  15.165  1.00  0.00     0.016 A 
ATOM     44  C   UNL     1      33.295  35.789  16.468  1.00  0.00     0.059 A 
BRANCH  44  45
ATOM     45  C   UNL     1      34.089  36.923  16.919  1.00  0.00     0.335 C 
ATOM     46  O   UNL     1      35.340  36.919  16.926  1.00  0.00    -0.246 OA
BRANCH  45  47
ATOM     47  O   UNL     1      33.443  38.071  17.364  1.00  0.00    -0.478 OA
ATOM     48  H   UNL     1      33.958  38.893  17.627  1.00  0.00     0.297 HD
ENDBRANCH  45  47
ENDBRANCH  44  45
ENDBRANCH  38  39
ENDBRANCH  36  38
ENDBRANCH  32  33
ENDBRANCH  31  32
ENDBRANCH   2  31
TORSDOF 18
BEGIN_RES LYS A 131
REMARK  4 active torsions:
REMARK  status: ('A' for Active; 'I' for Inactive)
REMARK    1  A    between atoms: CA   and  CB  
REMARK    2  A    between atoms: CB   and  CG  
REMARK    3  A    between atoms: CG   and  CD  
REMARK    4  A    between atoms: CD   and  CE  
ROOT
ATOM      1  CA  LYS A 131      29.867  25.555  16.977  1.00 20.52     0.186 C 
ENDROOT
BRANCH   1   2
ATOM      2  CB  LYS A 131      28.345  25.722  17.026  1.00 20.94     0.034 C 
BRANCH   2   3
ATOM      3  CG  LYS A 131      27.600  24.408  16.847  1.00 22.96     0.005 C 
BRANCH   3   4
ATOM      4  CD  LYS A 131      26.154  24.518  17.241  1.00 24.33     0.041 C 
BRANCH   4   5
ATOM      5  CE  LYS A 131      26.053  24.784  18.740  1.00 26.91     0.338 C 
ATOM      6  NZ  LYS A 131      25.517  23.595  19.443  1.00 27.40     0.618 N 
ENDBRANCH   4   5
ENDBRANCH   3   4
ENDBRANCH   2   3
ENDBRANCH   1   2
END_RES LYS A 131
BEGIN_RES LYS A 135
REMARK  4 active torsions:
REMARK  status: ('A' for Active; 'I' for Inactive)
REMARK    5  A    between atoms: CA   and  CB  
REMARK    6  A    between atoms: CB   and  CG  
REMARK    7  A    between atoms: CG   and  CD  
REMARK    8  A    between atoms: CD   and  CE  
ROOT
ATOM      7  CA  LYS A 135      33.193  34.663   9.290  1.00 25.02     0.186 C 
ENDROOT
BRANCH   7   8
ATOM      8  CB  LYS A 135      32.060  35.360  10.034  1.00 26.63     0.034 C 
BRANCH   8   9
ATOM      9  CG  LYS A 135      30.740  34.641   9.931  1.00 29.45     0.005 C 
BRANCH   9  10
ATOM     10  CD  LYS A 135      30.328  34.481   8.476  1.00 32.00     0.041 C 
BRANCH  10  11
ATOM     11  CE  LYS A 135      28.819  34.553   8.338  1.00 34.25     0.338 C 
ATOM     12  NZ  LYS A 135      28.144  33.860   9.471  1.00 35.99     0.618 N 
ENDBRANCH  10  11
ENDBRANCH   9  10
ENDBRANCH   8   9
ENDBRANCH   7   8
END_RES LYS A 135
