REMARK VINA RESULT:    -4.627      6.859     11.453
REMARK INTER + INTRA:         -16.668
REMARK INTER:                  -9.997
REMARK INTRA:                  -6.672
REMARK UNBOUND:                -7.171
REMARK SMILES CCOCCc1c(-c2ccccc2)nc(N)nc1-n1cc(COC(=O)NC[C@@H](O)C(O)[C@@H]2O[C@@](O)(C(=O)O)C[C@H](O)[C@H]2NC(C)=O)nn1
REMARK SMILES IDX 23 1 24 2 26 3 25 5 27 6 28 7 30 8 32 9 34 10 39 11 33 12
REMARK SMILES IDX 40 13 42 14 35 15 36 17 37 18 38 19 41 21 43 23 44 24 45 26
REMARK SMILES IDX 46 27 31 28 29 30 22 32 21 33 20 34 47 35 19 36 48 37 18 38
REMARK SMILES IDX 17 39 6 40 15 41 7 42 14 43 5 44 4 45 3 46 2 47 1 48 16 49
REMARK SMILES IDX 8 52 9 53 13 54 10 55 12 56 11 57
REMARK H PARENT 26 4 35 16 38 20 41 22 43 25 31 29 29 31 16 50 16 51
REMARK Flexibility Score: inf
ROOT
ATOM      1  O   UNL     1      31.955  31.609  23.662  1.00  0.00    -0.443 OA
ENDROOT
BRANCH   1   2
ATOM      2  C   UNL     1      31.661  30.299  23.355  1.00  0.00     0.407 C 
ATOM      3  N   UNL     1      32.408  29.569  22.358  1.00  0.00    -0.319 N 
ATOM      4  H   UNL     1      33.167  30.115  21.904  1.00  0.00     0.167 HD
ATOM      5  O   UNL     1      30.716  29.743  23.969  1.00  0.00    -0.225 OA
BRANCH   3   6
ATOM      6  C   UNL     1      32.057  28.197  22.076  1.00  0.00     0.154 C 
BRANCH   6   7
ATOM      7  C   UNL     1      31.353  28.168  20.726  1.00  0.00     0.165 C 
BRANCH   7   8
ATOM      8  C   UNL     1      30.047  27.442  20.940  1.00  0.00     0.176 C 
BRANCH   8   9
ATOM      9  C   UNL     1      28.925  28.295  21.447  1.00  0.00     0.178 C 
ATOM     10  C   UNL     1      27.279  27.343  20.078  1.00  0.00     0.269 C 
ATOM     11  C   UNL     1      27.486  28.524  19.144  1.00  0.00     0.112 C 
ATOM     12  O   UNL     1      27.761  27.572  21.334  1.00  0.00    -0.332 OA
ATOM     13  C   UNL     1      27.604  29.778  19.987  1.00  0.00     0.145 C 
ATOM     14  C   UNL     1      28.840  29.673  20.902  1.00  0.00     0.142 C 
BRANCH  10  15
ATOM     15  O   UNL     1      27.888  26.252  19.447  1.00  0.00    -0.357 OA
ATOM     16  H   UNL     1      27.490  26.060  18.569  1.00  0.00     0.214 HD
ENDBRANCH  10  15
BRANCH  10  17
ATOM     17  C   UNL     1      25.841  27.030  20.203  1.00  0.00     0.364 C 
ATOM     18  O   UNL     1      25.288  26.330  19.334  1.00  0.00    -0.246 OA
BRANCH  17  19
ATOM     19  O   UNL     1      25.118  27.504  21.266  1.00  0.00    -0.477 OA
ATOM     20  H   UNL     1      24.872  28.476  21.411  1.00  0.00     0.296 HD
ENDBRANCH  17  19
ENDBRANCH  10  17
BRANCH  13  21
ATOM     21  O   UNL     1      27.659  30.903  19.198  1.00  0.00    -0.391 OA
ATOM     22  H   UNL     1      26.773  31.151  18.859  1.00  0.00     0.211 HD
ENDBRANCH  13  21
BRANCH  14  23
ATOM     23  N   UNL     1      28.603  30.678  21.948  1.00  0.00    -0.348 N 
ATOM     24  C   UNL     1      27.296  30.859  22.460  1.00  0.00     0.217 C 
ATOM     25  H   UNL     1      29.382  31.262  22.322  1.00  0.00     0.163 HD
ATOM     26  C   UNL     1      26.983  31.863  23.524  1.00  0.00     0.114 C 
ATOM     27  O   UNL     1      26.379  30.134  21.984  1.00  0.00    -0.275 OA
ENDBRANCH  14  23
ENDBRANCH   8   9
BRANCH   8  28
ATOM     28  O   UNL     1      30.347  26.567  22.036  1.00  0.00    -0.388 OA
ATOM     29  H   UNL     1      29.657  26.649  22.723  1.00  0.00     0.211 HD
ENDBRANCH   8  28
ENDBRANCH   7   8
BRANCH   7  30
ATOM     30  O   UNL     1      32.220  27.533  19.851  1.00  0.00    -0.388 OA
ATOM     31  H   UNL     1      32.598  28.153  19.191  1.00  0.00     0.211 HD
ENDBRANCH   7  30
ENDBRANCH   6   7
ENDBRANCH   3   6
ENDBRANCH   1   2
BRANCH   1  32
ATOM     32  C   UNL     1      32.455  32.572  22.761  1.00  0.00     0.294 C 
BRANCH  32  33
ATOM     33  C   UNL     1      31.537  32.682  21.583  1.00  0.00     0.121 A 
ATOM     34  C   UNL     1      31.792  32.343  20.277  1.00  0.00     0.146 A 
ATOM     35  N   UNL     1      30.269  33.147  21.590  1.00  0.00    -0.131 NA
ATOM     36  N   UNL     1      30.689  32.601  19.510  1.00  0.00    -0.202 N 
ATOM     37  N   UNL     1      29.794  33.087  20.361  1.00  0.00    -0.060 NA
BRANCH  36  38
ATOM     38  C   UNL     1      30.565  32.403  18.113  1.00  0.00     0.164 A 
ATOM     39  N   UNL     1      29.953  31.320  17.614  1.00  0.00    -0.193 NA
ATOM     40  C   UNL     1      31.105  33.327  17.210  1.00  0.00     0.026 A 
ATOM     41  C   UNL     1      29.855  31.113  16.277  1.00  0.00     0.222 A 
ATOM     42  C   UNL     1      31.011  33.119  15.863  1.00  0.00     0.081 A 
ATOM     43  N   UNL     1      30.369  31.985  15.403  1.00  0.00    -0.213 NA
BRANCH  40  44
ATOM     44  C   UNL     1      31.809  34.507  17.751  1.00  0.00     0.070 C 
BRANCH  44  45
ATOM     45  C   UNL     1      31.026  35.789  17.707  1.00  0.00     0.165 C 
BRANCH  45  46
ATOM     46  O   UNL     1      29.691  35.603  17.938  1.00  0.00    -0.381 OA
BRANCH  46  47
ATOM     47  C   UNL     1      28.874  36.040  16.921  1.00  0.00     0.156 C 
ATOM     48  C   UNL     1      27.823  35.011  16.563  1.00  0.00     0.035 C 
ENDBRANCH  46  47
ENDBRANCH  45  46
ENDBRANCH  44  45
ENDBRANCH  40  44
BRANCH  41  49
ATOM     49  N   UNL     1      29.200  29.956  15.796  1.00  0.00    -0.368 N 
ATOM     50  H   UNL     1      29.659  29.030  15.867  1.00  0.00     0.159 HD
ATOM     51  H   UNL     1      28.258  29.998  15.365  1.00  0.00     0.159 HD
ENDBRANCH  41  49
BRANCH  42  52
ATOM     52  C   UNL     1      31.648  33.977  14.883  1.00  0.00     0.001 A 
ATOM     53  C   UNL     1      32.954  34.274  14.747  1.00  0.00     0.010 A 
ATOM     54  C   UNL     1      30.772  34.556  13.936  1.00  0.00     0.010 A 
ATOM     55  C   UNL     1      33.405  35.115  13.711  1.00  0.00     0.001 A 
ATOM     56  C   UNL     1      31.197  35.374  12.927  1.00  0.00     0.001 A 
ATOM     57  C   UNL     1      32.543  35.671  12.797  1.00  0.00     0.000 A 
ENDBRANCH  42  52
ENDBRANCH  36  38
ENDBRANCH  32  33
ENDBRANCH   1  32
TORSDOF 21
BEGIN_RES LYS A 131
REMARK  4 active torsions:
REMARK  status: ('A' for Active; 'I' for Inactive)
REMARK    1  A    between atoms: CA   and  CB  
REMARK    2  A    between atoms: CB   and  CG  
REMARK    3  A    between atoms: CG   and  CD  
REMARK    4  A    between atoms: CD   and  CE  
ROOT
ATOM      1  CA  LYS A 131      29.867  25.555  16.977  1.00 20.52     0.186 C 
ENDROOT
BRANCH   1   2
ATOM      2  CB  LYS A 131      28.345  25.722  17.026  1.00 20.94     0.034 C 
BRANCH   2   3
ATOM      3  CG  LYS A 131      27.599  24.492  16.530  1.00 22.96     0.005 C 
BRANCH   3   4
ATOM      4  CD  LYS A 131      27.002  23.699  17.659  1.00 24.33     0.041 C 
BRANCH   4   5
ATOM      5  CE  LYS A 131      25.504  23.531  17.426  1.00 26.91     0.338 C 
ATOM      6  NZ  LYS A 131      25.106  22.116  17.614  1.00 27.40     0.618 N 
ENDBRANCH   4   5
ENDBRANCH   3   4
ENDBRANCH   2   3
ENDBRANCH   1   2
END_RES LYS A 131
BEGIN_RES LYS A 135
REMARK  4 active torsions:
REMARK  status: ('A' for Active; 'I' for Inactive)
REMARK    5  A    between atoms: CA   and  CB  
REMARK    6  A    between atoms: CB   and  CG  
REMARK    7  A    between atoms: CG   and  CD  
REMARK    8  A    between atoms: CD   and  CE  
ROOT
ATOM      7  CA  LYS A 135      33.193  34.663   9.290  1.00 25.02     0.186 C 
ENDROOT
BRANCH   7   8
ATOM      8  CB  LYS A 135      32.060  35.360  10.034  1.00 26.63     0.034 C 
BRANCH   8   9
ATOM      9  CG  LYS A 135      30.783  35.449   9.240  1.00 29.45     0.005 C 
BRANCH   9  10
ATOM     10  CD  LYS A 135      30.219  34.062   8.973  1.00 32.00     0.041 C 
BRANCH  10  11
ATOM     11  CE  LYS A 135      28.732  34.024   9.273  1.00 34.25     0.338 C 
ATOM     12  NZ  LYS A 135      28.460  34.413  10.685  1.00 35.99     0.618 N 
ENDBRANCH  10  11
ENDBRANCH   9  10
ENDBRANCH   8   9
ENDBRANCH   7   8
END_RES LYS A 135
