REMARK VINA RESULT:    -5.107      2.960      5.522
REMARK INTER + INTRA:         -16.247
REMARK INTER:                  -9.367
REMARK INTRA:                  -6.880
REMARK UNBOUND:                -7.109
REMARK SMILES CC(=O)N[C@@H]1[C@@H](O)C[C@](O)(C(=O)O)O[C@H]1C(O)[C@H](O)CNC(=O)OCc1cn(-c2ncn3c2c(=O)n(C(C)C)c2ccccc23)nn1
REMARK SMILES IDX 21 1 22 2 23 3 20 5 18 6 16 7 15 8 9 9 8 10 14 11 6 12 5 13
REMARK SMILES IDX 10 14 11 16 12 17 13 18 7 20 4 22 2 23 1 25 3 26 17 27 19 29
REMARK SMILES IDX 24 31 25 32 26 33 27 34 47 35 28 36 46 37 29 38 30 39 33 40
REMARK SMILES IDX 31 41 32 42 34 43 45 44 36 45 35 46 44 47 40 48 43 49 41 50
REMARK SMILES IDX 42 51 37 52 38 53 39 54
REMARK H PARENT 21 4 10 15 13 19 7 21 4 24 17 28 19 30
REMARK Flexibility Score: inf
ROOT
ATOM      1  N   UNL     1      23.868  33.143  19.262  1.00  0.00    -0.319 N 
ATOM      2  C   UNL     1      22.946  32.705  18.311  1.00  0.00     0.407 C 
ATOM      3  O   UNL     1      22.498  31.559  18.262  1.00  0.00    -0.225 OA
ATOM      4  H   UNL     1      24.148  34.200  19.196  1.00  0.00     0.167 HD
ENDROOT
BRANCH   1   5
ATOM      5  C   UNL     1      24.464  32.369  20.282  1.00  0.00     0.154 C 
BRANCH   5   6
ATOM      6  C   UNL     1      25.890  32.072  20.142  1.00  0.00     0.165 C 
BRANCH   6   7
ATOM      7  C   UNL     1      26.483  31.527  18.908  1.00  0.00     0.176 C 
BRANCH   7   8
ATOM      8  C   UNL     1      25.726  30.196  18.627  1.00  0.00     0.178 C 
ATOM      9  C   UNL     1      27.386  28.540  18.759  1.00  0.00     0.269 C 
ATOM     10  C   UNL     1      27.096  28.128  17.354  1.00  0.00     0.112 C 
ATOM     11  O   UNL     1      26.342  29.212  19.305  1.00  0.00    -0.332 OA
ATOM     12  C   UNL     1      26.571  29.237  16.477  1.00  0.00     0.145 C 
ATOM     13  C   UNL     1      25.483  30.024  17.174  1.00  0.00     0.142 C 
BRANCH   9  14
ATOM     14  O   UNL     1      28.523  29.387  18.788  1.00  0.00    -0.357 OA
ATOM     15  H   UNL     1      29.002  29.201  17.936  1.00  0.00     0.214 HD
ENDBRANCH   9  14
BRANCH   9  16
ATOM     16  C   UNL     1      27.707  27.280  19.510  1.00  0.00     0.364 C 
ATOM     17  O   UNL     1      26.799  26.485  19.788  1.00  0.00    -0.246 OA
BRANCH  16  18
ATOM     18  O   UNL     1      29.003  27.013  19.882  1.00  0.00    -0.477 OA
ATOM     19  H   UNL     1      29.612  27.762  20.225  1.00  0.00     0.296 HD
ENDBRANCH  16  18
ENDBRANCH   9  16
BRANCH  12  20
ATOM     20  O   UNL     1      27.581  30.092  16.034  1.00  0.00    -0.391 OA
ATOM     21  H   UNL     1      27.735  30.795  16.712  1.00  0.00     0.211 HD
ENDBRANCH  12  20
BRANCH  13  22
ATOM     22  N   UNL     1      24.219  29.324  16.910  1.00  0.00    -0.348 N 
ATOM     23  C   UNL     1      23.664  29.220  15.618  1.00  0.00     0.217 C 
ATOM     24  H   UNL     1      23.680  28.870  17.700  1.00  0.00     0.163 HD
ATOM     25  C   UNL     1      22.385  28.511  15.356  1.00  0.00     0.114 C 
ATOM     26  O   UNL     1      24.261  29.743  14.629  1.00  0.00    -0.275 OA
ENDBRANCH  13  22
ENDBRANCH   7   8
BRANCH   7  27
ATOM     27  O   UNL     1      26.362  32.341  17.779  1.00  0.00    -0.388 OA
ATOM     28  H   UNL     1      27.092  33.036  17.771  1.00  0.00     0.211 HD
ENDBRANCH   7  27
ENDBRANCH   6   7
BRANCH   6  29
ATOM     29  O   UNL     1      26.208  31.182  21.238  1.00  0.00    -0.388 OA
ATOM     30  H   UNL     1      25.401  30.936  21.723  1.00  0.00     0.211 HD
ENDBRANCH   6  29
ENDBRANCH   5   6
ENDBRANCH   1   5
BRANCH   2  31
ATOM     31  O   UNL     1      22.462  33.585  17.316  1.00  0.00    -0.443 OA
BRANCH  31  32
ATOM     32  C   UNL     1      23.216  34.674  16.868  1.00  0.00     0.294 C 
BRANCH  32  33
ATOM     33  C   UNL     1      24.280  34.200  15.947  1.00  0.00     0.121 A 
ATOM     34  C   UNL     1      25.375  34.927  15.488  1.00  0.00     0.146 A 
ATOM     35  N   UNL     1      24.417  32.992  15.371  1.00  0.00    -0.131 NA
ATOM     36  N   UNL     1      26.133  34.153  14.661  1.00  0.00    -0.200 N 
ATOM     37  N   UNL     1      25.507  33.005  14.631  1.00  0.00    -0.060 NA
BRANCH  36  38
ATOM     38  C   UNL     1      27.327  34.610  14.032  1.00  0.00     0.186 A 
ATOM     39  N   UNL     1      27.388  35.389  12.912  1.00  0.00    -0.216 NA
ATOM     40  C   UNL     1      28.631  34.384  14.390  1.00  0.00     0.158 A 
ATOM     41  C   UNL     1      28.675  35.617  12.617  1.00  0.00     0.207 A 
ATOM     42  N   UNL     1      29.475  35.009  13.512  1.00  0.00    -0.291 N 
ATOM     43  C   UNL     1      29.194  33.686  15.411  1.00  0.00     0.279 A 
ATOM     44  C   UNL     1      30.813  34.946  13.637  1.00  0.00     0.071 A 
ATOM     45  N   UNL     1      30.512  33.598  15.573  1.00  0.00    -0.302 N 
ATOM     46  O   UNL     1      28.483  33.086  16.255  1.00  0.00    -0.267 OA
ATOM     47  C   UNL     1      31.633  35.588  12.732  1.00  0.00     0.029 A 
ATOM     48  C   UNL     1      31.325  34.222  14.695  1.00  0.00     0.068 A 
ATOM     49  C   UNL     1      33.013  35.541  12.836  1.00  0.00     0.002 A 
ATOM     50  C   UNL     1      32.709  34.190  14.776  1.00  0.00     0.028 A 
ATOM     51  C   UNL     1      33.541  34.828  13.878  1.00  0.00     0.002 A 
BRANCH  45  52
ATOM     52  C   UNL     1      31.175  32.876  16.636  1.00  0.00     0.085 C 
ATOM     53  C   UNL     1      30.754  31.427  16.520  1.00  0.00     0.031 C 
ATOM     54  C   UNL     1      30.831  33.341  18.015  1.00  0.00     0.031 C 
ENDBRANCH  45  52
ENDBRANCH  36  38
ENDBRANCH  32  33
ENDBRANCH  31  32
ENDBRANCH   2  31
TORSDOF 16
BEGIN_RES LYS A 131
REMARK  4 active torsions:
REMARK  status: ('A' for Active; 'I' for Inactive)
REMARK    1  A    between atoms: CA   and  CB  
REMARK    2  A    between atoms: CB   and  CG  
REMARK    3  A    between atoms: CG   and  CD  
REMARK    4  A    between atoms: CD   and  CE  
ROOT
ATOM      1  CA  LYS A 131      29.867  25.555  16.977  1.00 20.52     0.186 C 
ENDROOT
BRANCH   1   2
ATOM      2  CB  LYS A 131      28.345  25.722  17.026  1.00 20.94     0.034 C 
BRANCH   2   3
ATOM      3  CG  LYS A 131      27.599  24.477  16.571  1.00 22.96     0.005 C 
BRANCH   3   4
ATOM      4  CD  LYS A 131      27.008  23.717  17.725  1.00 24.33     0.041 C 
BRANCH   4   5
ATOM      5  CE  LYS A 131      25.514  23.515  17.490  1.00 26.91     0.338 C 
ATOM      6  NZ  LYS A 131      24.838  24.820  17.298  1.00 27.40     0.618 N 
ENDBRANCH   4   5
ENDBRANCH   3   4
ENDBRANCH   2   3
ENDBRANCH   1   2
END_RES LYS A 131
BEGIN_RES LYS A 135
REMARK  4 active torsions:
REMARK  status: ('A' for Active; 'I' for Inactive)
REMARK    5  A    between atoms: CA   and  CB  
REMARK    6  A    between atoms: CB   and  CG  
REMARK    7  A    between atoms: CG   and  CD  
REMARK    8  A    between atoms: CD   and  CE  
ROOT
ATOM      7  CA  LYS A 135      33.193  34.663   9.290  1.00 25.02     0.186 C 
ENDROOT
BRANCH   7   8
ATOM      8  CB  LYS A 135      32.060  35.360  10.034  1.00 26.63     0.034 C 
BRANCH   8   9
ATOM      9  CG  LYS A 135      30.801  35.502   9.218  1.00 29.45     0.005 C 
BRANCH   9  10
ATOM     10  CD  LYS A 135      30.089  34.164   9.092  1.00 32.00     0.041 C 
BRANCH  10  11
ATOM     11  CE  LYS A 135      28.632  34.369   8.725  1.00 34.25     0.338 C 
ATOM     12  NZ  LYS A 135      27.735  33.640   9.664  1.00 35.99     0.618 N 
ENDBRANCH  10  11
ENDBRANCH   9  10
ENDBRANCH   8   9
ENDBRANCH   7   8
END_RES LYS A 135
