REMARK VINA RESULT:    -4.991      3.302      6.340
REMARK INTER + INTRA:         -13.665
REMARK INTER:                  -6.646
REMARK INTRA:                  -7.019
REMARK UNBOUND:                -5.026
REMARK SMILES CC(=O)N[C@@H]1[C@@H](O)C[C@](O)(C(=O)O)O[C@H]1C(O)[C@H](O)CNC(=O)OCc1cn(C2CCCC2)nn1
REMARK SMILES IDX 20 1 18 2 16 3 15 4 9 5 8 6 14 7 6 8 5 9 10 10 11 12 12 13
REMARK SMILES IDX 13 14 7 16 4 18 2 19 1 21 3 22 17 23 19 25 21 27 22 28 23 30
REMARK SMILES IDX 24 31 25 32 26 33 27 34 35 35 28 36 34 37 29 38 30 39 33 40
REMARK SMILES IDX 31 41 32 42
REMARK H PARENT 10 11 13 15 7 17 4 20 17 24 19 26 21 29
REMARK Flexibility Score: inf
ROOT
ATOM      1  C   UNL     1      27.815  36.072  18.443  1.00  0.00     0.154 C 
ENDROOT
BRANCH   1   2
ATOM      2  C   UNL     1      27.819  35.166  17.243  1.00  0.00     0.165 C 
BRANCH   2   3
ATOM      3  C   UNL     1      27.373  33.804  17.735  1.00  0.00     0.176 C 
BRANCH   3   4
ATOM      4  C   UNL     1      28.435  32.762  17.583  1.00  0.00     0.178 C 
ATOM      5  C   UNL     1      29.389  31.386  15.980  1.00  0.00     0.269 C 
ATOM      6  C   UNL     1      30.193  30.960  17.198  1.00  0.00     0.112 C 
ATOM      7  O   UNL     1      28.242  32.047  16.424  1.00  0.00    -0.332 OA
ATOM      8  C   UNL     1      29.197  30.556  18.265  1.00  0.00     0.145 C 
ATOM      9  C   UNL     1      28.557  31.845  18.767  1.00  0.00     0.142 C 
BRANCH   5  10
ATOM     10  O   UNL     1      29.057  30.222  15.297  1.00  0.00    -0.357 OA
ATOM     11  H   UNL     1      28.500  30.497  14.505  1.00  0.00     0.214 HD
ENDBRANCH   5  10
BRANCH   5  12
ATOM     12  C   UNL     1      30.160  32.259  15.086  1.00  0.00     0.364 C 
ATOM     13  O   UNL     1      29.615  33.195  14.451  1.00  0.00    -0.246 OA
BRANCH  12  14
ATOM     14  O   UNL     1      31.522  32.072  14.916  1.00  0.00    -0.477 OA
ATOM     15  H   UNL     1      31.905  31.324  14.322  1.00  0.00     0.296 HD
ENDBRANCH  12  14
ENDBRANCH   5  12
BRANCH   8  16
ATOM     16  O   UNL     1      28.222  29.767  17.632  1.00  0.00    -0.391 OA
ATOM     17  H   UNL     1      27.350  30.222  17.767  1.00  0.00     0.211 HD
ENDBRANCH   8  16
BRANCH   9  18
ATOM     18  N   UNL     1      29.396  32.403  19.809  1.00  0.00    -0.348 N 
ATOM     19  C   UNL     1      29.418  31.840  21.104  1.00  0.00     0.217 C 
ATOM     20  H   UNL     1      29.991  33.227  19.610  1.00  0.00     0.163 HD
ATOM     21  C   UNL     1      30.251  32.360  22.215  1.00  0.00     0.114 C 
ATOM     22  O   UNL     1      28.692  30.844  21.326  1.00  0.00    -0.275 OA
ENDBRANCH   9  18
ENDBRANCH   3   4
BRANCH   3  23
ATOM     23  O   UNL     1      27.102  33.944  19.097  1.00  0.00    -0.388 OA
ATOM     24  H   UNL     1      26.149  33.918  19.313  1.00  0.00     0.211 HD
ENDBRANCH   3  23
ENDBRANCH   2   3
BRANCH   2  25
ATOM     25  O   UNL     1      29.066  35.071  16.671  1.00  0.00    -0.388 OA
ATOM     26  H   UNL     1      29.585  35.895  16.873  1.00  0.00     0.211 HD
ENDBRANCH   2  25
ENDBRANCH   1   2
BRANCH   1  27
ATOM     27  N   UNL     1      29.096  36.394  18.987  1.00  0.00    -0.319 N 
ATOM     28  C   UNL     1      29.596  35.980  20.226  1.00  0.00     0.407 C 
ATOM     29  H   UNL     1      29.723  37.012  18.378  1.00  0.00     0.167 HD
ATOM     30  O   UNL     1      28.898  35.263  20.978  1.00  0.00    -0.225 OA
BRANCH  28  31
ATOM     31  O   UNL     1      30.886  36.364  20.637  1.00  0.00    -0.443 OA
BRANCH  31  32
ATOM     32  C   UNL     1      31.935  35.436  20.433  1.00  0.00     0.294 C 
BRANCH  32  33
ATOM     33  C   UNL     1      32.038  35.162  18.983  1.00  0.00     0.120 A 
ATOM     34  C   UNL     1      32.717  35.982  18.092  1.00  0.00     0.138 A 
ATOM     35  N   UNL     1      31.550  34.162  18.259  1.00  0.00    -0.132 NA
ATOM     36  N   UNL     1      32.608  35.440  16.879  1.00  0.00    -0.249 N 
ATOM     37  N   UNL     1      31.896  34.336  16.994  1.00  0.00    -0.067 NA
BRANCH  36  38
ATOM     38  C   UNL     1      33.196  36.021  15.677  1.00  0.00     0.109 C 
ATOM     39  C   UNL     1      33.437  34.903  14.703  1.00  0.00     0.027 C 
ATOM     40  C   UNL     1      32.189  36.955  15.043  1.00  0.00     0.027 C 
ATOM     41  C   UNL     1      32.708  35.262  13.448  1.00  0.00     0.002 C 
ATOM     42  C   UNL     1      31.580  36.138  13.919  1.00  0.00     0.002 C 
ENDBRANCH  36  38
ENDBRANCH  32  33
ENDBRANCH  31  32
ENDBRANCH  28  31
ENDBRANCH   1  27
TORSDOF 15
BEGIN_RES LYS A 131
REMARK  4 active torsions:
REMARK  status: ('A' for Active; 'I' for Inactive)
REMARK    1  A    between atoms: CA   and  CB  
REMARK    2  A    between atoms: CB   and  CG  
REMARK    3  A    between atoms: CG   and  CD  
REMARK    4  A    between atoms: CD   and  CE  
ROOT
ATOM      1  CA  LYS A 131      29.867  25.555  16.977  1.00 20.52     0.186 C 
ENDROOT
BRANCH   1   2
ATOM      2  CB  LYS A 131      28.345  25.722  17.026  1.00 20.94     0.034 C 
BRANCH   2   3
ATOM      3  CG  LYS A 131      27.604  24.394  17.007  1.00 22.96     0.005 C 
BRANCH   3   4
ATOM      4  CD  LYS A 131      26.175  24.536  17.452  1.00 24.33     0.041 C 
BRANCH   4   5
ATOM      5  CE  LYS A 131      25.501  23.168  17.446  1.00 26.91     0.338 C 
ATOM      6  NZ  LYS A 131      24.111  23.276  16.945  1.00 27.40     0.618 N 
ENDBRANCH   4   5
ENDBRANCH   3   4
ENDBRANCH   2   3
ENDBRANCH   1   2
END_RES LYS A 131
BEGIN_RES LYS A 135
REMARK  4 active torsions:
REMARK  status: ('A' for Active; 'I' for Inactive)
REMARK    5  A    between atoms: CA   and  CB  
REMARK    6  A    between atoms: CB   and  CG  
REMARK    7  A    between atoms: CG   and  CD  
REMARK    8  A    between atoms: CD   and  CE  
ROOT
ATOM      7  CA  LYS A 135      33.193  34.663   9.290  1.00 25.02     0.186 C 
ENDROOT
BRANCH   7   8
ATOM      8  CB  LYS A 135      32.060  35.360  10.034  1.00 26.63     0.034 C 
BRANCH   8   9
ATOM      9  CG  LYS A 135      30.688  34.916   9.596  1.00 29.45     0.005 C 
BRANCH   9  10
ATOM     10  CD  LYS A 135      29.969  36.039   8.864  1.00 32.00     0.041 C 
BRANCH  10  11
ATOM     11  CE  LYS A 135      29.010  35.474   7.833  1.00 34.25     0.338 C 
ATOM     12  NZ  LYS A 135      28.036  34.540   8.462  1.00 35.99     0.618 N 
ENDBRANCH  10  11
ENDBRANCH   9  10
ENDBRANCH   8   9
ENDBRANCH   7   8
END_RES LYS A 135
