REMARK VINA RESULT:    -5.075      2.744      5.475
REMARK INTER + INTRA:         -14.494
REMARK INTER:                  -8.115
REMARK INTRA:                  -6.379
REMARK UNBOUND:                -5.414
REMARK SMILES CC(=O)N[C@@H]1[C@@H](O)C[C@](O)(C(=O)O)O[C@H]1C(O)[C@H](O)CNC(=O)OCc1cn(-c2ccccc2C(N)=O)nn1
REMARK SMILES IDX 21 1 22 2 23 3 20 5 18 6 16 7 15 8 9 9 8 10 14 11 6 12 5 13
REMARK SMILES IDX 10 14 11 16 12 17 13 18 7 20 4 22 2 23 1 25 3 26 17 27 19 29
REMARK SMILES IDX 24 31 25 32 26 33 27 34 39 35 28 36 38 37 29 38 34 39 30 40
REMARK SMILES IDX 33 41 31 42 32 43 35 44 37 45 36 46
REMARK H PARENT 21 4 10 15 13 19 7 21 4 24 17 28 19 30 36 47 36 48
REMARK Flexibility Score: inf
ROOT
ATOM      1  N   UNL     1      32.141  33.981  19.754  1.00  0.00    -0.319 N 
ATOM      2  C   UNL     1      31.969  35.362  20.034  1.00  0.00     0.407 C 
ATOM      3  O   UNL     1      30.938  35.736  20.621  1.00  0.00    -0.225 OA
ATOM      4  H   UNL     1      33.041  33.731  19.252  1.00  0.00     0.167 HD
ENDROOT
BRANCH   1   5
ATOM      5  C   UNL     1      31.199  32.947  20.101  1.00  0.00     0.154 C 
BRANCH   5   6
ATOM      6  C   UNL     1      30.307  32.558  18.934  1.00  0.00     0.165 C 
BRANCH   6   7
ATOM      7  C   UNL     1      30.350  31.084  18.663  1.00  0.00     0.176 C 
BRANCH   7   8
ATOM      8  C   UNL     1      29.501  30.262  19.556  1.00  0.00     0.178 C 
ATOM      9  C   UNL     1      29.705  28.334  20.865  1.00  0.00     0.269 C 
ATOM     10  C   UNL     1      28.345  28.768  21.326  1.00  0.00     0.112 C 
ATOM     11  O   UNL     1      30.325  29.207  20.030  1.00  0.00    -0.332 OA
ATOM     12  C   UNL     1      27.438  29.211  20.229  1.00  0.00     0.145 C 
ATOM     13  C   UNL     1      28.279  29.629  19.027  1.00  0.00     0.142 C 
BRANCH   9  14
ATOM     14  O   UNL     1      29.612  27.032  20.318  1.00  0.00    -0.357 OA
ATOM     15  H   UNL     1      29.958  27.077  19.380  1.00  0.00     0.214 HD
ENDBRANCH   9  14
BRANCH   9  16
ATOM     16  C   UNL     1      30.547  28.192  22.088  1.00  0.00     0.364 C 
ATOM     17  O   UNL     1      31.201  27.114  22.240  1.00  0.00    -0.246 OA
BRANCH  16  18
ATOM     18  O   UNL     1      30.657  29.162  23.060  1.00  0.00    -0.477 OA
ATOM     19  H   UNL     1      30.034  29.955  23.080  1.00  0.00     0.296 HD
ENDBRANCH  16  18
ENDBRANCH   9  16
BRANCH  12  20
ATOM     20  O   UNL     1      26.577  28.174  19.908  1.00  0.00    -0.391 OA
ATOM     21  H   UNL     1      25.965  27.924  20.644  1.00  0.00     0.211 HD
ENDBRANCH  12  20
BRANCH  13  22
ATOM     22  N   UNL     1      27.527  30.295  18.035  1.00  0.00    -0.348 N 
ATOM     23  C   UNL     1      27.047  29.634  16.885  1.00  0.00     0.217 C 
ATOM     24  H   UNL     1      27.284  31.301  18.133  1.00  0.00     0.163 HD
ATOM     25  C   UNL     1      26.257  30.280  15.816  1.00  0.00     0.114 C 
ATOM     26  O   UNL     1      27.307  28.417  16.761  1.00  0.00    -0.275 OA
ENDBRANCH  13  22
ENDBRANCH   7   8
BRANCH   7  27
ATOM     27  O   UNL     1      30.403  30.726  17.336  1.00  0.00    -0.388 OA
ATOM     28  H   UNL     1      31.304  30.956  16.956  1.00  0.00     0.211 HD
ENDBRANCH   7  27
ENDBRANCH   6   7
BRANCH   6  29
ATOM     29  O   UNL     1      30.476  33.372  17.850  1.00  0.00    -0.388 OA
ATOM     30  H   UNL     1      31.276  33.956  17.957  1.00  0.00     0.211 HD
ENDBRANCH   6  29
ENDBRANCH   5   6
ENDBRANCH   1   5
BRANCH   2  31
ATOM     31  O   UNL     1      32.914  36.316  19.677  1.00  0.00    -0.443 OA
BRANCH  31  32
ATOM     32  C   UNL     1      32.737  37.175  18.564  1.00  0.00     0.294 C 
BRANCH  32  33
ATOM     33  C   UNL     1      32.335  36.386  17.360  1.00  0.00     0.121 A 
ATOM     34  C   UNL     1      31.271  36.679  16.528  1.00  0.00     0.144 A 
ATOM     35  N   UNL     1      32.907  35.278  16.866  1.00  0.00    -0.131 NA
ATOM     36  N   UNL     1      31.241  35.723  15.552  1.00  0.00    -0.220 N 
ATOM     37  N   UNL     1      32.227  34.906  15.781  1.00  0.00    -0.062 NA
BRANCH  36  38
ATOM     38  C   UNL     1      30.278  35.664  14.493  1.00  0.00     0.079 A 
ATOM     39  C   UNL     1      29.604  34.506  14.184  1.00  0.00     0.065 A 
ATOM     40  C   UNL     1      30.033  36.826  13.770  1.00  0.00     0.029 A 
ATOM     41  C   UNL     1      28.678  34.529  13.136  1.00  0.00     0.016 A 
ATOM     42  C   UNL     1      29.119  36.828  12.744  1.00  0.00     0.002 A 
ATOM     43  C   UNL     1      28.449  35.674  12.435  1.00  0.00     0.001 A 
BRANCH  39  44
ATOM     44  C   UNL     1      29.812  33.258  14.901  1.00  0.00     0.250 C 
ATOM     45  O   UNL     1      28.882  32.868  15.680  1.00  0.00    -0.269 OA
ATOM     46  N   UNL     1      30.990  32.476  14.765  1.00  0.00    -0.366 N 
ATOM     47  H   UNL     1      31.204  31.935  13.912  1.00  0.00     0.159 HD
ATOM     48  H   UNL     1      31.649  32.467  15.602  1.00  0.00     0.159 HD
ENDBRANCH  39  44
ENDBRANCH  36  38
ENDBRANCH  32  33
ENDBRANCH  31  32
ENDBRANCH   2  31
TORSDOF 16
BEGIN_RES LYS A 131
REMARK  4 active torsions:
REMARK  status: ('A' for Active; 'I' for Inactive)
REMARK    1  A    between atoms: CA   and  CB  
REMARK    2  A    between atoms: CB   and  CG  
REMARK    3  A    between atoms: CG   and  CD  
REMARK    4  A    between atoms: CD   and  CE  
ROOT
ATOM      1  CA  LYS A 131      29.867  25.555  16.977  1.00 20.52     0.186 C 
ENDROOT
BRANCH   1   2
ATOM      2  CB  LYS A 131      28.345  25.722  17.026  1.00 20.94     0.034 C 
BRANCH   2   3
ATOM      3  CG  LYS A 131      27.601  24.403  16.885  1.00 22.96     0.005 C 
BRANCH   3   4
ATOM      4  CD  LYS A 131      26.153  24.525  17.271  1.00 24.33     0.041 C 
BRANCH   4   5
ATOM      5  CE  LYS A 131      26.044  24.729  18.779  1.00 26.91     0.338 C 
ATOM      6  NZ  LYS A 131      25.528  23.503  19.432  1.00 27.40     0.618 N 
ENDBRANCH   4   5
ENDBRANCH   3   4
ENDBRANCH   2   3
ENDBRANCH   1   2
END_RES LYS A 131
BEGIN_RES LYS A 135
REMARK  4 active torsions:
REMARK  status: ('A' for Active; 'I' for Inactive)
REMARK    5  A    between atoms: CA   and  CB  
REMARK    6  A    between atoms: CB   and  CG  
REMARK    7  A    between atoms: CG   and  CD  
REMARK    8  A    between atoms: CD   and  CE  
ROOT
ATOM      7  CA  LYS A 135      33.193  34.663   9.290  1.00 25.02     0.186 C 
ENDROOT
BRANCH   7   8
ATOM      8  CB  LYS A 135      32.060  35.360  10.034  1.00 26.63     0.034 C 
BRANCH   8   9
ATOM      9  CG  LYS A 135      30.728  34.670   9.887  1.00 29.45     0.005 C 
BRANCH   9  10
ATOM     10  CD  LYS A 135      30.354  34.534   8.419  1.00 32.00     0.041 C 
BRANCH  10  11
ATOM     11  CE  LYS A 135      28.847  34.568   8.248  1.00 34.25     0.338 C 
ATOM     12  NZ  LYS A 135      28.165  33.845   9.357  1.00 35.99     0.618 N 
ENDBRANCH  10  11
ENDBRANCH   9  10
ENDBRANCH   8   9
ENDBRANCH   7   8
END_RES LYS A 135
