REMARK VINA RESULT:    -4.738      3.153      6.509
REMARK INTER + INTRA:         -14.508
REMARK INTER:                  -7.855
REMARK INTRA:                  -6.653
REMARK UNBOUND:                -5.477
REMARK SMILES CC(=O)N[C@@H]1[C@@H](O)C[C@](O)(C(=O)O)O[C@H]1C(O)[C@H](O)CNC(=O)OCc1cn(CC(O)CO)nn1
REMARK SMILES IDX 21 1 22 2 23 3 20 5 18 6 16 7 15 8 9 9 8 10 14 11 6 12 5 13
REMARK SMILES IDX 10 14 11 16 12 17 13 18 7 20 4 22 2 23 1 25 3 26 17 27 19 29
REMARK SMILES IDX 24 31 25 32 26 33 27 34 35 35 28 36 34 37 29 38 30 39 31 40
REMARK SMILES IDX 32 42 33 43
REMARK H PARENT 21 4 10 15 13 19 7 21 4 24 17 28 19 30 31 41 33 44
REMARK Flexibility Score: inf
ROOT
ATOM      1  N   UNL     1      31.542  32.969  14.685  1.00  0.00    -0.319 N 
ATOM      2  C   UNL     1      32.132  34.207  15.044  1.00  0.00     0.407 C 
ATOM      3  O   UNL     1      32.322  34.510  16.235  1.00  0.00    -0.225 OA
ATOM      4  H   UNL     1      31.420  32.804  13.641  1.00  0.00     0.167 HD
ENDROOT
BRANCH   1   5
ATOM      5  C   UNL     1      31.142  32.019  15.666  1.00  0.00     0.154 C 
BRANCH   5   6
ATOM      6  C   UNL     1      29.707  32.177  16.116  1.00  0.00     0.165 C 
BRANCH   6   7
ATOM      7  C   UNL     1      29.211  30.780  16.468  1.00  0.00     0.176 C 
BRANCH   7   8
ATOM      8  C   UNL     1      28.084  30.866  17.503  1.00  0.00     0.178 C 
ATOM      9  C   UNL     1      27.687  28.909  18.691  1.00  0.00     0.269 C 
ATOM     10  C   UNL     1      26.274  29.351  19.021  1.00  0.00     0.112 C 
ATOM     11  O   UNL     1      28.434  30.052  18.543  1.00  0.00    -0.332 OA
ATOM     12  C   UNL     1      25.729  30.040  17.818  1.00  0.00     0.145 C 
ATOM     13  C   UNL     1      26.770  30.555  16.859  1.00  0.00     0.142 C 
BRANCH   9  14
ATOM     14  O   UNL     1      27.605  28.140  17.532  1.00  0.00    -0.357 OA
ATOM     15  H   UNL     1      27.094  28.583  16.818  1.00  0.00     0.214 HD
ENDBRANCH   9  14
BRANCH   9  16
ATOM     16  C   UNL     1      28.270  28.098  19.790  1.00  0.00     0.364 C 
ATOM     17  O   UNL     1      28.833  28.693  20.743  1.00  0.00    -0.246 OA
BRANCH  16  18
ATOM     18  O   UNL     1      28.189  26.726  19.750  1.00  0.00    -0.477 OA
ATOM     19  H   UNL     1      28.627  26.160  20.471  1.00  0.00     0.296 HD
ENDBRANCH  16  18
ENDBRANCH   9  16
BRANCH  12  20
ATOM     20  O   UNL     1      24.941  29.118  17.118  1.00  0.00    -0.391 OA
ATOM     21  H   UNL     1      24.450  29.579  16.413  1.00  0.00     0.211 HD
ENDBRANCH  12  20
BRANCH  13  22
ATOM     22  N   UNL     1      26.210  31.742  16.248  1.00  0.00    -0.348 N 
ATOM     23  C   UNL     1      25.478  31.621  15.038  1.00  0.00     0.217 C 
ATOM     24  H   UNL     1      26.320  32.696  16.661  1.00  0.00     0.163 HD
ATOM     25  C   UNL     1      24.875  32.821  14.359  1.00  0.00     0.114 C 
ATOM     26  O   UNL     1      25.288  30.521  14.460  1.00  0.00    -0.275 OA
ENDBRANCH  13  22
ENDBRANCH   7   8
BRANCH   7  27
ATOM     27  O   UNL     1      28.827  30.130  15.320  1.00  0.00    -0.388 OA
ATOM     28  H   UNL     1      28.874  29.139  15.425  1.00  0.00     0.211 HD
ENDBRANCH   7  27
ENDBRANCH   6   7
BRANCH   6  29
ATOM     29  O   UNL     1      28.935  32.739  15.099  1.00  0.00    -0.388 OA
ATOM     30  H   UNL     1      28.178  33.187  15.523  1.00  0.00     0.211 HD
ENDBRANCH   6  29
ENDBRANCH   5   6
ENDBRANCH   1   5
BRANCH   2  31
ATOM     31  O   UNL     1      32.523  35.132  14.064  1.00  0.00    -0.443 OA
BRANCH  31  32
ATOM     32  C   UNL     1      31.766  35.213  12.891  1.00  0.00     0.294 C 
BRANCH  32  33
ATOM     33  C   UNL     1      30.316  35.367  13.174  1.00  0.00     0.120 A 
ATOM     34  C   UNL     1      29.715  36.392  13.845  1.00  0.00     0.138 A 
ATOM     35  N   UNL     1      29.345  34.522  12.819  1.00  0.00    -0.132 NA
ATOM     36  N   UNL     1      28.383  36.120  13.867  1.00  0.00    -0.249 N 
ATOM     37  N   UNL     1      28.172  34.973  13.236  1.00  0.00    -0.067 NA
BRANCH  36  38
ATOM     38  C   UNL     1      27.371  36.970  14.491  1.00  0.00     0.180 C 
BRANCH  38  39
ATOM     39  C   UNL     1      27.653  36.936  15.980  1.00  0.00     0.161 C 
BRANCH  39  40
ATOM     40  O   UNL     1      27.412  38.193  16.522  1.00  0.00    -0.389 OA
ATOM     41  H   UNL     1      26.515  38.174  16.952  1.00  0.00     0.211 HD
ENDBRANCH  39  40
BRANCH  39  42
ATOM     42  C   UNL     1      26.754  35.900  16.662  1.00  0.00     0.189 C 
BRANCH  42  43
ATOM     43  O   UNL     1      27.184  34.618  16.315  1.00  0.00    -0.394 OA
ATOM     44  H   UNL     1      28.173  34.550  16.469  1.00  0.00     0.210 HD
ENDBRANCH  42  43
ENDBRANCH  39  42
ENDBRANCH  38  39
ENDBRANCH  36  38
ENDBRANCH  32  33
ENDBRANCH  31  32
ENDBRANCH   2  31
TORSDOF 19
BEGIN_RES LYS A 131
REMARK  4 active torsions:
REMARK  status: ('A' for Active; 'I' for Inactive)
REMARK    1  A    between atoms: CA   and  CB  
REMARK    2  A    between atoms: CB   and  CG  
REMARK    3  A    between atoms: CG   and  CD  
REMARK    4  A    between atoms: CD   and  CE  
ROOT
ATOM      1  CA  LYS A 131      29.867  25.555  16.977  1.00 20.52     0.186 C 
ENDROOT
BRANCH   1   2
ATOM      2  CB  LYS A 131      28.345  25.722  17.026  1.00 20.94     0.034 C 
BRANCH   2   3
ATOM      3  CG  LYS A 131      27.601  24.402  16.891  1.00 22.96     0.005 C 
BRANCH   3   4
ATOM      4  CD  LYS A 131      26.533  24.244  17.936  1.00 24.33     0.041 C 
BRANCH   4   5
ATOM      5  CE  LYS A 131      25.160  24.303  17.274  1.00 26.91     0.338 C 
ATOM      6  NZ  LYS A 131      24.541  22.956  17.242  1.00 27.40     0.618 N 
ENDBRANCH   4   5
ENDBRANCH   3   4
ENDBRANCH   2   3
ENDBRANCH   1   2
END_RES LYS A 131
BEGIN_RES LYS A 135
REMARK  4 active torsions:
REMARK  status: ('A' for Active; 'I' for Inactive)
REMARK    5  A    between atoms: CA   and  CB  
REMARK    6  A    between atoms: CB   and  CG  
REMARK    7  A    between atoms: CG   and  CD  
REMARK    8  A    between atoms: CD   and  CE  
ROOT
ATOM      7  CA  LYS A 135      33.193  34.663   9.290  1.00 25.02     0.186 C 
ENDROOT
BRANCH   7   8
ATOM      8  CB  LYS A 135      32.060  35.360  10.034  1.00 26.63     0.034 C 
BRANCH   8   9
ATOM      9  CG  LYS A 135      30.795  35.486   9.224  1.00 29.45     0.005 C 
BRANCH   9  10
ATOM     10  CD  LYS A 135      30.127  34.130   9.059  1.00 32.00     0.041 C 
BRANCH  10  11
ATOM     11  CE  LYS A 135      28.669  34.297   8.674  1.00 34.25     0.338 C 
ATOM     12  NZ  LYS A 135      27.771  33.719   9.712  1.00 35.99     0.618 N 
ENDBRANCH  10  11
ENDBRANCH   9  10
ENDBRANCH   8   9
ENDBRANCH   7   8
END_RES LYS A 135
