REMARK VINA RESULT:    -5.107      5.417      9.734
REMARK INTER + INTRA:         -16.154
REMARK INTER:                  -8.606
REMARK INTRA:                  -7.548
REMARK UNBOUND:                -6.121
REMARK SMILES CC(=O)N[C@@H]1[C@@H](O)C[C@](O)(C(=O)O)O[C@H]1C(O)[C@H](O)CNC(=O)OCc1cn(C[C@@H](C)CN2CCN(c3ccc(Cl)cc3)CC2)nn1
REMARK SMILES IDX 24 1 22 2 21 3 23 5 20 6 18 7 16 8 15 9 9 10 8 11 14 12 6 13
REMARK SMILES IDX 5 14 10 15 11 17 12 18 13 19 7 21 4 23 2 24 1 26 3 27 17 28
REMARK SMILES IDX 19 30 25 32 26 33 27 34 47 35 28 36 46 37 29 38 30 39 31 40
REMARK SMILES IDX 32 41 33 42 34 43 45 44 35 45 44 46 36 47 37 48 38 49 43 50
REMARK SMILES IDX 39 51 42 52 40 53 41 54
REMARK H PARENT 21 4 10 16 13 20 7 22 4 25 17 29 19 31
REMARK Flexibility Score: inf
ROOT
ATOM      1  O   UNL     1      32.725  34.340  14.756  1.00  0.00    -0.443 OA
ENDROOT
BRANCH   1   2
ATOM      2  C   UNL     1      31.907  33.508  15.505  1.00  0.00     0.407 C 
ATOM      3  N   UNL     1      31.445  32.237  15.066  1.00  0.00    -0.319 N 
ATOM      4  H   UNL     1      31.743  31.938  14.117  1.00  0.00     0.167 HD
ATOM      5  O   UNL     1      31.577  33.939  16.643  1.00  0.00    -0.225 OA
BRANCH   3   6
ATOM      6  C   UNL     1      30.620  31.500  15.966  1.00  0.00     0.154 C 
BRANCH   6   7
ATOM      7  C   UNL     1      29.278  31.122  15.481  1.00  0.00     0.165 C 
BRANCH   7   8
ATOM      8  C   UNL     1      28.167  32.109  15.788  1.00  0.00     0.176 C 
BRANCH   8   9
ATOM      9  C   UNL     1      27.948  31.968  17.295  1.00  0.00     0.178 C 
ATOM     10  C   UNL     1      26.488  30.866  18.744  1.00  0.00     0.269 C 
ATOM     11  C   UNL     1      26.466  32.074  19.638  1.00  0.00     0.112 C 
ATOM     12  O   UNL     1      26.883  31.126  17.459  1.00  0.00    -0.332 OA
ATOM     13  C   UNL     1      27.581  33.032  19.420  1.00  0.00     0.145 C 
ATOM     14  C   UNL     1      27.663  33.301  17.902  1.00  0.00     0.142 C 
BRANCH  10  15
ATOM     15  O   UNL     1      25.133  30.450  18.667  1.00  0.00    -0.357 OA
ATOM     16  H   UNL     1      24.833  30.393  17.741  1.00  0.00     0.214 HD
ENDBRANCH  10  15
BRANCH  10  17
ATOM     17  C   UNL     1      27.232  29.717  19.338  1.00  0.00     0.364 C 
ATOM     18  O   UNL     1      27.163  29.489  20.572  1.00  0.00    -0.246 OA
BRANCH  17  19
ATOM     19  O   UNL     1      28.019  28.858  18.585  1.00  0.00    -0.477 OA
ATOM     20  H   UNL     1      29.019  28.960  18.458  1.00  0.00     0.296 HD
ENDBRANCH  17  19
ENDBRANCH  10  17
BRANCH  13  21
ATOM     21  O   UNL     1      27.269  34.234  20.056  1.00  0.00    -0.391 OA
ATOM     22  H   UNL     1      26.854  34.872  19.418  1.00  0.00     0.211 HD
ENDBRANCH  13  21
BRANCH  14  23
ATOM     23  N   UNL     1      28.682  34.280  17.631  1.00  0.00    -0.348 N 
ATOM     24  C   UNL     1      28.382  35.659  17.580  1.00  0.00     0.217 C 
ATOM     25  H   UNL     1      29.653  33.963  17.470  1.00  0.00     0.163 HD
ATOM     26  C   UNL     1      29.514  36.587  17.290  1.00  0.00     0.114 C 
ATOM     27  O   UNL     1      27.236  36.119  17.766  1.00  0.00    -0.275 OA
ENDBRANCH  14  23
ENDBRANCH   8   9
BRANCH   8  28
ATOM     28  O   UNL     1      28.615  33.401  15.469  1.00  0.00    -0.388 OA
ATOM     29  H   UNL     1      28.814  33.843  16.334  1.00  0.00     0.211 HD
ENDBRANCH   8  28
ENDBRANCH   7   8
BRANCH   7  30
ATOM     30  O   UNL     1      28.899  29.958  16.206  1.00  0.00    -0.388 OA
ATOM     31  H   UNL     1      27.972  30.162  16.520  1.00  0.00     0.211 HD
ENDBRANCH   7  30
ENDBRANCH   6   7
ENDBRANCH   3   6
ENDBRANCH   1   2
BRANCH   1  32
ATOM     32  C   UNL     1      32.314  35.657  14.427  1.00  0.00     0.294 C 
BRANCH  32  33
ATOM     33  C   UNL     1      30.972  35.639  13.803  1.00  0.00     0.120 A 
ATOM     34  C   UNL     1      30.135  36.756  13.724  1.00  0.00     0.138 A 
ATOM     35  N   UNL     1      30.276  34.665  13.201  1.00  0.00    -0.132 NA
ATOM     36  N   UNL     1      28.993  36.439  13.097  1.00  0.00    -0.252 N 
ATOM     37  N   UNL     1      29.111  35.129  12.785  1.00  0.00    -0.067 NA
BRANCH  36  38
ATOM     38  C   UNL     1      27.853  37.275  12.769  1.00  0.00     0.150 C 
BRANCH  38  39
ATOM     39  C   UNL     1      26.849  37.235  13.929  1.00  0.00     0.022 C 
ATOM     40  C   UNL     1      27.060  38.349  14.885  1.00  0.00     0.011 C 
BRANCH  39  41
ATOM     41  C   UNL     1      25.487  36.927  13.465  1.00  0.00     0.089 C 
BRANCH  41  42
ATOM     42  N   UNL     1      25.114  35.558  13.638  1.00  0.00    -0.299 NA
ATOM     43  C   UNL     1      25.547  34.766  12.455  1.00  0.00     0.106 C 
ATOM     44  C   UNL     1      25.880  34.972  14.733  1.00  0.00     0.106 C 
ATOM     45  C   UNL     1      25.325  33.310  12.663  1.00  0.00     0.132 C 
ATOM     46  C   UNL     1      25.071  33.730  15.137  1.00  0.00     0.132 C 
ATOM     47  N   UNL     1      24.911  32.910  13.971  1.00  0.00    -0.369 N 
BRANCH  47  48
ATOM     48  C   UNL     1      24.313  31.631  14.145  1.00  0.00     0.037 A 
ATOM     49  C   UNL     1      23.935  31.227  15.407  1.00  0.00     0.027 A 
ATOM     50  C   UNL     1      24.115  30.782  13.065  1.00  0.00     0.027 A 
ATOM     51  C   UNL     1      23.365  29.986  15.570  1.00  0.00     0.022 A 
ATOM     52  C   UNL     1      23.547  29.547  13.240  1.00  0.00     0.022 A 
ATOM     53  C   UNL     1      23.168  29.149  14.513  1.00  0.00     0.041 A 
ATOM     54  Cl  UNL     1      22.454  27.572  14.719  1.00  0.00    -0.084 Cl
ENDBRANCH  47  48
ENDBRANCH  41  42
ENDBRANCH  39  41
ENDBRANCH  38  39
ENDBRANCH  36  38
ENDBRANCH  32  33
ENDBRANCH   1  32
TORSDOF 19
BEGIN_RES LYS A 131
REMARK  4 active torsions:
REMARK  status: ('A' for Active; 'I' for Inactive)
REMARK    1  A    between atoms: CA   and  CB  
REMARK    2  A    between atoms: CB   and  CG  
REMARK    3  A    between atoms: CG   and  CD  
REMARK    4  A    between atoms: CD   and  CE  
ROOT
ATOM      1  CA  LYS A 131      29.867  25.555  16.977  1.00 20.52     0.186 C 
ENDROOT
BRANCH   1   2
ATOM      2  CB  LYS A 131      28.345  25.722  17.026  1.00 20.94     0.034 C 
BRANCH   2   3
ATOM      3  CG  LYS A 131      27.601  24.402  16.890  1.00 22.96     0.005 C 
BRANCH   3   4
ATOM      4  CD  LYS A 131      26.159  24.520  17.299  1.00 24.33     0.041 C 
BRANCH   4   5
ATOM      5  CE  LYS A 131      25.784  23.339  18.188  1.00 26.91     0.338 C 
ATOM      6  NZ  LYS A 131      24.781  22.480  17.515  1.00 27.40     0.618 N 
ENDBRANCH   4   5
ENDBRANCH   3   4
ENDBRANCH   2   3
ENDBRANCH   1   2
END_RES LYS A 131
BEGIN_RES LYS A 135
REMARK  4 active torsions:
REMARK  status: ('A' for Active; 'I' for Inactive)
REMARK    5  A    between atoms: CA   and  CB  
REMARK    6  A    between atoms: CB   and  CG  
REMARK    7  A    between atoms: CG   and  CD  
REMARK    8  A    between atoms: CD   and  CE  
ROOT
ATOM      7  CA  LYS A 135      33.193  34.663   9.290  1.00 25.02     0.186 C 
ENDROOT
BRANCH   7   8
ATOM      8  CB  LYS A 135      32.060  35.360  10.034  1.00 26.63     0.034 C 
BRANCH   8   9
ATOM      9  CG  LYS A 135      30.794  35.482   9.226  1.00 29.45     0.005 C 
BRANCH   9  10
ATOM     10  CD  LYS A 135      30.142  34.120   9.041  1.00 32.00     0.041 C 
BRANCH  10  11
ATOM     11  CE  LYS A 135      28.676  34.275   8.684  1.00 34.25     0.338 C 
ATOM     12  NZ  LYS A 135      27.802  33.679   9.732  1.00 35.99     0.618 N 
ENDBRANCH  10  11
ENDBRANCH   9  10
ENDBRANCH   8   9
ENDBRANCH   7   8
END_RES LYS A 135
