REMARK VINA RESULT:    -4.921      5.246      8.707
REMARK INTER + INTRA:         -14.527
REMARK INTER:                  -6.868
REMARK INTRA:                  -7.659
REMARK UNBOUND:                -5.578
REMARK SMILES CC(=O)N[C@@H]1[C@@H](O)C[C@](O)(C(=O)O)O[C@H]1C(O)[C@H](O)CNC(=O)OCc1cn(C(C)(C)C(=O)O)nn1
REMARK SMILES IDX 21 1 22 2 23 3 20 5 18 6 16 7 15 8 9 9 8 10 14 11 6 12 5 13
REMARK SMILES IDX 10 14 11 16 12 17 13 18 7 20 4 22 2 23 1 25 3 26 17 27 19 29
REMARK SMILES IDX 24 31 25 32 26 33 27 34 36 35 28 36 35 37 29 38 30 39 31 40
REMARK SMILES IDX 32 41 33 42 34 43
REMARK H PARENT 21 4 10 15 13 19 7 21 4 24 17 28 19 30 34 44
REMARK Flexibility Score: inf
ROOT
ATOM      1  N   UNL     1      27.383  38.459   4.511  1.00  0.00    -0.319 N 
ATOM      2  C   UNL     1      28.303  37.744   5.314  1.00  0.00     0.407 C 
ATOM      3  O   UNL     1      29.393  38.291   5.699  1.00  0.00    -0.225 OA
ATOM      4  H   UNL     1      26.500  38.008   4.205  1.00  0.00     0.167 HD
ENDROOT
BRANCH   1   5
ATOM      5  C   UNL     1      27.713  39.813   4.146  1.00  0.00     0.154 C 
BRANCH   5   6
ATOM      6  C   UNL     1      26.895  40.867   4.804  1.00  0.00     0.165 C 
BRANCH   6   7
ATOM      7  C   UNL     1      27.581  41.518   5.979  1.00  0.00     0.176 C 
BRANCH   7   8
ATOM      8  C   UNL     1      26.634  41.430   7.182  1.00  0.00     0.178 C 
ATOM      9  C   UNL     1      24.796  42.576   8.029  1.00  0.00     0.269 C 
ATOM     10  C   UNL     1      25.407  42.594   9.412  1.00  0.00     0.112 C 
ATOM     11  O   UNL     1      25.722  42.467   7.020  1.00  0.00    -0.332 OA
ATOM     12  C   UNL     1      26.901  42.709   9.313  1.00  0.00     0.145 C 
ATOM     13  C   UNL     1      27.428  41.570   8.463  1.00  0.00     0.142 C 
BRANCH   9  14
ATOM     14  O   UNL     1      24.177  43.825   7.862  1.00  0.00    -0.357 OA
ATOM     15  H   UNL     1      23.860  43.921   6.946  1.00  0.00     0.214 HD
ENDBRANCH   9  14
BRANCH   9  16
ATOM     16  C   UNL     1      23.750  41.534   7.934  1.00  0.00     0.364 C 
ATOM     17  O   UNL     1      23.193  41.306   6.842  1.00  0.00    -0.246 OA
BRANCH  16  18
ATOM     18  O   UNL     1      23.356  40.786   9.033  1.00  0.00    -0.477 OA
ATOM     19  H   UNL     1      22.763  39.973   8.949  1.00  0.00     0.296 HD
ENDBRANCH  16  18
ENDBRANCH   9  16
BRANCH  12  20
ATOM     20  O   UNL     1      27.324  43.938   8.869  1.00  0.00    -0.391 OA
ATOM     21  H   UNL     1      26.623  44.624   8.824  1.00  0.00     0.211 HD
ENDBRANCH  12  20
BRANCH  13  22
ATOM     22  N   UNL     1      27.323  40.360   9.276  1.00  0.00    -0.348 N 
ATOM     23  C   UNL     1      28.446  39.515   9.493  1.00  0.00     0.217 C 
ATOM     24  H   UNL     1      26.412  40.100   9.709  1.00  0.00     0.163 HD
ATOM     25  C   UNL     1      28.355  38.276  10.321  1.00  0.00     0.114 C 
ATOM     26  O   UNL     1      29.533  39.876   8.942  1.00  0.00    -0.275 OA
ENDBRANCH  13  22
ENDBRANCH   7   8
BRANCH   7  27
ATOM     27  O   UNL     1      28.819  41.023   6.278  1.00  0.00    -0.388 OA
ATOM     28  H   UNL     1      29.373  41.701   6.709  1.00  0.00     0.211 HD
ENDBRANCH   7  27
ENDBRANCH   6   7
BRANCH   6  29
ATOM     29  O   UNL     1      25.723  40.216   5.267  1.00  0.00    -0.388 OA
ATOM     30  H   UNL     1      24.935  40.629   4.809  1.00  0.00     0.211 HD
ENDBRANCH   6  29
ENDBRANCH   5   6
ENDBRANCH   1   5
BRANCH   2  31
ATOM     31  O   UNL     1      28.108  36.444   5.732  1.00  0.00    -0.443 OA
BRANCH  31  32
ATOM     32  C   UNL     1      27.847  36.131   7.111  1.00  0.00     0.294 C 
BRANCH  32  33
ATOM     33  C   UNL     1      26.586  36.817   7.496  1.00  0.00     0.120 A 
ATOM     34  C   UNL     1      25.508  36.221   8.131  1.00  0.00     0.139 A 
ATOM     35  N   UNL     1      26.218  38.101   7.325  1.00  0.00    -0.132 NA
ATOM     36  N   UNL     1      24.535  37.140   8.325  1.00  0.00    -0.235 N 
ATOM     37  N   UNL     1      25.002  38.269   7.824  1.00  0.00    -0.066 NA
BRANCH  36  38
ATOM     38  C   UNL     1      23.256  36.897   8.960  1.00  0.00     0.155 C 
ATOM     39  C   UNL     1      23.070  35.416   9.213  1.00  0.00     0.049 C 
ATOM     40  C   UNL     1      23.194  37.652  10.271  1.00  0.00     0.049 C 
BRANCH  38  41
ATOM     41  C   UNL     1      22.132  37.331   8.078  1.00  0.00     0.331 C 
ATOM     42  O   UNL     1      21.444  36.430   7.535  1.00  0.00    -0.250 OA
BRANCH  41  43
ATOM     43  O   UNL     1      21.839  38.662   7.854  1.00  0.00    -0.479 OA
ATOM     44  H   UNL     1      21.301  38.887   7.022  1.00  0.00     0.296 HD
ENDBRANCH  41  43
ENDBRANCH  38  41
ENDBRANCH  36  38
ENDBRANCH  32  33
ENDBRANCH  31  32
ENDBRANCH   2  31
TORSDOF 17
BEGIN_RES LYS A 131
REMARK  4 active torsions:
REMARK  status: ('A' for Active; 'I' for Inactive)
REMARK    1  A    between atoms: CA   and  CB  
REMARK    2  A    between atoms: CB   and  CG  
REMARK    3  A    between atoms: CG   and  CD  
REMARK    4  A    between atoms: CD   and  CE  
ROOT
ATOM      1  CA  LYS A 131      29.867  25.555  16.977  1.00 20.52     0.186 C 
ENDROOT
BRANCH   1   2
ATOM      2  CB  LYS A 131      28.345  25.722  17.026  1.00 20.94     0.034 C 
BRANCH   2   3
ATOM      3  CG  LYS A 131      27.601  24.405  16.868  1.00 22.96     0.005 C 
BRANCH   3   4
ATOM      4  CD  LYS A 131      26.533  24.229  17.912  1.00 24.33     0.041 C 
BRANCH   4   5
ATOM      5  CE  LYS A 131      25.178  24.060  17.231  1.00 26.91     0.338 C 
ATOM      6  NZ  LYS A 131      24.219  23.395  18.143  1.00 27.40     0.618 N 
ENDBRANCH   4   5
ENDBRANCH   3   4
ENDBRANCH   2   3
ENDBRANCH   1   2
END_RES LYS A 131
BEGIN_RES LYS A 135
REMARK  4 active torsions:
REMARK  status: ('A' for Active; 'I' for Inactive)
REMARK    5  A    between atoms: CA   and  CB  
REMARK    6  A    between atoms: CB   and  CG  
REMARK    7  A    between atoms: CG   and  CD  
REMARK    8  A    between atoms: CD   and  CE  
ROOT
ATOM      7  CA  LYS A 135      33.193  34.663   9.290  1.00 25.02     0.186 C 
ENDROOT
BRANCH   7   8
ATOM      8  CB  LYS A 135      32.060  35.360  10.034  1.00 26.63     0.034 C 
BRANCH   8   9
ATOM      9  CG  LYS A 135      30.787  35.464   9.233  1.00 29.45     0.005 C 
BRANCH   9  10
ATOM     10  CD  LYS A 135      29.987  34.174   9.328  1.00 32.00     0.041 C 
BRANCH  10  11
ATOM     11  CE  LYS A 135      28.771  34.365  10.214  1.00 34.25     0.338 C 
ATOM     12  NZ  LYS A 135      27.596  33.624   9.678  1.00 35.99     0.618 N 
ENDBRANCH  10  11
ENDBRANCH   9  10
ENDBRANCH   8   9
ENDBRANCH   7   8
END_RES LYS A 135
