REMARK VINA RESULT:    -4.494      7.221     11.295
REMARK INTER + INTRA:         -14.332
REMARK INTER:                  -7.777
REMARK INTRA:                  -6.554
REMARK UNBOUND:                -6.554
REMARK SMILES CC(=O)N[C@@H]1[C@@H](O)C[C@](O)(C(=O)O)O[C@H]1C(O)[C@H](O)CNC(=O)OCc1cn(C23CC4CC(CC(C4)C2)C3)nn1
REMARK SMILES IDX 20 1 18 2 16 3 15 4 9 5 8 6 14 7 6 8 5 9 10 10 11 12 12 13
REMARK SMILES IDX 13 14 7 16 4 18 2 19 1 21 3 22 17 23 19 25 21 27 22 28 23 30
REMARK SMILES IDX 24 31 25 32 26 33 27 34 40 35 28 36 39 37 29 38 38 39 37 40
REMARK SMILES IDX 30 41 33 42 35 43 31 44 32 45 34 46 36 47
REMARK H PARENT 10 11 13 15 7 17 4 20 17 24 19 26 21 29
REMARK Flexibility Score: inf
ROOT
ATOM      1  C   UNL     1      27.535  39.512   7.762  1.00  0.00     0.154 C 
ENDROOT
BRANCH   1   2
ATOM      2  C   UNL     1      26.205  38.857   8.030  1.00  0.00     0.165 C 
BRANCH   2   3
ATOM      3  C   UNL     1      26.345  37.494   8.677  1.00  0.00     0.176 C 
BRANCH   3   4
ATOM      4  C   UNL     1      25.719  37.507  10.075  1.00  0.00     0.178 C 
ATOM      5  C   UNL     1      27.149  38.387  11.712  1.00  0.00     0.269 C 
ATOM      6  C   UNL     1      27.849  37.052  11.683  1.00  0.00     0.112 C 
ATOM      7  O   UNL     1      26.133  38.553  10.836  1.00  0.00    -0.332 OA
ATOM      8  C   UNL     1      26.841  35.958  11.725  1.00  0.00     0.145 C 
ATOM      9  C   UNL     1      25.736  36.173  10.726  1.00  0.00     0.142 C 
BRANCH   5  10
ATOM     10  O   UNL     1      28.150  39.328  11.374  1.00  0.00    -0.357 OA
ATOM     11  H   UNL     1      28.699  38.914  10.658  1.00  0.00     0.214 HD
ENDBRANCH   5  10
BRANCH   5  12
ATOM     12  C   UNL     1      26.775  38.651  13.124  1.00  0.00     0.364 C 
ATOM     13  O   UNL     1      27.630  38.695  14.050  1.00  0.00    -0.246 OA
BRANCH  12  14
ATOM     14  O   UNL     1      25.454  38.858  13.456  1.00  0.00    -0.477 OA
ATOM     15  H   UNL     1      24.919  39.660  13.120  1.00  0.00     0.296 HD
ENDBRANCH  12  14
ENDBRANCH   5  12
BRANCH   8  16
ATOM     16  O   UNL     1      27.525  34.741  11.500  1.00  0.00    -0.391 OA
ATOM     17  H   UNL     1      27.010  33.995  11.874  1.00  0.00     0.211 HD
ENDBRANCH   8  16
BRANCH   9  18
ATOM     18  N   UNL     1      24.447  35.955  11.369  1.00  0.00    -0.348 N 
ATOM     19  C   UNL     1      23.318  35.464  10.663  1.00  0.00     0.217 C 
ATOM     20  H   UNL     1      24.336  36.167  12.404  1.00  0.00     0.163 HD
ATOM     21  C   UNL     1      22.056  35.273  11.391  1.00  0.00     0.114 C 
ATOM     22  O   UNL     1      23.448  35.211   9.427  1.00  0.00    -0.275 OA
ENDBRANCH   9  18
ENDBRANCH   3   4
BRANCH   3  23
ATOM     23  O   UNL     1      25.881  36.474   7.903  1.00  0.00    -0.388 OA
ATOM     24  H   UNL     1      24.943  36.494   7.661  1.00  0.00     0.211 HD
ENDBRANCH   3  23
ENDBRANCH   2   3
BRANCH   2  25
ATOM     25  O   UNL     1      25.515  38.792   6.822  1.00  0.00    -0.388 OA
ATOM     26  H   UNL     1      24.563  39.088   6.985  1.00  0.00     0.211 HD
ENDBRANCH   2  25
ENDBRANCH   1   2
BRANCH   1  27
ATOM     27  N   UNL     1      28.540  38.743   8.475  1.00  0.00    -0.319 N 
ATOM     28  C   UNL     1      29.928  38.781   8.106  1.00  0.00     0.407 C 
ATOM     29  H   UNL     1      28.317  38.123   9.288  1.00  0.00     0.167 HD
ATOM     30  O   UNL     1      30.248  39.511   7.136  1.00  0.00    -0.225 OA
BRANCH  28  31
ATOM     31  O   UNL     1      30.890  38.059   8.770  1.00  0.00    -0.443 OA
BRANCH  31  32
ATOM     32  C   UNL     1      31.885  38.744   9.498  1.00  0.00     0.294 C 
BRANCH  32  33
ATOM     33  C   UNL     1      31.577  38.560  10.952  1.00  0.00     0.120 A 
ATOM     34  C   UNL     1      31.945  37.449  11.687  1.00  0.00     0.138 A 
ATOM     35  N   UNL     1      30.931  39.353  11.803  1.00  0.00    -0.132 NA
ATOM     36  N   UNL     1      31.511  37.617  12.928  1.00  0.00    -0.246 N 
ATOM     37  N   UNL     1      30.896  38.779  12.986  1.00  0.00    -0.066 NA
BRANCH  36  38
ATOM     38  C   UNL     1      31.706  36.651  14.013  1.00  0.00     0.065 C 
ATOM     39  C   UNL     1      30.365  35.957  14.212  1.00  0.00     0.034 C 
ATOM     40  C   UNL     1      32.129  37.340  15.273  1.00  0.00     0.034 C 
ATOM     41  C   UNL     1      32.770  35.659  13.613  1.00  0.00     0.034 C 
ATOM     42  C   UNL     1      30.501  34.919  15.309  1.00  0.00    -0.008 C 
ATOM     43  C   UNL     1      32.207  36.308  16.375  1.00  0.00    -0.008 C 
ATOM     44  C   UNL     1      32.895  34.614  14.700  1.00  0.00    -0.008 C 
ATOM     45  C   UNL     1      31.554  33.931  14.898  1.00  0.00     0.007 C 
ATOM     46  C   UNL     1      30.879  35.642  16.578  1.00  0.00     0.007 C 
ATOM     47  C   UNL     1      33.275  35.312  15.984  1.00  0.00     0.007 C 
ENDBRANCH  36  38
ENDBRANCH  32  33
ENDBRANCH  31  32
ENDBRANCH  28  31
ENDBRANCH   1  27
TORSDOF 15
BEGIN_RES LYS A 131
REMARK  4 active torsions:
REMARK  status: ('A' for Active; 'I' for Inactive)
REMARK    1  A    between atoms: CA   and  CB  
REMARK    2  A    between atoms: CB   and  CG  
REMARK    3  A    between atoms: CG   and  CD  
REMARK    4  A    between atoms: CD   and  CE  
ROOT
ATOM      1  CA  LYS A 131      29.867  25.555  16.977  1.00 20.52     0.186 C 
ENDROOT
BRANCH   1   2
ATOM      2  CB  LYS A 131      28.345  25.722  17.026  1.00 20.94     0.034 C 
BRANCH   2   3
ATOM      3  CG  LYS A 131      27.601  24.401  16.904  1.00 22.96     0.005 C 
BRANCH   3   4
ATOM      4  CD  LYS A 131      26.162  24.520  17.321  1.00 24.33     0.041 C 
BRANCH   4   5
ATOM      5  CE  LYS A 131      25.829  23.417  18.320  1.00 26.91     0.338 C 
ATOM      6  NZ  LYS A 131      25.116  22.306  17.648  1.00 27.40     0.618 N 
ENDBRANCH   4   5
ENDBRANCH   3   4
ENDBRANCH   2   3
ENDBRANCH   1   2
END_RES LYS A 131
BEGIN_RES LYS A 135
REMARK  4 active torsions:
REMARK  status: ('A' for Active; 'I' for Inactive)
REMARK    5  A    between atoms: CA   and  CB  
REMARK    6  A    between atoms: CB   and  CG  
REMARK    7  A    between atoms: CG   and  CD  
REMARK    8  A    between atoms: CD   and  CE  
ROOT
ATOM      7  CA  LYS A 135      33.193  34.663   9.290  1.00 25.02     0.186 C 
ENDROOT
BRANCH   7   8
ATOM      8  CB  LYS A 135      32.060  35.360  10.034  1.00 26.63     0.034 C 
BRANCH   8   9
ATOM      9  CG  LYS A 135      30.700  34.779   9.742  1.00 29.45     0.005 C 
BRANCH   9  10
ATOM     10  CD  LYS A 135      30.538  34.516   8.253  1.00 32.00     0.041 C 
BRANCH  10  11
ATOM     11  CE  LYS A 135      29.158  34.936   7.786  1.00 34.25     0.338 C 
ATOM     12  NZ  LYS A 135      28.095  34.181   8.505  1.00 35.99     0.618 N 
ENDBRANCH  10  11
ENDBRANCH   9  10
ENDBRANCH   8   9
ENDBRANCH   7   8
END_RES LYS A 135
