REMARK VINA RESULT:    -4.370      5.038      8.982
REMARK INTER + INTRA:         -14.069
REMARK INTER:                  -8.774
REMARK INTRA:                  -5.295
REMARK UNBOUND:                -5.994
REMARK SMILES CC(=O)N[C@@H]1[C@@H](O)C[C@](O)(C(=O)O)O[C@H]1C(O)[C@H](O)CNC(=O)OCc1cn(CCN2CCCC2)nn1
REMARK SMILES IDX 21 1 22 2 23 3 20 5 18 6 16 7 15 8 9 9 8 10 14 11 6 12 5 13
REMARK SMILES IDX 10 14 11 16 12 17 13 18 7 20 4 22 2 23 1 25 3 26 17 27 19 29
REMARK SMILES IDX 24 31 25 32 26 33 27 34 37 35 28 36 36 37 29 38 30 39 31 40
REMARK SMILES IDX 32 41 35 42 33 43 34 44
REMARK H PARENT 21 4 10 15 13 19 7 21 4 24 17 28 19 30
REMARK Flexibility Score: inf
ROOT
ATOM      1  N   UNL     1      29.355  30.792  17.344  1.00  0.00    -0.319 N 
ATOM      2  C   UNL     1      28.435  30.383  18.327  1.00  0.00     0.407 C 
ATOM      3  O   UNL     1      27.283  30.054  18.013  1.00  0.00    -0.225 OA
ATOM      4  H   UNL     1      30.321  31.064  17.732  1.00  0.00     0.167 HD
ENDROOT
BRANCH   1   5
ATOM      5  C   UNL     1      29.128  30.874  15.936  1.00  0.00     0.154 C 
BRANCH   5   6
ATOM      6  C   UNL     1      28.999  32.303  15.495  1.00  0.00     0.165 C 
BRANCH   6   7
ATOM      7  C   UNL     1      30.213  32.746  14.684  1.00  0.00     0.176 C 
BRANCH   7   8
ATOM      8  C   UNL     1      30.538  34.180  15.140  1.00  0.00     0.178 C 
ATOM      9  C   UNL     1      30.430  35.787  13.435  1.00  0.00     0.269 C 
ATOM     10  C   UNL     1      31.789  35.265  13.014  1.00  0.00     0.112 C 
ATOM     11  O   UNL     1      29.825  35.078  14.425  1.00  0.00    -0.332 OA
ATOM     12  C   UNL     1      32.683  35.127  14.197  1.00  0.00     0.145 C 
ATOM     13  C   UNL     1      31.997  34.397  15.306  1.00  0.00     0.142 C 
BRANCH   9  14
ATOM     14  O   UNL     1      29.617  35.625  12.286  1.00  0.00    -0.357 OA
ATOM     15  H   UNL     1      28.689  35.393  12.594  1.00  0.00     0.214 HD
ENDBRANCH   9  14
BRANCH   9  16
ATOM     16  C   UNL     1      30.475  37.241  13.718  1.00  0.00     0.364 C 
ATOM     17  O   UNL     1      30.602  38.050  12.773  1.00  0.00    -0.246 OA
BRANCH  16  18
ATOM     18  O   UNL     1      30.379  37.719  15.011  1.00  0.00    -0.477 OA
ATOM     19  H   UNL     1      29.541  38.210  15.287  1.00  0.00     0.296 HD
ENDBRANCH  16  18
ENDBRANCH   9  16
BRANCH  12  20
ATOM     20  O   UNL     1      33.834  34.462  13.793  1.00  0.00    -0.391 OA
ATOM     21  H   UNL     1      33.941  33.615  14.305  1.00  0.00     0.211 HD
ENDBRANCH  12  20
BRANCH  13  22
ATOM     22  N   UNL     1      32.306  34.977  16.612  1.00  0.00    -0.348 N 
ATOM     23  C   UNL     1      31.963  34.355  17.817  1.00  0.00     0.217 C 
ATOM     24  H   UNL     1      32.798  35.890  16.607  1.00  0.00     0.163 HD
ATOM     25  C   UNL     1      32.316  35.018  19.099  1.00  0.00     0.114 C 
ATOM     26  O   UNL     1      31.357  33.234  17.816  1.00  0.00    -0.275 OA
ENDBRANCH  13  22
ENDBRANCH   7   8
BRANCH   7  27
ATOM     27  O   UNL     1      31.265  31.894  15.005  1.00  0.00    -0.388 OA
ATOM     28  H   UNL     1      30.993  30.991  15.243  1.00  0.00     0.211 HD
ENDBRANCH   7  27
ENDBRANCH   6   7
BRANCH   6  29
ATOM     29  O   UNL     1      28.714  33.196  16.502  1.00  0.00    -0.388 OA
ATOM     30  H   UNL     1      28.670  32.807  17.406  1.00  0.00     0.211 HD
ENDBRANCH   6  29
ENDBRANCH   5   6
ENDBRANCH   1   5
BRANCH   2  31
ATOM     31  O   UNL     1      28.762  30.327  19.684  1.00  0.00    -0.443 OA
BRANCH  31  32
ATOM     32  C   UNL     1      28.972  29.084  20.323  1.00  0.00     0.294 C 
BRANCH  32  33
ATOM     33  C   UNL     1      30.366  28.926  20.809  1.00  0.00     0.120 A 
ATOM     34  C   UNL     1      31.282  29.942  21.085  1.00  0.00     0.138 A 
ATOM     35  N   UNL     1      31.038  27.793  21.083  1.00  0.00    -0.132 NA
ATOM     36  N   UNL     1      32.446  29.416  21.505  1.00  0.00    -0.251 N 
ATOM     37  N   UNL     1      32.249  28.089  21.488  1.00  0.00    -0.067 NA
BRANCH  36  38
ATOM     38  C   UNL     1      33.667  30.091  21.894  1.00  0.00     0.161 C 
BRANCH  38  39
ATOM     39  C   UNL     1      33.495  31.565  22.047  1.00  0.00     0.108 C 
BRANCH  39  40
ATOM     40  N   UNL     1      34.722  32.293  22.255  1.00  0.00    -0.301 NA
ATOM     41  C   UNL     1      35.825  31.438  21.849  1.00  0.00     0.084 C 
ATOM     42  C   UNL     1      34.809  33.472  21.416  1.00  0.00     0.084 C 
ATOM     43  C   UNL     1      36.786  32.271  21.065  1.00  0.00     0.017 C 
ATOM     44  C   UNL     1      36.308  33.681  21.340  1.00  0.00     0.017 C 
ENDBRANCH  39  40
ENDBRANCH  38  39
ENDBRANCH  36  38
ENDBRANCH  32  33
ENDBRANCH  31  32
ENDBRANCH   2  31
TORSDOF 17
BEGIN_RES LYS A 131
REMARK  4 active torsions:
REMARK  status: ('A' for Active; 'I' for Inactive)
REMARK    1  A    between atoms: CA   and  CB  
REMARK    2  A    between atoms: CB   and  CG  
REMARK    3  A    between atoms: CG   and  CD  
REMARK    4  A    between atoms: CD   and  CE  
ROOT
ATOM      1  CA  LYS A 131      29.867  25.555  16.977  1.00 20.52     0.186 C 
ENDROOT
BRANCH   1   2
ATOM      2  CB  LYS A 131      28.345  25.722  17.026  1.00 20.94     0.034 C 
BRANCH   2   3
ATOM      3  CG  LYS A 131      27.601  24.406  16.859  1.00 22.96     0.005 C 
BRANCH   3   4
ATOM      4  CD  LYS A 131      26.159  24.514  17.273  1.00 24.33     0.041 C 
BRANCH   4   5
ATOM      5  CE  LYS A 131      25.811  23.361  18.209  1.00 26.91     0.338 C 
ATOM      6  NZ  LYS A 131      24.945  22.377  17.518  1.00 27.40     0.618 N 
ENDBRANCH   4   5
ENDBRANCH   3   4
ENDBRANCH   2   3
ENDBRANCH   1   2
END_RES LYS A 131
BEGIN_RES LYS A 135
REMARK  4 active torsions:
REMARK  status: ('A' for Active; 'I' for Inactive)
REMARK    5  A    between atoms: CA   and  CB  
REMARK    6  A    between atoms: CB   and  CG  
REMARK    7  A    between atoms: CG   and  CD  
REMARK    8  A    between atoms: CD   and  CE  
ROOT
ATOM      7  CA  LYS A 135      33.193  34.663   9.290  1.00 25.02     0.186 C 
ENDROOT
BRANCH   7   8
ATOM      8  CB  LYS A 135      32.060  35.360  10.034  1.00 26.63     0.034 C 
BRANCH   8   9
ATOM      9  CG  LYS A 135      30.823  35.559   9.197  1.00 29.45     0.005 C 
BRANCH   9  10
ATOM     10  CD  LYS A 135      30.070  34.248   9.032  1.00 32.00     0.041 C 
BRANCH  10  11
ATOM     11  CE  LYS A 135      28.718  34.488   8.388  1.00 34.25     0.338 C 
ATOM     12  NZ  LYS A 135      27.861  35.354   9.243  1.00 35.99     0.618 N 
ENDBRANCH  10  11
ENDBRANCH   9  10
ENDBRANCH   8   9
ENDBRANCH   7   8
END_RES LYS A 135
