REMARK VINA RESULT:    -5.323      2.767      5.946
REMARK INTER + INTRA:         -14.814
REMARK INTER:                 -10.013
REMARK INTRA:                  -4.801
REMARK UNBOUND:                -5.290
REMARK SMILES CC(=O)N[C@@H]1[C@@H](O)C[C@](O)(C(=O)O)O[C@H]1C(O)[C@H](O)CNC(=O)OCc1cn(Cc2ccccc2)nn1
REMARK SMILES IDX 21 1 22 2 23 3 20 5 18 6 16 7 15 8 9 9 8 10 14 11 6 12 5 13
REMARK SMILES IDX 10 14 11 16 12 17 13 18 7 20 4 22 2 23 1 25 3 26 17 27 19 29
REMARK SMILES IDX 24 31 25 32 26 33 27 34 37 35 28 36 36 37 29 38 30 39 31 40
REMARK SMILES IDX 35 41 32 42 34 43 33 44
REMARK H PARENT 21 4 10 15 13 19 7 21 4 24 17 28 19 30
REMARK Flexibility Score: inf
ROOT
ATOM      1  N   UNL     1      25.963  40.611   9.460  1.00  0.00    -0.319 N 
ATOM      2  C   UNL     1      25.205  40.418   8.287  1.00  0.00     0.407 C 
ATOM      3  O   UNL     1      25.558  40.869   7.186  1.00  0.00    -0.225 OA
ATOM      4  H   UNL     1      25.565  40.177  10.333  1.00  0.00     0.167 HD
ENDROOT
BRANCH   1   5
ATOM      5  C   UNL     1      27.192  41.343   9.487  1.00  0.00     0.154 C 
BRANCH   5   6
ATOM      6  C   UNL     1      28.243  40.549  10.229  1.00  0.00     0.165 C 
BRANCH   6   7
ATOM      7  C   UNL     1      28.949  39.584   9.319  1.00  0.00     0.176 C 
BRANCH   7   8
ATOM      8  C   UNL     1      29.090  40.086   7.901  1.00  0.00     0.178 C 
ATOM      9  C   UNL     1      28.931  39.041   5.817  1.00  0.00     0.269 C 
ATOM     10  C   UNL     1      29.574  40.325   5.268  1.00  0.00     0.112 C 
ATOM     11  O   UNL     1      28.351  39.377   7.003  1.00  0.00    -0.332 OA
ATOM     12  C   UNL     1      30.833  40.484   6.116  1.00  0.00     0.145 C 
ATOM     13  C   UNL     1      30.527  40.309   7.586  1.00  0.00     0.142 C 
BRANCH   9  14
ATOM     14  O   UNL     1      29.858  38.021   5.869  1.00  0.00    -0.357 OA
ATOM     15  H   UNL     1      30.438  38.085   5.081  1.00  0.00     0.214 HD
ENDBRANCH   9  14
BRANCH   9  16
ATOM     16  C   UNL     1      27.818  38.692   4.863  1.00  0.00     0.364 C 
ATOM     17  O   UNL     1      27.377  39.521   4.040  1.00  0.00    -0.246 OA
BRANCH  16  18
ATOM     18  O   UNL     1      27.257  37.430   4.886  1.00  0.00    -0.477 OA
ATOM     19  H   UNL     1      27.215  36.905   4.027  1.00  0.00     0.296 HD
ENDBRANCH  16  18
ENDBRANCH   9  16
BRANCH  12  20
ATOM     20  O   UNL     1      31.724  39.513   5.656  1.00  0.00    -0.391 OA
ATOM     21  H   UNL     1      31.261  38.930   5.015  1.00  0.00     0.211 HD
ENDBRANCH  12  20
BRANCH  13  22
ATOM     22  N   UNL     1      30.935  41.524   8.317  1.00  0.00    -0.348 N 
ATOM     23  C   UNL     1      32.149  41.606   9.041  1.00  0.00     0.217 C 
ATOM     24  H   UNL     1      30.299  42.372   8.305  1.00  0.00     0.163 HD
ATOM     25  C   UNL     1      32.602  42.804   9.790  1.00  0.00     0.114 C 
ATOM     26  O   UNL     1      32.899  40.598   9.051  1.00  0.00    -0.275 OA
ENDBRANCH  13  22
ENDBRANCH   7   8
BRANCH   7  27
ATOM     27  O   UNL     1      28.328  38.353   9.391  1.00  0.00    -0.388 OA
ATOM     28  H   UNL     1      28.667  37.879  10.188  1.00  0.00     0.211 HD
ENDBRANCH   7  27
ENDBRANCH   6   7
BRANCH   6  29
ATOM     29  O   UNL     1      27.568  39.905  11.266  1.00  0.00    -0.388 OA
ATOM     30  H   UNL     1      27.362  38.965  11.064  1.00  0.00     0.211 HD
ENDBRANCH   6  29
ENDBRANCH   5   6
ENDBRANCH   1   5
BRANCH   2  31
ATOM     31  O   UNL     1      24.012  39.698   8.327  1.00  0.00    -0.443 OA
BRANCH  31  32
ATOM     32  C   UNL     1      23.717  38.904   9.451  1.00  0.00     0.294 C 
BRANCH  32  33
ATOM     33  C   UNL     1      24.666  37.773   9.588  1.00  0.00     0.120 A 
ATOM     34  C   UNL     1      24.705  36.652   8.803  1.00  0.00     0.138 A 
ATOM     35  N   UNL     1      25.637  37.656  10.499  1.00  0.00    -0.132 NA
ATOM     36  N   UNL     1      25.704  35.880   9.260  1.00  0.00    -0.248 N 
ATOM     37  N   UNL     1      26.255  36.519  10.298  1.00  0.00    -0.067 NA
BRANCH  36  38
ATOM     38  C   UNL     1      26.151  34.598   8.775  1.00  0.00     0.181 C 
BRANCH  38  39
ATOM     39  C   UNL     1      27.629  34.572   8.610  1.00  0.00    -0.026 A 
ATOM     40  C   UNL     1      28.445  33.920   9.526  1.00  0.00     0.005 A 
ATOM     41  C   UNL     1      28.254  35.187   7.554  1.00  0.00     0.005 A 
ATOM     42  C   UNL     1      29.809  33.900   9.369  1.00  0.00     0.000 A 
ATOM     43  C   UNL     1      29.627  35.172   7.386  1.00  0.00     0.000 A 
ATOM     44  C   UNL     1      30.422  34.521   8.301  1.00  0.00     0.000 A 
ENDBRANCH  38  39
ENDBRANCH  36  38
ENDBRANCH  32  33
ENDBRANCH  31  32
ENDBRANCH   2  31
TORSDOF 16
BEGIN_RES LYS A 131
REMARK  4 active torsions:
REMARK  status: ('A' for Active; 'I' for Inactive)
REMARK    1  A    between atoms: CA   and  CB  
REMARK    2  A    between atoms: CB   and  CG  
REMARK    3  A    between atoms: CG   and  CD  
REMARK    4  A    between atoms: CD   and  CE  
ROOT
ATOM      1  CA  LYS A 131      29.867  25.555  16.977  1.00 20.52     0.186 C 
ENDROOT
BRANCH   1   2
ATOM      2  CB  LYS A 131      28.345  25.722  17.026  1.00 20.94     0.034 C 
BRANCH   2   3
ATOM      3  CG  LYS A 131      27.601  24.402  16.893  1.00 22.96     0.005 C 
BRANCH   3   4
ATOM      4  CD  LYS A 131      26.177  24.504  17.364  1.00 24.33     0.041 C 
BRANCH   4   5
ATOM      5  CE  LYS A 131      25.617  23.105  17.600  1.00 26.91     0.338 C 
ATOM      6  NZ  LYS A 131      25.178  22.953  19.007  1.00 27.40     0.618 N 
ENDBRANCH   4   5
ENDBRANCH   3   4
ENDBRANCH   2   3
ENDBRANCH   1   2
END_RES LYS A 131
BEGIN_RES LYS A 135
REMARK  4 active torsions:
REMARK  status: ('A' for Active; 'I' for Inactive)
REMARK    5  A    between atoms: CA   and  CB  
REMARK    6  A    between atoms: CB   and  CG  
REMARK    7  A    between atoms: CG   and  CD  
REMARK    8  A    between atoms: CD   and  CE  
ROOT
ATOM      7  CA  LYS A 135      33.193  34.663   9.290  1.00 25.02     0.186 C 
ENDROOT
BRANCH   7   8
ATOM      8  CB  LYS A 135      32.060  35.360  10.034  1.00 26.63     0.034 C 
BRANCH   8   9
ATOM      9  CG  LYS A 135      32.480  35.951  11.355  1.00 29.45     0.005 C 
BRANCH   9  10
ATOM     10  CD  LYS A 135      31.264  36.298  12.199  1.00 32.00     0.041 C 
BRANCH  10  11
ATOM     11  CE  LYS A 135      31.355  37.726  12.702  1.00 34.25     0.338 C 
ATOM     12  NZ  LYS A 135      31.553  38.680  11.576  1.00 35.99     0.618 N 
ENDBRANCH  10  11
ENDBRANCH   9  10
ENDBRANCH   8   9
ENDBRANCH   7   8
END_RES LYS A 135
