REMARK VINA RESULT:    -5.230      2.586      6.161
REMARK INTER + INTRA:         -16.183
REMARK INTER:                  -7.632
REMARK INTRA:                  -8.551
REMARK UNBOUND:                -5.909
REMARK SMILES CC(=O)N[C@@H]1[C@@H](O)C[C@](O)(C(=O)O)O[C@H]1C(O)[C@H](O)CNC(=O)OCc1cn(CCNC(=O)NCc2ccco2)nn1
REMARK SMILES IDX 24 1 22 2 21 3 23 5 20 6 18 7 16 8 15 9 9 10 8 11 14 12 6 13
REMARK SMILES IDX 5 14 10 15 11 17 12 18 13 19 7 21 4 23 2 24 1 26 3 27 17 28
REMARK SMILES IDX 19 30 25 32 26 33 27 34 42 35 28 36 41 37 29 38 30 39 31 40
REMARK SMILES IDX 32 41 33 43 34 44 35 46 36 47 37 48 40 49 38 50 39 51
REMARK H PARENT 21 4 10 16 13 20 7 22 4 25 17 29 19 31 31 42 34 45
REMARK Flexibility Score: inf
ROOT
ATOM      1  O   UNL     1      31.300  34.694  19.713  1.00  0.00    -0.443 OA
ENDROOT
BRANCH   1   2
ATOM      2  C   UNL     1      31.255  34.655  18.324  1.00  0.00     0.407 C 
ATOM      3  N   UNL     1      31.647  33.555  17.547  1.00  0.00    -0.319 N 
ATOM      4  H   UNL     1      31.995  32.701  18.005  1.00  0.00     0.167 HD
ATOM      5  O   UNL     1      30.833  35.683  17.731  1.00  0.00    -0.225 OA
BRANCH   3   6
ATOM      6  C   UNL     1      31.558  33.622  16.085  1.00  0.00     0.154 C 
BRANCH   6   7
ATOM      7  C   UNL     1      30.979  32.330  15.574  1.00  0.00     0.165 C 
BRANCH   7   8
ATOM      8  C   UNL     1      29.622  32.513  14.953  1.00  0.00     0.176 C 
BRANCH   8   9
ATOM      9  C   UNL     1      28.503  32.318  15.934  1.00  0.00     0.178 C 
ATOM     10  C   UNL     1      26.714  30.857  16.285  1.00  0.00     0.269 C 
ATOM     11  C   UNL     1      25.968  31.893  17.061  1.00  0.00     0.112 C 
ATOM     12  O   UNL     1      27.647  31.329  15.418  1.00  0.00    -0.332 OA
ATOM     13  C   UNL     1      26.664  33.180  17.247  1.00  0.00     0.145 C 
ATOM     14  C   UNL     1      27.611  33.522  16.111  1.00  0.00     0.142 C 
BRANCH  10  15
ATOM     15  O   UNL     1      25.733  30.206  15.492  1.00  0.00    -0.357 OA
ATOM     16  H   UNL     1      25.854  29.225  15.522  1.00  0.00     0.214 HD
ENDBRANCH  10  15
BRANCH  10  17
ATOM     17  C   UNL     1      27.315  29.810  17.147  1.00  0.00     0.364 C 
ATOM     18  O   UNL     1      27.657  28.686  16.681  1.00  0.00    -0.246 OA
BRANCH  17  19
ATOM     19  O   UNL     1      27.538  29.994  18.506  1.00  0.00    -0.477 OA
ATOM     20  H   UNL     1      28.058  29.300  19.033  1.00  0.00     0.296 HD
ENDBRANCH  17  19
ENDBRANCH  10  17
BRANCH  13  21
ATOM     21  O   UNL     1      25.719  34.216  17.402  1.00  0.00    -0.391 OA
ATOM     22  H   UNL     1      25.423  34.569  16.539  1.00  0.00     0.211 HD
ENDBRANCH  13  21
BRANCH  14  23
ATOM     23  N   UNL     1      28.275  34.755  16.362  1.00  0.00    -0.348 N 
ATOM     24  C   UNL     1      27.778  35.943  15.743  1.00  0.00     0.217 C 
ATOM     25  H   UNL     1      29.107  34.864  16.980  1.00  0.00     0.163 HD
ATOM     26  C   UNL     1      28.397  37.272  15.941  1.00  0.00     0.114 C 
ATOM     27  O   UNL     1      26.764  35.880  14.989  1.00  0.00    -0.275 OA
ENDBRANCH  14  23
ENDBRANCH   8   9
BRANCH   8  28
ATOM     28  O   UNL     1      29.512  33.660  14.188  1.00  0.00    -0.388 OA
ATOM     29  H   UNL     1      30.287  34.270  14.266  1.00  0.00     0.211 HD
ENDBRANCH   8  28
ENDBRANCH   7   8
BRANCH   7  30
ATOM     30  O   UNL     1      30.755  31.533  16.730  1.00  0.00    -0.388 OA
ATOM     31  H   UNL     1      31.478  31.827  17.365  1.00  0.00     0.211 HD
ENDBRANCH   7  30
ENDBRANCH   6   7
ENDBRANCH   3   6
ENDBRANCH   1   2
BRANCH   1  32
ATOM     32  C   UNL     1      30.349  34.008  20.500  1.00  0.00     0.294 C 
BRANCH  32  33
ATOM     33  C   UNL     1      30.473  32.561  20.219  1.00  0.00     0.120 A 
ATOM     34  C   UNL     1      31.364  31.685  20.777  1.00  0.00     0.138 A 
ATOM     35  N   UNL     1      29.724  31.854  19.359  1.00  0.00    -0.132 NA
ATOM     36  N   UNL     1      31.132  30.473  20.243  1.00  0.00    -0.250 N 
ATOM     37  N   UNL     1      30.134  30.579  19.381  1.00  0.00    -0.067 NA
BRANCH  36  38
ATOM     38  C   UNL     1      31.843  29.226  20.541  1.00  0.00     0.167 C 
BRANCH  38  39
ATOM     39  C   UNL     1      30.861  28.291  21.195  1.00  0.00     0.141 C 
BRANCH  39  40
ATOM     40  N   UNL     1      29.936  27.799  20.206  1.00  0.00    -0.336 N 
ATOM     41  C   UNL     1      28.629  27.340  20.494  1.00  0.00     0.315 C 
ATOM     42  H   UNL     1      30.226  27.768  19.188  1.00  0.00     0.165 HD
ATOM     43  O   UNL     1      28.239  27.362  21.700  1.00  0.00    -0.249 OA
ATOM     44  N   UNL     1      27.794  26.871  19.448  1.00  0.00    -0.331 N 
ATOM     45  H   UNL     1      28.087  26.842  18.455  1.00  0.00     0.165 HD
BRANCH  44  46
ATOM     46  C   UNL     1      26.464  26.410  19.782  1.00  0.00     0.193 C 
BRANCH  46  47
ATOM     47  C   UNL     1      25.483  27.358  19.211  1.00  0.00     0.122 A 
ATOM     48  C   UNL     1      24.782  27.132  18.032  1.00  0.00     0.047 A 
ATOM     49  O   UNL     1      25.129  28.507  19.693  1.00  0.00    -0.467 OA
ATOM     50  C   UNL     1      23.986  28.243  17.860  1.00  0.00     0.042 A 
ATOM     51  C   UNL     1      24.244  29.073  18.931  1.00  0.00     0.195 A 
ENDBRANCH  46  47
ENDBRANCH  44  46
ENDBRANCH  39  40
ENDBRANCH  38  39
ENDBRANCH  36  38
ENDBRANCH  32  33
ENDBRANCH   1  32
TORSDOF 19
BEGIN_RES LYS A 131
REMARK  4 active torsions:
REMARK  status: ('A' for Active; 'I' for Inactive)
REMARK    1  A    between atoms: CA   and  CB  
REMARK    2  A    between atoms: CB   and  CG  
REMARK    3  A    between atoms: CG   and  CD  
REMARK    4  A    between atoms: CD   and  CE  
ROOT
ATOM      1  CA  LYS A 131      29.867  25.555  16.977  1.00 20.52     0.186 C 
ENDROOT
BRANCH   1   2
ATOM      2  CB  LYS A 131      28.345  25.722  17.026  1.00 20.94     0.034 C 
BRANCH   2   3
ATOM      3  CG  LYS A 131      27.599  24.489  16.540  1.00 22.96     0.005 C 
BRANCH   3   4
ATOM      4  CD  LYS A 131      27.022  23.692  17.677  1.00 24.33     0.041 C 
BRANCH   4   5
ATOM      5  CE  LYS A 131      25.515  23.549  17.485  1.00 26.91     0.338 C 
ATOM      6  NZ  LYS A 131      25.115  22.124  17.556  1.00 27.40     0.618 N 
ENDBRANCH   4   5
ENDBRANCH   3   4
ENDBRANCH   2   3
ENDBRANCH   1   2
END_RES LYS A 131
BEGIN_RES LYS A 135
REMARK  4 active torsions:
REMARK  status: ('A' for Active; 'I' for Inactive)
REMARK    5  A    between atoms: CA   and  CB  
REMARK    6  A    between atoms: CB   and  CG  
REMARK    7  A    between atoms: CG   and  CD  
REMARK    8  A    between atoms: CD   and  CE  
ROOT
ATOM      7  CA  LYS A 135      33.193  34.663   9.290  1.00 25.02     0.186 C 
ENDROOT
BRANCH   7   8
ATOM      8  CB  LYS A 135      32.060  35.360  10.034  1.00 26.63     0.034 C 
BRANCH   8   9
ATOM      9  CG  LYS A 135      30.747  34.623   9.960  1.00 29.45     0.005 C 
BRANCH   9  10
ATOM     10  CD  LYS A 135      30.303  34.463   8.514  1.00 32.00     0.041 C 
BRANCH  10  11
ATOM     11  CE  LYS A 135      28.798  34.613   8.399  1.00 34.25     0.338 C 
ATOM     12  NZ  LYS A 135      28.097  33.783   9.418  1.00 35.99     0.618 N 
ENDBRANCH  10  11
ENDBRANCH   9  10
ENDBRANCH   8   9
ENDBRANCH   7   8
END_RES LYS A 135
