REMARK VINA RESULT:    -4.876      5.861      9.851
REMARK INTER + INTRA:         -13.950
REMARK INTER:                  -8.625
REMARK INTRA:                  -5.325
REMARK UNBOUND:                -5.226
REMARK SMILES COc1ccc(-n2cc(COC(=O)NC[C@@H](O)C(O)[C@@H]3O[C@@](O)(C(=O)O)C[C@H](O)[C@H]3NC(C)=O)nn2)cc1
REMARK SMILES IDX 14 1 12 2 13 3 15 5 16 6 18 7 20 8 22 9 27 10 21 11 28 12
REMARK SMILES IDX 30 13 23 14 24 16 25 17 26 18 29 20 31 22 32 23 33 25 34 26
REMARK SMILES IDX 19 27 17 29 11 31 10 32 9 33 8 34 35 35 7 36 36 37 6 38 5 39
REMARK SMILES IDX 37 40 4 41 38 42 3 43 2 44 1 45
REMARK H PARENT 14 4 23 15 26 19 29 21 31 24 19 28 17 30
REMARK Flexibility Score: inf
ROOT
ATOM      1  N   UNL     1      29.505  30.875  15.395  1.00  0.00    -0.319 N 
ATOM      2  C   UNL     1      30.488  31.689  15.998  1.00  0.00     0.407 C 
ATOM      3  O   UNL     1      30.572  31.829  17.227  1.00  0.00    -0.225 OA
ATOM      4  H   UNL     1      29.532  30.869  14.325  1.00  0.00     0.167 HD
ENDROOT
BRANCH   1   5
ATOM      5  C   UNL     1      28.513  30.087  16.006  1.00  0.00     0.154 C 
BRANCH   5   6
ATOM      6  C   UNL     1      27.249  30.690  16.424  1.00  0.00     0.165 C 
BRANCH   6   7
ATOM      7  C   UNL     1      26.460  31.453  15.483  1.00  0.00     0.176 C 
BRANCH   7   8
ATOM      8  C   UNL     1      25.146  30.799  15.004  1.00  0.00     0.178 C 
ATOM      9  C   UNL     1      23.509  31.643  13.531  1.00  0.00     0.269 C 
ATOM     10  C   UNL     1      22.612  32.042  14.715  1.00  0.00     0.112 C 
ATOM     11  O   UNL     1      24.768  31.646  13.977  1.00  0.00    -0.332 OA
ATOM     12  C   UNL     1      22.715  30.936  15.693  1.00  0.00     0.145 C 
ATOM     13  C   UNL     1      24.163  30.559  16.054  1.00  0.00     0.142 C 
BRANCH   9  14
ATOM     14  O   UNL     1      23.410  32.768  12.668  1.00  0.00    -0.357 OA
ATOM     15  H   UNL     1      23.514  32.499  11.723  1.00  0.00     0.214 HD
ENDBRANCH   9  14
BRANCH   9  16
ATOM     16  C   UNL     1      23.034  30.484  12.802  1.00  0.00     0.364 C 
ATOM     17  O   UNL     1      23.828  29.559  12.494  1.00  0.00    -0.246 OA
BRANCH  16  18
ATOM     18  O   UNL     1      21.721  30.271  12.383  1.00  0.00    -0.477 OA
ATOM     19  H   UNL     1      20.965  30.052  13.037  1.00  0.00     0.296 HD
ENDBRANCH  16  18
ENDBRANCH   9  16
BRANCH  12  20
ATOM     20  O   UNL     1      22.064  31.197  16.910  1.00  0.00    -0.391 OA
ATOM     21  H   UNL     1      21.335  31.851  16.673  1.00  0.00     0.211 HD
ENDBRANCH  12  20
BRANCH  13  22
ATOM     22  N   UNL     1      24.010  29.219  16.531  1.00  0.00    -0.348 N 
ATOM     23  C   UNL     1      24.020  28.777  17.854  1.00  0.00     0.217 C 
ATOM     24  H   UNL     1      23.874  28.487  15.772  1.00  0.00     0.163 HD
ATOM     25  C   UNL     1      23.851  27.332  18.200  1.00  0.00     0.114 C 
ATOM     26  O   UNL     1      24.176  29.631  18.734  1.00  0.00    -0.275 OA
ENDBRANCH  13  22
ENDBRANCH   7   8
BRANCH   7  27
ATOM     27  O   UNL     1      26.214  32.728  15.981  1.00  0.00    -0.388 OA
ATOM     28  H   UNL     1      26.862  33.396  15.642  1.00  0.00     0.211 HD
ENDBRANCH   7  27
ENDBRANCH   6   7
BRANCH   6  29
ATOM     29  O   UNL     1      27.427  31.352  17.673  1.00  0.00    -0.388 OA
ATOM     30  H   UNL     1      26.686  31.995  17.821  1.00  0.00     0.211 HD
ENDBRANCH   6  29
ENDBRANCH   5   6
ENDBRANCH   1   5
BRANCH   2  31
ATOM     31  O   UNL     1      31.433  32.387  15.218  1.00  0.00    -0.443 OA
BRANCH  31  32
ATOM     32  C   UNL     1      31.326  33.782  15.081  1.00  0.00     0.294 C 
BRANCH  32  33
ATOM     33  C   UNL     1      30.000  34.129  14.546  1.00  0.00     0.121 A 
ATOM     34  C   UNL     1      29.774  34.494  13.214  1.00  0.00     0.144 A 
ATOM     35  N   UNL     1      28.802  34.180  15.124  1.00  0.00    -0.131 NA
ATOM     36  N   UNL     1      28.460  34.744  13.060  1.00  0.00    -0.220 N 
ATOM     37  N   UNL     1      27.902  34.540  14.250  1.00  0.00    -0.062 NA
BRANCH  36  38
ATOM     38  C   UNL     1      27.794  35.143  11.871  1.00  0.00     0.067 A 
ATOM     39  C   UNL     1      27.602  36.461  11.525  1.00  0.00     0.032 A 
ATOM     40  C   UNL     1      27.297  34.186  10.983  1.00  0.00     0.032 A 
ATOM     41  C   UNL     1      26.950  36.833  10.355  1.00  0.00     0.048 A 
ATOM     42  C   UNL     1      26.648  34.557   9.822  1.00  0.00     0.048 A 
ATOM     43  C   UNL     1      26.466  35.880   9.491  1.00  0.00     0.119 A 
BRANCH  43  44
ATOM     44  O   UNL     1      25.827  36.249   8.346  1.00  0.00    -0.497 OA
ATOM     45  C   UNL     1      25.987  37.557   7.840  1.00  0.00     0.278 C 
ENDBRANCH  43  44
ENDBRANCH  36  38
ENDBRANCH  32  33
ENDBRANCH  31  32
ENDBRANCH   2  31
TORSDOF 16
BEGIN_RES LYS A 131
REMARK  4 active torsions:
REMARK  status: ('A' for Active; 'I' for Inactive)
REMARK    1  A    between atoms: CA   and  CB  
REMARK    2  A    between atoms: CB   and  CG  
REMARK    3  A    between atoms: CG   and  CD  
REMARK    4  A    between atoms: CD   and  CE  
ROOT
ATOM      1  CA  LYS A 131      29.867  25.555  16.977  1.00 20.52     0.186 C 
ENDROOT
BRANCH   1   2
ATOM      2  CB  LYS A 131      28.345  25.722  17.026  1.00 20.94     0.034 C 
BRANCH   2   3
ATOM      3  CG  LYS A 131      27.601  24.403  16.888  1.00 22.96     0.005 C 
BRANCH   3   4
ATOM      4  CD  LYS A 131      26.158  24.521  17.291  1.00 24.33     0.041 C 
BRANCH   4   5
ATOM      5  CE  LYS A 131      26.046  24.455  18.811  1.00 26.91     0.338 C 
ATOM      6  NZ  LYS A 131      25.543  23.127  19.236  1.00 27.40     0.618 N 
ENDBRANCH   4   5
ENDBRANCH   3   4
ENDBRANCH   2   3
ENDBRANCH   1   2
END_RES LYS A 131
BEGIN_RES LYS A 135
REMARK  4 active torsions:
REMARK  status: ('A' for Active; 'I' for Inactive)
REMARK    5  A    between atoms: CA   and  CB  
REMARK    6  A    between atoms: CB   and  CG  
REMARK    7  A    between atoms: CG   and  CD  
REMARK    8  A    between atoms: CD   and  CE  
ROOT
ATOM      7  CA  LYS A 135      33.193  34.663   9.290  1.00 25.02     0.186 C 
ENDROOT
BRANCH   7   8
ATOM      8  CB  LYS A 135      32.060  35.360  10.034  1.00 26.63     0.034 C 
BRANCH   8   9
ATOM      9  CG  LYS A 135      30.696  34.807   9.710  1.00 29.45     0.005 C 
BRANCH   9  10
ATOM     10  CD  LYS A 135      30.608  34.421   8.241  1.00 32.00     0.041 C 
BRANCH  10  11
ATOM     11  CE  LYS A 135      29.443  35.127   7.575  1.00 34.25     0.338 C 
ATOM     12  NZ  LYS A 135      29.517  36.600   7.783  1.00 35.99     0.618 N 
ENDBRANCH  10  11
ENDBRANCH   9  10
ENDBRANCH   8   9
ENDBRANCH   7   8
END_RES LYS A 135
