REMARK VINA RESULT:    -5.344      2.867      7.141
REMARK INTER + INTRA:         -14.752
REMARK INTER:                  -8.333
REMARK INTRA:                  -6.418
REMARK UNBOUND:                -5.502
REMARK SMILES CC(=O)N[C@@H]1[C@@H](O)C[C@](O)(C(=O)O)O[C@H]1C(O)[C@H](O)CNC(=O)OCc1cn([C@@H]2C[C@H]3CC[C@@H](C2)N3C)nn1
REMARK SMILES IDX 20 1 18 2 16 3 15 4 9 5 8 6 14 7 6 8 5 9 10 10 11 12 12 13
REMARK SMILES IDX 13 14 7 16 4 18 2 19 1 21 3 22 17 23 19 25 21 27 22 28 23 30
REMARK SMILES IDX 24 31 25 32 26 33 27 34 39 35 28 36 38 37 29 38 35 39 30 40
REMARK SMILES IDX 34 41 31 42 36 43 33 44 32 45 37 46
REMARK H PARENT 10 11 13 15 7 17 4 20 17 24 19 26 21 29
REMARK Flexibility Score: inf
ROOT
ATOM      1  C   UNL     1      26.557  32.692  15.623  1.00  0.00     0.154 C 
ENDROOT
BRANCH   1   2
ATOM      2  C   UNL     1      27.569  33.686  15.134  1.00  0.00     0.165 C 
BRANCH   2   3
ATOM      3  C   UNL     1      28.126  34.503  16.293  1.00  0.00     0.176 C 
BRANCH   3   4
ATOM      4  C   UNL     1      29.650  34.480  16.187  1.00  0.00     0.178 C 
ATOM      5  C   UNL     1      31.221  34.293  14.464  1.00  0.00     0.269 C 
ATOM      6  C   UNL     1      31.843  33.050  15.019  1.00  0.00     0.112 C 
ATOM      7  O   UNL     1      29.964  34.569  14.890  1.00  0.00    -0.332 OA
ATOM      8  C   UNL     1      31.107  32.431  16.158  1.00  0.00     0.145 C 
ATOM      9  C   UNL     1      30.263  33.354  16.971  1.00  0.00     0.142 C 
BRANCH   5  10
ATOM     10  O   UNL     1      31.142  34.149  13.075  1.00  0.00    -0.357 OA
ATOM     11  H   UNL     1      30.222  34.259  12.733  1.00  0.00     0.214 HD
ENDBRANCH   5  10
BRANCH   5  12
ATOM     12  C   UNL     1      32.053  35.491  14.702  1.00  0.00     0.364 C 
ATOM     13  O   UNL     1      32.972  35.450  15.546  1.00  0.00    -0.246 OA
BRANCH  12  14
ATOM     14  O   UNL     1      31.882  36.699  14.034  1.00  0.00    -0.477 OA
ATOM     15  H   UNL     1      31.253  36.755  13.218  1.00  0.00     0.296 HD
ENDBRANCH  12  14
ENDBRANCH   5  12
BRANCH   8  16
ATOM     16  O   UNL     1      30.339  31.381  15.634  1.00  0.00    -0.391 OA
ATOM     17  H   UNL     1      30.516  31.281  14.669  1.00  0.00     0.211 HD
ENDBRANCH   8  16
BRANCH   9  18
ATOM     18  N   UNL     1      30.873  33.821  18.186  1.00  0.00    -0.348 N 
ATOM     19  C   UNL     1      30.447  33.447  19.482  1.00  0.00     0.217 C 
ATOM     20  H   UNL     1      31.692  34.485  18.138  1.00  0.00     0.163 HD
ATOM     21  C   UNL     1      31.058  33.915  20.744  1.00  0.00     0.114 C 
ATOM     22  O   UNL     1      29.474  32.655  19.519  1.00  0.00    -0.275 OA
ENDBRANCH   9  18
ENDBRANCH   3   4
BRANCH   3  23
ATOM     23  O   UNL     1      27.707  34.023  17.523  1.00  0.00    -0.388 OA
ATOM     24  H   UNL     1      26.936  33.419  17.367  1.00  0.00     0.211 HD
ENDBRANCH   3  23
ENDBRANCH   2   3
BRANCH   2  25
ATOM     25  O   UNL     1      27.066  34.555  14.208  1.00  0.00    -0.388 OA
ATOM     26  H   UNL     1      26.104  34.347  14.024  1.00  0.00     0.211 HD
ENDBRANCH   2  25
ENDBRANCH   1   2
BRANCH   1  27
ATOM     27  N   UNL     1      27.147  31.507  16.144  1.00  0.00    -0.319 N 
ATOM     28  C   UNL     1      26.580  30.222  16.085  1.00  0.00     0.407 C 
ATOM     29  H   UNL     1      28.100  31.578  16.624  1.00  0.00     0.167 HD
ATOM     30  O   UNL     1      25.472  29.999  15.563  1.00  0.00    -0.225 OA
BRANCH  28  31
ATOM     31  O   UNL     1      27.285  29.135  16.636  1.00  0.00    -0.443 OA
BRANCH  31  32
ATOM     32  C   UNL     1      26.700  28.428  17.711  1.00  0.00     0.294 C 
BRANCH  32  33
ATOM     33  C   UNL     1      27.647  28.293  18.817  1.00  0.00     0.120 A 
ATOM     34  C   UNL     1      28.526  29.278  19.252  1.00  0.00     0.138 A 
ATOM     35  N   UNL     1      27.843  27.229  19.594  1.00  0.00    -0.132 NA
ATOM     36  N   UNL     1      29.222  28.773  20.278  1.00  0.00    -0.249 N 
ATOM     37  N   UNL     1      28.790  27.543  20.460  1.00  0.00    -0.067 NA
BRANCH  36  38
ATOM     38  C   UNL     1      30.248  29.419  21.057  1.00  0.00     0.112 C 
ATOM     39  C   UNL     1      30.165  28.911  22.495  1.00  0.00     0.046 C 
ATOM     40  C   UNL     1      31.579  28.978  20.488  1.00  0.00     0.046 C 
ATOM     41  C   UNL     1      31.380  29.389  23.242  1.00  0.00     0.058 C 
ATOM     42  C   UNL     1      32.693  29.322  21.421  1.00  0.00     0.058 C 
ATOM     43  N   UNL     1      32.568  28.740  22.720  1.00  0.00    -0.300 NA
ATOM     44  C   UNL     1      31.655  30.845  22.915  1.00  0.00     0.021 C 
ATOM     45  C   UNL     1      32.571  30.820  21.730  1.00  0.00     0.021 C 
ATOM     46  C   UNL     1      32.469  27.309  22.713  1.00  0.00     0.105 C 
ENDBRANCH  36  38
ENDBRANCH  32  33
ENDBRANCH  31  32
ENDBRANCH  28  31
ENDBRANCH   1  27
TORSDOF 15
BEGIN_RES LYS A 131
REMARK  4 active torsions:
REMARK  status: ('A' for Active; 'I' for Inactive)
REMARK    1  A    between atoms: CA   and  CB  
REMARK    2  A    between atoms: CB   and  CG  
REMARK    3  A    between atoms: CG   and  CD  
REMARK    4  A    between atoms: CD   and  CE  
ROOT
ATOM      1  CA  LYS A 131      29.867  25.555  16.977  1.00 20.52     0.186 C 
ENDROOT
BRANCH   1   2
ATOM      2  CB  LYS A 131      28.345  25.722  17.026  1.00 20.94     0.034 C 
BRANCH   2   3
ATOM      3  CG  LYS A 131      27.599  24.458  16.626  1.00 22.96     0.005 C 
BRANCH   3   4
ATOM      4  CD  LYS A 131      27.019  23.743  17.814  1.00 24.33     0.041 C 
BRANCH   4   5
ATOM      5  CE  LYS A 131      25.691  24.389  18.199  1.00 26.91     0.338 C 
ATOM      6  NZ  LYS A 131      25.567  24.480  19.673  1.00 27.40     0.618 N 
ENDBRANCH   4   5
ENDBRANCH   3   4
ENDBRANCH   2   3
ENDBRANCH   1   2
END_RES LYS A 131
BEGIN_RES LYS A 135
REMARK  4 active torsions:
REMARK  status: ('A' for Active; 'I' for Inactive)
REMARK    5  A    between atoms: CA   and  CB  
REMARK    6  A    between atoms: CB   and  CG  
REMARK    7  A    between atoms: CG   and  CD  
REMARK    8  A    between atoms: CD   and  CE  
ROOT
ATOM      7  CA  LYS A 135      33.193  34.663   9.290  1.00 25.02     0.186 C 
ENDROOT
BRANCH   7   8
ATOM      8  CB  LYS A 135      32.060  35.360  10.034  1.00 26.63     0.034 C 
BRANCH   8   9
ATOM      9  CG  LYS A 135      30.800  35.498   9.220  1.00 29.45     0.005 C 
BRANCH   9  10
ATOM     10  CD  LYS A 135      30.138  34.143   9.021  1.00 32.00     0.041 C 
BRANCH  10  11
ATOM     11  CE  LYS A 135      28.674  34.313   8.661  1.00 34.25     0.338 C 
ATOM     12  NZ  LYS A 135      27.793  33.733   9.712  1.00 35.99     0.618 N 
ENDBRANCH  10  11
ENDBRANCH   9  10
ENDBRANCH   8   9
ENDBRANCH   7   8
END_RES LYS A 135
