REMARK VINA RESULT:    -4.149      2.288      4.196
REMARK INTER + INTRA:         -13.907
REMARK INTER:                  -7.767
REMARK INTRA:                  -6.140
REMARK UNBOUND:                -6.362
REMARK SMILES CC(=O)N[C@@H]1[C@@H](O)C[C@](O)(C(=O)O)O[C@H]1C(O)[C@H](O)CNC(=O)OCc1cn(CC(=O)O)nn1
REMARK SMILES IDX 21 1 22 2 23 3 20 5 18 6 16 7 15 8 9 9 8 10 14 11 6 12 5 13
REMARK SMILES IDX 10 14 11 16 12 17 13 18 7 20 4 22 2 23 1 25 3 26 17 27 19 29
REMARK SMILES IDX 24 31 25 32 26 33 27 34 34 35 28 36 33 37 29 38 30 39 31 40
REMARK SMILES IDX 32 41
REMARK H PARENT 21 4 10 15 13 19 7 21 4 24 17 28 19 30 32 42
REMARK Flexibility Score: inf
ROOT
ATOM      1  N   UNL     1      26.767  31.372  15.719  1.00  0.00    -0.319 N 
ATOM      2  C   UNL     1      25.878  32.255  15.075  1.00  0.00     0.407 C 
ATOM      3  O   UNL     1      24.714  31.947  14.824  1.00  0.00    -0.225 OA
ATOM      4  H   UNL     1      27.743  31.763  15.886  1.00  0.00     0.167 HD
ENDROOT
BRANCH   1   5
ATOM      5  C   UNL     1      26.483  30.030  16.156  1.00  0.00     0.154 C 
BRANCH   5   6
ATOM      6  C   UNL     1      27.200  29.582  17.389  1.00  0.00     0.165 C 
BRANCH   6   7
ATOM      7  C   UNL     1      28.445  30.337  17.671  1.00  0.00     0.176 C 
BRANCH   7   8
ATOM      8  C   UNL     1      29.178  29.930  18.921  1.00  0.00     0.178 C 
ATOM      9  C   UNL     1      28.771  28.992  21.041  1.00  0.00     0.269 C 
ATOM     10  C   UNL     1      29.841  29.818  21.675  1.00  0.00     0.112 C 
ATOM     11  O   UNL     1      28.273  29.400  19.853  1.00  0.00    -0.332 OA
ATOM     12  C   UNL     1      30.800  30.334  20.649  1.00  0.00     0.145 C 
ATOM     13  C   UNL     1      29.927  31.046  19.599  1.00  0.00     0.142 C 
BRANCH   9  14
ATOM     14  O   UNL     1      27.730  28.882  22.010  1.00  0.00    -0.357 OA
ATOM     15  H   UNL     1      27.581  29.812  22.333  1.00  0.00     0.214 HD
ENDBRANCH   9  14
BRANCH   9  16
ATOM     16  C   UNL     1      29.284  27.595  20.908  1.00  0.00     0.364 C 
ATOM     17  O   UNL     1      30.114  27.069  21.678  1.00  0.00    -0.246 OA
BRANCH  16  18
ATOM     18  O   UNL     1      28.815  26.821  19.868  1.00  0.00    -0.477 OA
ATOM     19  H   UNL     1      29.246  26.813  18.945  1.00  0.00     0.296 HD
ENDBRANCH  16  18
ENDBRANCH   9  16
BRANCH  12  20
ATOM     20  O   UNL     1      31.732  31.220  21.182  1.00  0.00    -0.391 OA
ATOM     21  H   UNL     1      31.437  32.134  20.931  1.00  0.00     0.211 HD
ENDBRANCH  12  20
BRANCH  13  22
ATOM     22  N   UNL     1      30.765  31.857  18.778  1.00  0.00    -0.348 N 
ATOM     23  C   UNL     1      30.538  33.254  18.593  1.00  0.00     0.217 C 
ATOM     24  H   UNL     1      31.583  31.439  18.298  1.00  0.00     0.163 HD
ATOM     25  C   UNL     1      31.385  34.127  17.749  1.00  0.00     0.114 C 
ATOM     26  O   UNL     1      29.561  33.769  19.185  1.00  0.00    -0.275 OA
ENDBRANCH  13  22
ENDBRANCH   7   8
BRANCH   7  27
ATOM     27  O   UNL     1      29.260  30.420  16.554  1.00  0.00    -0.388 OA
ATOM     28  H   UNL     1      29.590  31.341  16.401  1.00  0.00     0.211 HD
ENDBRANCH   7  27
ENDBRANCH   6   7
BRANCH   6  29
ATOM     29  O   UNL     1      27.447  28.204  17.279  1.00  0.00    -0.388 OA
ATOM     30  H   UNL     1      26.957  27.689  17.959  1.00  0.00     0.211 HD
ENDBRANCH   6  29
ENDBRANCH   5   6
ENDBRANCH   1   5
BRANCH   2  31
ATOM     31  O   UNL     1      26.289  33.530  14.695  1.00  0.00    -0.443 OA
BRANCH  31  32
ATOM     32  C   UNL     1      27.214  34.312  15.382  1.00  0.00     0.294 C 
BRANCH  32  33
ATOM     33  C   UNL     1      28.605  34.210  14.877  1.00  0.00     0.120 A 
ATOM     34  C   UNL     1      29.397  35.154  14.302  1.00  0.00     0.139 A 
ATOM     35  N   UNL     1      29.367  33.077  14.909  1.00  0.00    -0.132 NA
ATOM     36  N   UNL     1      30.585  34.597  14.006  1.00  0.00    -0.241 N 
ATOM     37  N   UNL     1      30.553  33.345  14.377  1.00  0.00    -0.066 NA
BRANCH  36  38
ATOM     38  C   UNL     1      31.698  35.283  13.382  1.00  0.00     0.268 C 
BRANCH  38  39
ATOM     39  C   UNL     1      32.929  35.049  14.163  1.00  0.00     0.325 C 
ATOM     40  O   UNL     1      33.208  35.824  15.121  1.00  0.00    -0.250 OA
BRANCH  39  41
ATOM     41  O   UNL     1      33.767  33.998  13.855  1.00  0.00    -0.480 OA
ATOM     42  H   UNL     1      34.644  33.939  14.383  1.00  0.00     0.296 HD
ENDBRANCH  39  41
ENDBRANCH  38  39
ENDBRANCH  36  38
ENDBRANCH  32  33
ENDBRANCH  31  32
ENDBRANCH   2  31
TORSDOF 17
BEGIN_RES LYS A 131
REMARK  4 active torsions:
REMARK  status: ('A' for Active; 'I' for Inactive)
REMARK    1  A    between atoms: CA   and  CB  
REMARK    2  A    between atoms: CB   and  CG  
REMARK    3  A    between atoms: CG   and  CD  
REMARK    4  A    between atoms: CD   and  CE  
ROOT
ATOM      1  CA  LYS A 131      29.867  25.555  16.977  1.00 20.52     0.186 C 
ENDROOT
BRANCH   1   2
ATOM      2  CB  LYS A 131      28.345  25.722  17.026  1.00 20.94     0.034 C 
BRANCH   2   3
ATOM      3  CG  LYS A 131      27.599  24.426  16.747  1.00 22.96     0.005 C 
BRANCH   3   4
ATOM      4  CD  LYS A 131      26.928  23.883  17.977  1.00 24.33     0.041 C 
BRANCH   4   5
ATOM      5  CE  LYS A 131      25.611  23.218  17.587  1.00 26.91     0.338 C 
ATOM      6  NZ  LYS A 131      24.706  24.198  16.942  1.00 27.40     0.618 N 
ENDBRANCH   4   5
ENDBRANCH   3   4
ENDBRANCH   2   3
ENDBRANCH   1   2
END_RES LYS A 131
BEGIN_RES LYS A 135
REMARK  4 active torsions:
REMARK  status: ('A' for Active; 'I' for Inactive)
REMARK    5  A    between atoms: CA   and  CB  
REMARK    6  A    between atoms: CB   and  CG  
REMARK    7  A    between atoms: CG   and  CD  
REMARK    8  A    between atoms: CD   and  CE  
ROOT
ATOM      7  CA  LYS A 135      33.193  34.663   9.290  1.00 25.02     0.186 C 
ENDROOT
BRANCH   7   8
ATOM      8  CB  LYS A 135      32.060  35.360  10.034  1.00 26.63     0.034 C 
BRANCH   8   9
ATOM      9  CG  LYS A 135      30.719  34.698   9.847  1.00 29.45     0.005 C 
BRANCH   9  10
ATOM     10  CD  LYS A 135      30.448  34.441   8.373  1.00 32.00     0.041 C 
BRANCH  10  11
ATOM     11  CE  LYS A 135      29.445  35.443   7.834  1.00 34.25     0.338 C 
ATOM     12  NZ  LYS A 135      28.067  34.879   7.839  1.00 35.99     0.618 N 
ENDBRANCH  10  11
ENDBRANCH   9  10
ENDBRANCH   8   9
ENDBRANCH   7   8
END_RES LYS A 135
