REMARK VINA RESULT:    -4.470      6.651     11.853
REMARK INTER + INTRA:         -14.253
REMARK INTER:                  -8.059
REMARK INTRA:                  -6.193
REMARK UNBOUND:                -5.994
REMARK SMILES CC(=O)N[C@@H]1[C@@H](O)C[C@](O)(C(=O)O)O[C@H]1C(O)[C@H](O)CNC(=O)OCc1cn(CCN2CCCC2)nn1
REMARK SMILES IDX 21 1 22 2 23 3 20 5 18 6 16 7 15 8 9 9 8 10 14 11 6 12 5 13
REMARK SMILES IDX 10 14 11 16 12 17 13 18 7 20 4 22 2 23 1 25 3 26 17 27 19 29
REMARK SMILES IDX 24 31 25 32 26 33 27 34 37 35 28 36 36 37 29 38 30 39 31 40
REMARK SMILES IDX 32 41 35 42 33 43 34 44
REMARK H PARENT 21 4 10 15 13 19 7 21 4 24 17 28 19 30
REMARK Flexibility Score: inf
ROOT
ATOM      1  N   UNL     1      26.413  28.422  17.255  1.00  0.00    -0.319 N 
ATOM      2  C   UNL     1      26.114  29.662  16.663  1.00  0.00     0.407 C 
ATOM      3  O   UNL     1      25.046  30.238  16.912  1.00  0.00    -0.225 OA
ATOM      4  H   UNL     1      27.362  28.010  16.959  1.00  0.00     0.167 HD
ENDROOT
BRANCH   1   5
ATOM      5  C   UNL     1      25.601  27.692  18.176  1.00  0.00     0.154 C 
BRANCH   5   6
ATOM      6  C   UNL     1      26.259  27.604  19.522  1.00  0.00     0.165 C 
BRANCH   6   7
ATOM      7  C   UNL     1      27.768  27.811  19.418  1.00  0.00     0.176 C 
BRANCH   7   8
ATOM      8  C   UNL     1      28.159  28.739  20.582  1.00  0.00     0.178 C 
ATOM      9  C   UNL     1      27.377  30.940  20.373  1.00  0.00     0.269 C 
ATOM     10  C   UNL     1      28.525  31.133  19.402  1.00  0.00     0.112 C 
ATOM     11  O   UNL     1      27.196  29.661  20.798  1.00  0.00    -0.332 OA
ATOM     12  C   UNL     1      29.784  30.574  19.968  1.00  0.00     0.145 C 
ATOM     13  C   UNL     1      29.570  29.189  20.487  1.00  0.00     0.142 C 
BRANCH   9  14
ATOM     14  O   UNL     1      26.221  31.269  19.622  1.00  0.00    -0.357 OA
ATOM     15  H   UNL     1      26.483  31.959  18.939  1.00  0.00     0.214 HD
ENDBRANCH   9  14
BRANCH   9  16
ATOM     16  C   UNL     1      27.445  31.912  21.489  1.00  0.00     0.364 C 
ATOM     17  O   UNL     1      27.233  33.123  21.268  1.00  0.00    -0.246 OA
BRANCH  16  18
ATOM     18  O   UNL     1      27.741  31.499  22.775  1.00  0.00    -0.477 OA
ATOM     19  H   UNL     1      27.609  30.527  23.016  1.00  0.00     0.296 HD
ENDBRANCH  16  18
ENDBRANCH   9  16
BRANCH  12  20
ATOM     20  O   UNL     1      30.752  30.594  18.970  1.00  0.00    -0.391 OA
ATOM     21  H   UNL     1      31.600  30.980  19.320  1.00  0.00     0.211 HD
ENDBRANCH  12  20
BRANCH  13  22
ATOM     22  N   UNL     1      30.289  28.962  21.740  1.00  0.00    -0.348 N 
ATOM     23  C   UNL     1      30.973  27.772  22.015  1.00  0.00     0.217 C 
ATOM     24  H   UNL     1      30.269  29.734  22.432  1.00  0.00     0.163 HD
ATOM     25  C   UNL     1      31.677  27.628  23.316  1.00  0.00     0.114 C 
ATOM     26  O   UNL     1      30.993  26.827  21.161  1.00  0.00    -0.275 OA
ENDBRANCH  13  22
ENDBRANCH   7   8
BRANCH   7  27
ATOM     27  O   UNL     1      28.372  26.568  19.576  1.00  0.00    -0.388 OA
ATOM     28  H   UNL     1      28.833  26.449  20.424  1.00  0.00     0.211 HD
ENDBRANCH   7  27
ENDBRANCH   6   7
BRANCH   6  29
ATOM     29  O   UNL     1      25.956  26.471  20.242  1.00  0.00    -0.388 OA
ATOM     30  H   UNL     1      25.318  26.604  20.982  1.00  0.00     0.211 HD
ENDBRANCH   6  29
ENDBRANCH   5   6
ENDBRANCH   1   5
BRANCH   2  31
ATOM     31  O   UNL     1      26.987  30.301  15.779  1.00  0.00    -0.443 OA
BRANCH  31  32
ATOM     32  C   UNL     1      28.350  29.935  15.723  1.00  0.00     0.294 C 
BRANCH  32  33
ATOM     33  C   UNL     1      29.256  31.105  15.841  1.00  0.00     0.120 A 
ATOM     34  C   UNL     1      28.947  32.440  15.570  1.00  0.00     0.138 A 
ATOM     35  N   UNL     1      30.545  31.137  16.223  1.00  0.00    -0.132 NA
ATOM     36  N   UNL     1      30.021  33.218  15.788  1.00  0.00    -0.251 N 
ATOM     37  N   UNL     1      30.982  32.372  16.189  1.00  0.00    -0.067 NA
BRANCH  36  38
ATOM     38  C   UNL     1      30.159  34.651  15.634  1.00  0.00     0.161 C 
BRANCH  38  39
ATOM     39  C   UNL     1      31.529  35.144  15.958  1.00  0.00     0.108 C 
BRANCH  39  40
ATOM     40  N   UNL     1      32.088  36.047  14.984  1.00  0.00    -0.301 NA
ATOM     41  C   UNL     1      32.943  35.277  14.097  1.00  0.00     0.084 C 
ATOM     42  C   UNL     1      31.070  36.636  14.136  1.00  0.00     0.084 C 
ATOM     43  C   UNL     1      32.676  35.727  12.697  1.00  0.00     0.017 C 
ATOM     44  C   UNL     1      31.872  36.994  12.901  1.00  0.00     0.017 C 
ENDBRANCH  39  40
ENDBRANCH  38  39
ENDBRANCH  36  38
ENDBRANCH  32  33
ENDBRANCH  31  32
ENDBRANCH   2  31
TORSDOF 17
BEGIN_RES LYS A 131
REMARK  4 active torsions:
REMARK  status: ('A' for Active; 'I' for Inactive)
REMARK    1  A    between atoms: CA   and  CB  
REMARK    2  A    between atoms: CB   and  CG  
REMARK    3  A    between atoms: CG   and  CD  
REMARK    4  A    between atoms: CD   and  CE  
ROOT
ATOM      1  CA  LYS A 131      29.867  25.555  16.977  1.00 20.52     0.186 C 
ENDROOT
BRANCH   1   2
ATOM      2  CB  LYS A 131      28.345  25.722  17.026  1.00 20.94     0.034 C 
BRANCH   2   3
ATOM      3  CG  LYS A 131      27.599  24.421  16.771  1.00 22.96     0.005 C 
BRANCH   3   4
ATOM      4  CD  LYS A 131      26.834  23.960  17.980  1.00 24.33     0.041 C 
BRANCH   4   5
ATOM      5  CE  LYS A 131      25.343  23.935  17.660  1.00 26.91     0.338 C 
ATOM      6  NZ  LYS A 131      24.881  22.542  17.452  1.00 27.40     0.618 N 
ENDBRANCH   4   5
ENDBRANCH   3   4
ENDBRANCH   2   3
ENDBRANCH   1   2
END_RES LYS A 131
BEGIN_RES LYS A 135
REMARK  4 active torsions:
REMARK  status: ('A' for Active; 'I' for Inactive)
REMARK    5  A    between atoms: CA   and  CB  
REMARK    6  A    between atoms: CB   and  CG  
REMARK    7  A    between atoms: CG   and  CD  
REMARK    8  A    between atoms: CD   and  CE  
ROOT
ATOM      7  CA  LYS A 135      33.193  34.663   9.290  1.00 25.02     0.186 C 
ENDROOT
BRANCH   7   8
ATOM      8  CB  LYS A 135      32.060  35.360  10.034  1.00 26.63     0.034 C 
BRANCH   8   9
ATOM      9  CG  LYS A 135      30.702  34.769   9.754  1.00 29.45     0.005 C 
BRANCH   9  10
ATOM     10  CD  LYS A 135      30.545  34.463   8.272  1.00 32.00     0.041 C 
BRANCH  10  11
ATOM     11  CE  LYS A 135      29.348  35.197   7.701  1.00 34.25     0.338 C 
ATOM     12  NZ  LYS A 135      28.074  34.656   8.251  1.00 35.99     0.618 N 
ENDBRANCH  10  11
ENDBRANCH   9  10
ENDBRANCH   8   9
ENDBRANCH   7   8
END_RES LYS A 135
