REMARK VINA RESULT:    -5.341      2.813      6.344
REMARK INTER + INTRA:         -17.742
REMARK INTER:                 -11.238
REMARK INTRA:                  -6.505
REMARK UNBOUND:                -7.717
REMARK SMILES CC(=O)N[C@@H]1[C@@H](O)C[C@](O)(C(=O)O)O[C@H]1C(O)[C@H](O)CNC(=O)OCc1cn(-c2ccc(-c3c4ccc(=O)cc-4oc4cc(O)ccc34)c(C(=O)[O-])c2)nn1
REMARK SMILES IDX 21 1 22 2 23 3 20 5 18 6 16 7 15 8 9 9 8 10 14 11 6 12 5 13
REMARK SMILES IDX 10 14 11 16 12 17 13 18 7 20 4 22 2 23 1 25 3 26 17 27 19 29
REMARK SMILES IDX 24 31 25 32 26 33 27 34 55 35 28 36 54 37 29 38 53 39 30 40
REMARK SMILES IDX 49 41 31 42 32 43 50 44 51 45 52 46 33 47 48 48 34 49 47 50
REMARK SMILES IDX 42 51 40 52 35 53 46 54 43 55 41 56 39 57 36 58 44 59 37 60
REMARK SMILES IDX 38 61 45 62
REMARK H PARENT 21 4 10 15 13 19 7 21 4 24 17 28 19 30 45 63
REMARK Flexibility Score: inf
ROOT
ATOM      1  N   UNL     1      28.542  30.959  18.008  1.00  0.00    -0.319 N 
ATOM      2  C   UNL     1      28.121  29.906  18.891  1.00  0.00     0.407 C 
ATOM      3  O   UNL     1      29.009  29.391  19.623  1.00  0.00    -0.225 OA
ATOM      4  H   UNL     1      27.854  31.418  17.383  1.00  0.00     0.167 HD
ENDROOT
BRANCH   1   5
ATOM      5  C   UNL     1      29.916  31.397  17.971  1.00  0.00     0.154 C 
BRANCH   5   6
ATOM      6  C   UNL     1      30.452  31.215  16.589  1.00  0.00     0.165 C 
BRANCH   6   7
ATOM      7  C   UNL     1      31.153  32.473  16.078  1.00  0.00     0.176 C 
BRANCH   7   8
ATOM      8  C   UNL     1      30.349  33.712  16.439  1.00  0.00     0.178 C 
ATOM      9  C   UNL     1      28.310  34.066  15.369  1.00  0.00     0.269 C 
ATOM     10  C   UNL     1      28.367  35.556  15.622  1.00  0.00     0.112 C 
ATOM     11  O   UNL     1      29.024  33.397  16.331  1.00  0.00    -0.332 OA
ATOM     12  C   UNL     1      29.773  36.030  15.687  1.00  0.00     0.145 C 
ATOM     13  C   UNL     1      30.792  34.917  15.686  1.00  0.00     0.142 C 
BRANCH   9  14
ATOM     14  O   UNL     1      28.735  33.843  14.084  1.00  0.00    -0.357 OA
ATOM     15  H   UNL     1      28.466  34.525  13.443  1.00  0.00     0.214 HD
ENDBRANCH   9  14
BRANCH   9  16
ATOM     16  C   UNL     1      26.889  33.663  15.499  1.00  0.00     0.364 C 
ATOM     17  O   UNL     1      26.379  33.520  16.638  1.00  0.00    -0.246 OA
BRANCH  16  18
ATOM     18  O   UNL     1      26.068  33.428  14.408  1.00  0.00    -0.477 OA
ATOM     19  H   UNL     1      25.406  32.638  14.391  1.00  0.00     0.296 HD
ENDBRANCH  16  18
ENDBRANCH   9  16
BRANCH  12  20
ATOM     20  O   UNL     1      30.083  36.895  14.641  1.00  0.00    -0.391 OA
ATOM     21  H   UNL     1      30.565  37.703  14.926  1.00  0.00     0.211 HD
ENDBRANCH  12  20
BRANCH  13  22
ATOM     22  N   UNL     1      32.003  35.481  16.300  1.00  0.00    -0.348 N 
ATOM     23  C   UNL     1      33.283  35.384  15.726  1.00  0.00     0.217 C 
ATOM     24  H   UNL     1      31.880  35.977  17.212  1.00  0.00     0.163 HD
ATOM     25  C   UNL     1      34.455  35.979  16.408  1.00  0.00     0.114 C 
ATOM     26  O   UNL     1      33.367  34.769  14.613  1.00  0.00    -0.275 OA
ENDBRANCH  13  22
ENDBRANCH   7   8
BRANCH   7  27
ATOM     27  O   UNL     1      31.243  32.321  14.689  1.00  0.00    -0.388 OA
ATOM     28  H   UNL     1      31.566  33.192  14.333  1.00  0.00     0.211 HD
ENDBRANCH   7  27
ENDBRANCH   6   7
BRANCH   6  29
ATOM     29  O   UNL     1      29.465  30.803  15.697  1.00  0.00    -0.388 OA
ATOM     30  H   UNL     1      29.165  29.879  15.866  1.00  0.00     0.211 HD
ENDBRANCH   6  29
ENDBRANCH   5   6
ENDBRANCH   1   5
BRANCH   2  31
ATOM     31  O   UNL     1      26.836  29.459  18.963  1.00  0.00    -0.443 OA
BRANCH  31  32
ATOM     32  C   UNL     1      26.338  28.489  18.072  1.00  0.00     0.294 C 
BRANCH  32  33
ATOM     33  C   UNL     1      25.771  29.171  16.892  1.00  0.00     0.121 A 
ATOM     34  C   UNL     1      24.456  29.091  16.426  1.00  0.00     0.144 A 
ATOM     35  N   UNL     1      26.399  29.987  16.035  1.00  0.00    -0.131 NA
ATOM     36  N   UNL     1      24.342  29.853  15.323  1.00  0.00    -0.220 N 
ATOM     37  N   UNL     1      25.530  30.379  15.113  1.00  0.00    -0.062 NA
BRANCH  36  38
ATOM     38  C   UNL     1      23.137  29.997  14.587  1.00  0.00     0.067 A 
ATOM     39  C   UNL     1      21.890  30.053  15.133  1.00  0.00     0.039 A 
ATOM     40  C   UNL     1      23.232  30.087  13.196  1.00  0.00     0.029 A 
ATOM     41  C   UNL     1      20.734  30.193  14.370  1.00  0.00     0.007 A 
ATOM     42  C   UNL     1      22.111  30.226  12.425  1.00  0.00     0.012 A 
ATOM     43  C   UNL     1      20.850  30.279  13.017  1.00  0.00    -0.008 A 
BRANCH  41  44
ATOM     44  C   UNL     1      19.413  30.249  14.991  1.00  0.00     0.072 C 
ATOM     45  O   UNL     1      18.907  31.355  15.363  1.00  0.00    -0.545 OA
ATOM     46  O   UNL     1      18.688  29.104  15.186  1.00  0.00    -0.545 OA
ENDBRANCH  41  44
BRANCH  43  47
ATOM     47  C   UNL     1      19.721  30.427  12.112  1.00  0.00     0.004 A 
ATOM     48  C   UNL     1      19.028  29.375  11.554  1.00  0.00     0.026 A 
ATOM     49  C   UNL     1      19.306  31.707  11.783  1.00  0.00     0.026 A 
ATOM     50  C   UNL     1      19.413  28.083  11.857  1.00  0.00     0.016 A 
ATOM     51  C   UNL     1      17.954  29.581  10.696  1.00  0.00     0.139 A 
ATOM     52  C   UNL     1      18.177  31.870  10.881  1.00  0.00     0.139 A 
ATOM     53  C   UNL     1      19.931  32.826  12.286  1.00  0.00     0.016 A 
ATOM     54  C   UNL     1      18.745  26.992  11.321  1.00  0.00     0.047 A 
ATOM     55  C   UNL     1      17.273  28.519  10.148  1.00  0.00     0.093 A 
ATOM     56  O   UNL     1      17.566  30.795  10.389  1.00  0.00    -0.456 OA
ATOM     57  C   UNL     1      17.760  33.126  10.552  1.00  0.00     0.099 A 
ATOM     58  C   UNL     1      19.476  34.063  11.926  1.00  0.00     0.053 A 
ATOM     59  C   UNL     1      17.683  27.228  10.472  1.00  0.00     0.119 A 
ATOM     60  C   UNL     1      18.400  34.232  11.068  1.00  0.00     0.182 A 
ATOM     61  O   UNL     1      18.019  35.394  10.767  1.00  0.00    -0.290 OA
BRANCH  59  62
ATOM     62  O   UNL     1      17.012  26.145   9.931  1.00  0.00    -0.508 OA
ATOM     63  H   UNL     1      16.352  26.209   9.178  1.00  0.00     0.293 HD
ENDBRANCH  59  62
ENDBRANCH  43  47
ENDBRANCH  36  38
ENDBRANCH  32  33
ENDBRANCH  31  32
ENDBRANCH   2  31
TORSDOF 18
BEGIN_RES LYS A 131
REMARK  4 active torsions:
REMARK  status: ('A' for Active; 'I' for Inactive)
REMARK    1  A    between atoms: CA   and  CB  
REMARK    2  A    between atoms: CB   and  CG  
REMARK    3  A    between atoms: CG   and  CD  
REMARK    4  A    between atoms: CD   and  CE  
ROOT
ATOM      1  CA  LYS A 131      29.867  25.555  16.977  1.00 20.52     0.186 C 
ENDROOT
BRANCH   1   2
ATOM      2  CB  LYS A 131      28.345  25.722  17.026  1.00 20.94     0.034 C 
BRANCH   2   3
ATOM      3  CG  LYS A 131      27.604  24.394  17.016  1.00 22.96     0.005 C 
BRANCH   3   4
ATOM      4  CD  LYS A 131      26.112  24.577  17.006  1.00 24.33     0.041 C 
BRANCH   4   5
ATOM      5  CE  LYS A 131      25.599  24.648  18.441  1.00 26.91     0.338 C 
ATOM      6  NZ  LYS A 131      25.873  23.378  19.153  1.00 27.40     0.618 N 
ENDBRANCH   4   5
ENDBRANCH   3   4
ENDBRANCH   2   3
ENDBRANCH   1   2
END_RES LYS A 131
BEGIN_RES LYS A 135
REMARK  4 active torsions:
REMARK  status: ('A' for Active; 'I' for Inactive)
REMARK    5  A    between atoms: CA   and  CB  
REMARK    6  A    between atoms: CB   and  CG  
REMARK    7  A    between atoms: CG   and  CD  
REMARK    8  A    between atoms: CD   and  CE  
ROOT
ATOM      7  CA  LYS A 135      33.193  34.663   9.290  1.00 25.02     0.186 C 
ENDROOT
BRANCH   7   8
ATOM      8  CB  LYS A 135      32.060  35.360  10.034  1.00 26.63     0.034 C 
BRANCH   8   9
ATOM      9  CG  LYS A 135      30.736  34.650   9.917  1.00 29.45     0.005 C 
BRANCH   9  10
ATOM     10  CD  LYS A 135      30.330  34.508   8.459  1.00 32.00     0.041 C 
BRANCH  10  11
ATOM     11  CE  LYS A 135      28.820  34.529   8.322  1.00 34.25     0.338 C 
ATOM     12  NZ  LYS A 135      28.168  33.805   9.448  1.00 35.99     0.618 N 
ENDBRANCH  10  11
ENDBRANCH   9  10
ENDBRANCH   8   9
ENDBRANCH   7   8
END_RES LYS A 135
