REMARK VINA RESULT:    -5.284      3.179      5.831
REMARK INTER + INTRA:         -15.190
REMARK INTER:                  -9.753
REMARK INTRA:                  -5.437
REMARK UNBOUND:                -5.118
REMARK SMILES COc1ccc(Cn2cc(COC(=O)NC[C@@H](O)C(O)[C@@H]3O[C@@](O)(C(=O)O)C[C@H](O)[C@H]3NC(C)=O)nn2)cc1OC
REMARK SMILES IDX 15 1 13 2 14 3 16 5 17 6 19 7 21 8 23 9 28 10 22 11 29 12
REMARK SMILES IDX 31 13 24 14 25 16 26 17 27 18 30 20 32 22 33 23 34 25 35 26
REMARK SMILES IDX 20 27 18 29 12 31 11 32 10 33 9 34 36 35 8 36 37 37 7 38
REMARK SMILES IDX 6 39 38 40 5 41 39 42 4 43 3 44 40 45 41 46 2 47 1 48
REMARK H PARENT 15 4 24 15 27 19 30 21 32 24 20 28 18 30
REMARK Flexibility Score: inf
ROOT
ATOM      1  N   UNL     1      29.564  36.859  17.105  1.00  0.00    -0.319 N 
ATOM      2  C   UNL     1      30.155  37.606  16.077  1.00  0.00     0.407 C 
ATOM      3  O   UNL     1      31.317  38.054  16.183  1.00  0.00    -0.225 OA
ATOM      4  H   UNL     1      28.566  36.523  16.939  1.00  0.00     0.167 HD
ENDROOT
BRANCH   1   5
ATOM      5  C   UNL     1      30.187  36.502  18.367  1.00  0.00     0.154 C 
BRANCH   5   6
ATOM      6  C   UNL     1      31.045  35.298  18.214  1.00  0.00     0.165 C 
BRANCH   6   7
ATOM      7  C   UNL     1      30.395  34.009  18.651  1.00  0.00     0.176 C 
BRANCH   7   8
ATOM      8  C   UNL     1      30.788  32.809  17.856  1.00  0.00     0.178 C 
ATOM      9  C   UNL     1      30.816  33.494  15.627  1.00  0.00     0.269 C 
ATOM     10  C   UNL     1      30.431  32.135  15.058  1.00  0.00     0.112 C 
ATOM     11  O   UNL     1      31.549  33.261  16.759  1.00  0.00    -0.332 OA
ATOM     12  C   UNL     1      30.345  31.140  16.179  1.00  0.00     0.145 C 
ATOM     13  C   UNL     1      29.771  31.822  17.475  1.00  0.00     0.142 C 
BRANCH   9  14
ATOM     14  O   UNL     1      29.698  34.302  15.802  1.00  0.00    -0.357 OA
ATOM     15  H   UNL     1      29.195  34.446  14.959  1.00  0.00     0.214 HD
ENDBRANCH   9  14
BRANCH   9  16
ATOM     16  C   UNL     1      31.696  34.196  14.649  1.00  0.00     0.364 C 
ATOM     17  O   UNL     1      32.714  34.793  15.071  1.00  0.00    -0.246 OA
BRANCH  16  18
ATOM     18  O   UNL     1      31.434  34.216  13.287  1.00  0.00    -0.477 OA
ATOM     19  H   UNL     1      31.475  35.083  12.735  1.00  0.00     0.296 HD
ENDBRANCH  16  18
ENDBRANCH   9  16
BRANCH  12  20
ATOM     20  O   UNL     1      29.535  30.055  15.862  1.00  0.00    -0.391 OA
ATOM     21  H   UNL     1      28.641  30.343  15.581  1.00  0.00     0.211 HD
ENDBRANCH  12  20
BRANCH  13  22
ATOM     22  N   UNL     1      29.721  30.695  18.417  1.00  0.00    -0.348 N 
ATOM     23  C   UNL     1      28.826  30.618  19.511  1.00  0.00     0.217 C 
ATOM     24  H   UNL     1      30.381  29.872  18.299  1.00  0.00     0.163 HD
ATOM     25  C   UNL     1      28.802  29.467  20.450  1.00  0.00     0.114 C 
ATOM     26  O   UNL     1      28.013  31.553  19.712  1.00  0.00    -0.275 OA
ENDBRANCH  13  22
ENDBRANCH   7   8
BRANCH   7  27
ATOM     27  O   UNL     1      28.971  34.161  18.403  1.00  0.00    -0.388 OA
ATOM     28  H   UNL     1      28.813  33.874  17.472  1.00  0.00     0.211 HD
ENDBRANCH   7  27
ENDBRANCH   6   7
BRANCH   6  29
ATOM     29  O   UNL     1      32.358  35.437  18.580  1.00  0.00    -0.388 OA
ATOM     30  H   UNL     1      32.578  35.047  19.448  1.00  0.00     0.211 HD
ENDBRANCH   6  29
ENDBRANCH   5   6
ENDBRANCH   1   5
BRANCH   2  31
ATOM     31  O   UNL     1      29.452  37.880  14.884  1.00  0.00    -0.443 OA
BRANCH  31  32
ATOM     32  C   UNL     1      28.120  37.358  14.762  1.00  0.00     0.294 C 
BRANCH  32  33
ATOM     33  C   UNL     1      28.021  36.396  13.667  1.00  0.00     0.120 A 
ATOM     34  C   UNL     1      26.879  36.031  12.999  1.00  0.00     0.138 A 
ATOM     35  N   UNL     1      29.041  35.713  13.124  1.00  0.00    -0.132 NA
ATOM     36  N   UNL     1      27.222  35.141  12.073  1.00  0.00    -0.248 N 
ATOM     37  N   UNL     1      28.523  34.962  12.162  1.00  0.00    -0.067 NA
BRANCH  36  38
ATOM     38  C   UNL     1      26.340  34.467  11.127  1.00  0.00     0.181 C 
BRANCH  38  39
ATOM     39  C   UNL     1      26.572  35.055   9.771  1.00  0.00    -0.023 A 
ATOM     40  C   UNL     1      26.112  36.343   9.498  1.00  0.00     0.056 A 
ATOM     41  C   UNL     1      27.236  34.378   8.770  1.00  0.00     0.010 A 
ATOM     42  C   UNL     1      26.311  36.923   8.270  1.00  0.00     0.161 A 
ATOM     43  C   UNL     1      27.452  34.935   7.525  1.00  0.00     0.051 A 
ATOM     44  C   UNL     1      26.982  36.207   7.296  1.00  0.00     0.160 A 
BRANCH  42  45
ATOM     45  O   UNL     1      25.855  38.207   7.983  1.00  0.00    -0.493 OA
ATOM     46  C   UNL     1      24.458  38.419   7.887  1.00  0.00     0.278 C 
ENDBRANCH  42  45
BRANCH  44  47
ATOM     47  O   UNL     1      27.179  36.800   6.059  1.00  0.00    -0.493 OA
ATOM     48  C   UNL     1      28.439  37.308   5.662  1.00  0.00     0.278 C 
ENDBRANCH  44  47
ENDBRANCH  38  39
ENDBRANCH  36  38
ENDBRANCH  32  33
ENDBRANCH  31  32
ENDBRANCH   2  31
TORSDOF 18
BEGIN_RES LYS A 131
REMARK  4 active torsions:
REMARK  status: ('A' for Active; 'I' for Inactive)
REMARK    1  A    between atoms: CA   and  CB  
REMARK    2  A    between atoms: CB   and  CG  
REMARK    3  A    between atoms: CG   and  CD  
REMARK    4  A    between atoms: CD   and  CE  
ROOT
ATOM      1  CA  LYS A 131      29.867  25.555  16.977  1.00 20.52     0.186 C 
ENDROOT
BRANCH   1   2
ATOM      2  CB  LYS A 131      28.345  25.722  17.026  1.00 20.94     0.034 C 
BRANCH   2   3
ATOM      3  CG  LYS A 131      27.601  24.402  16.896  1.00 22.96     0.005 C 
BRANCH   3   4
ATOM      4  CD  LYS A 131      26.630  24.185  18.024  1.00 24.33     0.041 C 
BRANCH   4   5
ATOM      5  CE  LYS A 131      25.591  23.149  17.609  1.00 26.91     0.338 C 
ATOM      6  NZ  LYS A 131      24.462  23.800  16.904  1.00 27.40     0.618 N 
ENDBRANCH   4   5
ENDBRANCH   3   4
ENDBRANCH   2   3
ENDBRANCH   1   2
END_RES LYS A 131
BEGIN_RES LYS A 135
REMARK  4 active torsions:
REMARK  status: ('A' for Active; 'I' for Inactive)
REMARK    5  A    between atoms: CA   and  CB  
REMARK    6  A    between atoms: CB   and  CG  
REMARK    7  A    between atoms: CG   and  CD  
REMARK    8  A    between atoms: CD   and  CE  
ROOT
ATOM      7  CA  LYS A 135      33.193  34.663   9.290  1.00 25.02     0.186 C 
ENDROOT
BRANCH   7   8
ATOM      8  CB  LYS A 135      32.060  35.360  10.034  1.00 26.63     0.034 C 
BRANCH   8   9
ATOM      9  CG  LYS A 135      30.740  35.305   9.309  1.00 29.45     0.005 C 
BRANCH   9  10
ATOM     10  CD  LYS A 135      30.422  36.649   8.671  1.00 32.00     0.041 C 
BRANCH  10  11
ATOM     11  CE  LYS A 135      30.513  37.761   9.698  1.00 34.25     0.338 C 
ATOM     12  NZ  LYS A 135      29.233  37.908  10.445  1.00 35.99     0.618 N 
ENDBRANCH  10  11
ENDBRANCH   9  10
ENDBRANCH   8   9
ENDBRANCH   7   8
END_RES LYS A 135
