REMARK VINA RESULT:    -5.840      2.162      3.845
REMARK INTER + INTRA:         -14.640
REMARK INTER:                  -8.643
REMARK INTRA:                  -5.997
REMARK UNBOUND:                -4.533
REMARK SMILES CC(=O)N[C@@H]1[C@@H](O)C[C@](O)(C(=O)O)O[C@H]1C(O)[C@H](O)CNC(=O)OCc1cn(-c2cnc3ccccc3c2)nn1
REMARK SMILES IDX 20 1 18 2 16 3 15 4 9 5 8 6 14 7 6 8 5 9 10 10 11 12 12 13
REMARK SMILES IDX 13 14 7 16 4 18 2 19 1 21 3 22 17 23 19 25 21 27 22 28 23 30
REMARK SMILES IDX 24 31 25 32 26 33 27 34 40 35 28 36 39 37 29 38 30 39 38 40
REMARK SMILES IDX 31 41 37 42 32 43 36 44 33 45 35 46 34 47
REMARK H PARENT 10 11 13 15 7 17 4 20 17 24 19 26 21 29
REMARK Flexibility Score: inf
ROOT
ATOM      1  C   UNL     1      27.013  28.071  21.213  1.00  0.00     0.154 C 
ENDROOT
BRANCH   1   2
ATOM      2  C   UNL     1      28.203  27.222  21.561  1.00  0.00     0.165 C 
BRANCH   2   3
ATOM      3  C   UNL     1      29.025  27.764  22.699  1.00  0.00     0.176 C 
BRANCH   3   4
ATOM      4  C   UNL     1      29.880  28.945  22.340  1.00  0.00     0.178 C 
ATOM      5  C   UNL     1      30.461  30.104  20.417  1.00  0.00     0.269 C 
ATOM      6  C   UNL     1      31.466  30.889  21.223  1.00  0.00     0.112 C 
ATOM      7  O   UNL     1      29.452  29.575  21.181  1.00  0.00    -0.332 OA
ATOM      8  C   UNL     1      32.034  30.048  22.317  1.00  0.00     0.145 C 
ATOM      9  C   UNL     1      31.343  28.669  22.386  1.00  0.00     0.142 C 
BRANCH   5  10
ATOM     10  O   UNL     1      31.159  29.162  19.667  1.00  0.00    -0.357 OA
ATOM     11  H   UNL     1      31.736  28.589  20.206  1.00  0.00     0.214 HD
ENDBRANCH   5  10
BRANCH   5  12
ATOM     12  C   UNL     1      29.839  31.054  19.447  1.00  0.00     0.364 C 
ATOM     13  O   UNL     1      30.585  31.591  18.589  1.00  0.00    -0.246 OA
BRANCH  12  14
ATOM     14  O   UNL     1      28.491  31.360  19.463  1.00  0.00    -0.477 OA
ATOM     15  H   UNL     1      28.192  32.340  19.445  1.00  0.00     0.296 HD
ENDBRANCH  12  14
ENDBRANCH   5  12
BRANCH   8  16
ATOM     16  O   UNL     1      33.417  29.862  22.138  1.00  0.00    -0.391 OA
ATOM     17  H   UNL     1      33.587  29.464  21.251  1.00  0.00     0.211 HD
ENDBRANCH   8  16
BRANCH   9  18
ATOM     18  N   UNL     1      31.651  28.079  23.692  1.00  0.00    -0.348 N 
ATOM     19  C   UNL     1      32.734  27.188  23.906  1.00  0.00     0.217 C 
ATOM     20  H   UNL     1      31.061  28.311  24.512  1.00  0.00     0.163 HD
ATOM     21  C   UNL     1      33.029  26.596  25.239  1.00  0.00     0.114 C 
ATOM     22  O   UNL     1      33.490  26.867  22.955  1.00  0.00    -0.275 OA
ENDBRANCH   9  18
ENDBRANCH   3   4
BRANCH   3  23
ATOM     23  O   UNL     1      28.124  28.087  23.733  1.00  0.00    -0.388 OA
ATOM     24  H   UNL     1      28.178  27.350  24.390  1.00  0.00     0.211 HD
ENDBRANCH   3  23
ENDBRANCH   2   3
BRANCH   2  25
ATOM     25  O   UNL     1      29.005  26.996  20.424  1.00  0.00    -0.388 OA
ATOM     26  H   UNL     1      29.268  26.024  20.500  1.00  0.00     0.211 HD
ENDBRANCH   2  25
ENDBRANCH   1   2
BRANCH   1  27
ATOM     27  N   UNL     1      27.047  28.392  19.806  1.00  0.00    -0.319 N 
ATOM     28  C   UNL     1      26.030  28.024  18.902  1.00  0.00     0.407 C 
ATOM     29  H   UNL     1      27.855  28.930  19.384  1.00  0.00     0.167 HD
ATOM     30  O   UNL     1      25.022  27.386  19.272  1.00  0.00    -0.225 OA
BRANCH  28  31
ATOM     31  O   UNL     1      26.081  28.348  17.539  1.00  0.00    -0.443 OA
BRANCH  31  32
ATOM     32  C   UNL     1      27.351  28.519  16.892  1.00  0.00     0.294 C 
BRANCH  32  33
ATOM     33  C   UNL     1      27.592  29.949  16.607  1.00  0.00     0.121 A 
ATOM     34  C   UNL     1      28.557  30.501  15.823  1.00  0.00     0.144 A 
ATOM     35  N   UNL     1      26.860  30.951  17.105  1.00  0.00    -0.131 NA
ATOM     36  N   UNL     1      28.366  31.851  15.880  1.00  0.00    -0.219 N 
ATOM     37  N   UNL     1      27.339  32.100  16.658  1.00  0.00    -0.062 NA
BRANCH  36  38
ATOM     38  C   UNL     1      29.141  32.830  15.214  1.00  0.00     0.085 A 
ATOM     39  C   UNL     1      28.514  33.707  14.346  1.00  0.00     0.140 A 
ATOM     40  C   UNL     1      30.496  32.889  15.444  1.00  0.00     0.040 A 
ATOM     41  N   UNL     1      29.250  34.635  13.715  1.00  0.00    -0.254 NA
ATOM     42  C   UNL     1      31.241  33.858  14.779  1.00  0.00     0.002 A 
ATOM     43  C   UNL     1      30.594  34.721  13.919  1.00  0.00     0.070 A 
ATOM     44  C   UNL     1      32.584  33.939  14.988  1.00  0.00     0.010 A 
ATOM     45  C   UNL     1      31.330  35.684  13.259  1.00  0.00     0.029 A 
ATOM     46  C   UNL     1      33.335  34.910  14.325  1.00  0.00     0.001 A 
ATOM     47  C   UNL     1      32.702  35.775  13.465  1.00  0.00     0.002 A 
ENDBRANCH  36  38
ENDBRANCH  32  33
ENDBRANCH  31  32
ENDBRANCH  28  31
ENDBRANCH   1  27
TORSDOF 15
BEGIN_RES LYS A 131
REMARK  4 active torsions:
REMARK  status: ('A' for Active; 'I' for Inactive)
REMARK    1  A    between atoms: CA   and  CB  
REMARK    2  A    between atoms: CB   and  CG  
REMARK    3  A    between atoms: CG   and  CD  
REMARK    4  A    between atoms: CD   and  CE  
ROOT
ATOM      1  CA  LYS A 131      29.867  25.555  16.977  1.00 20.52     0.186 C 
ENDROOT
BRANCH   1   2
ATOM      2  CB  LYS A 131      28.345  25.722  17.026  1.00 20.94     0.034 C 
BRANCH   2   3
ATOM      3  CG  LYS A 131      27.601  24.402  16.896  1.00 22.96     0.005 C 
BRANCH   3   4
ATOM      4  CD  LYS A 131      26.514  24.261  17.925  1.00 24.33     0.041 C 
BRANCH   4   5
ATOM      5  CE  LYS A 131      25.155  24.439  17.257  1.00 26.91     0.338 C 
ATOM      6  NZ  LYS A 131      24.301  23.250  17.491  1.00 27.40     0.618 N 
ENDBRANCH   4   5
ENDBRANCH   3   4
ENDBRANCH   2   3
ENDBRANCH   1   2
END_RES LYS A 131
BEGIN_RES LYS A 135
REMARK  4 active torsions:
REMARK  status: ('A' for Active; 'I' for Inactive)
REMARK    5  A    between atoms: CA   and  CB  
REMARK    6  A    between atoms: CB   and  CG  
REMARK    7  A    between atoms: CG   and  CD  
REMARK    8  A    between atoms: CD   and  CE  
ROOT
ATOM      7  CA  LYS A 135      33.193  34.663   9.290  1.00 25.02     0.186 C 
ENDROOT
BRANCH   7   8
ATOM      8  CB  LYS A 135      32.060  35.360  10.034  1.00 26.63     0.034 C 
BRANCH   8   9
ATOM      9  CG  LYS A 135      30.808  35.521   9.211  1.00 29.45     0.005 C 
BRANCH   9  10
ATOM     10  CD  LYS A 135      30.078  34.193   9.079  1.00 32.00     0.041 C 
BRANCH  10  11
ATOM     11  CE  LYS A 135      28.641  34.416   8.649  1.00 34.25     0.338 C 
ATOM     12  NZ  LYS A 135      27.695  33.688   9.539  1.00 35.99     0.618 N 
ENDBRANCH  10  11
ENDBRANCH   9  10
ENDBRANCH   8   9
ENDBRANCH   7   8
END_RES LYS A 135
