REMARK VINA RESULT:    -5.737      3.541      7.562
REMARK INTER + INTRA:         -14.462
REMARK INTER:                  -7.957
REMARK INTRA:                  -6.505
REMARK UNBOUND:                -4.533
REMARK SMILES CC(=O)N[C@@H]1[C@@H](O)C[C@](O)(C(=O)O)O[C@H]1C(O)[C@H](O)CNC(=O)OCc1cn(-c2cnc3ccccc3c2)nn1
REMARK SMILES IDX 20 1 18 2 16 3 15 4 9 5 8 6 14 7 6 8 5 9 10 10 11 12 12 13
REMARK SMILES IDX 13 14 7 16 4 18 2 19 1 21 3 22 17 23 19 25 21 27 22 28 23 30
REMARK SMILES IDX 24 31 25 32 26 33 27 34 40 35 28 36 39 37 29 38 30 39 38 40
REMARK SMILES IDX 31 41 37 42 32 43 36 44 33 45 35 46 34 47
REMARK H PARENT 10 11 13 15 7 17 4 20 17 24 19 26 21 29
REMARK Flexibility Score: inf
ROOT
ATOM      1  C   UNL     1      29.758  34.938  20.182  1.00  0.00     0.154 C 
ENDROOT
BRANCH   1   2
ATOM      2  C   UNL     1      30.850  33.906  20.138  1.00  0.00     0.165 C 
BRANCH   2   3
ATOM      3  C   UNL     1      30.388  32.551  19.674  1.00  0.00     0.176 C 
BRANCH   3   4
ATOM      4  C   UNL     1      30.745  32.226  18.253  1.00  0.00     0.178 C 
ATOM      5  C   UNL     1      31.069  33.387  16.271  1.00  0.00     0.269 C 
ATOM      6  C   UNL     1      31.160  32.070  15.542  1.00  0.00     0.112 C 
ATOM      7  O   UNL     1      31.364  33.286  17.607  1.00  0.00    -0.332 OA
ATOM      8  C   UNL     1      30.283  31.050  16.188  1.00  0.00     0.145 C 
ATOM      9  C   UNL     1      29.637  31.598  17.480  1.00  0.00     0.142 C 
BRANCH   5  10
ATOM     10  O   UNL     1      29.817  33.935  16.005  1.00  0.00    -0.357 OA
ATOM     11  H   UNL     1      29.861  34.783  15.526  1.00  0.00     0.214 HD
ENDBRANCH   5  10
BRANCH   5  12
ATOM     12  C   UNL     1      32.080  34.299  15.656  1.00  0.00     0.364 C 
ATOM     13  O   UNL     1      32.792  34.992  16.425  1.00  0.00    -0.246 OA
BRANCH  12  14
ATOM     14  O   UNL     1      32.253  34.404  14.288  1.00  0.00    -0.477 OA
ATOM     15  H   UNL     1      33.053  34.926  13.916  1.00  0.00     0.296 HD
ENDBRANCH  12  14
ENDBRANCH   5  12
BRANCH   8  16
ATOM     16  O   UNL     1      29.269  30.632  15.307  1.00  0.00    -0.391 OA
ATOM     17  H   UNL     1      28.709  31.404  15.054  1.00  0.00     0.211 HD
ENDBRANCH   8  16
BRANCH   9  18
ATOM     18  N   UNL     1      29.140  30.454  18.250  1.00  0.00    -0.348 N 
ATOM     19  C   UNL     1      27.807  29.977  18.160  1.00  0.00     0.217 C 
ATOM     20  H   UNL     1      29.777  29.957  18.900  1.00  0.00     0.163 HD
ATOM     21  C   UNL     1      27.320  28.817  18.954  1.00  0.00     0.114 C 
ATOM     22  O   UNL     1      26.984  30.533  17.390  1.00  0.00    -0.275 OA
ENDBRANCH   9  18
ENDBRANCH   3   4
BRANCH   3  23
ATOM     23  O   UNL     1      30.940  31.607  20.563  1.00  0.00    -0.388 OA
ATOM     24  H   UNL     1      30.370  31.619  21.371  1.00  0.00     0.211 HD
ENDBRANCH   3  23
ENDBRANCH   2   3
BRANCH   2  25
ATOM     25  O   UNL     1      31.502  33.816  21.384  1.00  0.00    -0.388 OA
ATOM     26  H   UNL     1      31.757  34.770  21.596  1.00  0.00     0.211 HD
ENDBRANCH   2  25
ENDBRANCH   1   2
BRANCH   1  27
ATOM     27  N   UNL     1      29.413  35.331  18.836  1.00  0.00    -0.319 N 
ATOM     28  C   UNL     1      29.886  36.513  18.230  1.00  0.00     0.407 C 
ATOM     29  H   UNL     1      28.777  34.736  18.236  1.00  0.00     0.167 HD
ATOM     30  O   UNL     1      30.643  37.302  18.832  1.00  0.00    -0.225 OA
BRANCH  28  31
ATOM     31  O   UNL     1      29.540  36.876  16.921  1.00  0.00    -0.443 OA
BRANCH  31  32
ATOM     32  C   UNL     1      30.469  37.616  16.115  1.00  0.00     0.294 C 
BRANCH  32  33
ATOM     33  C   UNL     1      30.219  37.363  14.681  1.00  0.00     0.121 A 
ATOM     34  C   UNL     1      30.526  38.155  13.619  1.00  0.00     0.144 A 
ATOM     35  N   UNL     1      29.626  36.264  14.201  1.00  0.00    -0.131 NA
ATOM     36  N   UNL     1      30.095  37.487  12.510  1.00  0.00    -0.219 N 
ATOM     37  N   UNL     1      29.556  36.351  12.884  1.00  0.00    -0.062 NA
BRANCH  36  38
ATOM     38  C   UNL     1      30.205  37.936  11.173  1.00  0.00     0.085 A 
ATOM     39  C   UNL     1      29.118  37.804  10.328  1.00  0.00     0.140 A 
ATOM     40  C   UNL     1      31.388  38.492  10.743  1.00  0.00     0.040 A 
ATOM     41  N   UNL     1      29.223  38.229   9.058  1.00  0.00    -0.254 NA
ATOM     42  C   UNL     1      31.477  38.927   9.424  1.00  0.00     0.002 A 
ATOM     43  C   UNL     1      30.379  38.785   8.601  1.00  0.00     0.070 A 
ATOM     44  C   UNL     1      32.635  39.481   8.971  1.00  0.00     0.010 A 
ATOM     45  C   UNL     1      30.464  39.215   7.292  1.00  0.00     0.029 A 
ATOM     46  C   UNL     1      32.729  39.919   7.651  1.00  0.00     0.001 A 
ATOM     47  C   UNL     1      31.642  39.783   6.820  1.00  0.00     0.002 A 
ENDBRANCH  36  38
ENDBRANCH  32  33
ENDBRANCH  31  32
ENDBRANCH  28  31
ENDBRANCH   1  27
TORSDOF 15
BEGIN_RES LYS A 131
REMARK  4 active torsions:
REMARK  status: ('A' for Active; 'I' for Inactive)
REMARK    1  A    between atoms: CA   and  CB  
REMARK    2  A    between atoms: CB   and  CG  
REMARK    3  A    between atoms: CG   and  CD  
REMARK    4  A    between atoms: CD   and  CE  
ROOT
ATOM      1  CA  LYS A 131      29.867  25.555  16.977  1.00 20.52     0.186 C 
ENDROOT
BRANCH   1   2
ATOM      2  CB  LYS A 131      28.345  25.722  17.026  1.00 20.94     0.034 C 
BRANCH   2   3
ATOM      3  CG  LYS A 131      27.601  24.403  16.887  1.00 22.96     0.005 C 
BRANCH   3   4
ATOM      4  CD  LYS A 131      26.599  24.198  17.989  1.00 24.33     0.041 C 
BRANCH   4   5
ATOM      5  CE  LYS A 131      25.222  23.946  17.385  1.00 26.91     0.338 C 
ATOM      6  NZ  LYS A 131      24.840  22.522  17.539  1.00 27.40     0.618 N 
ENDBRANCH   4   5
ENDBRANCH   3   4
ENDBRANCH   2   3
ENDBRANCH   1   2
END_RES LYS A 131
BEGIN_RES LYS A 135
REMARK  4 active torsions:
REMARK  status: ('A' for Active; 'I' for Inactive)
REMARK    5  A    between atoms: CA   and  CB  
REMARK    6  A    between atoms: CB   and  CG  
REMARK    7  A    between atoms: CG   and  CD  
REMARK    8  A    between atoms: CD   and  CE  
ROOT
ATOM      7  CA  LYS A 135      33.193  34.663   9.290  1.00 25.02     0.186 C 
ENDROOT
BRANCH   7   8
ATOM      8  CB  LYS A 135      32.060  35.360  10.034  1.00 26.63     0.034 C 
BRANCH   8   9
ATOM      9  CG  LYS A 135      30.729  34.667   9.891  1.00 29.45     0.005 C 
BRANCH   9  10
ATOM     10  CD  LYS A 135      30.299  34.627   8.433  1.00 32.00     0.041 C 
BRANCH  10  11
ATOM     11  CE  LYS A 135      28.788  34.553   8.325  1.00 34.25     0.338 C 
ATOM     12  NZ  LYS A 135      28.202  33.833   9.489  1.00 35.99     0.618 N 
ENDBRANCH  10  11
ENDBRANCH   9  10
ENDBRANCH   8   9
ENDBRANCH   7   8
END_RES LYS A 135
