REMARK VINA RESULT:    -5.233      6.421     10.710
REMARK INTER + INTRA:         -14.880
REMARK INTER:                 -10.531
REMARK INTRA:                  -4.350
REMARK UNBOUND:                -5.212
REMARK SMILES CC(=O)N[C@@H]1[C@@H](O)C[C@](O)(C(=O)O)O[C@H]1C(O)[C@H](O)CNC(=O)OCc1cn(Cc2cccc(C#N)c2)nn1
REMARK SMILES IDX 21 1 22 2 23 3 20 5 18 6 16 7 15 8 9 9 8 10 14 11 6 12 5 13
REMARK SMILES IDX 10 14 11 16 12 17 13 18 7 20 4 22 2 23 1 25 3 26 17 27 19 29
REMARK SMILES IDX 24 31 25 32 26 33 27 34 39 35 28 36 38 37 29 38 30 39 31 40
REMARK SMILES IDX 37 41 32 42 34 43 33 44 35 45 36 46
REMARK H PARENT 21 4 10 15 13 19 7 21 4 24 17 28 19 30
REMARK Flexibility Score: inf
ROOT
ATOM      1  N   UNL     1      25.890  40.128   8.260  1.00  0.00    -0.319 N 
ATOM      2  C   UNL     1      27.046  40.215   9.045  1.00  0.00     0.407 C 
ATOM      3  O   UNL     1      27.022  39.905  10.254  1.00  0.00    -0.225 OA
ATOM      4  H   UNL     1      25.990  40.405   7.238  1.00  0.00     0.167 HD
ENDROOT
BRANCH   1   5
ATOM      5  C   UNL     1      24.612  39.695   8.758  1.00  0.00     0.154 C 
BRANCH   5   6
ATOM      6  C   UNL     1      24.150  38.401   8.148  1.00  0.00     0.165 C 
BRANCH   6   7
ATOM      7  C   UNL     1      23.831  37.316   9.100  1.00  0.00     0.176 C 
BRANCH   7   8
ATOM      8  C   UNL     1      22.336  36.982   9.230  1.00  0.00     0.178 C 
ATOM      9  C   UNL     1      20.735  35.604   8.377  1.00  0.00     0.269 C 
ATOM     10  C   UNL     1      19.965  36.781   7.814  1.00  0.00     0.112 C 
ATOM     11  O   UNL     1      22.059  35.958   8.416  1.00  0.00    -0.332 OA
ATOM     12  C   UNL     1      20.095  37.991   8.699  1.00  0.00     0.145 C 
ATOM     13  C   UNL     1      21.495  38.200   9.197  1.00  0.00     0.142 C 
BRANCH   9  14
ATOM     14  O   UNL     1      20.570  34.519   7.480  1.00  0.00    -0.357 OA
ATOM     15  H   UNL     1      20.951  33.736   7.972  1.00  0.00     0.214 HD
ENDBRANCH   9  14
BRANCH   9  16
ATOM     16  C   UNL     1      20.131  35.185   9.646  1.00  0.00     0.364 C 
ATOM     17  O   UNL     1      18.941  35.447   9.935  1.00  0.00    -0.246 OA
BRANCH  16  18
ATOM     18  O   UNL     1      20.832  34.464  10.635  1.00  0.00    -0.477 OA
ATOM     19  H   UNL     1      21.363  33.663  10.286  1.00  0.00     0.296 HD
ENDBRANCH  16  18
ENDBRANCH   9  16
BRANCH  12  20
ATOM     20  O   UNL     1      19.672  39.098   7.964  1.00  0.00    -0.391 OA
ATOM     21  H   UNL     1      18.862  38.916   7.443  1.00  0.00     0.211 HD
ENDBRANCH  12  20
BRANCH  13  22
ATOM     22  N   UNL     1      21.436  38.828  10.503  1.00  0.00    -0.348 N 
ATOM     23  C   UNL     1      21.417  40.260  10.673  1.00  0.00     0.217 C 
ATOM     24  H   UNL     1      21.406  38.299  11.412  1.00  0.00     0.163 HD
ATOM     25  C   UNL     1      21.358  40.862  12.043  1.00  0.00     0.114 C 
ATOM     26  O   UNL     1      21.449  41.008   9.676  1.00  0.00    -0.275 OA
ENDBRANCH  13  22
ENDBRANCH   7   8
BRANCH   7  27
ATOM     27  O   UNL     1      24.289  37.566  10.395  1.00  0.00    -0.388 OA
ATOM     28  H   UNL     1      23.612  38.008  10.964  1.00  0.00     0.211 HD
ENDBRANCH   7  27
ENDBRANCH   6   7
BRANCH   6  29
ATOM     29  O   UNL     1      25.040  38.067   7.128  1.00  0.00    -0.388 OA
ATOM     30  H   UNL     1      25.836  37.655   7.544  1.00  0.00     0.211 HD
ENDBRANCH   6  29
ENDBRANCH   5   6
ENDBRANCH   1   5
BRANCH   2  31
ATOM     31  O   UNL     1      28.271  40.646   8.537  1.00  0.00    -0.443 OA
BRANCH  31  32
ATOM     32  C   UNL     1      28.436  40.709   7.144  1.00  0.00     0.294 C 
BRANCH  32  33
ATOM     33  C   UNL     1      28.267  39.354   6.580  1.00  0.00     0.120 A 
ATOM     34  C   UNL     1      28.952  38.204   6.905  1.00  0.00     0.138 A 
ATOM     35  N   UNL     1      27.387  39.002   5.625  1.00  0.00    -0.132 NA
ATOM     36  N   UNL     1      28.475  37.199   6.149  1.00  0.00    -0.248 N 
ATOM     37  N   UNL     1      27.525  37.728   5.387  1.00  0.00    -0.067 NA
BRANCH  36  38
ATOM     38  C   UNL     1      28.837  35.807   6.106  1.00  0.00     0.181 C 
BRANCH  38  39
ATOM     39  C   UNL     1      28.821  35.212   7.483  1.00  0.00    -0.025 A 
ATOM     40  C   UNL     1      29.965  34.647   7.999  1.00  0.00     0.006 A 
ATOM     41  C   UNL     1      27.691  35.218   8.257  1.00  0.00     0.025 A 
ATOM     42  C   UNL     1      29.959  34.097   9.286  1.00  0.00     0.002 A 
ATOM     43  C   UNL     1      27.648  34.686   9.529  1.00  0.00     0.052 A 
ATOM     44  C   UNL     1      28.793  34.122  10.044  1.00  0.00     0.019 A 
BRANCH  43  45
ATOM     45  C   UNL     1      26.479  34.681  10.358  1.00  0.00     0.099 C 
ATOM     46  N   UNL     1      25.531  34.695  11.038  1.00  0.00    -0.192 NA
ENDBRANCH  43  45
ENDBRANCH  38  39
ENDBRANCH  36  38
ENDBRANCH  32  33
ENDBRANCH  31  32
ENDBRANCH   2  31
TORSDOF 17
BEGIN_RES LYS A 131
REMARK  4 active torsions:
REMARK  status: ('A' for Active; 'I' for Inactive)
REMARK    1  A    between atoms: CA   and  CB  
REMARK    2  A    between atoms: CB   and  CG  
REMARK    3  A    between atoms: CG   and  CD  
REMARK    4  A    between atoms: CD   and  CE  
ROOT
ATOM      1  CA  LYS A 131      29.867  25.555  16.977  1.00 20.52     0.186 C 
ENDROOT
BRANCH   1   2
ATOM      2  CB  LYS A 131      28.345  25.722  17.026  1.00 20.94     0.034 C 
BRANCH   2   3
ATOM      3  CG  LYS A 131      27.603  24.396  16.955  1.00 22.96     0.005 C 
BRANCH   3   4
ATOM      4  CD  LYS A 131      26.505  24.307  17.979  1.00 24.33     0.041 C 
BRANCH   4   5
ATOM      5  CE  LYS A 131      25.366  23.453  17.431  1.00 26.91     0.338 C 
ATOM      6  NZ  LYS A 131      24.820  22.573  18.492  1.00 27.40     0.618 N 
ENDBRANCH   4   5
ENDBRANCH   3   4
ENDBRANCH   2   3
ENDBRANCH   1   2
END_RES LYS A 131
BEGIN_RES LYS A 135
REMARK  4 active torsions:
REMARK  status: ('A' for Active; 'I' for Inactive)
REMARK    5  A    between atoms: CA   and  CB  
REMARK    6  A    between atoms: CB   and  CG  
REMARK    7  A    between atoms: CG   and  CD  
REMARK    8  A    between atoms: CD   and  CE  
ROOT
ATOM      7  CA  LYS A 135      33.193  34.663   9.290  1.00 25.02     0.186 C 
ENDROOT
BRANCH   7   8
ATOM      8  CB  LYS A 135      32.060  35.360  10.034  1.00 26.63     0.034 C 
BRANCH   8   9
ATOM      9  CG  LYS A 135      32.512  36.092  11.271  1.00 29.45     0.005 C 
BRANCH   9  10
ATOM     10  CD  LYS A 135      31.917  37.491  11.315  1.00 32.00     0.041 C 
BRANCH  10  11
ATOM     11  CE  LYS A 135      30.934  37.687  10.177  1.00 34.25     0.338 C 
ATOM     12  NZ  LYS A 135      29.530  37.668  10.672  1.00 35.99     0.618 N 
ENDBRANCH  10  11
ENDBRANCH   9  10
ENDBRANCH   8   9
ENDBRANCH   7   8
END_RES LYS A 135
