REMARK VINA RESULT:    -4.801      5.677     10.307
REMARK INTER + INTRA:         -14.777
REMARK INTER:                  -8.352
REMARK INTRA:                  -6.425
REMARK UNBOUND:                -6.187
REMARK SMILES CC(=O)N[C@@H]1[C@@H](O)C[C@](O)(C(=O)O)O[C@H]1C(O)[C@H](O)CNC(=O)OCc1cn(-c2cc(Cl)ccc2C(=O)N(C)C)nn1
REMARK SMILES IDX 21 1 22 2 23 3 20 5 18 6 16 7 15 8 9 9 8 10 14 11 6 12 5 13
REMARK SMILES IDX 10 14 11 16 12 17 13 18 7 20 4 22 2 23 1 25 3 26 17 27 19 29
REMARK SMILES IDX 24 31 25 32 26 33 27 34 42 35 28 36 41 37 29 38 30 39 35 40
REMARK SMILES IDX 31 41 34 42 32 43 33 44 36 45 37 46 38 47 39 48 40 49
REMARK H PARENT 21 4 10 15 13 19 7 21 4 24 17 28 19 30
REMARK Flexibility Score: inf
ROOT
ATOM      1  N   UNL     1      33.603  35.985  18.813  1.00  0.00    -0.319 N 
ATOM      2  C   UNL     1      34.444  36.074  19.933  1.00  0.00     0.407 C 
ATOM      3  O   UNL     1      34.340  37.033  20.724  1.00  0.00    -0.225 OA
ATOM      4  H   UNL     1      33.696  35.176  18.159  1.00  0.00     0.167 HD
ENDROOT
BRANCH   1   5
ATOM      5  C   UNL     1      32.599  36.974  18.519  1.00  0.00     0.154 C 
BRANCH   5   6
ATOM      6  C   UNL     1      32.852  37.569  17.157  1.00  0.00     0.165 C 
BRANCH   6   7
ATOM      7  C   UNL     1      32.943  36.524  16.075  1.00  0.00     0.176 C 
BRANCH   7   8
ATOM      8  C   UNL     1      31.801  35.582  16.151  1.00  0.00     0.178 C 
ATOM      9  C   UNL     1      30.938  33.639  17.009  1.00  0.00     0.269 C 
ATOM     10  C   UNL     1      29.669  34.252  16.473  1.00  0.00     0.112 C 
ATOM     11  O   UNL     1      32.076  34.348  16.714  1.00  0.00    -0.332 OA
ATOM     12  C   UNL     1      29.796  34.741  15.067  1.00  0.00     0.145 C 
ATOM     13  C   UNL     1      31.185  35.302  14.780  1.00  0.00     0.142 C 
BRANCH   9  14
ATOM     14  O   UNL     1      31.087  32.379  16.404  1.00  0.00    -0.357 OA
ATOM     15  H   UNL     1      32.043  32.344  16.096  1.00  0.00     0.214 HD
ENDBRANCH   9  14
BRANCH   9  16
ATOM     16  C   UNL     1      30.873  33.454  18.463  1.00  0.00     0.364 C 
ATOM     17  O   UNL     1      31.895  33.657  19.161  1.00  0.00    -0.246 OA
BRANCH  16  18
ATOM     18  O   UNL     1      29.732  33.059  19.144  1.00  0.00    -0.477 OA
ATOM     19  H   UNL     1      29.615  33.429  20.101  1.00  0.00     0.296 HD
ENDBRANCH  16  18
ENDBRANCH   9  16
BRANCH  12  20
ATOM     20  O   UNL     1      29.508  33.669  14.198  1.00  0.00    -0.391 OA
ATOM     21  H   UNL     1      28.581  33.830  13.877  1.00  0.00     0.211 HD
ENDBRANCH  12  20
BRANCH  13  22
ATOM     22  N   UNL     1      31.144  36.463  13.958  1.00  0.00    -0.348 N 
ATOM     23  C   UNL     1      31.884  36.513  12.750  1.00  0.00     0.217 C 
ATOM     24  H   UNL     1      30.576  37.293  14.219  1.00  0.00     0.163 HD
ATOM     25  C   UNL     1      31.807  37.761  11.917  1.00  0.00     0.114 C 
ATOM     26  O   UNL     1      32.598  35.584  12.333  1.00  0.00    -0.275 OA
ENDBRANCH  13  22
ENDBRANCH   7   8
BRANCH   7  27
ATOM     27  O   UNL     1      34.191  35.955  16.079  1.00  0.00    -0.388 OA
ATOM     28  H   UNL     1      34.509  35.926  15.121  1.00  0.00     0.211 HD
ENDBRANCH   7  27
ENDBRANCH   6   7
BRANCH   6  29
ATOM     29  O   UNL     1      34.119  38.233  17.162  1.00  0.00    -0.388 OA
ATOM     30  H   UNL     1      34.807  37.670  17.570  1.00  0.00     0.211 HD
ENDBRANCH   6  29
ENDBRANCH   5   6
ENDBRANCH   1   5
BRANCH   2  31
ATOM     31  O   UNL     1      35.422  35.131  20.232  1.00  0.00    -0.443 OA
BRANCH  31  32
ATOM     32  C   UNL     1      36.780  35.431  19.974  1.00  0.00     0.294 C 
BRANCH  32  33
ATOM     33  C   UNL     1      37.001  35.702  18.546  1.00  0.00     0.121 A 
ATOM     34  C   UNL     1      37.670  34.955  17.599  1.00  0.00     0.144 A 
ATOM     35  N   UNL     1      36.560  36.789  17.891  1.00  0.00    -0.131 NA
ATOM     36  N   UNL     1      37.620  35.600  16.403  1.00  0.00    -0.219 N 
ATOM     37  N   UNL     1      36.941  36.699  16.627  1.00  0.00    -0.062 NA
BRANCH  36  38
ATOM     38  C   UNL     1      38.177  35.187  15.163  1.00  0.00     0.081 A 
ATOM     39  C   UNL     1      37.464  34.363  14.305  1.00  0.00     0.049 A 
ATOM     40  C   UNL     1      39.438  35.612  14.817  1.00  0.00     0.065 A 
ATOM     41  C   UNL     1      37.984  33.953  13.103  1.00  0.00     0.043 A 
ATOM     42  C   UNL     1      39.994  35.218  13.612  1.00  0.00     0.017 A 
ATOM     43  Cl  UNL     1      37.088  32.907  12.005  1.00  0.00    -0.084 Cl
ATOM     44  C   UNL     1      39.251  34.390  12.772  1.00  0.00     0.021 A 
BRANCH  40  45
ATOM     45  C   UNL     1      40.168  36.471  15.721  1.00  0.00     0.255 C 
ATOM     46  O   UNL     1      40.877  36.030  16.670  1.00  0.00    -0.269 OA
ATOM     47  N   UNL     1      40.107  37.874  15.562  1.00  0.00    -0.345 N 
ATOM     48  C   UNL     1      39.311  38.422  14.491  1.00  0.00     0.146 C 
ATOM     49  C   UNL     1      40.822  38.786  16.442  1.00  0.00     0.146 C 
ENDBRANCH  40  45
ENDBRANCH  36  38
ENDBRANCH  32  33
ENDBRANCH  31  32
ENDBRANCH   2  31
TORSDOF 16
BEGIN_RES LYS A 131
REMARK  4 active torsions:
REMARK  status: ('A' for Active; 'I' for Inactive)
REMARK    1  A    between atoms: CA   and  CB  
REMARK    2  A    between atoms: CB   and  CG  
REMARK    3  A    between atoms: CG   and  CD  
REMARK    4  A    between atoms: CD   and  CE  
ROOT
ATOM      1  CA  LYS A 131      29.867  25.555  16.977  1.00 20.52     0.186 C 
ENDROOT
BRANCH   1   2
ATOM      2  CB  LYS A 131      28.345  25.722  17.026  1.00 20.94     0.034 C 
BRANCH   2   3
ATOM      3  CG  LYS A 131      27.600  24.408  16.848  1.00 22.96     0.005 C 
BRANCH   3   4
ATOM      4  CD  LYS A 131      26.608  24.165  17.952  1.00 24.33     0.041 C 
BRANCH   4   5
ATOM      5  CE  LYS A 131      25.711  22.989  17.580  1.00 26.91     0.338 C 
ATOM      6  NZ  LYS A 131      24.407  23.474  17.067  1.00 27.40     0.618 N 
ENDBRANCH   4   5
ENDBRANCH   3   4
ENDBRANCH   2   3
ENDBRANCH   1   2
END_RES LYS A 131
BEGIN_RES LYS A 135
REMARK  4 active torsions:
REMARK  status: ('A' for Active; 'I' for Inactive)
REMARK    5  A    between atoms: CA   and  CB  
REMARK    6  A    between atoms: CB   and  CG  
REMARK    7  A    between atoms: CG   and  CD  
REMARK    8  A    between atoms: CD   and  CE  
ROOT
ATOM      7  CA  LYS A 135      33.193  34.663   9.290  1.00 25.02     0.186 C 
ENDROOT
BRANCH   7   8
ATOM      8  CB  LYS A 135      32.060  35.360  10.034  1.00 26.63     0.034 C 
BRANCH   8   9
ATOM      9  CG  LYS A 135      30.816  35.541   9.204  1.00 29.45     0.005 C 
BRANCH   9  10
ATOM     10  CD  LYS A 135      30.050  34.232   9.091  1.00 32.00     0.041 C 
BRANCH  10  11
ATOM     11  CE  LYS A 135      28.730  34.446   8.376  1.00 34.25     0.338 C 
ATOM     12  NZ  LYS A 135      28.906  35.304   7.172  1.00 35.99     0.618 N 
ENDBRANCH  10  11
ENDBRANCH   9  10
ENDBRANCH   8   9
ENDBRANCH   7   8
END_RES LYS A 135
