REMARK VINA RESULT:    -5.884      1.970      4.640
REMARK INTER + INTRA:         -14.681
REMARK INTER:                  -7.960
REMARK INTRA:                  -6.721
REMARK UNBOUND:                -4.497
REMARK SMILES CC(=O)N[C@@H]1[C@@H](O)C[C@](O)(C(=O)O)O[C@H]1C(O)[C@H](O)CNC(=O)OCc1cn(-c2cccc(Cl)c2)nn1
REMARK SMILES IDX 20 1 18 2 16 3 15 4 9 5 8 6 14 7 6 8 5 9 10 10 11 12 12 13
REMARK SMILES IDX 13 14 7 16 4 18 2 19 1 21 3 22 17 23 19 25 21 27 22 28 23 30
REMARK SMILES IDX 24 31 25 32 26 33 27 34 37 35 28 36 36 37 29 38 30 39 35 40
REMARK SMILES IDX 31 41 33 42 32 43 34 44
REMARK H PARENT 10 11 13 15 7 17 4 20 17 24 19 26 21 29
REMARK Flexibility Score: inf
ROOT
ATOM      1  C   UNL     1      30.915  28.063  22.317  1.00  0.00     0.154 C 
ENDROOT
BRANCH   1   2
ATOM      2  C   UNL     1      30.351  27.830  20.946  1.00  0.00     0.165 C 
BRANCH   2   3
ATOM      3  C   UNL     1      29.402  28.907  20.507  1.00  0.00     0.176 C 
BRANCH   3   4
ATOM      4  C   UNL     1      28.154  28.303  19.858  1.00  0.00     0.178 C 
ATOM      5  C   UNL     1      27.346  29.611  18.079  1.00  0.00     0.269 C 
ATOM      6  C   UNL     1      25.943  29.481  18.657  1.00  0.00     0.112 C 
ATOM      7  O   UNL     1      28.148  28.636  18.563  1.00  0.00    -0.332 OA
ATOM      8  C   UNL     1      26.132  29.781  20.143  1.00  0.00     0.145 C 
ATOM      9  C   UNL     1      26.980  28.669  20.696  1.00  0.00     0.142 C 
BRANCH   5  10
ATOM     10  O   UNL     1      27.762  30.902  18.376  1.00  0.00    -0.357 OA
ATOM     11  H   UNL     1      27.773  31.428  17.540  1.00  0.00     0.214 HD
ENDBRANCH   5  10
BRANCH   5  12
ATOM     12  C   UNL     1      27.281  29.470  16.605  1.00  0.00     0.364 C 
ATOM     13  O   UNL     1      26.170  29.562  16.034  1.00  0.00    -0.246 OA
BRANCH  12  14
ATOM     14  O   UNL     1      28.403  29.241  15.822  1.00  0.00    -0.477 OA
ATOM     15  H   UNL     1      28.593  28.279  15.520  1.00  0.00     0.296 HD
ENDBRANCH  12  14
ENDBRANCH   5  12
BRANCH   8  16
ATOM     16  O   UNL     1      26.812  30.978  20.339  1.00  0.00    -0.391 OA
ATOM     17  H   UNL     1      27.490  31.149  19.625  1.00  0.00     0.211 HD
ENDBRANCH   8  16
BRANCH   9  18
ATOM     18  N   UNL     1      26.107  27.531  20.889  1.00  0.00    -0.348 N 
ATOM     19  C   UNL     1      26.332  26.649  21.977  1.00  0.00     0.217 C 
ATOM     20  H   UNL     1      25.297  27.337  20.230  1.00  0.00     0.163 HD
ATOM     21  C   UNL     1      25.432  25.483  22.168  1.00  0.00     0.114 C 
ATOM     22  O   UNL     1      27.287  26.861  22.768  1.00  0.00    -0.275 OA
ENDBRANCH   9  18
ENDBRANCH   3   4
BRANCH   3  23
ATOM     23  O   UNL     1      30.098  29.681  19.553  1.00  0.00    -0.388 OA
ATOM     24  H   UNL     1      30.656  30.345  19.981  1.00  0.00     0.211 HD
ENDBRANCH   3  23
ENDBRANCH   2   3
BRANCH   2  25
ATOM     25  O   UNL     1      29.670  26.600  20.942  1.00  0.00    -0.388 OA
ATOM     26  H   UNL     1      30.270  25.909  21.272  1.00  0.00     0.211 HD
ENDBRANCH   2  25
ENDBRANCH   1   2
BRANCH   1  27
ATOM     27  N   UNL     1      30.992  29.495  22.584  1.00  0.00    -0.319 N 
ATOM     28  C   UNL     1      32.208  30.201  22.409  1.00  0.00     0.407 C 
ATOM     29  H   UNL     1      30.129  29.977  22.907  1.00  0.00     0.167 HD
ATOM     30  O   UNL     1      33.226  29.577  22.018  1.00  0.00    -0.225 OA
BRANCH  28  31
ATOM     31  O   UNL     1      32.324  31.560  22.651  1.00  0.00    -0.443 OA
BRANCH  31  32
ATOM     32  C   UNL     1      31.150  32.341  22.657  1.00  0.00     0.294 C 
BRANCH  32  33
ATOM     33  C   UNL     1      30.700  32.561  21.258  1.00  0.00     0.121 A 
ATOM     34  C   UNL     1      31.503  32.847  20.167  1.00  0.00     0.144 A 
ATOM     35  N   UNL     1      29.448  32.532  20.767  1.00  0.00    -0.131 NA
ATOM     36  N   UNL     1      30.731  32.980  19.062  1.00  0.00    -0.220 N 
ATOM     37  N   UNL     1      29.487  32.782  19.466  1.00  0.00    -0.062 NA
BRANCH  36  38
ATOM     38  C   UNL     1      31.173  33.273  17.743  1.00  0.00     0.068 A 
ATOM     39  C   UNL     1      30.889  32.387  16.726  1.00  0.00     0.028 A 
ATOM     40  C   UNL     1      31.881  34.411  17.417  1.00  0.00     0.049 A 
ATOM     41  C   UNL     1      31.299  32.629  15.425  1.00  0.00     0.004 A 
ATOM     42  C   UNL     1      32.304  34.683  16.134  1.00  0.00     0.043 A 
ATOM     43  C   UNL     1      32.004  33.776  15.138  1.00  0.00     0.020 A 
ATOM     44  Cl  UNL     1      33.211  36.157  15.759  1.00  0.00    -0.084 Cl
ENDBRANCH  36  38
ENDBRANCH  32  33
ENDBRANCH  31  32
ENDBRANCH  28  31
ENDBRANCH   1  27
TORSDOF 15
BEGIN_RES LYS A 131
REMARK  4 active torsions:
REMARK  status: ('A' for Active; 'I' for Inactive)
REMARK    1  A    between atoms: CA   and  CB  
REMARK    2  A    between atoms: CB   and  CG  
REMARK    3  A    between atoms: CG   and  CD  
REMARK    4  A    between atoms: CD   and  CE  
ROOT
ATOM      1  CA  LYS A 131      29.867  25.555  16.977  1.00 20.52     0.186 C 
ENDROOT
BRANCH   1   2
ATOM      2  CB  LYS A 131      28.345  25.722  17.026  1.00 20.94     0.034 C 
BRANCH   2   3
ATOM      3  CG  LYS A 131      27.602  24.397  16.952  1.00 22.96     0.005 C 
BRANCH   3   4
ATOM      4  CD  LYS A 131      26.163  24.530  17.364  1.00 24.33     0.041 C 
BRANCH   4   5
ATOM      5  CE  LYS A 131      25.908  23.686  18.608  1.00 26.91     0.338 C 
ATOM      6  NZ  LYS A 131      24.700  22.848  18.428  1.00 27.40     0.618 N 
ENDBRANCH   4   5
ENDBRANCH   3   4
ENDBRANCH   2   3
ENDBRANCH   1   2
END_RES LYS A 131
BEGIN_RES LYS A 135
REMARK  4 active torsions:
REMARK  status: ('A' for Active; 'I' for Inactive)
REMARK    5  A    between atoms: CA   and  CB  
REMARK    6  A    between atoms: CB   and  CG  
REMARK    7  A    between atoms: CG   and  CD  
REMARK    8  A    between atoms: CD   and  CE  
ROOT
ATOM      7  CA  LYS A 135      33.193  34.663   9.290  1.00 25.02     0.186 C 
ENDROOT
BRANCH   7   8
ATOM      8  CB  LYS A 135      32.060  35.360  10.034  1.00 26.63     0.034 C 
BRANCH   8   9
ATOM      9  CG  LYS A 135      30.804  35.511   9.215  1.00 29.45     0.005 C 
BRANCH   9  10
ATOM     10  CD  LYS A 135      30.126  34.164   9.019  1.00 32.00     0.041 C 
BRANCH  10  11
ATOM     11  CE  LYS A 135      28.671  34.351   8.634  1.00 34.25     0.338 C 
ATOM     12  NZ  LYS A 135      27.767  33.710   9.629  1.00 35.99     0.618 N 
ENDBRANCH  10  11
ENDBRANCH   9  10
ENDBRANCH   8   9
ENDBRANCH   7   8
END_RES LYS A 135
