REMARK VINA RESULT:    -4.716      2.285      4.329
REMARK INTER + INTRA:         -14.079
REMARK INTER:                  -9.458
REMARK INTRA:                  -4.621
REMARK UNBOUND:                -5.917
REMARK SMILES CC(=O)N[C@@H]1[C@@H](O)C[C@](O)(C(=O)O)O[C@H]1C(O)[C@H](O)CNC(=O)OCc1cn(-c2c(C)cc(C)cc2C)nn1
REMARK SMILES IDX 20 1 18 2 16 3 15 4 9 5 8 6 14 7 6 8 5 9 10 10 11 12 12 13
REMARK SMILES IDX 13 14 7 16 4 18 2 19 1 21 3 22 17 23 19 25 21 27 22 28 23 30
REMARK SMILES IDX 24 31 25 32 26 33 27 34 39 35 28 36 38 37 29 38 30 39 36 40
REMARK SMILES IDX 31 41 32 42 35 43 37 44 33 45 34 46
REMARK H PARENT 10 11 13 15 7 17 4 20 17 24 19 26 21 29
REMARK Flexibility Score: inf
ROOT
ATOM      1  C   UNL     1      29.369  29.334  20.273  1.00  0.00     0.154 C 
ENDROOT
BRANCH   1   2
ATOM      2  C   UNL     1      29.885  28.056  20.827  1.00  0.00     0.165 C 
BRANCH   2   3
ATOM      3  C   UNL     1      31.366  27.985  21.015  1.00  0.00     0.176 C 
BRANCH   3   4
ATOM      4  C   UNL     1      31.838  27.306  22.245  1.00  0.00     0.178 C 
ATOM      5  C   UNL     1      30.890  26.591  24.260  1.00  0.00     0.269 C 
ATOM      6  C   UNL     1      32.254  26.427  24.869  1.00  0.00     0.112 C 
ATOM      7  O   UNL     1      30.864  26.609  22.898  1.00  0.00    -0.332 OA
ATOM      8  C   UNL     1      33.331  27.153  24.138  1.00  0.00     0.145 C 
ATOM      9  C   UNL     1      32.672  28.146  23.164  1.00  0.00     0.142 C 
BRANCH   5  10
ATOM     10  O   UNL     1      30.329  27.754  24.780  1.00  0.00    -0.357 OA
ATOM     11  H   UNL     1      31.024  28.197  25.346  1.00  0.00     0.214 HD
ENDBRANCH   5  10
BRANCH   5  12
ATOM     12  C   UNL     1      30.076  25.433  24.716  1.00  0.00     0.364 C 
ATOM     13  O   UNL     1      29.044  25.101  24.099  1.00  0.00    -0.246 OA
BRANCH  12  14
ATOM     14  O   UNL     1      30.449  24.694  25.846  1.00  0.00    -0.477 OA
ATOM     15  H   UNL     1      30.003  23.778  26.000  1.00  0.00     0.296 HD
ENDBRANCH  12  14
ENDBRANCH   5  12
BRANCH   8  16
ATOM     16  O   UNL     1      34.260  27.772  24.950  1.00  0.00    -0.391 OA
ATOM     17  H   UNL     1      34.805  28.380  24.367  1.00  0.00     0.211 HD
ENDBRANCH   8  16
BRANCH   9  18
ATOM     18  N   UNL     1      33.769  28.778  22.479  1.00  0.00    -0.348 N 
ATOM     19  C   UNL     1      33.860  30.195  22.513  1.00  0.00     0.217 C 
ATOM     20  H   UNL     1      34.501  28.233  21.960  1.00  0.00     0.163 HD
ATOM     21  C   UNL     1      34.952  30.942  21.836  1.00  0.00     0.114 C 
ATOM     22  O   UNL     1      32.999  30.873  23.129  1.00  0.00    -0.275 OA
ENDBRANCH   9  18
ENDBRANCH   3   4
BRANCH   3  23
ATOM     23  O   UNL     1      31.909  27.355  19.898  1.00  0.00    -0.388 OA
ATOM     24  H   UNL     1      31.652  26.400  19.935  1.00  0.00     0.211 HD
ENDBRANCH   3  23
ENDBRANCH   2   3
BRANCH   2  25
ATOM     25  O   UNL     1      29.379  26.957  20.129  1.00  0.00    -0.388 OA
ATOM     26  H   UNL     1      28.406  27.036  19.967  1.00  0.00     0.211 HD
ENDBRANCH   2  25
ENDBRANCH   1   2
BRANCH   1  27
ATOM     27  N   UNL     1      28.532  29.150  19.105  1.00  0.00    -0.319 N 
ATOM     28  C   UNL     1      27.271  29.791  18.944  1.00  0.00     0.407 C 
ATOM     29  H   UNL     1      28.816  28.522  18.296  1.00  0.00     0.167 HD
ATOM     30  O   UNL     1      26.835  30.551  19.828  1.00  0.00    -0.225 OA
BRANCH  28  31
ATOM     31  O   UNL     1      26.498  29.584  17.798  1.00  0.00    -0.443 OA
BRANCH  31  32
ATOM     32  C   UNL     1      26.471  30.601  16.783  1.00  0.00     0.294 C 
BRANCH  32  33
ATOM     33  C   UNL     1      27.870  31.015  16.504  1.00  0.00     0.121 A 
ATOM     34  C   UNL     1      28.393  32.279  16.722  1.00  0.00     0.144 A 
ATOM     35  N   UNL     1      28.865  30.292  16.011  1.00  0.00    -0.131 NA
ATOM     36  N   UNL     1      29.678  32.294  16.361  1.00  0.00    -0.220 N 
ATOM     37  N   UNL     1      29.924  31.046  15.928  1.00  0.00    -0.062 NA
BRANCH  36  38
ATOM     38  C   UNL     1      30.628  33.351  16.397  1.00  0.00     0.072 A 
ATOM     39  C   UNL     1      31.266  33.670  17.575  1.00  0.00    -0.025 A 
ATOM     40  C   UNL     1      30.942  34.091  15.268  1.00  0.00    -0.025 A 
ATOM     41  C   UNL     1      30.950  32.894  18.794  1.00  0.00     0.047 C 
ATOM     42  C   UNL     1      32.202  34.713  17.606  1.00  0.00     0.009 A 
ATOM     43  C   UNL     1      31.866  35.117  15.310  1.00  0.00     0.009 A 
ATOM     44  C   UNL     1      30.233  33.728  13.990  1.00  0.00     0.047 C 
ATOM     45  C   UNL     1      32.513  35.447  16.482  1.00  0.00    -0.050 A 
ATOM     46  C   UNL     1      33.514  36.554  16.542  1.00  0.00     0.044 C 
ENDBRANCH  36  38
ENDBRANCH  32  33
ENDBRANCH  31  32
ENDBRANCH  28  31
ENDBRANCH   1  27
TORSDOF 15
BEGIN_RES LYS A 131
REMARK  4 active torsions:
REMARK  status: ('A' for Active; 'I' for Inactive)
REMARK    1  A    between atoms: CA   and  CB  
REMARK    2  A    between atoms: CB   and  CG  
REMARK    3  A    between atoms: CG   and  CD  
REMARK    4  A    between atoms: CD   and  CE  
ROOT
ATOM      1  CA  LYS A 131      29.867  25.555  16.977  1.00 20.52     0.186 C 
ENDROOT
BRANCH   1   2
ATOM      2  CB  LYS A 131      28.345  25.722  17.026  1.00 20.94     0.034 C 
BRANCH   2   3
ATOM      3  CG  LYS A 131      27.601  24.402  16.889  1.00 22.96     0.005 C 
BRANCH   3   4
ATOM      4  CD  LYS A 131      26.622  24.186  18.010  1.00 24.33     0.041 C 
BRANCH   4   5
ATOM      5  CE  LYS A 131      25.252  23.848  17.430  1.00 26.91     0.338 C 
ATOM      6  NZ  LYS A 131      24.975  22.398  17.563  1.00 27.40     0.618 N 
ENDBRANCH   4   5
ENDBRANCH   3   4
ENDBRANCH   2   3
ENDBRANCH   1   2
END_RES LYS A 131
BEGIN_RES LYS A 135
REMARK  4 active torsions:
REMARK  status: ('A' for Active; 'I' for Inactive)
REMARK    5  A    between atoms: CA   and  CB  
REMARK    6  A    between atoms: CB   and  CG  
REMARK    7  A    between atoms: CG   and  CD  
REMARK    8  A    between atoms: CD   and  CE  
ROOT
ATOM      7  CA  LYS A 135      33.193  34.663   9.290  1.00 25.02     0.186 C 
ENDROOT
BRANCH   7   8
ATOM      8  CB  LYS A 135      32.060  35.360  10.034  1.00 26.63     0.034 C 
BRANCH   8   9
ATOM      9  CG  LYS A 135      30.711  34.726   9.808  1.00 29.45     0.005 C 
BRANCH   9  10
ATOM     10  CD  LYS A 135      30.461  34.513   8.323  1.00 32.00     0.041 C 
BRANCH  10  11
ATOM     11  CE  LYS A 135      29.013  34.806   7.980  1.00 34.25     0.338 C 
ATOM     12  NZ  LYS A 135      28.903  35.518   6.677  1.00 35.99     0.618 N 
ENDBRANCH  10  11
ENDBRANCH   9  10
ENDBRANCH   8   9
ENDBRANCH   7   8
END_RES LYS A 135
