REMARK VINA RESULT:    -5.369      4.755      9.747
REMARK INTER + INTRA:         -15.657
REMARK INTER:                  -9.170
REMARK INTRA:                  -6.487
REMARK UNBOUND:                -5.110
REMARK SMILES CC(=O)N[C@@H]1[C@@H](O)C[C@](O)(C(=O)O)O[C@H]1C(O)[C@H](O)CNC(=O)OCc1cn([C@@H](C)C(=O)OCc2ccccc2)nn1
REMARK SMILES IDX 24 1 22 2 21 3 23 5 20 6 18 7 16 8 15 9 9 10 8 11 14 12 6 13
REMARK SMILES IDX 5 14 10 15 11 17 12 18 13 19 7 21 4 23 2 24 1 26 3 27 17 28
REMARK SMILES IDX 19 30 25 32 26 33 27 34 42 35 28 36 41 37 29 38 30 39 31 40
REMARK SMILES IDX 32 41 33 42 34 43 35 44 36 45 40 46 37 47 39 48 38 49
REMARK H PARENT 21 4 10 16 13 20 7 22 4 25 17 29 19 31
REMARK Flexibility Score: inf
ROOT
ATOM      1  O   UNL     1      27.227  30.548  17.425  1.00  0.00    -0.443 OA
ENDROOT
BRANCH   1   2
ATOM      2  C   UNL     1      28.519  30.811  16.913  1.00  0.00     0.407 C 
ATOM      3  N   UNL     1      29.257  31.922  17.373  1.00  0.00    -0.319 N 
ATOM      4  H   UNL     1      28.764  32.529  18.101  1.00  0.00     0.167 HD
ATOM      5  O   UNL     1      28.931  30.007  16.055  1.00  0.00    -0.225 OA
BRANCH   3   6
ATOM      6  C   UNL     1      30.572  32.239  16.915  1.00  0.00     0.154 C 
BRANCH   6   7
ATOM      7  C   UNL     1      30.555  33.051  15.663  1.00  0.00     0.165 C 
BRANCH   7   8
ATOM      8  C   UNL     1      29.938  34.420  15.937  1.00  0.00     0.176 C 
BRANCH   8   9
ATOM      9  C   UNL     1      30.672  35.547  15.280  1.00  0.00     0.178 C 
ATOM     10  C   UNL     1      29.517  35.563  13.242  1.00  0.00     0.269 C 
ATOM     11  C   UNL     1      30.670  34.848  12.614  1.00  0.00     0.112 C 
ATOM     12  O   UNL     1      29.834  36.243  14.392  1.00  0.00    -0.332 OA
ATOM     13  C   UNL     1      31.961  35.441  13.138  1.00  0.00     0.145 C 
ATOM     14  C   UNL     1      31.973  35.194  14.638  1.00  0.00     0.142 C 
BRANCH  10  15
ATOM     15  O   UNL     1      28.467  34.697  13.441  1.00  0.00    -0.357 OA
ATOM     16  H   UNL     1      28.006  34.837  14.314  1.00  0.00     0.214 HD
ENDBRANCH  10  15
BRANCH  10  17
ATOM     17  C   UNL     1      29.041  36.615  12.271  1.00  0.00     0.364 C 
ATOM     18  O   UNL     1      28.139  36.355  11.435  1.00  0.00    -0.246 OA
BRANCH  17  19
ATOM     19  O   UNL     1      29.571  37.898  12.259  1.00  0.00    -0.477 OA
ATOM     20  H   UNL     1      28.967  38.734  12.222  1.00  0.00     0.296 HD
ENDBRANCH  17  19
ENDBRANCH  10  17
BRANCH  13  21
ATOM     21  O   UNL     1      33.053  34.873  12.511  1.00  0.00    -0.391 OA
ATOM     22  H   UNL     1      33.050  35.003  11.530  1.00  0.00     0.211 HD
ENDBRANCH  13  21
BRANCH  14  23
ATOM     23  N   UNL     1      33.111  35.904  15.230  1.00  0.00    -0.348 N 
ATOM     24  C   UNL     1      33.507  35.723  16.589  1.00  0.00     0.217 C 
ATOM     25  H   UNL     1      33.681  36.582  14.660  1.00  0.00     0.163 HD
ATOM     26  C   UNL     1      34.677  36.476  17.136  1.00  0.00     0.114 C 
ATOM     27  O   UNL     1      32.869  34.930  17.319  1.00  0.00    -0.275 OA
ENDBRANCH  14  23
ENDBRANCH   8   9
BRANCH   8  28
ATOM     28  O   UNL     1      29.938  34.643  17.320  1.00  0.00    -0.388 OA
ATOM     29  H   UNL     1      30.232  33.811  17.781  1.00  0.00     0.211 HD
ENDBRANCH   8  28
ENDBRANCH   7   8
BRANCH   7  30
ATOM     30  O   UNL     1      29.810  32.393  14.685  1.00  0.00    -0.388 OA
ATOM     31  H   UNL     1      29.338  33.031  14.074  1.00  0.00     0.211 HD
ENDBRANCH   7  30
ENDBRANCH   6   7
ENDBRANCH   3   6
ENDBRANCH   1   2
BRANCH   1  32
ATOM     32  C   UNL     1      26.302  31.612  17.505  1.00  0.00     0.294 C 
BRANCH  32  33
ATOM     33  C   UNL     1      26.019  32.203  16.183  1.00  0.00     0.120 A 
ATOM     34  C   UNL     1      25.046  31.862  15.274  1.00  0.00     0.139 A 
ATOM     35  N   UNL     1      26.695  33.221  15.624  1.00  0.00    -0.132 NA
ATOM     36  N   UNL     1      25.151  32.670  14.193  1.00  0.00    -0.238 N 
ATOM     37  N   UNL     1      26.149  33.477  14.430  1.00  0.00    -0.066 NA
BRANCH  36  38
ATOM     38  C   UNL     1      24.311  32.626  13.025  1.00  0.00     0.215 C 
ATOM     39  C   UNL     1      23.421  31.403  13.069  1.00  0.00     0.046 C 
BRANCH  38  40
ATOM     40  C   UNL     1      23.552  33.879  12.921  1.00  0.00     0.331 C 
ATOM     41  O   UNL     1      22.449  33.994  13.533  1.00  0.00    -0.250 OA
BRANCH  40  42
ATOM     42  O   UNL     1      23.989  34.954  12.176  1.00  0.00    -0.459 OA
BRANCH  42  43
ATOM     43  C   UNL     1      24.954  34.935  11.172  1.00  0.00     0.268 C 
BRANCH  43  44
ATOM     44  C   UNL     1      24.462  35.724  10.008  1.00  0.00    -0.011 A 
ATOM     45  C   UNL     1      25.336  36.489   9.267  1.00  0.00     0.007 A 
ATOM     46  C   UNL     1      23.138  35.688   9.666  1.00  0.00     0.007 A 
ATOM     47  C   UNL     1      24.888  37.215   8.191  1.00  0.00     0.000 A 
ATOM     48  C   UNL     1      22.664  36.401   8.600  1.00  0.00     0.000 A 
ATOM     49  C   UNL     1      23.540  37.163   7.865  1.00  0.00     0.000 A 
ENDBRANCH  43  44
ENDBRANCH  42  43
ENDBRANCH  40  42
ENDBRANCH  38  40
ENDBRANCH  36  38
ENDBRANCH  32  33
ENDBRANCH   1  32
TORSDOF 19
BEGIN_RES LYS A 131
REMARK  4 active torsions:
REMARK  status: ('A' for Active; 'I' for Inactive)
REMARK    1  A    between atoms: CA   and  CB  
REMARK    2  A    between atoms: CB   and  CG  
REMARK    3  A    between atoms: CG   and  CD  
REMARK    4  A    between atoms: CD   and  CE  
ROOT
ATOM      1  CA  LYS A 131      29.867  25.555  16.977  1.00 20.52     0.186 C 
ENDROOT
BRANCH   1   2
ATOM      2  CB  LYS A 131      28.345  25.722  17.026  1.00 20.94     0.034 C 
BRANCH   2   3
ATOM      3  CG  LYS A 131      27.601  24.402  16.894  1.00 22.96     0.005 C 
BRANCH   3   4
ATOM      4  CD  LYS A 131      26.149  24.531  17.261  1.00 24.33     0.041 C 
BRANCH   4   5
ATOM      5  CE  LYS A 131      25.643  23.201  17.811  1.00 26.91     0.338 C 
ATOM      6  NZ  LYS A 131      24.348  22.841  17.188  1.00 27.40     0.618 N 
ENDBRANCH   4   5
ENDBRANCH   3   4
ENDBRANCH   2   3
ENDBRANCH   1   2
END_RES LYS A 131
BEGIN_RES LYS A 135
REMARK  4 active torsions:
REMARK  status: ('A' for Active; 'I' for Inactive)
REMARK    5  A    between atoms: CA   and  CB  
REMARK    6  A    between atoms: CB   and  CG  
REMARK    7  A    between atoms: CG   and  CD  
REMARK    8  A    between atoms: CD   and  CE  
ROOT
ATOM      7  CA  LYS A 135      33.193  34.663   9.290  1.00 25.02     0.186 C 
ENDROOT
BRANCH   7   8
ATOM      8  CB  LYS A 135      32.060  35.360  10.034  1.00 26.63     0.034 C 
BRANCH   8   9
ATOM      9  CG  LYS A 135      30.844  35.612   9.180  1.00 29.45     0.005 C 
BRANCH   9  10
ATOM     10  CD  LYS A 135      30.219  34.299   8.735  1.00 32.00     0.041 C 
BRANCH  10  11
ATOM     11  CE  LYS A 135      28.737  34.478   8.469  1.00 34.25     0.338 C 
ATOM     12  NZ  LYS A 135      27.920  33.686   9.430  1.00 35.99     0.618 N 
ENDBRANCH  10  11
ENDBRANCH   9  10
ENDBRANCH   8   9
ENDBRANCH   7   8
END_RES LYS A 135
