REMARK VINA RESULT:    -5.844      1.705      1.912
REMARK INTER + INTRA:         -14.510
REMARK INTER:                  -8.898
REMARK INTRA:                  -5.613
REMARK UNBOUND:                -4.396
REMARK SMILES CC(=O)N[C@@H]1[C@@H](O)C[C@](O)(C(=O)O)O[C@H]1C(O)[C@H](O)CNC(=O)OCc1cn(-c2ccccc2Br)nn1
REMARK SMILES IDX 20 1 18 2 16 3 15 4 9 5 8 6 14 7 6 8 5 9 10 10 11 12 12 13
REMARK SMILES IDX 13 14 7 16 4 18 2 19 1 21 3 22 17 23 19 25 21 27 22 28 23 30
REMARK SMILES IDX 24 31 25 32 26 33 27 34 37 35 28 36 36 37 29 38 30 39 34 40
REMARK SMILES IDX 31 41 33 42 35 43 32 44
REMARK H PARENT 10 11 13 15 7 17 4 20 17 24 19 26 21 29
REMARK Flexibility Score: inf
ROOT
ATOM      1  C   UNL     1      25.837  28.557  20.664  1.00  0.00     0.154 C 
ENDROOT
BRANCH   1   2
ATOM      2  C   UNL     1      26.894  27.566  21.076  1.00  0.00     0.165 C 
BRANCH   2   3
ATOM      3  C   UNL     1      28.210  28.045  20.545  1.00  0.00     0.176 C 
BRANCH   3   4
ATOM      4  C   UNL     1      29.359  28.022  21.525  1.00  0.00     0.178 C 
ATOM      5  C   UNL     1      30.952  29.615  20.877  1.00  0.00     0.269 C 
ATOM      6  C   UNL     1      32.066  28.823  21.561  1.00  0.00     0.112 C 
ATOM      7  O   UNL     1      29.825  29.330  21.571  1.00  0.00    -0.332 OA
ATOM      8  C   UNL     1      31.801  27.385  21.219  1.00  0.00     0.145 C 
ATOM      9  C   UNL     1      30.358  26.967  21.326  1.00  0.00     0.142 C 
BRANCH   5  10
ATOM     10  O   UNL     1      30.976  29.272  19.549  1.00  0.00    -0.357 OA
ATOM     11  H   UNL     1      31.571  28.488  19.451  1.00  0.00     0.214 HD
ENDBRANCH   5  10
BRANCH   5  12
ATOM     12  C   UNL     1      31.252  31.069  20.993  1.00  0.00     0.364 C 
ATOM     13  O   UNL     1      32.342  31.428  21.503  1.00  0.00    -0.246 OA
BRANCH  12  14
ATOM     14  O   UNL     1      30.354  32.035  20.551  1.00  0.00    -0.477 OA
ATOM     15  H   UNL     1      30.643  32.951  20.217  1.00  0.00     0.296 HD
ENDBRANCH  12  14
ENDBRANCH   5  12
BRANCH   8  16
ATOM     16  O   UNL     1      32.244  27.203  19.908  1.00  0.00    -0.391 OA
ATOM     17  H   UNL     1      31.565  27.462  19.260  1.00  0.00     0.211 HD
ENDBRANCH   8  16
BRANCH   9  18
ATOM     18  N   UNL     1      30.241  26.003  22.440  1.00  0.00    -0.348 N 
ATOM     19  C   UNL     1      30.205  26.433  23.785  1.00  0.00     0.217 C 
ATOM     20  H   UNL     1      30.180  24.963  22.241  1.00  0.00     0.163 HD
ATOM     21  C   UNL     1      30.095  25.458  24.923  1.00  0.00     0.114 C 
ATOM     22  O   UNL     1      30.269  27.667  24.014  1.00  0.00    -0.275 OA
ENDBRANCH   9  18
ENDBRANCH   3   4
BRANCH   3  23
ATOM     23  O   UNL     1      28.474  27.485  19.322  1.00  0.00    -0.388 OA
ATOM     24  H   UNL     1      28.174  28.064  18.557  1.00  0.00     0.211 HD
ENDBRANCH   3  23
ENDBRANCH   2   3
BRANCH   2  25
ATOM     25  O   UNL     1      26.592  26.320  20.588  1.00  0.00    -0.388 OA
ATOM     26  H   UNL     1      25.622  26.103  20.657  1.00  0.00     0.211 HD
ENDBRANCH   2  25
ENDBRANCH   1   2
BRANCH   1  27
ATOM     27  N   UNL     1      26.042  29.239  19.431  1.00  0.00    -0.319 N 
ATOM     28  C   UNL     1      25.669  28.729  18.168  1.00  0.00     0.407 C 
ATOM     29  H   UNL     1      26.507  30.206  19.421  1.00  0.00     0.167 HD
ATOM     30  O   UNL     1      25.128  27.610  18.007  1.00  0.00    -0.225 OA
BRANCH  28  31
ATOM     31  O   UNL     1      25.916  29.513  17.031  1.00  0.00    -0.443 OA
BRANCH  31  32
ATOM     32  C   UNL     1      27.116  29.278  16.330  1.00  0.00     0.294 C 
BRANCH  32  33
ATOM     33  C   UNL     1      28.120  30.266  16.797  1.00  0.00     0.121 A 
ATOM     34  C   UNL     1      28.700  31.250  15.986  1.00  0.00     0.144 A 
ATOM     35  N   UNL     1      28.686  30.461  17.994  1.00  0.00    -0.131 NA
ATOM     36  N   UNL     1      29.571  31.980  16.704  1.00  0.00    -0.219 N 
ATOM     37  N   UNL     1      29.542  31.475  17.926  1.00  0.00    -0.062 NA
BRANCH  36  38
ATOM     38  C   UNL     1      30.355  33.072  16.224  1.00  0.00     0.081 A 
ATOM     39  C   UNL     1      31.572  32.875  15.610  1.00  0.00     0.029 A 
ATOM     40  C   UNL     1      29.919  34.373  16.358  1.00  0.00     0.043 A 
ATOM     41  C   UNL     1      32.326  33.955  15.146  1.00  0.00     0.002 A 
ATOM     42  C   UNL     1      30.665  35.448  15.899  1.00  0.00     0.018 A 
ATOM     43  Br  UNL     1      28.225  34.658  17.213  1.00  0.00    -0.048 Br
ATOM     44  C   UNL     1      31.883  35.254  15.283  1.00  0.00     0.001 A 
ENDBRANCH  36  38
ENDBRANCH  32  33
ENDBRANCH  31  32
ENDBRANCH  28  31
ENDBRANCH   1  27
TORSDOF 15
BEGIN_RES LYS A 131
REMARK  4 active torsions:
REMARK  status: ('A' for Active; 'I' for Inactive)
REMARK    1  A    between atoms: CA   and  CB  
REMARK    2  A    between atoms: CB   and  CG  
REMARK    3  A    between atoms: CG   and  CD  
REMARK    4  A    between atoms: CD   and  CE  
ROOT
ATOM      1  CA  LYS A 131      29.867  25.555  16.977  1.00 20.52     0.186 C 
ENDROOT
BRANCH   1   2
ATOM      2  CB  LYS A 131      28.345  25.722  17.026  1.00 20.94     0.034 C 
BRANCH   2   3
ATOM      3  CG  LYS A 131      27.599  24.431  16.724  1.00 22.96     0.005 C 
BRANCH   3   4
ATOM      4  CD  LYS A 131      26.973  23.837  17.955  1.00 24.33     0.041 C 
BRANCH   4   5
ATOM      5  CE  LYS A 131      25.579  23.320  17.619  1.00 26.91     0.338 C 
ATOM      6  NZ  LYS A 131      24.810  24.346  16.875  1.00 27.40     0.618 N 
ENDBRANCH   4   5
ENDBRANCH   3   4
ENDBRANCH   2   3
ENDBRANCH   1   2
END_RES LYS A 131
BEGIN_RES LYS A 135
REMARK  4 active torsions:
REMARK  status: ('A' for Active; 'I' for Inactive)
REMARK    5  A    between atoms: CA   and  CB  
REMARK    6  A    between atoms: CB   and  CG  
REMARK    7  A    between atoms: CG   and  CD  
REMARK    8  A    between atoms: CD   and  CE  
ROOT
ATOM      7  CA  LYS A 135      33.193  34.663   9.290  1.00 25.02     0.186 C 
ENDROOT
BRANCH   7   8
ATOM      8  CB  LYS A 135      32.060  35.360  10.034  1.00 26.63     0.034 C 
BRANCH   8   9
ATOM      9  CG  LYS A 135      30.926  35.789   9.139  1.00 29.45     0.005 C 
BRANCH   9  10
ATOM     10  CD  LYS A 135      30.359  34.598   8.382  1.00 32.00     0.041 C 
BRANCH  10  11
ATOM     11  CE  LYS A 135      28.909  34.843   8.011  1.00 34.25     0.338 C 
ATOM     12  NZ  LYS A 135      28.793  35.385   6.629  1.00 35.99     0.618 N 
ENDBRANCH  10  11
ENDBRANCH   9  10
ENDBRANCH   8   9
ENDBRANCH   7   8
END_RES LYS A 135
