REMARK VINA RESULT:    -5.105      3.634      7.323
REMARK INTER + INTRA:         -16.150
REMARK INTER:                  -9.858
REMARK INTRA:                  -6.293
REMARK UNBOUND:                -6.121
REMARK SMILES CC(=O)N[C@@H]1[C@@H](O)C[C@](O)(C(=O)O)O[C@H]1C(O)[C@H](O)CNC(=O)OCc1cn(C[C@@H](C)CN2CCN(c3ccc(Cl)cc3)CC2)nn1
REMARK SMILES IDX 24 1 22 2 21 3 23 5 20 6 18 7 16 8 15 9 9 10 8 11 14 12 6 13
REMARK SMILES IDX 5 14 10 15 11 17 12 18 13 19 7 21 4 23 2 24 1 26 3 27 17 28
REMARK SMILES IDX 19 30 25 32 26 33 27 34 47 35 28 36 46 37 29 38 30 39 31 40
REMARK SMILES IDX 32 41 33 42 34 43 45 44 35 45 44 46 36 47 37 48 38 49 43 50
REMARK SMILES IDX 39 51 42 52 40 53 41 54
REMARK H PARENT 21 4 10 16 13 20 7 22 4 25 17 29 19 31
REMARK Flexibility Score: inf
ROOT
ATOM      1  O   UNL     1      25.753  37.476  10.366  1.00  0.00    -0.443 OA
ENDROOT
BRANCH   1   2
ATOM      2  C   UNL     1      24.898  36.769   9.535  1.00  0.00     0.407 C 
ATOM      3  N   UNL     1      23.581  36.372   9.897  1.00  0.00    -0.319 N 
ATOM      4  H   UNL     1      23.265  36.630  10.852  1.00  0.00     0.167 HD
ATOM      5  O   UNL     1      25.351  36.482   8.394  1.00  0.00    -0.225 OA
BRANCH   3   6
ATOM      6  C   UNL     1      22.826  35.661   8.918  1.00  0.00     0.154 C 
BRANCH   6   7
ATOM      7  C   UNL     1      21.633  36.341   8.376  1.00  0.00     0.165 C 
BRANCH   7   8
ATOM      8  C   UNL     1      20.339  35.550   8.443  1.00  0.00     0.176 C 
BRANCH   8   9
ATOM      9  C   UNL     1      19.280  36.597   8.797  1.00  0.00     0.178 C 
ATOM     10  C   UNL     1      18.762  38.802   8.237  1.00  0.00     0.269 C 
ATOM     11  C   UNL     1      18.397  39.078   9.668  1.00  0.00     0.112 C 
ATOM     12  O   UNL     1      19.574  37.714   8.065  1.00  0.00    -0.332 OA
ATOM     13  C   UNL     1      18.144  37.868  10.493  1.00  0.00     0.145 C 
ATOM     14  C   UNL     1      19.324  36.900  10.258  1.00  0.00     0.142 C 
BRANCH  10  15
ATOM     15  O   UNL     1      19.519  39.932   7.833  1.00  0.00    -0.357 OA
ATOM     16  H   UNL     1      18.942  40.641   7.494  1.00  0.00     0.214 HD
ENDBRANCH  10  15
BRANCH  10  17
ATOM     17  C   UNL     1      17.575  38.764   7.332  1.00  0.00     0.364 C 
ATOM     18  O   UNL     1      16.447  39.126   7.752  1.00  0.00    -0.246 OA
BRANCH  17  19
ATOM     19  O   UNL     1      17.646  38.341   6.013  1.00  0.00    -0.477 OA
ATOM     20  H   UNL     1      17.556  38.952   5.210  1.00  0.00     0.296 HD
ENDBRANCH  17  19
ENDBRANCH  10  17
BRANCH  13  21
ATOM     21  O   UNL     1      18.148  38.235  11.839  1.00  0.00    -0.391 OA
ATOM     22  H   UNL     1      18.982  38.722  12.069  1.00  0.00     0.211 HD
ENDBRANCH  13  21
BRANCH  14  23
ATOM     23  N   UNL     1      19.174  35.732  11.086  1.00  0.00    -0.348 N 
ATOM     24  C   UNL     1      20.198  35.320  11.967  1.00  0.00     0.217 C 
ATOM     25  H   UNL     1      18.298  35.187  11.032  1.00  0.00     0.163 HD
ATOM     26  C   UNL     1      19.938  34.095  12.779  1.00  0.00     0.114 C 
ATOM     27  O   UNL     1      21.282  35.928  12.092  1.00  0.00    -0.275 OA
ENDBRANCH  14  23
ENDBRANCH   8   9
BRANCH   8  28
ATOM     28  O   UNL     1      20.087  34.995   7.178  1.00  0.00    -0.388 OA
ATOM     29  H   UNL     1      19.708  35.729   6.629  1.00  0.00     0.211 HD
ENDBRANCH   8  28
ENDBRANCH   7   8
BRANCH   7  30
ATOM     30  O   UNL     1      21.856  36.496   6.979  1.00  0.00    -0.388 OA
ATOM     31  H   UNL     1      22.699  37.029   6.928  1.00  0.00     0.211 HD
ENDBRANCH   7  30
ENDBRANCH   6   7
ENDBRANCH   3   6
ENDBRANCH   1   2
BRANCH   1  32
ATOM     32  C   UNL     1      25.818  37.191  11.754  1.00  0.00     0.294 C 
BRANCH  32  33
ATOM     33  C   UNL     1      26.888  36.206  12.030  1.00  0.00     0.120 A 
ATOM     34  C   UNL     1      27.836  36.350  13.047  1.00  0.00     0.138 A 
ATOM     35  N   UNL     1      27.198  35.035  11.458  1.00  0.00    -0.132 NA
ATOM     36  N   UNL     1      28.665  35.298  13.063  1.00  0.00    -0.252 N 
ATOM     37  N   UNL     1      28.244  34.497  12.059  1.00  0.00    -0.067 NA
BRANCH  36  38
ATOM     38  C   UNL     1      29.777  35.008  13.950  1.00  0.00     0.150 C 
BRANCH  38  39
ATOM     39  C   UNL     1      29.571  33.625  14.582  1.00  0.00     0.022 C 
ATOM     40  C   UNL     1      30.855  32.999  14.980  1.00  0.00     0.011 C 
BRANCH  39  41
ATOM     41  C   UNL     1      28.439  33.615  15.521  1.00  0.00     0.089 C 
BRANCH  41  42
ATOM     42  N   UNL     1      27.291  32.915  15.035  1.00  0.00    -0.299 NA
ATOM     43  C   UNL     1      26.935  31.819  15.976  1.00  0.00     0.106 C 
ATOM     44  C   UNL     1      26.123  33.789  15.081  1.00  0.00     0.106 C 
ATOM     45  C   UNL     1      25.654  31.167  15.595  1.00  0.00     0.132 C 
ATOM     46  C   UNL     1      25.127  33.137  14.110  1.00  0.00     0.132 C 
ATOM     47  N   UNL     1      24.917  31.783  14.536  1.00  0.00    -0.369 N 
BRANCH  47  48
ATOM     48  C   UNL     1      23.915  31.031  13.863  1.00  0.00     0.037 A 
ATOM     49  C   UNL     1      24.004  29.656  13.838  1.00  0.00     0.027 A 
ATOM     50  C   UNL     1      22.856  31.661  13.224  1.00  0.00     0.027 A 
ATOM     51  C   UNL     1      23.037  28.934  13.178  1.00  0.00     0.022 A 
ATOM     52  C   UNL     1      21.899  30.931  12.569  1.00  0.00     0.022 A 
ATOM     53  C   UNL     1      21.996  29.549  12.550  1.00  0.00     0.041 A 
ATOM     54  Cl  UNL     1      20.774  28.635  11.706  1.00  0.00    -0.084 Cl
ENDBRANCH  47  48
ENDBRANCH  41  42
ENDBRANCH  39  41
ENDBRANCH  38  39
ENDBRANCH  36  38
ENDBRANCH  32  33
ENDBRANCH   1  32
TORSDOF 19
BEGIN_RES LYS A 131
REMARK  4 active torsions:
REMARK  status: ('A' for Active; 'I' for Inactive)
REMARK    1  A    between atoms: CA   and  CB  
REMARK    2  A    between atoms: CB   and  CG  
REMARK    3  A    between atoms: CG   and  CD  
REMARK    4  A    between atoms: CD   and  CE  
ROOT
ATOM      1  CA  LYS A 131      29.867  25.555  16.977  1.00 20.52     0.186 C 
ENDROOT
BRANCH   1   2
ATOM      2  CB  LYS A 131      28.345  25.722  17.026  1.00 20.94     0.034 C 
BRANCH   2   3
ATOM      3  CG  LYS A 131      27.602  24.398  16.931  1.00 22.96     0.005 C 
BRANCH   3   4
ATOM      4  CD  LYS A 131      26.155  24.532  17.318  1.00 24.33     0.041 C 
BRANCH   4   5
ATOM      5  CE  LYS A 131      25.682  23.237  17.973  1.00 26.91     0.338 C 
ATOM      6  NZ  LYS A 131      24.469  22.726  17.293  1.00 27.40     0.618 N 
ENDBRANCH   4   5
ENDBRANCH   3   4
ENDBRANCH   2   3
ENDBRANCH   1   2
END_RES LYS A 131
BEGIN_RES LYS A 135
REMARK  4 active torsions:
REMARK  status: ('A' for Active; 'I' for Inactive)
REMARK    5  A    between atoms: CA   and  CB  
REMARK    6  A    between atoms: CB   and  CG  
REMARK    7  A    between atoms: CG   and  CD  
REMARK    8  A    between atoms: CD   and  CE  
ROOT
ATOM      7  CA  LYS A 135      33.193  34.663   9.290  1.00 25.02     0.186 C 
ENDROOT
BRANCH   7   8
ATOM      8  CB  LYS A 135      32.060  35.360  10.034  1.00 26.63     0.034 C 
BRANCH   8   9
ATOM      9  CG  LYS A 135      30.724  34.684   9.866  1.00 29.45     0.005 C 
BRANCH   9  10
ATOM     10  CD  LYS A 135      30.424  34.445   8.395  1.00 32.00     0.041 C 
BRANCH  10  11
ATOM     11  CE  LYS A 135      28.979  34.783   8.084  1.00 34.25     0.338 C 
ATOM     12  NZ  LYS A 135      28.867  35.537   6.804  1.00 35.99     0.618 N 
ENDBRANCH  10  11
ENDBRANCH   9  10
ENDBRANCH   8   9
ENDBRANCH   7   8
END_RES LYS A 135
