REMARK VINA RESULT:    -4.097      3.128      4.823
REMARK INTER + INTRA:         -14.550
REMARK INTER:                  -8.519
REMARK INTRA:                  -6.031
REMARK UNBOUND:                -6.980
REMARK SMILES CC(=O)N[C@@H]1[C@@H](O)C[C@](O)(C(=O)O)O[C@H]1C(O)[C@H](O)CNC(=O)OCc1cn(Cc2ccc(C#N)cc2)nn1
REMARK SMILES IDX 21 1 22 2 23 3 20 5 18 6 16 7 15 8 9 9 8 10 14 11 6 12 5 13
REMARK SMILES IDX 10 14 11 16 12 17 13 18 7 20 4 22 2 23 1 25 3 26 17 27 19 29
REMARK SMILES IDX 24 31 25 32 26 33 27 34 39 35 28 36 38 37 29 38 30 39 31 40
REMARK SMILES IDX 37 41 32 42 36 43 33 44 34 45 35 46
REMARK H PARENT 21 4 10 15 13 19 7 21 4 24 17 28 19 30
REMARK Flexibility Score: inf
ROOT
ATOM      1  N   UNL     1      23.872  32.086  15.715  1.00  0.00    -0.319 N 
ATOM      2  C   UNL     1      23.576  32.311  14.339  1.00  0.00     0.407 C 
ATOM      3  O   UNL     1      23.818  31.382  13.492  1.00  0.00    -0.225 OA
ATOM      4  H   UNL     1      23.663  32.852  16.382  1.00  0.00     0.167 HD
ENDROOT
BRANCH   1   5
ATOM      5  C   UNL     1      24.430  30.847  16.118  1.00  0.00     0.154 C 
BRANCH   5   6
ATOM      6  C   UNL     1      25.919  30.831  16.367  1.00  0.00     0.165 C 
BRANCH   6   7
ATOM      7  C   UNL     1      26.387  31.959  17.263  1.00  0.00     0.176 C 
BRANCH   7   8
ATOM      8  C   UNL     1      27.814  31.820  17.673  1.00  0.00     0.178 C 
ATOM      9  C   UNL     1      29.953  31.607  16.780  1.00  0.00     0.269 C 
ATOM     10  C   UNL     1      30.350  31.669  18.237  1.00  0.00     0.112 C 
ATOM     11  O   UNL     1      28.650  31.939  16.556  1.00  0.00    -0.332 OA
ATOM     12  C   UNL     1      29.496  30.823  19.114  1.00  0.00     0.145 C 
ATOM     13  C   UNL     1      28.185  30.544  18.358  1.00  0.00     0.142 C 
BRANCH   9  14
ATOM     14  O   UNL     1      30.272  30.322  16.289  1.00  0.00    -0.357 OA
ATOM     15  H   UNL     1      29.459  29.748  16.408  1.00  0.00     0.214 HD
ENDBRANCH   9  14
BRANCH   9  16
ATOM     16  C   UNL     1      30.811  32.573  16.062  1.00  0.00     0.364 C 
ATOM     17  O   UNL     1      30.840  33.767  16.436  1.00  0.00    -0.246 OA
BRANCH  16  18
ATOM     18  O   UNL     1      31.575  32.168  14.993  1.00  0.00    -0.477 OA
ATOM     19  H   UNL     1      32.493  31.767  15.056  1.00  0.00     0.296 HD
ENDBRANCH  16  18
ENDBRANCH   9  16
BRANCH  12  20
ATOM     20  O   UNL     1      30.091  29.647  19.524  1.00  0.00    -0.391 OA
ATOM     21  H   UNL     1      31.081  29.822  19.573  1.00  0.00     0.211 HD
ENDBRANCH  12  20
BRANCH  13  22
ATOM     22  N   UNL     1      27.205  29.991  19.240  1.00  0.00    -0.348 N 
ATOM     23  C   UNL     1      26.975  28.574  19.305  1.00  0.00     0.217 C 
ATOM     24  H   UNL     1      26.617  30.592  19.885  1.00  0.00     0.163 HD
ATOM     25  C   UNL     1      25.949  28.008  20.230  1.00  0.00     0.114 C 
ATOM     26  O   UNL     1      27.631  27.782  18.585  1.00  0.00    -0.275 OA
ENDBRANCH  13  22
ENDBRANCH   7   8
BRANCH   7  27
ATOM     27  O   UNL     1      25.503  32.169  18.271  1.00  0.00    -0.388 OA
ATOM     28  H   UNL     1      25.317  33.081  18.500  1.00  0.00     0.211 HD
ENDBRANCH   7  27
ENDBRANCH   6   7
BRANCH   6  29
ATOM     29  O   UNL     1      26.486  31.001  15.077  1.00  0.00    -0.388 OA
ATOM     30  H   UNL     1      25.823  31.287  14.422  1.00  0.00     0.211 HD
ENDBRANCH   6  29
ENDBRANCH   5   6
ENDBRANCH   1   5
BRANCH   2  31
ATOM     31  O   UNL     1      23.034  33.478  13.833  1.00  0.00    -0.443 OA
BRANCH  31  32
ATOM     32  C   UNL     1      23.441  33.920  12.557  1.00  0.00     0.294 C 
BRANCH  32  33
ATOM     33  C   UNL     1      24.587  34.856  12.632  1.00  0.00     0.120 A 
ATOM     34  C   UNL     1      25.541  35.121  11.662  1.00  0.00     0.138 A 
ATOM     35  N   UNL     1      24.899  35.627  13.681  1.00  0.00    -0.132 NA
ATOM     36  N   UNL     1      26.388  36.033  12.148  1.00  0.00    -0.248 N 
ATOM     37  N   UNL     1      25.975  36.316  13.365  1.00  0.00    -0.067 NA
BRANCH  36  38
ATOM     38  C   UNL     1      27.534  36.612  11.482  1.00  0.00     0.181 C 
BRANCH  38  39
ATOM     39  C   UNL     1      28.818  36.242  12.077  1.00  0.00    -0.026 A 
ATOM     40  C   UNL     1      29.102  34.925  12.334  1.00  0.00     0.007 A 
ATOM     41  C   UNL     1      29.747  37.224  12.384  1.00  0.00     0.007 A 
ATOM     42  C   UNL     1      30.308  34.560  12.901  1.00  0.00     0.020 A 
ATOM     43  C   UNL     1      30.967  36.884  12.953  1.00  0.00     0.020 A 
ATOM     44  C   UNL     1      31.232  35.537  13.207  1.00  0.00     0.052 A 
BRANCH  44  45
ATOM     45  C   UNL     1      32.486  35.170  13.796  1.00  0.00     0.099 C 
ATOM     46  N   UNL     1      33.508  34.854  14.274  1.00  0.00    -0.192 NA
ENDBRANCH  44  45
ENDBRANCH  38  39
ENDBRANCH  36  38
ENDBRANCH  32  33
ENDBRANCH  31  32
ENDBRANCH   2  31
TORSDOF 17
BEGIN_RES LYS A 131
REMARK  4 active torsions:
REMARK  status: ('A' for Active; 'I' for Inactive)
REMARK    1  A    between atoms: CA   and  CB  
REMARK    2  A    between atoms: CB   and  CG  
REMARK    3  A    between atoms: CG   and  CD  
REMARK    4  A    between atoms: CD   and  CE  
ROOT
ATOM      1  CA  LYS A 131      29.867  25.555  16.977  1.00 20.52     0.186 C 
ENDROOT
BRANCH   1   2
ATOM      2  CB  LYS A 131      28.345  25.722  17.026  1.00 20.94     0.034 C 
BRANCH   2   3
ATOM      3  CG  LYS A 131      27.599  24.457  16.632  1.00 22.96     0.005 C 
BRANCH   3   4
ATOM      4  CD  LYS A 131      27.057  23.723  17.827  1.00 24.33     0.041 C 
BRANCH   4   5
ATOM      5  CE  LYS A 131      26.173  24.661  18.643  1.00 26.91     0.338 C 
ATOM      6  NZ  LYS A 131      24.827  24.766  18.032  1.00 27.40     0.618 N 
ENDBRANCH   4   5
ENDBRANCH   3   4
ENDBRANCH   2   3
ENDBRANCH   1   2
END_RES LYS A 131
BEGIN_RES LYS A 135
REMARK  4 active torsions:
REMARK  status: ('A' for Active; 'I' for Inactive)
REMARK    5  A    between atoms: CA   and  CB  
REMARK    6  A    between atoms: CB   and  CG  
REMARK    7  A    between atoms: CG   and  CD  
REMARK    8  A    between atoms: CD   and  CE  
ROOT
ATOM      7  CA  LYS A 135      33.193  34.663   9.290  1.00 25.02     0.186 C 
ENDROOT
BRANCH   7   8
ATOM      8  CB  LYS A 135      32.060  35.360  10.034  1.00 26.63     0.034 C 
BRANCH   8   9
ATOM      9  CG  LYS A 135      30.863  35.656   9.168  1.00 29.45     0.005 C 
BRANCH   9  10
ATOM     10  CD  LYS A 135      30.269  34.369   8.616  1.00 32.00     0.041 C 
BRANCH  10  11
ATOM     11  CE  LYS A 135      28.780  34.530   8.374  1.00 34.25     0.338 C 
ATOM     12  NZ  LYS A 135      27.988  33.740   9.357  1.00 35.99     0.618 N 
ENDBRANCH  10  11
ENDBRANCH   9  10
ENDBRANCH   8   9
ENDBRANCH   7   8
END_RES LYS A 135
