REMARK VINA RESULT:    -4.905      3.259      6.710
REMARK INTER + INTRA:         -13.515
REMARK INTER:                  -9.025
REMARK INTRA:                  -4.490
REMARK UNBOUND:                -5.026
REMARK SMILES CC(=O)N[C@@H]1[C@@H](O)C[C@](O)(C(=O)O)O[C@H]1C(O)[C@H](O)CNC(=O)OCc1cn(C2CCCC2)nn1
REMARK SMILES IDX 20 1 18 2 16 3 15 4 9 5 8 6 14 7 6 8 5 9 10 10 11 12 12 13
REMARK SMILES IDX 13 14 7 16 4 18 2 19 1 21 3 22 17 23 19 25 21 27 22 28 23 30
REMARK SMILES IDX 24 31 25 32 26 33 27 34 35 35 28 36 34 37 29 38 30 39 33 40
REMARK SMILES IDX 31 41 32 42
REMARK H PARENT 10 11 13 15 7 17 4 20 17 24 19 26 21 29
REMARK Flexibility Score: inf
ROOT
ATOM      1  C   UNL     1      26.024  35.610  15.684  1.00  0.00     0.154 C 
ENDROOT
BRANCH   1   2
ATOM      2  C   UNL     1      26.745  34.291  15.655  1.00  0.00     0.165 C 
BRANCH   2   3
ATOM      3  C   UNL     1      28.169  34.591  15.230  1.00  0.00     0.176 C 
BRANCH   3   4
ATOM      4  C   UNL     1      29.108  33.469  15.538  1.00  0.00     0.178 C 
ATOM      5  C   UNL     1      29.192  31.458  16.687  1.00  0.00     0.269 C 
ATOM      6  C   UNL     1      30.617  31.513  16.157  1.00  0.00     0.112 C 
ATOM      7  O   UNL     1      28.649  32.742  16.611  1.00  0.00    -0.332 OA
ATOM      8  C   UNL     1      31.202  32.838  16.601  1.00  0.00     0.145 C 
ATOM      9  C   UNL     1      30.528  33.911  15.755  1.00  0.00     0.142 C 
BRANCH   5  10
ATOM     10  O   UNL     1      29.277  31.033  18.008  1.00  0.00    -0.357 OA
ATOM     11  H   UNL     1      30.255  30.908  18.212  1.00  0.00     0.214 HD
ENDBRANCH   5  10
BRANCH   5  12
ATOM     12  C   UNL     1      28.360  30.512  15.935  1.00  0.00     0.364 C 
ATOM     13  O   UNL     1      27.124  30.691  15.796  1.00  0.00    -0.246 OA
BRANCH  12  14
ATOM     14  O   UNL     1      28.917  29.385  15.353  1.00  0.00    -0.477 OA
ATOM     15  H   UNL     1      28.344  28.604  15.008  1.00  0.00     0.296 HD
ENDBRANCH  12  14
ENDBRANCH   5  12
BRANCH   8  16
ATOM     16  O   UNL     1      30.840  33.010  17.948  1.00  0.00    -0.391 OA
ATOM     17  H   UNL     1      31.292  33.835  18.265  1.00  0.00     0.211 HD
ENDBRANCH   8  16
BRANCH   9  18
ATOM     18  N   UNL     1      31.257  34.045  14.510  1.00  0.00    -0.348 N 
ATOM     19  C   UNL     1      31.896  35.258  14.169  1.00  0.00     0.217 C 
ATOM     20  H   UNL     1      31.317  33.245  13.855  1.00  0.00     0.163 HD
ATOM     21  C   UNL     1      32.658  35.463  12.913  1.00  0.00     0.114 C 
ATOM     22  O   UNL     1      31.814  36.214  14.973  1.00  0.00    -0.275 OA
ENDBRANCH   9  18
ENDBRANCH   3   4
BRANCH   3  23
ATOM     23  O   UNL     1      28.140  34.757  13.844  1.00  0.00    -0.388 OA
ATOM     24  H   UNL     1      28.692  35.499  13.525  1.00  0.00     0.211 HD
ENDBRANCH   3  23
ENDBRANCH   2   3
BRANCH   2  25
ATOM     25  O   UNL     1      26.170  33.406  14.773  1.00  0.00    -0.388 OA
ATOM     26  H   UNL     1      26.632  32.528  14.841  1.00  0.00     0.211 HD
ENDBRANCH   2  25
ENDBRANCH   1   2
BRANCH   1  27
ATOM     27  N   UNL     1      25.861  36.259  14.422  1.00  0.00    -0.319 N 
ATOM     28  C   UNL     1      24.786  36.096  13.541  1.00  0.00     0.407 C 
ATOM     29  H   UNL     1      26.641  36.932  14.135  1.00  0.00     0.167 HD
ATOM     30  O   UNL     1      23.851  35.314  13.827  1.00  0.00    -0.225 OA
BRANCH  28  31
ATOM     31  O   UNL     1      24.746  36.809  12.328  1.00  0.00    -0.443 OA
BRANCH  31  32
ATOM     32  C   UNL     1      25.671  37.869  12.168  1.00  0.00     0.294 C 
BRANCH  32  33
ATOM     33  C   UNL     1      26.101  37.900  10.753  1.00  0.00     0.120 A 
ATOM     34  C   UNL     1      25.907  36.849   9.867  1.00  0.00     0.138 A 
ATOM     35  N   UNL     1      26.718  38.850  10.062  1.00  0.00    -0.132 NA
ATOM     36  N   UNL     1      26.413  37.214   8.689  1.00  0.00    -0.249 N 
ATOM     37  N   UNL     1      26.903  38.431   8.821  1.00  0.00    -0.067 NA
BRANCH  36  38
ATOM     38  C   UNL     1      26.395  36.365   7.503  1.00  0.00     0.109 C 
ATOM     39  C   UNL     1      27.176  37.068   6.429  1.00  0.00     0.027 C 
ATOM     40  C   UNL     1      27.124  35.077   7.813  1.00  0.00     0.027 C 
ATOM     41  C   UNL     1      28.257  36.129   5.998  1.00  0.00     0.002 C 
ATOM     42  C   UNL     1      28.504  35.277   7.212  1.00  0.00     0.002 C 
ENDBRANCH  36  38
ENDBRANCH  32  33
ENDBRANCH  31  32
ENDBRANCH  28  31
ENDBRANCH   1  27
TORSDOF 15
BEGIN_RES LYS A 131
REMARK  4 active torsions:
REMARK  status: ('A' for Active; 'I' for Inactive)
REMARK    1  A    between atoms: CA   and  CB  
REMARK    2  A    between atoms: CB   and  CG  
REMARK    3  A    between atoms: CG   and  CD  
REMARK    4  A    between atoms: CD   and  CE  
ROOT
ATOM      1  CA  LYS A 131      29.867  25.555  16.977  1.00 20.52     0.186 C 
ENDROOT
BRANCH   1   2
ATOM      2  CB  LYS A 131      28.345  25.722  17.026  1.00 20.94     0.034 C 
BRANCH   2   3
ATOM      3  CG  LYS A 131      27.601  24.403  16.885  1.00 22.96     0.005 C 
BRANCH   3   4
ATOM      4  CD  LYS A 131      26.659  24.158  18.031  1.00 24.33     0.041 C 
BRANCH   4   5
ATOM      5  CE  LYS A 131      25.357  23.565  17.503  1.00 26.91     0.338 C 
ATOM      6  NZ  LYS A 131      24.530  24.615  16.863  1.00 27.40     0.618 N 
ENDBRANCH   4   5
ENDBRANCH   3   4
ENDBRANCH   2   3
ENDBRANCH   1   2
END_RES LYS A 131
BEGIN_RES LYS A 135
REMARK  4 active torsions:
REMARK  status: ('A' for Active; 'I' for Inactive)
REMARK    5  A    between atoms: CA   and  CB  
REMARK    6  A    between atoms: CB   and  CG  
REMARK    7  A    between atoms: CG   and  CD  
REMARK    8  A    between atoms: CD   and  CE  
ROOT
ATOM      7  CA  LYS A 135      33.193  34.663   9.290  1.00 25.02     0.186 C 
ENDROOT
BRANCH   7   8
ATOM      8  CB  LYS A 135      32.060  35.360  10.034  1.00 26.63     0.034 C 
BRANCH   8   9
ATOM      9  CG  LYS A 135      30.705  34.755   9.771  1.00 29.45     0.005 C 
BRANCH   9  10
ATOM     10  CD  LYS A 135      29.698  35.224  10.810  1.00 32.00     0.041 C 
BRANCH  10  11
ATOM     11  CE  LYS A 135      29.524  36.729  10.743  1.00 34.25     0.338 C 
ATOM     12  NZ  LYS A 135      29.627  37.341  12.097  1.00 35.99     0.618 N 
ENDBRANCH  10  11
ENDBRANCH   9  10
ENDBRANCH   8   9
ENDBRANCH   7   8
END_RES LYS A 135
