REMARK VINA RESULT:    -4.079      2.404      6.739
REMARK INTER + INTRA:         -13.725
REMARK INTER:                  -6.427
REMARK INTRA:                  -7.298
REMARK UNBOUND:                -5.949
REMARK SMILES CCOC(=O)Cn1cc(COC(=O)NC[C@@H](O)C(O)[C@@H]2O[C@@](O)(C(=O)O)C[C@H](O)[C@H]2NC(C)=O)nn1
REMARK SMILES IDX 14 1 12 2 13 3 15 5 16 6 18 7 20 8 22 9 27 10 21 11 28 12
REMARK SMILES IDX 30 13 23 14 24 16 25 17 26 18 29 20 31 22 32 23 33 25 34 26
REMARK SMILES IDX 19 27 17 29 11 31 10 32 9 33 8 34 35 35 7 36 36 37 6 38 4 39
REMARK SMILES IDX 5 40 3 41 2 42 1 43
REMARK H PARENT 14 4 23 15 26 19 29 21 31 24 19 28 17 30
REMARK Flexibility Score: inf
ROOT
ATOM      1  N   UNL     1      32.866  29.106  21.612  1.00  0.00    -0.319 N 
ATOM      2  C   UNL     1      33.692  29.933  22.405  1.00  0.00     0.407 C 
ATOM      3  O   UNL     1      33.916  29.702  23.598  1.00  0.00    -0.225 OA
ATOM      4  H   UNL     1      32.778  29.439  20.595  1.00  0.00     0.167 HD
ENDROOT
BRANCH   1   5
ATOM      5  C   UNL     1      32.179  27.931  22.040  1.00  0.00     0.154 C 
BRANCH   5   6
ATOM      6  C   UNL     1      31.207  27.325  21.087  1.00  0.00     0.165 C 
BRANCH   6   7
ATOM      7  C   UNL     1      30.063  28.206  20.731  1.00  0.00     0.176 C 
BRANCH   7   8
ATOM      8  C   UNL     1      28.705  27.560  20.728  1.00  0.00     0.178 C 
ATOM      9  C   UNL     1      27.208  28.729  19.366  1.00  0.00     0.269 C 
ATOM     10  C   UNL     1      25.965  28.239  20.078  1.00  0.00     0.112 C 
ATOM     11  O   UNL     1      28.177  27.781  19.459  1.00  0.00    -0.332 OA
ATOM     12  C   UNL     1      26.329  27.750  21.430  1.00  0.00     0.145 C 
ATOM     13  C   UNL     1      27.788  28.051  21.813  1.00  0.00     0.142 C 
BRANCH   9  14
ATOM     14  O   UNL     1      27.508  29.971  19.895  1.00  0.00    -0.357 OA
ATOM     15  H   UNL     1      28.450  30.168  19.684  1.00  0.00     0.214 HD
ENDBRANCH   9  14
BRANCH   9  16
ATOM     16  C   UNL     1      26.840  28.884  17.940  1.00  0.00     0.364 C 
ATOM     17  O   UNL     1      26.196  27.969  17.385  1.00  0.00    -0.246 OA
BRANCH  16  18
ATOM     18  O   UNL     1      27.187  30.000  17.222  1.00  0.00    -0.477 OA
ATOM     19  H   UNL     1      27.790  30.728  17.605  1.00  0.00     0.296 HD
ENDBRANCH  16  18
ENDBRANCH   9  16
BRANCH  12  20
ATOM     20  O   UNL     1      25.501  28.229  22.441  1.00  0.00    -0.391 OA
ATOM     21  H   UNL     1      25.204  27.542  23.070  1.00  0.00     0.211 HD
ENDBRANCH  12  20
BRANCH  13  22
ATOM     22  N   UNL     1      27.980  27.322  23.048  1.00  0.00    -0.348 N 
ATOM     23  C   UNL     1      28.661  27.803  24.180  1.00  0.00     0.217 C 
ATOM     24  H   UNL     1      27.578  26.360  23.098  1.00  0.00     0.163 HD
ATOM     25  C   UNL     1      28.846  27.039  25.438  1.00  0.00     0.114 C 
ATOM     26  O   UNL     1      29.145  28.975  24.107  1.00  0.00    -0.275 OA
ENDBRANCH  13  22
ENDBRANCH   7   8
BRANCH   7  27
ATOM     27  O   UNL     1      30.094  29.383  21.440  1.00  0.00    -0.388 OA
ATOM     28  H   UNL     1      29.515  30.098  21.074  1.00  0.00     0.211 HD
ENDBRANCH   7  27
ENDBRANCH   6   7
BRANCH   6  29
ATOM     29  O   UNL     1      30.645  26.190  21.707  1.00  0.00    -0.388 OA
ATOM     30  H   UNL     1      29.935  26.467  22.358  1.00  0.00     0.211 HD
ENDBRANCH   6  29
ENDBRANCH   5   6
ENDBRANCH   1   5
BRANCH   2  31
ATOM     31  O   UNL     1      34.308  31.079  21.852  1.00  0.00    -0.443 OA
BRANCH  31  32
ATOM     32  C   UNL     1      33.846  32.378  22.169  1.00  0.00     0.294 C 
BRANCH  32  33
ATOM     33  C   UNL     1      32.505  32.522  21.542  1.00  0.00     0.120 A 
ATOM     34  C   UNL     1      32.180  33.165  20.371  1.00  0.00     0.139 A 
ATOM     35  N   UNL     1      31.321  32.039  22.010  1.00  0.00    -0.132 NA
ATOM     36  N   UNL     1      30.836  33.040  20.193  1.00  0.00    -0.241 N 
ATOM     37  N   UNL     1      30.345  32.350  21.207  1.00  0.00    -0.066 NA
BRANCH  36  38
ATOM     38  C   UNL     1      30.039  33.553  19.103  1.00  0.00     0.268 C 
BRANCH  38  39
ATOM     39  C   UNL     1      29.533  32.460  18.258  1.00  0.00     0.327 C 
ATOM     40  O   UNL     1      28.300  32.328  18.103  1.00  0.00    -0.250 OA
BRANCH  39  41
ATOM     41  O   UNL     1      30.457  31.604  17.657  1.00  0.00    -0.465 OA
BRANCH  41  42
ATOM     42  C   UNL     1      30.297  31.413  16.248  1.00  0.00     0.229 C 
ATOM     43  C   UNL     1      31.257  32.339  15.546  1.00  0.00     0.049 C 
ENDBRANCH  41  42
ENDBRANCH  39  41
ENDBRANCH  38  39
ENDBRANCH  36  38
ENDBRANCH  32  33
ENDBRANCH  31  32
ENDBRANCH   2  31
TORSDOF 18
BEGIN_RES LYS A 131
REMARK  4 active torsions:
REMARK  status: ('A' for Active; 'I' for Inactive)
REMARK    1  A    between atoms: CA   and  CB  
REMARK    2  A    between atoms: CB   and  CG  
REMARK    3  A    between atoms: CG   and  CD  
REMARK    4  A    between atoms: CD   and  CE  
ROOT
ATOM      1  CA  LYS A 131      29.867  25.555  16.977  1.00 20.52     0.186 C 
ENDROOT
BRANCH   1   2
ATOM      2  CB  LYS A 131      28.345  25.722  17.026  1.00 20.94     0.034 C 
BRANCH   2   3
ATOM      3  CG  LYS A 131      27.601  24.406  16.860  1.00 22.96     0.005 C 
BRANCH   3   4
ATOM      4  CD  LYS A 131      26.165  24.509  17.295  1.00 24.33     0.041 C 
BRANCH   4   5
ATOM      5  CE  LYS A 131      26.103  24.692  18.808  1.00 26.91     0.338 C 
ATOM      6  NZ  LYS A 131      25.580  23.467  19.458  1.00 27.40     0.618 N 
ENDBRANCH   4   5
ENDBRANCH   3   4
ENDBRANCH   2   3
ENDBRANCH   1   2
END_RES LYS A 131
BEGIN_RES LYS A 135
REMARK  4 active torsions:
REMARK  status: ('A' for Active; 'I' for Inactive)
REMARK    5  A    between atoms: CA   and  CB  
REMARK    6  A    between atoms: CB   and  CG  
REMARK    7  A    between atoms: CG   and  CD  
REMARK    8  A    between atoms: CD   and  CE  
ROOT
ATOM      7  CA  LYS A 135      33.193  34.663   9.290  1.00 25.02     0.186 C 
ENDROOT
BRANCH   7   8
ATOM      8  CB  LYS A 135      32.060  35.360  10.034  1.00 26.63     0.034 C 
BRANCH   8   9
ATOM      9  CG  LYS A 135      30.697  34.805   9.712  1.00 29.45     0.005 C 
BRANCH   9  10
ATOM     10  CD  LYS A 135      30.572  34.515   8.225  1.00 32.00     0.041 C 
BRANCH  10  11
ATOM     11  CE  LYS A 135      29.198  34.909   7.719  1.00 34.25     0.338 C 
ATOM     12  NZ  LYS A 135      28.131  34.448   8.650  1.00 35.99     0.618 N 
ENDBRANCH  10  11
ENDBRANCH   9  10
ENDBRANCH   8   9
ENDBRANCH   7   8
END_RES LYS A 135
