REMARK VINA RESULT:    -5.959      2.019      3.701
REMARK INTER + INTRA:         -16.402
REMARK INTER:                 -10.476
REMARK INTRA:                  -5.926
REMARK UNBOUND:                -5.216
REMARK SMILES CC(=O)N[C@@H]1[C@@H](O)C[C@](O)(C(=O)O)O[C@H]1C(O)[C@H](O)CNC(=O)OCc1cn(-c2cc(C(=O)O)nc(-c3ccccc3)c2)nn1
REMARK SMILES IDX 21 1 22 2 23 3 20 5 18 6 16 7 15 8 9 9 8 10 14 11 6 12 5 13
REMARK SMILES IDX 10 14 11 16 12 17 13 18 7 20 4 22 2 23 1 25 3 26 17 27 19 29
REMARK SMILES IDX 24 31 25 32 26 33 27 34 45 35 28 36 44 37 29 38 30 39 43 40
REMARK SMILES IDX 31 41 36 42 35 43 32 44 33 45 34 46 37 48 38 49 42 50 39 51
REMARK SMILES IDX 41 52 40 53
REMARK H PARENT 21 4 10 15 13 19 7 21 4 24 17 28 19 30 34 47
REMARK Flexibility Score: inf
ROOT
ATOM      1  N   UNL     1      28.268  32.559  15.661  1.00  0.00    -0.319 N 
ATOM      2  C   UNL     1      26.888  32.183  15.700  1.00  0.00     0.407 C 
ATOM      3  O   UNL     1      26.555  31.217  16.434  1.00  0.00    -0.225 OA
ATOM      4  H   UNL     1      28.481  33.380  15.023  1.00  0.00     0.167 HD
ENDROOT
BRANCH   1   5
ATOM      5  C   UNL     1      29.294  31.893  16.416  1.00  0.00     0.154 C 
BRANCH   5   6
ATOM      6  C   UNL     1      30.326  32.865  16.902  1.00  0.00     0.165 C 
BRANCH   6   7
ATOM      7  C   UNL     1      31.504  32.826  15.937  1.00  0.00     0.176 C 
BRANCH   7   8
ATOM      8  C   UNL     1      32.107  34.181  15.811  1.00  0.00     0.178 C 
ATOM      9  C   UNL     1      32.869  35.941  17.127  1.00  0.00     0.269 C 
ATOM     10  C   UNL     1      33.392  36.401  15.772  1.00  0.00     0.112 C 
ATOM     11  O   UNL     1      32.386  34.658  17.110  1.00  0.00    -0.332 OA
ATOM     12  C   UNL     1      32.252  36.384  14.817  1.00  0.00     0.145 C 
ATOM     13  C   UNL     1      31.278  35.235  15.161  1.00  0.00     0.142 C 
BRANCH   9  14
ATOM     14  O   UNL     1      31.857  36.875  17.452  1.00  0.00    -0.357 OA
ATOM     15  H   UNL     1      32.257  37.764  17.263  1.00  0.00     0.214 HD
ENDBRANCH   9  14
BRANCH   9  16
ATOM     16  C   UNL     1      33.917  36.021  18.161  1.00  0.00     0.364 C 
ATOM     17  O   UNL     1      35.102  35.776  17.870  1.00  0.00    -0.246 OA
BRANCH  16  18
ATOM     18  O   UNL     1      33.598  36.369  19.456  1.00  0.00    -0.477 OA
ATOM     19  H   UNL     1      33.754  37.300  19.833  1.00  0.00     0.296 HD
ENDBRANCH  16  18
ENDBRANCH   9  16
BRANCH  12  20
ATOM     20  O   UNL     1      31.581  37.583  14.717  1.00  0.00    -0.391 OA
ATOM     21  H   UNL     1      31.861  38.201  15.427  1.00  0.00     0.211 HD
ENDBRANCH  12  20
BRANCH  13  22
ATOM     22  N   UNL     1      30.591  34.850  13.959  1.00  0.00    -0.348 N 
ATOM     23  C   UNL     1      29.270  35.347  13.658  1.00  0.00     0.217 C 
ATOM     24  H   UNL     1      31.039  34.219  13.291  1.00  0.00     0.163 HD
ATOM     25  C   UNL     1      28.532  34.980  12.440  1.00  0.00     0.114 C 
ATOM     26  O   UNL     1      28.778  36.132  14.523  1.00  0.00    -0.275 OA
ENDBRANCH  13  22
ENDBRANCH   7   8
BRANCH   7  27
ATOM     27  O   UNL     1      31.217  32.229  14.740  1.00  0.00    -0.388 OA
ATOM     28  H   UNL     1      31.768  32.498  13.983  1.00  0.00     0.211 HD
ENDBRANCH   7  27
ENDBRANCH   6   7
BRANCH   6  29
ATOM     29  O   UNL     1      30.747  32.374  18.155  1.00  0.00    -0.388 OA
ATOM     30  H   UNL     1      31.455  31.727  17.958  1.00  0.00     0.211 HD
ENDBRANCH   6  29
ENDBRANCH   5   6
ENDBRANCH   1   5
BRANCH   2  31
ATOM     31  O   UNL     1      25.948  32.870  14.945  1.00  0.00    -0.443 OA
BRANCH  31  32
ATOM     32  C   UNL     1      24.585  32.556  15.142  1.00  0.00     0.294 C 
BRANCH  32  33
ATOM     33  C   UNL     1      23.804  33.394  14.196  1.00  0.00     0.121 A 
ATOM     34  C   UNL     1      24.198  33.813  12.919  1.00  0.00     0.144 A 
ATOM     35  N   UNL     1      22.569  33.932  14.336  1.00  0.00    -0.131 NA
ATOM     36  N   UNL     1      23.225  34.556  12.362  1.00  0.00    -0.220 N 
ATOM     37  N   UNL     1      22.252  34.612  13.241  1.00  0.00    -0.062 NA
BRANCH  36  38
ATOM     38  C   UNL     1      23.315  35.140  11.047  1.00  0.00     0.071 A 
ATOM     39  C   UNL     1      22.241  35.169  10.196  1.00  0.00     0.064 A 
ATOM     40  C   UNL     1      24.512  35.693  10.605  1.00  0.00     0.057 A 
ATOM     41  C   UNL     1      22.293  35.719   8.932  1.00  0.00     0.151 A 
ATOM     42  C   UNL     1      24.578  36.243   9.351  1.00  0.00     0.073 A 
ATOM     43  N   UNL     1      23.476  36.236   8.566  1.00  0.00    -0.241 NA
BRANCH  41  44
ATOM     44  C   UNL     1      21.140  35.740   8.047  1.00  0.00     0.354 C 
ATOM     45  O   UNL     1      20.663  36.838   7.702  1.00  0.00    -0.245 OA
BRANCH  44  46
ATOM     46  O   UNL     1      20.566  34.576   7.582  1.00  0.00    -0.477 OA
ATOM     47  H   UNL     1      19.788  34.568   6.913  1.00  0.00     0.297 HD
ENDBRANCH  44  46
ENDBRANCH  41  44
BRANCH  42  48
ATOM     48  C   UNL     1      25.834  36.835   8.856  1.00  0.00     0.000 A 
ATOM     49  C   UNL     1      26.040  36.876   7.493  1.00  0.00     0.010 A 
ATOM     50  C   UNL     1      26.760  37.327   9.730  1.00  0.00     0.010 A 
ATOM     51  C   UNL     1      27.210  37.427   7.028  1.00  0.00     0.001 A 
ATOM     52  C   UNL     1      27.922  37.873   9.220  1.00  0.00     0.001 A 
ATOM     53  C   UNL     1      28.176  37.938   7.869  1.00  0.00     0.000 A 
ENDBRANCH  42  48
ENDBRANCH  36  38
ENDBRANCH  32  33
ENDBRANCH  31  32
ENDBRANCH   2  31
TORSDOF 18
BEGIN_RES LYS A 131
REMARK  4 active torsions:
REMARK  status: ('A' for Active; 'I' for Inactive)
REMARK    1  A    between atoms: CA   and  CB  
REMARK    2  A    between atoms: CB   and  CG  
REMARK    3  A    between atoms: CG   and  CD  
REMARK    4  A    between atoms: CD   and  CE  
ROOT
ATOM      1  CA  LYS A 131      29.867  25.555  16.977  1.00 20.52     0.186 C 
ENDROOT
BRANCH   1   2
ATOM      2  CB  LYS A 131      28.345  25.722  17.026  1.00 20.94     0.034 C 
BRANCH   2   3
ATOM      3  CG  LYS A 131      27.602  24.400  16.914  1.00 22.96     0.005 C 
BRANCH   3   4
ATOM      4  CD  LYS A 131      26.144  24.539  17.254  1.00 24.33     0.041 C 
BRANCH   4   5
ATOM      5  CE  LYS A 131      25.926  24.179  18.720  1.00 26.91     0.338 C 
ATOM      6  NZ  LYS A 131      25.763  25.405  19.537  1.00 27.40     0.618 N 
ENDBRANCH   4   5
ENDBRANCH   3   4
ENDBRANCH   2   3
ENDBRANCH   1   2
END_RES LYS A 131
BEGIN_RES LYS A 135
REMARK  4 active torsions:
REMARK  status: ('A' for Active; 'I' for Inactive)
REMARK    5  A    between atoms: CA   and  CB  
REMARK    6  A    between atoms: CB   and  CG  
REMARK    7  A    between atoms: CG   and  CD  
REMARK    8  A    between atoms: CD   and  CE  
ROOT
ATOM      7  CA  LYS A 135      33.193  34.663   9.290  1.00 25.02     0.186 C 
ENDROOT
BRANCH   7   8
ATOM      8  CB  LYS A 135      32.060  35.360  10.034  1.00 26.63     0.034 C 
BRANCH   8   9
ATOM      9  CG  LYS A 135      30.802  35.505   9.217  1.00 29.45     0.005 C 
BRANCH   9  10
ATOM     10  CD  LYS A 135      30.134  34.153   9.016  1.00 32.00     0.041 C 
BRANCH  10  11
ATOM     11  CE  LYS A 135      28.726  34.329   8.481  1.00 34.25     0.338 C 
ATOM     12  NZ  LYS A 135      27.723  33.720   9.399  1.00 35.99     0.618 N 
ENDBRANCH  10  11
ENDBRANCH   9  10
ENDBRANCH   8   9
ENDBRANCH   7   8
END_RES LYS A 135
