REMARK VINA RESULT:    -4.218      2.581      6.782
REMARK INTER + INTRA:         -14.317
REMARK INTER:                  -7.452
REMARK INTRA:                  -6.866
REMARK UNBOUND:                -6.277
REMARK SMILES CC(=O)N[C@@H]1[C@@H](O)C[C@](O)(C(=O)O)O[C@H]1C(O)[C@H](O)CNC(=O)OCc1cn(CCNS(C)(=O)=O)nn1
REMARK SMILES IDX 21 1 22 2 23 3 20 5 18 6 16 7 15 8 9 9 8 10 14 11 6 12 5 13
REMARK SMILES IDX 10 14 11 16 12 17 13 18 7 20 4 22 2 23 1 25 3 26 17 27 19 29
REMARK SMILES IDX 24 31 25 32 26 33 27 34 37 35 28 36 36 37 29 38 30 39 31 40
REMARK SMILES IDX 32 42 34 43 35 44 33 45
REMARK H PARENT 21 4 10 15 13 19 7 21 4 24 17 28 19 30 31 41
REMARK Flexibility Score: inf
ROOT
ATOM      1  N   UNL     1      30.698  33.024  17.837  1.00  0.00    -0.319 N 
ATOM      2  C   UNL     1      30.825  32.701  16.471  1.00  0.00     0.407 C 
ATOM      3  O   UNL     1      30.921  31.537  16.048  1.00  0.00    -0.225 OA
ATOM      4  H   UNL     1      30.613  34.057  18.077  1.00  0.00     0.167 HD
ENDROOT
BRANCH   1   5
ATOM      5  C   UNL     1      30.672  32.102  18.910  1.00  0.00     0.154 C 
BRANCH   5   6
ATOM      6  C   UNL     1      29.440  31.243  19.049  1.00  0.00     0.165 C 
BRANCH   6   7
ATOM      7  C   UNL     1      29.187  31.075  20.515  1.00  0.00     0.176 C 
BRANCH   7   8
ATOM      8  C   UNL     1      29.684  29.818  21.154  1.00  0.00     0.178 C 
ATOM      9  C   UNL     1      31.420  28.260  20.920  1.00  0.00     0.269 C 
ATOM     10  C   UNL     1      30.534  27.160  21.395  1.00  0.00     0.112 C 
ATOM     11  O   UNL     1      30.850  29.437  20.628  1.00  0.00    -0.332 OA
ATOM     12  C   UNL     1      29.082  27.368  21.060  1.00  0.00     0.145 C 
ATOM     13  C   UNL     1      28.638  28.762  21.344  1.00  0.00     0.142 C 
BRANCH   9  14
ATOM     14  O   UNL     1      32.118  27.805  19.794  1.00  0.00    -0.357 OA
ATOM     15  H   UNL     1      31.846  28.343  19.020  1.00  0.00     0.214 HD
ENDBRANCH   9  14
BRANCH   9  16
ATOM     16  C   UNL     1      32.453  28.499  21.970  1.00  0.00     0.364 C 
ATOM     17  O   UNL     1      32.370  28.076  23.138  1.00  0.00    -0.246 OA
BRANCH  16  18
ATOM     18  O   UNL     1      33.607  29.242  21.660  1.00  0.00    -0.477 OA
ATOM     19  H   UNL     1      33.922  29.997  22.256  1.00  0.00     0.296 HD
ENDBRANCH  16  18
ENDBRANCH   9  16
BRANCH  12  20
ATOM     20  O   UNL     1      28.868  26.958  19.750  1.00  0.00    -0.391 OA
ATOM     21  H   UNL     1      28.293  26.151  19.793  1.00  0.00     0.211 HD
ENDBRANCH  12  20
BRANCH  13  22
ATOM     22  N   UNL     1      28.075  28.783  22.682  1.00  0.00    -0.348 N 
ATOM     23  C   UNL     1      26.691  28.957  22.949  1.00  0.00     0.217 C 
ATOM     24  H   UNL     1      28.686  28.666  23.545  1.00  0.00     0.163 HD
ATOM     25  C   UNL     1      26.157  28.972  24.352  1.00  0.00     0.114 C 
ATOM     26  O   UNL     1      25.933  29.098  21.955  1.00  0.00    -0.275 OA
ENDBRANCH  13  22
ENDBRANCH   7   8
BRANCH   7  27
ATOM     27  O   UNL     1      27.770  31.171  20.643  1.00  0.00    -0.388 OA
ATOM     28  H   UNL     1      27.408  31.829  20.014  1.00  0.00     0.211 HD
ENDBRANCH   7  27
ENDBRANCH   6   7
BRANCH   6  29
ATOM     29  O   UNL     1      29.610  30.092  18.329  1.00  0.00    -0.388 OA
ATOM     30  H   UNL     1      30.470  29.681  18.480  1.00  0.00     0.211 HD
ENDBRANCH   6  29
ENDBRANCH   5   6
ENDBRANCH   1   5
BRANCH   2  31
ATOM     31  O   UNL     1      30.846  33.719  15.524  1.00  0.00    -0.443 OA
BRANCH  31  32
ATOM     32  C   UNL     1      29.936  34.790  15.505  1.00  0.00     0.294 C 
BRANCH  32  33
ATOM     33  C   UNL     1      28.605  34.355  15.969  1.00  0.00     0.120 A 
ATOM     34  C   UNL     1      27.704  33.514  15.347  1.00  0.00     0.138 A 
ATOM     35  N   UNL     1      28.031  34.717  17.113  1.00  0.00    -0.132 NA
ATOM     36  N   UNL     1      26.619  33.392  16.124  1.00  0.00    -0.251 N 
ATOM     37  N   UNL     1      26.850  34.140  17.197  1.00  0.00    -0.067 NA
BRANCH  36  38
ATOM     38  C   UNL     1      25.411  32.636  15.926  1.00  0.00     0.162 C 
BRANCH  38  39
ATOM     39  C   UNL     1      24.947  31.953  17.200  1.00  0.00     0.122 C 
BRANCH  39  40
ATOM     40  N   UNL     1      26.115  31.383  17.836  1.00  0.00    -0.214 NA
ATOM     41  H   UNL     1      26.100  31.501  18.859  1.00  0.00     0.141 HD
BRANCH  40  42
ATOM     42  S   UNL     1      26.336  29.727  17.430  1.00  0.00     0.208 S 
ATOM     43  O   UNL     1      27.358  29.669  16.325  1.00  0.00    -0.213 OA
ATOM     44  O   UNL     1      26.782  28.970  18.640  1.00  0.00    -0.213 OA
ATOM     45  C   UNL     1      24.824  29.020  16.815  1.00  0.00     0.176 C 
ENDBRANCH  40  42
ENDBRANCH  39  40
ENDBRANCH  38  39
ENDBRANCH  36  38
ENDBRANCH  32  33
ENDBRANCH  31  32
ENDBRANCH   2  31
TORSDOF 18
BEGIN_RES LYS A 131
REMARK  4 active torsions:
REMARK  status: ('A' for Active; 'I' for Inactive)
REMARK    1  A    between atoms: CA   and  CB  
REMARK    2  A    between atoms: CB   and  CG  
REMARK    3  A    between atoms: CG   and  CD  
REMARK    4  A    between atoms: CD   and  CE  
ROOT
ATOM      1  CA  LYS A 131      29.867  25.555  16.977  1.00 20.52     0.186 C 
ENDROOT
BRANCH   1   2
ATOM      2  CB  LYS A 131      28.345  25.722  17.026  1.00 20.94     0.034 C 
BRANCH   2   3
ATOM      3  CG  LYS A 131      27.599  24.421  16.770  1.00 22.96     0.005 C 
BRANCH   3   4
ATOM      4  CD  LYS A 131      26.936  23.894  18.012  1.00 24.33     0.041 C 
BRANCH   4   5
ATOM      5  CE  LYS A 131      25.556  24.528  18.160  1.00 26.91     0.338 C 
ATOM      6  NZ  LYS A 131      24.788  24.398  16.899  1.00 27.40     0.618 N 
ENDBRANCH   4   5
ENDBRANCH   3   4
ENDBRANCH   2   3
ENDBRANCH   1   2
END_RES LYS A 131
BEGIN_RES LYS A 135
REMARK  4 active torsions:
REMARK  status: ('A' for Active; 'I' for Inactive)
REMARK    5  A    between atoms: CA   and  CB  
REMARK    6  A    between atoms: CB   and  CG  
REMARK    7  A    between atoms: CG   and  CD  
REMARK    8  A    between atoms: CD   and  CE  
ROOT
ATOM      7  CA  LYS A 135      33.193  34.663   9.290  1.00 25.02     0.186 C 
ENDROOT
BRANCH   7   8
ATOM      8  CB  LYS A 135      32.060  35.360  10.034  1.00 26.63     0.034 C 
BRANCH   8   9
ATOM      9  CG  LYS A 135      30.787  35.463   9.234  1.00 29.45     0.005 C 
BRANCH   9  10
ATOM     10  CD  LYS A 135      30.224  34.081   8.941  1.00 32.00     0.041 C 
BRANCH  10  11
ATOM     11  CE  LYS A 135      28.737  34.037   9.236  1.00 34.25     0.338 C 
ATOM     12  NZ  LYS A 135      28.280  35.303   9.875  1.00 35.99     0.618 N 
ENDBRANCH  10  11
ENDBRANCH   9  10
ENDBRANCH   8   9
ENDBRANCH   7   8
END_RES LYS A 135
