REMARK VINA RESULT:    -4.056      1.984      3.289
REMARK INTER + INTRA:         -13.680
REMARK INTER:                  -7.731
REMARK INTRA:                  -5.949
REMARK UNBOUND:                -5.949
REMARK SMILES CCOC(=O)Cn1cc(COC(=O)NC[C@@H](O)C(O)[C@@H]2O[C@@](O)(C(=O)O)C[C@H](O)[C@H]2NC(C)=O)nn1
REMARK SMILES IDX 14 1 12 2 13 3 15 5 16 6 18 7 20 8 22 9 27 10 21 11 28 12
REMARK SMILES IDX 30 13 23 14 24 16 25 17 26 18 29 20 31 22 32 23 33 25 34 26
REMARK SMILES IDX 19 27 17 29 11 31 10 32 9 33 8 34 35 35 7 36 36 37 6 38 4 39
REMARK SMILES IDX 5 40 3 41 2 42 1 43
REMARK H PARENT 14 4 23 15 26 19 29 21 31 24 19 28 17 30
REMARK Flexibility Score: inf
ROOT
ATOM      1  N   UNL     1      29.074  29.442  20.545  1.00  0.00    -0.319 N 
ATOM      2  C   UNL     1      28.888  28.686  21.725  1.00  0.00     0.407 C 
ATOM      3  O   UNL     1      28.179  29.074  22.659  1.00  0.00    -0.225 OA
ATOM      4  H   UNL     1      29.713  28.963  19.827  1.00  0.00     0.167 HD
ENDROOT
BRANCH   1   5
ATOM      5  C   UNL     1      28.509  30.720  20.258  1.00  0.00     0.154 C 
BRANCH   5   6
ATOM      6  C   UNL     1      29.378  31.911  20.470  1.00  0.00     0.165 C 
BRANCH   6   7
ATOM      7  C   UNL     1      29.502  32.801  19.285  1.00  0.00     0.176 C 
BRANCH   7   8
ATOM      8  C   UNL     1      30.526  32.398  18.259  1.00  0.00     0.178 C 
ATOM      9  C   UNL     1      31.449  34.265  17.197  1.00  0.00     0.269 C 
ATOM     10  C   UNL     1      31.856  33.521  15.943  1.00  0.00     0.112 C 
ATOM     11  O   UNL     1      31.483  33.409  18.253  1.00  0.00    -0.332 OA
ATOM     12  C   UNL     1      31.079  32.261  15.841  1.00  0.00     0.145 C 
ATOM     13  C   UNL     1      29.959  32.151  16.889  1.00  0.00     0.142 C 
BRANCH   9  14
ATOM     14  O   UNL     1      30.232  34.865  16.929  1.00  0.00    -0.357 OA
ATOM     15  H   UNL     1      30.373  35.840  16.920  1.00  0.00     0.214 HD
ENDBRANCH   9  14
BRANCH   9  16
ATOM     16  C   UNL     1      32.472  35.314  17.412  1.00  0.00     0.364 C 
ATOM     17  O   UNL     1      32.350  36.075  18.395  1.00  0.00    -0.246 OA
BRANCH  16  18
ATOM     18  O   UNL     1      33.540  35.466  16.565  1.00  0.00    -0.477 OA
ATOM     19  H   UNL     1      33.892  36.384  16.293  1.00  0.00     0.296 HD
ENDBRANCH  16  18
ENDBRANCH   9  16
BRANCH  12  20
ATOM     20  O   UNL     1      30.526  32.046  14.582  1.00  0.00    -0.391 OA
ATOM     21  H   UNL     1      30.714  32.759  13.939  1.00  0.00     0.211 HD
ENDBRANCH  12  20
BRANCH  13  22
ATOM     22  N   UNL     1      29.481  30.792  16.744  1.00  0.00    -0.348 N 
ATOM     23  C   UNL     1      28.135  30.415  16.589  1.00  0.00     0.217 C 
ATOM     24  H   UNL     1      30.198  30.034  16.756  1.00  0.00     0.163 HD
ATOM     25  C   UNL     1      27.667  29.015  16.442  1.00  0.00     0.114 C 
ATOM     26  O   UNL     1      27.273  31.348  16.576  1.00  0.00    -0.275 OA
ENDBRANCH  13  22
ENDBRANCH   7   8
BRANCH   7  27
ATOM     27  O   UNL     1      28.275  33.081  18.734  1.00  0.00    -0.388 OA
ATOM     28  H   UNL     1      27.634  32.327  18.754  1.00  0.00     0.211 HD
ENDBRANCH   7  27
ENDBRANCH   6   7
BRANCH   6  29
ATOM     29  O   UNL     1      30.682  31.451  20.750  1.00  0.00    -0.388 OA
ATOM     30  H   UNL     1      30.827  31.407  21.741  1.00  0.00     0.211 HD
ENDBRANCH   6  29
ENDBRANCH   5   6
ENDBRANCH   1   5
BRANCH   2  31
ATOM     31  O   UNL     1      29.519  27.430  21.883  1.00  0.00    -0.443 OA
BRANCH  31  32
ATOM     32  C   UNL     1      30.648  27.080  21.107  1.00  0.00     0.294 C 
BRANCH  32  33
ATOM     33  C   UNL     1      31.744  28.004  21.503  1.00  0.00     0.120 A 
ATOM     34  C   UNL     1      32.451  28.026  22.682  1.00  0.00     0.139 A 
ATOM     35  N   UNL     1      32.269  29.022  20.766  1.00  0.00    -0.132 NA
ATOM     36  N   UNL     1      33.355  29.042  22.600  1.00  0.00    -0.241 N 
ATOM     37  N   UNL     1      33.217  29.626  21.423  1.00  0.00    -0.066 NA
BRANCH  36  38
ATOM     38  C   UNL     1      34.317  29.449  23.597  1.00  0.00     0.268 C 
BRANCH  38  39
ATOM     39  C   UNL     1      35.681  29.061  23.205  1.00  0.00     0.327 C 
ATOM     40  O   UNL     1      36.013  27.858  23.258  1.00  0.00    -0.250 OA
BRANCH  39  41
ATOM     41  O   UNL     1      36.560  30.060  22.784  1.00  0.00    -0.465 OA
BRANCH  41  42
ATOM     42  C   UNL     1      36.074  31.401  22.901  1.00  0.00     0.229 C 
ATOM     43  C   UNL     1      36.104  32.024  21.528  1.00  0.00     0.049 C 
ENDBRANCH  41  42
ENDBRANCH  39  41
ENDBRANCH  38  39
ENDBRANCH  36  38
ENDBRANCH  32  33
ENDBRANCH  31  32
ENDBRANCH   2  31
TORSDOF 18
BEGIN_RES LYS A 131
REMARK  4 active torsions:
REMARK  status: ('A' for Active; 'I' for Inactive)
REMARK    1  A    between atoms: CA   and  CB  
REMARK    2  A    between atoms: CB   and  CG  
REMARK    3  A    between atoms: CG   and  CD  
REMARK    4  A    between atoms: CD   and  CE  
ROOT
ATOM      1  CA  LYS A 131      29.867  25.555  16.977  1.00 20.52     0.186 C 
ENDROOT
BRANCH   1   2
ATOM      2  CB  LYS A 131      28.345  25.722  17.026  1.00 20.94     0.034 C 
BRANCH   2   3
ATOM      3  CG  LYS A 131      27.601  24.402  16.895  1.00 22.96     0.005 C 
BRANCH   3   4
ATOM      4  CD  LYS A 131      26.153  24.527  17.278  1.00 24.33     0.041 C 
BRANCH   4   5
ATOM      5  CE  LYS A 131      25.952  25.795  18.102  1.00 26.91     0.338 C 
ATOM      6  NZ  LYS A 131      25.795  25.462  19.537  1.00 27.40     0.618 N 
ENDBRANCH   4   5
ENDBRANCH   3   4
ENDBRANCH   2   3
ENDBRANCH   1   2
END_RES LYS A 131
BEGIN_RES LYS A 135
REMARK  4 active torsions:
REMARK  status: ('A' for Active; 'I' for Inactive)
REMARK    5  A    between atoms: CA   and  CB  
REMARK    6  A    between atoms: CB   and  CG  
REMARK    7  A    between atoms: CG   and  CD  
REMARK    8  A    between atoms: CD   and  CE  
ROOT
ATOM      7  CA  LYS A 135      33.193  34.663   9.290  1.00 25.02     0.186 C 
ENDROOT
BRANCH   7   8
ATOM      8  CB  LYS A 135      32.060  35.360  10.034  1.00 26.63     0.034 C 
BRANCH   8   9
ATOM      9  CG  LYS A 135      30.741  34.639   9.935  1.00 29.45     0.005 C 
BRANCH   9  10
ATOM     10  CD  LYS A 135      30.319  34.490   8.481  1.00 32.00     0.041 C 
BRANCH  10  11
ATOM     11  CE  LYS A 135      29.580  35.728   8.011  1.00 34.25     0.338 C 
ATOM     12  NZ  LYS A 135      28.512  35.377   7.034  1.00 35.99     0.618 N 
ENDBRANCH  10  11
ENDBRANCH   9  10
ENDBRANCH   8   9
ENDBRANCH   7   8
END_RES LYS A 135
