REMARK VINA RESULT:    -4.315      8.572     14.004
REMARK INTER + INTRA:         -14.773
REMARK INTER:                  -8.910
REMARK INTRA:                  -5.863
REMARK UNBOUND:                -5.918
REMARK SMILES CC(=O)N[C@@H]1[C@@H](O)C[C@](O)(C(=O)O)O[C@H]1C(O)[C@H](O)CNC(=O)OCc1cn(CCCCCC(=O)O)nn1
REMARK SMILES IDX 25 1 24 2 22 3 21 4 23 6 20 7 18 8 16 9 15 10 9 11 8 12
REMARK SMILES IDX 14 13 6 14 5 15 10 16 11 18 12 19 13 20 7 22 4 24 2 25 1 27
REMARK SMILES IDX 3 28 17 29 19 31 26 33 27 34 38 35 28 36 37 37 29 38 30 39
REMARK SMILES IDX 31 40 32 41 33 42 34 43 35 44 36 45
REMARK H PARENT 21 5 10 17 13 21 7 23 4 26 17 30 19 32 36 46
REMARK Flexibility Score: inf
ROOT
ATOM      1  C   UNL     1      32.496  32.094  22.531  1.00  0.00     0.294 C 
ENDROOT
BRANCH   1   2
ATOM      2  O   UNL     1      33.381  31.015  22.254  1.00  0.00    -0.443 OA
BRANCH   2   3
ATOM      3  C   UNL     1      33.046  29.754  22.761  1.00  0.00     0.407 C 
ATOM      4  N   UNL     1      32.756  28.713  21.834  1.00  0.00    -0.319 N 
ATOM      5  H   UNL     1      32.814  28.944  20.807  1.00  0.00     0.167 HD
ATOM      6  O   UNL     1      33.015  29.605  24.008  1.00  0.00    -0.225 OA
BRANCH   4   7
ATOM      7  C   UNL     1      32.405  27.419  22.327  1.00  0.00     0.154 C 
BRANCH   7   8
ATOM      8  C   UNL     1      30.923  27.186  22.489  1.00  0.00     0.165 C 
BRANCH   8   9
ATOM      9  C   UNL     1      30.218  27.765  21.277  1.00  0.00     0.176 C 
BRANCH   9  10
ATOM     10  C   UNL     1      28.844  27.235  21.043  1.00  0.00     0.178 C 
ATOM     11  C   UNL     1      28.314  28.897  19.480  1.00  0.00     0.269 C 
ATOM     12  C   UNL     1      27.561  29.605  20.618  1.00  0.00     0.112 C 
ATOM     13  O   UNL     1      28.456  27.569  19.762  1.00  0.00    -0.332 OA
ATOM     14  C   UNL     1      26.771  28.517  21.303  1.00  0.00     0.145 C 
ATOM     15  C   UNL     1      27.795  27.619  22.023  1.00  0.00     0.142 C 
BRANCH  11  16
ATOM     16  O   UNL     1      29.498  29.575  19.201  1.00  0.00    -0.357 OA
ATOM     17  H   UNL     1      29.530  30.468  19.671  1.00  0.00     0.214 HD
ENDBRANCH  11  16
BRANCH  11  18
ATOM     18  C   UNL     1      27.440  29.010  18.285  1.00  0.00     0.364 C 
ATOM     19  O   UNL     1      26.827  30.095  18.052  1.00  0.00    -0.246 OA
BRANCH  18  20
ATOM     20  O   UNL     1      27.314  27.920  17.444  1.00  0.00    -0.477 OA
ATOM     21  H   UNL     1      27.922  27.921  16.612  1.00  0.00     0.296 HD
ENDBRANCH  18  20
ENDBRANCH  11  18
BRANCH  14  22
ATOM     22  O   UNL     1      25.854  29.033  22.219  1.00  0.00    -0.391 OA
ATOM     23  H   UNL     1      26.111  29.979  22.376  1.00  0.00     0.211 HD
ENDBRANCH  14  22
BRANCH  15  24
ATOM     24  N   UNL     1      27.104  26.461  22.575  1.00  0.00    -0.348 N 
ATOM     25  C   UNL     1      27.242  26.053  23.916  1.00  0.00     0.217 C 
ATOM     26  H   UNL     1      26.467  25.907  21.934  1.00  0.00     0.163 HD
ATOM     27  C   UNL     1      26.515  24.847  24.456  1.00  0.00     0.114 C 
ATOM     28  O   UNL     1      28.002  26.725  24.678  1.00  0.00    -0.275 OA
ENDBRANCH  15  24
ENDBRANCH   9  10
BRANCH   9  29
ATOM     29  O   UNL     1      30.993  27.291  20.179  1.00  0.00    -0.388 OA
ATOM     30  H   UNL     1      31.931  27.340  20.480  1.00  0.00     0.211 HD
ENDBRANCH   9  29
ENDBRANCH   8   9
BRANCH   8  31
ATOM     31  O   UNL     1      30.525  27.754  23.679  1.00  0.00    -0.388 OA
ATOM     32  H   UNL     1      29.647  28.201  23.591  1.00  0.00     0.211 HD
ENDBRANCH   8  31
ENDBRANCH   7   8
ENDBRANCH   4   7
ENDBRANCH   2   3
ENDBRANCH   1   2
BRANCH   1  33
ATOM     33  C   UNL     1      32.721  33.096  21.464  1.00  0.00     0.120 A 
ATOM     34  C   UNL     1      31.826  33.341  20.443  1.00  0.00     0.138 A 
ATOM     35  N   UNL     1      33.763  33.908  21.290  1.00  0.00    -0.132 NA
ATOM     36  N   UNL     1      32.393  34.310  19.691  1.00  0.00    -0.252 N 
ATOM     37  N   UNL     1      33.555  34.644  20.206  1.00  0.00    -0.067 NA
BRANCH  36  38
ATOM     38  C   UNL     1      31.733  34.840  18.496  1.00  0.00     0.146 C 
BRANCH  38  39
ATOM     39  C   UNL     1      31.279  33.669  17.664  1.00  0.00     0.024 C 
BRANCH  39  40
ATOM     40  C   UNL     1      31.737  33.756  16.225  1.00  0.00     0.002 C 
BRANCH  40  41
ATOM     41  C   UNL     1      31.351  32.562  15.424  1.00  0.00     0.012 C 
BRANCH  41  42
ATOM     42  C   UNL     1      30.684  31.477  16.225  1.00  0.00     0.122 C 
BRANCH  42  43
ATOM     43  C   UNL     1      29.313  31.170  15.788  1.00  0.00     0.303 C 
ATOM     44  O   UNL     1      28.492  32.073  15.562  1.00  0.00    -0.252 OA
BRANCH  43  45
ATOM     45  O   UNL     1      28.898  29.838  15.615  1.00  0.00    -0.481 OA
ATOM     46  H   UNL     1      27.913  29.627  15.427  1.00  0.00     0.296 HD
ENDBRANCH  43  45
ENDBRANCH  42  43
ENDBRANCH  41  42
ENDBRANCH  40  41
ENDBRANCH  39  40
ENDBRANCH  38  39
ENDBRANCH  36  38
ENDBRANCH   1  33
TORSDOF 21
BEGIN_RES LYS A 131
REMARK  4 active torsions:
REMARK  status: ('A' for Active; 'I' for Inactive)
REMARK    1  A    between atoms: CA   and  CB  
REMARK    2  A    between atoms: CB   and  CG  
REMARK    3  A    between atoms: CG   and  CD  
REMARK    4  A    between atoms: CD   and  CE  
ROOT
ATOM      1  CA  LYS A 131      29.867  25.555  16.977  1.00 20.52     0.186 C 
ENDROOT
BRANCH   1   2
ATOM      2  CB  LYS A 131      28.345  25.722  17.026  1.00 20.94     0.034 C 
BRANCH   2   3
ATOM      3  CG  LYS A 131      27.602  24.398  16.929  1.00 22.96     0.005 C 
BRANCH   3   4
ATOM      4  CD  LYS A 131      26.450  24.324  17.892  1.00 24.33     0.041 C 
BRANCH   4   5
ATOM      5  CE  LYS A 131      25.136  24.374  17.118  1.00 26.91     0.338 C 
ATOM      6  NZ  LYS A 131      24.046  24.889  17.980  1.00 27.40     0.618 N 
ENDBRANCH   4   5
ENDBRANCH   3   4
ENDBRANCH   2   3
ENDBRANCH   1   2
END_RES LYS A 131
BEGIN_RES LYS A 135
REMARK  4 active torsions:
REMARK  status: ('A' for Active; 'I' for Inactive)
REMARK    5  A    between atoms: CA   and  CB  
REMARK    6  A    between atoms: CB   and  CG  
REMARK    7  A    between atoms: CG   and  CD  
REMARK    8  A    between atoms: CD   and  CE  
ROOT
ATOM      7  CA  LYS A 135      33.193  34.663   9.290  1.00 25.02     0.186 C 
ENDROOT
BRANCH   7   8
ATOM      8  CB  LYS A 135      32.060  35.360  10.034  1.00 26.63     0.034 C 
BRANCH   8   9
ATOM      9  CG  LYS A 135      30.693  34.831   9.683  1.00 29.45     0.005 C 
BRANCH   9  10
ATOM     10  CD  LYS A 135      30.603  34.522   8.196  1.00 32.00     0.041 C 
BRANCH  10  11
ATOM     11  CE  LYS A 135      29.307  35.057   7.619  1.00 34.25     0.338 C 
ATOM     12  NZ  LYS A 135      28.998  36.410   8.158  1.00 35.99     0.618 N 
ENDBRANCH  10  11
ENDBRANCH   9  10
ENDBRANCH   8   9
ENDBRANCH   7   8
END_RES LYS A 135
