REMARK VINA RESULT:    -4.933      6.473     11.830
REMARK INTER + INTRA:         -14.391
REMARK INTER:                  -9.808
REMARK INTRA:                  -4.583
REMARK UNBOUND:                -5.276
REMARK SMILES COc1ccc(Cn2cc(COC(=O)NC[C@@H](O)C(O)[C@@H]3O[C@@](O)(C(=O)O)C[C@H](O)[C@H]3NC(C)=O)nn2)cc1
REMARK SMILES IDX 15 1 13 2 14 3 16 5 17 6 19 7 21 8 23 9 28 10 22 11 29 12
REMARK SMILES IDX 31 13 24 14 25 16 26 17 27 18 30 20 32 22 33 23 34 25 35 26
REMARK SMILES IDX 20 27 18 29 12 31 11 32 10 33 9 34 36 35 8 36 37 37 7 38
REMARK SMILES IDX 6 39 5 40 38 41 4 42 39 43 3 44 2 45 1 46
REMARK H PARENT 15 4 24 15 27 19 30 21 32 24 20 28 18 30
REMARK Flexibility Score: inf
ROOT
ATOM      1  N   UNL     1      26.789  37.087   9.442  1.00  0.00    -0.319 N 
ATOM      2  C   UNL     1      27.112  37.462  10.764  1.00  0.00     0.407 C 
ATOM      3  O   UNL     1      26.371  38.184  11.475  1.00  0.00    -0.225 OA
ATOM      4  H   UNL     1      27.484  36.487   8.940  1.00  0.00     0.167 HD
ENDROOT
BRANCH   1   5
ATOM      5  C   UNL     1      25.592  37.470   8.764  1.00  0.00     0.154 C 
BRANCH   5   6
ATOM      6  C   UNL     1      24.439  36.546   8.953  1.00  0.00     0.165 C 
BRANCH   6   7
ATOM      7  C   UNL     1      23.467  37.030  10.006  1.00  0.00     0.176 C 
BRANCH   7   8
ATOM      8  C   UNL     1      22.035  36.843   9.652  1.00  0.00     0.178 C 
ATOM      9  C   UNL     1      20.533  35.448   8.577  1.00  0.00     0.269 C 
ATOM     10  C   UNL     1      19.803  36.607   7.958  1.00  0.00     0.112 C 
ATOM     11  O   UNL     1      21.829  35.678   8.917  1.00  0.00    -0.332 OA
ATOM     12  C   UNL     1      20.159  37.932   8.599  1.00  0.00     0.145 C 
ATOM     13  C   UNL     1      21.646  37.982   8.703  1.00  0.00     0.142 C 
BRANCH   9  14
ATOM     14  O   UNL     1      20.563  34.454   7.564  1.00  0.00    -0.357 OA
ATOM     15  H   UNL     1      19.941  33.751   7.873  1.00  0.00     0.214 HD
ENDBRANCH   9  14
BRANCH   9  16
ATOM     16  C   UNL     1      19.683  34.905   9.662  1.00  0.00     0.364 C 
ATOM     17  O   UNL     1      18.434  35.109   9.712  1.00  0.00    -0.246 OA
BRANCH  16  18
ATOM     18  O   UNL     1      20.213  34.134  10.694  1.00  0.00    -0.477 OA
ATOM     19  H   UNL     1      21.204  34.066  10.829  1.00  0.00     0.296 HD
ENDBRANCH  16  18
ENDBRANCH   9  16
BRANCH  12  20
ATOM     20  O   UNL     1      19.619  38.968   7.862  1.00  0.00    -0.391 OA
ATOM     21  H   UNL     1      19.844  38.855   6.926  1.00  0.00     0.211 HD
ENDBRANCH  12  20
BRANCH  13  22
ATOM     22  N   UNL     1      22.177  39.251   9.085  1.00  0.00    -0.348 N 
ATOM     23  C   UNL     1      22.984  40.068   8.280  1.00  0.00     0.217 C 
ATOM     24  H   UNL     1      21.942  39.608  10.050  1.00  0.00     0.163 HD
ATOM     25  C   UNL     1      23.473  41.368   8.795  1.00  0.00     0.114 C 
ATOM     26  O   UNL     1      23.291  39.708   7.139  1.00  0.00    -0.275 OA
ENDBRANCH  13  22
ENDBRANCH   7   8
BRANCH   7  27
ATOM     27  O   UNL     1      23.763  36.429  11.210  1.00  0.00    -0.388 OA
ATOM     28  H   UNL     1      24.666  36.600  11.558  1.00  0.00     0.211 HD
ENDBRANCH   7  27
ENDBRANCH   6   7
BRANCH   6  29
ATOM     29  O   UNL     1      24.801  35.246   9.145  1.00  0.00    -0.388 OA
ATOM     30  H   UNL     1      25.434  35.215   9.925  1.00  0.00     0.211 HD
ENDBRANCH   6  29
ENDBRANCH   5   6
ENDBRANCH   1   5
BRANCH   2  31
ATOM     31  O   UNL     1      28.320  37.017  11.335  1.00  0.00    -0.443 OA
BRANCH  31  32
ATOM     32  C   UNL     1      28.261  36.012  12.321  1.00  0.00     0.294 C 
BRANCH  32  33
ATOM     33  C   UNL     1      29.508  35.915  13.100  1.00  0.00     0.120 A 
ATOM     34  C   UNL     1      30.147  34.749  13.530  1.00  0.00     0.138 A 
ATOM     35  N   UNL     1      30.278  36.919  13.556  1.00  0.00    -0.132 NA
ATOM     36  N   UNL     1      31.251  35.087  14.211  1.00  0.00    -0.248 N 
ATOM     37  N   UNL     1      31.307  36.405  14.212  1.00  0.00    -0.067 NA
BRANCH  36  38
ATOM     38  C   UNL     1      32.208  34.210  14.832  1.00  0.00     0.181 C 
BRANCH  38  39
ATOM     39  C   UNL     1      31.575  33.358  15.861  1.00  0.00    -0.026 A 
ATOM     40  C   UNL     1      31.133  32.094  15.545  1.00  0.00     0.009 A 
ATOM     41  C   UNL     1      31.428  33.831  17.139  1.00  0.00     0.009 A 
ATOM     42  C   UNL     1      30.538  31.298  16.521  1.00  0.00     0.047 A 
ATOM     43  C   UNL     1      30.835  33.045  18.126  1.00  0.00     0.047 A 
ATOM     44  C   UNL     1      30.395  31.785  17.811  1.00  0.00     0.118 A 
BRANCH  44  45
ATOM     45  O   UNL     1      29.796  30.972  18.775  1.00  0.00    -0.497 OA
ATOM     46  C   UNL     1      30.565  30.509  19.872  1.00  0.00     0.278 C 
ENDBRANCH  44  45
ENDBRANCH  38  39
ENDBRANCH  36  38
ENDBRANCH  32  33
ENDBRANCH  31  32
ENDBRANCH   2  31
TORSDOF 17
BEGIN_RES LYS A 131
REMARK  4 active torsions:
REMARK  status: ('A' for Active; 'I' for Inactive)
REMARK    1  A    between atoms: CA   and  CB  
REMARK    2  A    between atoms: CB   and  CG  
REMARK    3  A    between atoms: CG   and  CD  
REMARK    4  A    between atoms: CD   and  CE  
ROOT
ATOM      1  CA  LYS A 131      29.867  25.555  16.977  1.00 20.52     0.186 C 
ENDROOT
BRANCH   1   2
ATOM      2  CB  LYS A 131      28.345  25.722  17.026  1.00 20.94     0.034 C 
BRANCH   2   3
ATOM      3  CG  LYS A 131      27.599  24.475  16.576  1.00 22.96     0.005 C 
BRANCH   3   4
ATOM      4  CD  LYS A 131      27.020  23.712  17.734  1.00 24.33     0.041 C 
BRANCH   4   5
ATOM      5  CE  LYS A 131      25.788  24.441  18.260  1.00 26.91     0.338 C 
ATOM      6  NZ  LYS A 131      25.525  24.066  19.669  1.00 27.40     0.618 N 
ENDBRANCH   4   5
ENDBRANCH   3   4
ENDBRANCH   2   3
ENDBRANCH   1   2
END_RES LYS A 131
BEGIN_RES LYS A 135
REMARK  4 active torsions:
REMARK  status: ('A' for Active; 'I' for Inactive)
REMARK    5  A    between atoms: CA   and  CB  
REMARK    6  A    between atoms: CB   and  CG  
REMARK    7  A    between atoms: CG   and  CD  
REMARK    8  A    between atoms: CD   and  CE  
ROOT
ATOM      7  CA  LYS A 135      33.193  34.663   9.290  1.00 25.02     0.186 C 
ENDROOT
BRANCH   7   8
ATOM      8  CB  LYS A 135      32.060  35.360  10.034  1.00 26.63     0.034 C 
BRANCH   8   9
ATOM      9  CG  LYS A 135      30.792  35.476   9.228  1.00 29.45     0.005 C 
BRANCH   9  10
ATOM     10  CD  LYS A 135      29.890  34.276   9.471  1.00 32.00     0.041 C 
BRANCH  10  11
ATOM     11  CE  LYS A 135      28.664  34.342   8.580  1.00 34.25     0.338 C 
ATOM     12  NZ  LYS A 135      28.887  35.258   7.428  1.00 35.99     0.618 N 
ENDBRANCH  10  11
ENDBRANCH   9  10
ENDBRANCH   8   9
ENDBRANCH   7   8
END_RES LYS A 135
