REMARK VINA RESULT:    -4.085      2.039      4.859
REMARK INTER + INTRA:         -17.172
REMARK INTER:                  -7.838
REMARK INTRA:                  -9.334
REMARK UNBOUND:                -9.983
REMARK SMILES CC(=O)N[C@@H]1[C@@H](O)C[C@](O)(C(=O)O)O[C@H]1C(O)[C@H](O)CNC(=O)OCc1cn(-c2nc(C)nc(N)n2)nn1
REMARK SMILES IDX 21 1 22 2 23 3 20 5 18 6 16 7 15 8 9 9 8 10 14 11 6 12 5 13
REMARK SMILES IDX 10 14 11 16 12 17 13 18 7 20 4 22 2 23 1 25 3 26 17 27 19 29
REMARK SMILES IDX 24 31 25 32 26 33 27 34 38 35 28 36 37 37 29 38 36 39 30 40
REMARK SMILES IDX 34 41 31 42 33 43 32 44 35 45
REMARK H PARENT 21 4 10 15 13 19 7 21 4 24 17 28 19 30 35 46 35 47
REMARK Flexibility Score: inf
ROOT
ATOM      1  N   UNL     1      28.887  29.357  19.382  1.00  0.00    -0.319 N 
ATOM      2  C   UNL     1      27.483  29.324  19.583  1.00  0.00     0.407 C 
ATOM      3  O   UNL     1      26.845  30.275  20.071  1.00  0.00    -0.225 OA
ATOM      4  H   UNL     1      29.303  28.473  18.966  1.00  0.00     0.167 HD
ENDROOT
BRANCH   1   5
ATOM      5  C   UNL     1      29.748  30.481  19.698  1.00  0.00     0.154 C 
BRANCH   5   6
ATOM      6  C   UNL     1      30.100  31.269  18.510  1.00  0.00     0.165 C 
BRANCH   6   7
ATOM      7  C   UNL     1      29.287  32.545  18.285  1.00  0.00     0.176 C 
BRANCH   7   8
ATOM      8  C   UNL     1      29.828  33.432  17.203  1.00  0.00     0.178 C 
ATOM      9  C   UNL     1      30.248  33.409  14.904  1.00  0.00     0.269 C 
ATOM     10  C   UNL     1      31.680  33.817  15.161  1.00  0.00     0.112 C 
ATOM     11  O   UNL     1      29.621  32.866  15.986  1.00  0.00    -0.332 OA
ATOM     12  C   UNL     1      31.723  34.741  16.341  1.00  0.00     0.145 C 
ATOM     13  C   UNL     1      31.155  33.973  17.542  1.00  0.00     0.142 C 
BRANCH   9  14
ATOM     14  O   UNL     1      30.347  32.360  13.950  1.00  0.00    -0.357 OA
ATOM     15  H   UNL     1      29.621  31.708  14.123  1.00  0.00     0.214 HD
ENDBRANCH   9  14
BRANCH   9  16
ATOM     16  C   UNL     1      29.542  34.521  14.272  1.00  0.00     0.364 C 
ATOM     17  O   UNL     1      28.339  34.766  14.632  1.00  0.00    -0.246 OA
BRANCH  16  18
ATOM     18  O   UNL     1      30.036  35.371  13.300  1.00  0.00    -0.477 OA
ATOM     19  H   UNL     1      30.639  36.160  13.580  1.00  0.00     0.296 HD
ENDBRANCH  16  18
ENDBRANCH   9  16
BRANCH  12  20
ATOM     20  O   UNL     1      33.037  35.124  16.622  1.00  0.00    -0.391 OA
ATOM     21  H   UNL     1      32.978  35.934  17.205  1.00  0.00     0.211 HD
ENDBRANCH  12  20
BRANCH  13  22
ATOM     22  N   UNL     1      30.971  35.016  18.569  1.00  0.00    -0.348 N 
ATOM     23  C   UNL     1      31.616  34.860  19.818  1.00  0.00     0.217 C 
ATOM     24  H   UNL     1      30.383  35.856  18.388  1.00  0.00     0.163 HD
ATOM     25  C   UNL     1      31.479  35.877  20.911  1.00  0.00     0.114 C 
ATOM     26  O   UNL     1      32.320  33.827  19.994  1.00  0.00    -0.275 OA
ENDBRANCH  13  22
ENDBRANCH   7   8
BRANCH   7  27
ATOM     27  O   UNL     1      28.023  32.006  17.859  1.00  0.00    -0.388 OA
ATOM     28  H   UNL     1      27.372  32.504  18.443  1.00  0.00     0.211 HD
ENDBRANCH   7  27
ENDBRANCH   6   7
BRANCH   6  29
ATOM     29  O   UNL     1      30.170  30.533  17.354  1.00  0.00    -0.388 OA
ATOM     30  H   UNL     1      29.339  30.040  17.141  1.00  0.00     0.211 HD
ENDBRANCH   6  29
ENDBRANCH   5   6
ENDBRANCH   1   5
BRANCH   2  31
ATOM     31  O   UNL     1      26.743  28.195  19.233  1.00  0.00    -0.443 OA
BRANCH  31  32
ATOM     32  C   UNL     1      26.651  27.721  17.925  1.00  0.00     0.294 C 
BRANCH  32  33
ATOM     33  C   UNL     1      26.756  28.803  16.912  1.00  0.00     0.121 A 
ATOM     34  C   UNL     1      25.702  29.501  16.362  1.00  0.00     0.148 A 
ATOM     35  N   UNL     1      27.857  29.327  16.323  1.00  0.00    -0.131 NA
ATOM     36  N   UNL     1      26.166  30.408  15.476  1.00  0.00    -0.185 N 
ATOM     37  N   UNL     1      27.467  30.271  15.482  1.00  0.00    -0.059 NA
BRANCH  36  38
ATOM     38  C   UNL     1      25.407  31.323  14.697  1.00  0.00     0.257 A 
ATOM     39  N   UNL     1      25.782  32.595  14.478  1.00  0.00    -0.175 NA
ATOM     40  N   UNL     1      24.253  30.914  14.143  1.00  0.00    -0.196 NA
ATOM     41  C   UNL     1      25.066  33.462  13.742  1.00  0.00     0.225 A 
ATOM     42  C   UNL     1      23.505  31.772  13.391  1.00  0.00     0.133 A 
ATOM     43  N   UNL     1      23.926  33.035  13.203  1.00  0.00    -0.198 NA
ATOM     44  C   UNL     1      22.240  31.307  12.789  1.00  0.00     0.090 C 
BRANCH  41  45
ATOM     45  N   UNL     1      25.459  34.799  13.512  1.00  0.00    -0.368 N 
ATOM     46  H   UNL     1      24.739  35.538  13.419  1.00  0.00     0.159 HD
ATOM     47  H   UNL     1      26.456  35.066  13.431  1.00  0.00     0.159 HD
ENDBRANCH  41  45
ENDBRANCH  36  38
ENDBRANCH  32  33
ENDBRANCH  31  32
ENDBRANCH   2  31
TORSDOF 16
BEGIN_RES LYS A 135
REMARK  4 active torsions:
REMARK  status: ('A' for Active; 'I' for Inactive)
REMARK    1  A    between atoms: CA   and  CB  
REMARK    2  A    between atoms: CB   and  CG  
REMARK    3  A    between atoms: CG   and  CD  
REMARK    4  A    between atoms: CD   and  CE  
ROOT
ATOM      1  CA  LYS A 135      33.193  34.663   9.290  1.00 25.02     0.186 C 
ENDROOT
BRANCH   1   2
ATOM      2  CB  LYS A 135      32.060  35.360  10.034  1.00 26.63     0.034 C 
BRANCH   2   3
ATOM      3  CG  LYS A 135      30.709  34.736   9.796  1.00 29.45     0.005 C 
BRANCH   3   4
ATOM      4  CD  LYS A 135      30.469  34.527   8.309  1.00 32.00     0.041 C 
BRANCH   4   5
ATOM      5  CE  LYS A 135      29.038  34.874   7.947  1.00 34.25     0.338 C 
ATOM      6  NZ  LYS A 135      28.074  34.201   8.861  1.00 35.99     0.618 N 
ENDBRANCH   4   5
ENDBRANCH   3   4
ENDBRANCH   2   3
ENDBRANCH   1   2
END_RES LYS A 135
BEGIN_RES ARG A 124
REMARK  4 active torsions:
REMARK  status: ('A' for Active; 'I' for Inactive)
REMARK    5  A    between atoms: CA   and  CB  
REMARK    6  A    between atoms: CB   and  CG  
REMARK    7  A    between atoms: CG   and  CD  
REMARK    8  A    between atoms: CD   and  NE  
REMARK       I    between atoms: NE   and  CZ  
ROOT
ATOM      7  CA  ARG A 124      31.045  26.515   9.594  1.00 17.84     0.186 C 
ENDROOT
BRANCH   7   8
ATOM      8  CB  ARG A 124      29.529  26.705   9.647  1.00 16.18     0.036 C 
BRANCH   8   9
ATOM      9  CG  ARG A 124      28.897  26.727  11.085  1.00 16.22     0.029 C 
BRANCH   9  10
ATOM     10  CD  ARG A 124      27.566  25.945  11.168  1.00 15.09     0.145 C 
BRANCH  10  11
ATOM     11  NE  ARG A 124      26.381  26.804  11.379  1.00 16.98    -0.083 NA
ATOM     12  CZ  ARG A 124      26.007  27.309  12.550  1.00 18.21     0.782 C 
ATOM     13  NH1 ARG A 124      26.707  27.080  13.655  1.00 21.11     0.063 N 
ATOM     14  NH2 ARG A 124      24.931  28.077  12.626  1.00 21.25     0.063 N 
ENDBRANCH  10  11
ENDBRANCH   9  10
ENDBRANCH   8   9
ENDBRANCH   7   8
END_RES ARG A 124
BEGIN_RES ASN A 133
REMARK  2 active torsions:
REMARK  status: ('A' for Active; 'I' for Inactive)
REMARK    9  A    between atoms: CA   and  CB  
REMARK   10  A    between atoms: CB   and  CG  
ROOT
ATOM     15  CA  ASN A 133      31.225  30.257  11.749  1.00 18.15     0.196 C 
ENDROOT
BRANCH  15  16
ATOM     16  CB  ASN A 133      30.092  31.240  11.460  1.00 18.27     0.126 C 
BRANCH  16  17
ATOM     17  CG  ASN A 133      28.733  30.619  11.551  1.00 18.94     0.276 C 
ATOM     18  OD1 ASN A 133      27.930  30.964  12.419  1.00 18.09    -0.269 OA
ATOM     19  ND2 ASN A 133      28.458  29.683  10.643  1.00 18.93    -0.107 N 
ENDBRANCH  16  17
ENDBRANCH  15  16
END_RES ASN A 133
BEGIN_RES LYS A 131
REMARK  4 active torsions:
REMARK  status: ('A' for Active; 'I' for Inactive)
REMARK   11  A    between atoms: CA   and  CB  
REMARK   12  A    between atoms: CB   and  CG  
REMARK   13  A    between atoms: CG   and  CD  
REMARK   14  A    between atoms: CD   and  CE  
ROOT
ATOM     20  CA  LYS A 131      29.867  25.555  16.977  1.00 20.52     0.186 C 
ENDROOT
BRANCH  20  21
ATOM     21  CB  LYS A 131      28.345  25.722  17.026  1.00 20.94     0.034 C 
BRANCH  21  22
ATOM     22  CG  LYS A 131      27.599  24.452  16.646  1.00 22.96     0.005 C 
BRANCH  22  23
ATOM     23  CD  LYS A 131      27.085  23.715  17.852  1.00 24.33     0.041 C 
BRANCH  23  24
ATOM     24  CE  LYS A 131      25.626  24.091  18.094  1.00 26.91     0.338 C 
ATOM     25  NZ  LYS A 131      25.451  24.633  19.463  1.00 27.40     0.618 N 
ENDBRANCH  23  24
ENDBRANCH  22  23
ENDBRANCH  21  22
ENDBRANCH  20  21
END_RES LYS A 131
