REMARK VINA RESULT:    -4.125      2.084      3.086
REMARK INTER + INTRA:         -13.646
REMARK INTER:                  -8.057
REMARK INTRA:                  -5.589
REMARK UNBOUND:                -6.145
REMARK SMILES CC(=O)N[C@@H]1[C@@H](O)C[C@](O)(C(=O)O)O[C@H]1C(O)[C@H](O)CNC(=O)OCc1cn(C(C)(C)CO)nn1
REMARK SMILES IDX 21 1 22 2 23 3 20 5 18 6 16 7 15 8 9 9 8 10 14 11 6 12 5 13
REMARK SMILES IDX 10 14 11 16 12 17 13 18 7 20 4 22 2 23 1 25 3 26 17 27 19 29
REMARK SMILES IDX 24 31 25 32 26 33 27 34 35 35 28 36 34 37 29 38 30 39 31 40
REMARK SMILES IDX 32 41 33 42
REMARK H PARENT 21 4 10 15 13 19 7 21 4 24 17 28 19 30 33 43
REMARK Flexibility Score: inf
ROOT
ATOM      1  N   UNL     1      25.493  41.411   7.147  1.00  0.00    -0.319 N 
ATOM      2  C   UNL     1      26.632  41.551   6.291  1.00  0.00     0.407 C 
ATOM      3  O   UNL     1      26.606  41.146   5.080  1.00  0.00    -0.225 OA
ATOM      4  H   UNL     1      25.563  41.769   8.118  1.00  0.00     0.167 HD
ENDROOT
BRANCH   1   5
ATOM      5  C   UNL     1      24.286  40.800   6.634  1.00  0.00     0.154 C 
BRANCH   5   6
ATOM      6  C   UNL     1      23.734  39.761   7.529  1.00  0.00     0.165 C 
BRANCH   6   7
ATOM      7  C   UNL     1      24.059  38.343   7.246  1.00  0.00     0.176 C 
BRANCH   7   8
ATOM      8  C   UNL     1      25.090  37.807   8.208  1.00  0.00     0.178 C 
ATOM      9  C   UNL     1      27.089  37.865   6.946  1.00  0.00     0.269 C 
ATOM     10  C   UNL     1      27.100  36.325   6.925  1.00  0.00     0.112 C 
ATOM     11  O   UNL     1      26.322  38.369   7.946  1.00  0.00    -0.332 OA
ATOM     12  C   UNL     1      26.615  35.908   8.273  1.00  0.00     0.145 C 
ATOM     13  C   UNL     1      25.115  36.314   8.337  1.00  0.00     0.142 C 
BRANCH   9  14
ATOM     14  O   UNL     1      26.812  38.320   5.673  1.00  0.00    -0.357 OA
ATOM     15  H   UNL     1      27.650  38.431   5.165  1.00  0.00     0.214 HD
ENDBRANCH   9  14
BRANCH   9  16
ATOM     16  C   UNL     1      28.507  38.296   7.263  1.00  0.00     0.364 C 
ATOM     17  O   UNL     1      28.760  38.962   8.295  1.00  0.00    -0.246 OA
BRANCH  16  18
ATOM     18  O   UNL     1      29.505  37.933   6.385  1.00  0.00    -0.477 OA
ATOM     19  H   UNL     1      29.295  37.492   5.496  1.00  0.00     0.296 HD
ENDBRANCH  16  18
ENDBRANCH   9  16
BRANCH  12  20
ATOM     20  O   UNL     1      26.746  34.556   8.520  1.00  0.00    -0.391 OA
ATOM     21  H   UNL     1      27.517  34.238   7.980  1.00  0.00     0.211 HD
ENDBRANCH  12  20
BRANCH  13  22
ATOM     22  N   UNL     1      24.735  35.846   9.680  1.00  0.00    -0.348 N 
ATOM     23  C   UNL     1      23.440  35.435  10.014  1.00  0.00     0.217 C 
ATOM     24  H   UNL     1      25.488  35.829  10.398  1.00  0.00     0.163 HD
ATOM     25  C   UNL     1      23.034  34.964  11.363  1.00  0.00     0.114 C 
ATOM     26  O   UNL     1      22.550  35.463   9.119  1.00  0.00    -0.275 OA
ENDBRANCH  13  22
ENDBRANCH   7   8
BRANCH   7  27
ATOM     27  O   UNL     1      23.058  37.501   6.894  1.00  0.00    -0.388 OA
ATOM     28  H   UNL     1      22.580  37.076   7.653  1.00  0.00     0.211 HD
ENDBRANCH   7  27
ENDBRANCH   6   7
BRANCH   6  29
ATOM     29  O   UNL     1      22.327  39.889   7.580  1.00  0.00    -0.388 OA
ATOM     30  H   UNL     1      21.961  39.464   6.773  1.00  0.00     0.211 HD
ENDBRANCH   6  29
ENDBRANCH   5   6
ENDBRANCH   1   5
BRANCH   2  31
ATOM     31  O   UNL     1      27.762  42.135   6.803  1.00  0.00    -0.443 OA
BRANCH  31  32
ATOM     32  C   UNL     1      28.854  42.517   6.021  1.00  0.00     0.294 C 
BRANCH  32  33
ATOM     33  C   UNL     1      30.019  41.622   6.244  1.00  0.00     0.120 A 
ATOM     34  C   UNL     1      30.806  41.634   7.369  1.00  0.00     0.139 A 
ATOM     35  N   UNL     1      30.515  40.677   5.446  1.00  0.00    -0.132 NA
ATOM     36  N   UNL     1      31.755  40.702   7.232  1.00  0.00    -0.244 N 
ATOM     37  N   UNL     1      31.551  40.131   6.042  1.00  0.00    -0.066 NA
BRANCH  36  38
ATOM     38  C   UNL     1      32.780  40.401   8.197  1.00  0.00     0.082 C 
ATOM     39  C   UNL     1      33.096  41.617   9.042  1.00  0.00     0.039 C 
ATOM     40  C   UNL     1      34.027  39.939   7.454  1.00  0.00     0.039 C 
BRANCH  38  41
ATOM     41  C   UNL     1      32.339  39.251   9.065  1.00  0.00     0.186 C 
BRANCH  41  42
ATOM     42  O   UNL     1      31.779  38.243   8.274  1.00  0.00    -0.394 OA
ATOM     43  H   UNL     1      32.199  37.380   8.522  1.00  0.00     0.210 HD
ENDBRANCH  41  42
ENDBRANCH  38  41
ENDBRANCH  36  38
ENDBRANCH  32  33
ENDBRANCH  31  32
ENDBRANCH   2  31
TORSDOF 17
BEGIN_RES LYS A 131
REMARK  4 active torsions:
REMARK  status: ('A' for Active; 'I' for Inactive)
REMARK    1  A    between atoms: CA   and  CB  
REMARK    2  A    between atoms: CB   and  CG  
REMARK    3  A    between atoms: CG   and  CD  
REMARK    4  A    between atoms: CD   and  CE  
ROOT
ATOM      1  CA  LYS A 131      29.867  25.555  16.977  1.00 20.52     0.186 C 
ENDROOT
BRANCH   1   2
ATOM      2  CB  LYS A 131      28.345  25.722  17.026  1.00 20.94     0.034 C 
BRANCH   2   3
ATOM      3  CG  LYS A 131      27.601  24.402  16.890  1.00 22.96     0.005 C 
BRANCH   3   4
ATOM      4  CD  LYS A 131      26.159  24.520  17.299  1.00 24.33     0.041 C 
BRANCH   4   5
ATOM      5  CE  LYS A 131      25.794  23.360  18.220  1.00 26.91     0.338 C 
ATOM      6  NZ  LYS A 131      24.800  22.474  17.569  1.00 27.40     0.618 N 
ENDBRANCH   4   5
ENDBRANCH   3   4
ENDBRANCH   2   3
ENDBRANCH   1   2
END_RES LYS A 131
BEGIN_RES LYS A 135
REMARK  4 active torsions:
REMARK  status: ('A' for Active; 'I' for Inactive)
REMARK    5  A    between atoms: CA   and  CB  
REMARK    6  A    between atoms: CB   and  CG  
REMARK    7  A    between atoms: CG   and  CD  
REMARK    8  A    between atoms: CD   and  CE  
ROOT
ATOM      7  CA  LYS A 135      33.193  34.663   9.290  1.00 25.02     0.186 C 
ENDROOT
BRANCH   7   8
ATOM      8  CB  LYS A 135      32.060  35.360  10.034  1.00 26.63     0.034 C 
BRANCH   8   9
ATOM      9  CG  LYS A 135      32.507  36.064  11.289  1.00 29.45     0.005 C 
BRANCH   9  10
ATOM     10  CD  LYS A 135      31.383  36.918  11.855  1.00 32.00     0.041 C 
BRANCH  10  11
ATOM     11  CE  LYS A 135      30.145  36.814  10.984  1.00 34.25     0.338 C 
ATOM     12  NZ  LYS A 135      28.912  36.715  11.814  1.00 35.99     0.618 N 
ENDBRANCH  10  11
ENDBRANCH   9  10
ENDBRANCH   8   9
ENDBRANCH   7   8
END_RES LYS A 135
