REMARK VINA RESULT:    -4.868      3.386      6.806
REMARK INTER + INTRA:         -14.350
REMARK INTER:                  -7.975
REMARK INTRA:                  -6.374
REMARK UNBOUND:                -4.785
REMARK SMILES C=CCCCCn1cc(COC(=O)NC[C@@H](O)C(O)[C@@H]2O[C@@](O)(C(=O)O)C[C@H](O)[C@H]2NC(C)=O)nn1
REMARK SMILES IDX 11 1 12 2 14 3 13 5 15 6 16 7 18 8 20 9 22 10 27 11 21 12
REMARK SMILES IDX 28 13 30 14 23 15 24 17 25 18 26 19 29 21 31 23 32 24 33 26
REMARK SMILES IDX 34 27 19 28 17 30 10 32 9 33 8 34 35 35 7 36 36 37 6 38 5 39
REMARK SMILES IDX 4 40 3 41 2 42 1 43
REMARK H PARENT 14 4 23 16 26 20 29 22 31 25 19 29 17 31
REMARK Flexibility Score: inf
ROOT
ATOM      1  O   UNL     1      32.570  34.406  14.477  1.00  0.00    -0.443 OA
ENDROOT
BRANCH   1   2
ATOM      2  C   UNL     1      31.945  33.667  15.464  1.00  0.00     0.407 C 
ATOM      3  N   UNL     1      31.367  32.414  15.076  1.00  0.00    -0.319 N 
ATOM      4  H   UNL     1      31.443  32.121  14.083  1.00  0.00     0.167 HD
ATOM      5  O   UNL     1      31.882  34.074  16.669  1.00  0.00    -0.225 OA
BRANCH   3   6
ATOM      6  C   UNL     1      30.700  31.573  16.012  1.00  0.00     0.154 C 
BRANCH   6   7
ATOM      7  C   UNL     1      29.272  31.208  15.602  1.00  0.00     0.165 C 
BRANCH   7   8
ATOM      8  C   UNL     1      28.420  32.391  15.988  1.00  0.00     0.176 C 
BRANCH   8   9
ATOM      9  C   UNL     1      26.995  32.047  16.273  1.00  0.00     0.178 C 
ATOM     10  C   UNL     1      25.138  31.582  14.960  1.00  0.00     0.269 C 
ATOM     11  C   UNL     1      24.371  31.823  16.244  1.00  0.00     0.112 C 
ATOM     12  O   UNL     1      26.467  31.318  15.241  1.00  0.00    -0.332 OA
ATOM     13  C   UNL     1      24.803  33.167  16.782  1.00  0.00     0.145 C 
ATOM     14  C   UNL     1      26.263  33.384  16.457  1.00  0.00     0.142 C 
BRANCH  10  15
ATOM     15  O   UNL     1      24.983  32.645  14.076  1.00  0.00    -0.357 OA
ATOM     16  H   UNL     1      24.517  32.345  13.263  1.00  0.00     0.214 HD
ENDBRANCH  10  15
BRANCH  10  17
ATOM     17  C   UNL     1      24.533  30.389  14.316  1.00  0.00     0.364 C 
ATOM     18  O   UNL     1      24.430  30.279  13.067  1.00  0.00    -0.246 OA
BRANCH  17  19
ATOM     19  O   UNL     1      24.039  29.307  15.064  1.00  0.00    -0.477 OA
ATOM     20  H   UNL     1      24.080  29.383  16.077  1.00  0.00     0.296 HD
ENDBRANCH  17  19
ENDBRANCH  10  17
BRANCH  13  21
ATOM     21  O   UNL     1      24.080  34.159  16.147  1.00  0.00    -0.391 OA
ATOM     22  H   UNL     1      23.835  34.863  16.797  1.00  0.00     0.211 HD
ENDBRANCH  13  21
BRANCH  14  23
ATOM     23  N   UNL     1      26.945  34.116  17.509  1.00  0.00    -0.348 N 
ATOM     24  C   UNL     1      27.039  35.537  17.535  1.00  0.00     0.217 C 
ATOM     25  H   UNL     1      27.413  33.621  18.319  1.00  0.00     0.163 HD
ATOM     26  C   UNL     1      27.745  36.279  18.622  1.00  0.00     0.114 C 
ATOM     27  O   UNL     1      26.492  36.158  16.582  1.00  0.00    -0.275 OA
ENDBRANCH  14  23
ENDBRANCH   8   9
BRANCH   8  28
ATOM     28  O   UNL     1      28.552  33.321  14.944  1.00  0.00    -0.388 OA
ATOM     29  H   UNL     1      28.399  34.248  15.257  1.00  0.00     0.211 HD
ENDBRANCH   8  28
ENDBRANCH   7   8
BRANCH   7  30
ATOM     30  O   UNL     1      28.868  30.018  16.170  1.00  0.00    -0.388 OA
ATOM     31  H   UNL     1      29.304  29.781  17.005  1.00  0.00     0.211 HD
ENDBRANCH   7  30
ENDBRANCH   6   7
ENDBRANCH   3   6
ENDBRANCH   1   2
BRANCH   1  32
ATOM     32  C   UNL     1      32.076  35.670  14.117  1.00  0.00     0.294 C 
BRANCH  32  33
ATOM     33  C   UNL     1      30.796  35.436  13.371  1.00  0.00     0.120 A 
ATOM     34  C   UNL     1      29.755  36.350  13.320  1.00  0.00     0.138 A 
ATOM     35  N   UNL     1      30.396  34.389  12.650  1.00  0.00    -0.132 NA
ATOM     36  N   UNL     1      28.771  35.829  12.576  1.00  0.00    -0.252 N 
ATOM     37  N   UNL     1      29.186  34.641  12.183  1.00  0.00    -0.067 NA
BRANCH  36  38
ATOM     38  C   UNL     1      27.476  36.395  12.226  1.00  0.00     0.146 C 
BRANCH  38  39
ATOM     39  C   UNL     1      27.233  36.242  10.748  1.00  0.00     0.024 C 
BRANCH  39  40
ATOM     40  C   UNL     1      26.238  35.144  10.464  1.00  0.00     0.006 C 
BRANCH  40  41
ATOM     41  C   UNL     1      24.814  35.605  10.628  1.00  0.00     0.027 C 
BRANCH  41  42
ATOM     42  C   UNL     1      24.099  35.518   9.335  1.00  0.00    -0.035 C 
ATOM     43  C   UNL     1      23.099  36.310   9.018  1.00  0.00     0.004 C 
ENDBRANCH  41  42
ENDBRANCH  40  41
ENDBRANCH  39  40
ENDBRANCH  38  39
ENDBRANCH  36  38
ENDBRANCH  32  33
ENDBRANCH   1  32
TORSDOF 19
BEGIN_RES LYS A 131
REMARK  4 active torsions:
REMARK  status: ('A' for Active; 'I' for Inactive)
REMARK    1  A    between atoms: CA   and  CB  
REMARK    2  A    between atoms: CB   and  CG  
REMARK    3  A    between atoms: CG   and  CD  
REMARK    4  A    between atoms: CD   and  CE  
ROOT
ATOM      1  CA  LYS A 131      29.867  25.555  16.977  1.00 20.52     0.186 C 
ENDROOT
BRANCH   1   2
ATOM      2  CB  LYS A 131      28.345  25.722  17.026  1.00 20.94     0.034 C 
BRANCH   2   3
ATOM      3  CG  LYS A 131      27.601  24.402  16.892  1.00 22.96     0.005 C 
BRANCH   3   4
ATOM      4  CD  LYS A 131      26.144  24.535  17.238  1.00 24.33     0.041 C 
BRANCH   4   5
ATOM      5  CE  LYS A 131      25.568  23.159  17.552  1.00 26.91     0.338 C 
ATOM      6  NZ  LYS A 131      24.163  23.067  17.090  1.00 27.40     0.618 N 
ENDBRANCH   4   5
ENDBRANCH   3   4
ENDBRANCH   2   3
ENDBRANCH   1   2
END_RES LYS A 131
BEGIN_RES LYS A 135
REMARK  4 active torsions:
REMARK  status: ('A' for Active; 'I' for Inactive)
REMARK    5  A    between atoms: CA   and  CB  
REMARK    6  A    between atoms: CB   and  CG  
REMARK    7  A    between atoms: CG   and  CD  
REMARK    8  A    between atoms: CD   and  CE  
ROOT
ATOM      7  CA  LYS A 135      33.193  34.663   9.290  1.00 25.02     0.186 C 
ENDROOT
BRANCH   7   8
ATOM      8  CB  LYS A 135      32.060  35.360  10.034  1.00 26.63     0.034 C 
BRANCH   8   9
ATOM      9  CG  LYS A 135      30.878  35.691   9.159  1.00 29.45     0.005 C 
BRANCH   9  10
ATOM     10  CD  LYS A 135      30.388  34.451   8.428  1.00 32.00     0.041 C 
BRANCH  10  11
ATOM     11  CE  LYS A 135      28.951  34.630   7.979  1.00 34.25     0.338 C 
ATOM     12  NZ  LYS A 135      28.867  35.527   6.794  1.00 35.99     0.618 N 
ENDBRANCH  10  11
ENDBRANCH   9  10
ENDBRANCH   8   9
ENDBRANCH   7   8
END_RES LYS A 135
