REMARK VINA RESULT:    -4.743      6.360     11.661
REMARK INTER + INTRA:         -14.673
REMARK INTER:                  -8.368
REMARK INTRA:                  -6.306
REMARK UNBOUND:                -6.187
REMARK SMILES CC(=O)N[C@@H]1[C@@H](O)C[C@](O)(C(=O)O)O[C@H]1C(O)[C@H](O)CNC(=O)OCc1cn(-c2cc(Cl)ccc2C(=O)N(C)C)nn1
REMARK SMILES IDX 21 1 22 2 23 3 20 5 18 6 16 7 15 8 9 9 8 10 14 11 6 12 5 13
REMARK SMILES IDX 10 14 11 16 12 17 13 18 7 20 4 22 2 23 1 25 3 26 17 27 19 29
REMARK SMILES IDX 24 31 25 32 26 33 27 34 42 35 28 36 41 37 29 38 30 39 35 40
REMARK SMILES IDX 31 41 34 42 32 43 33 44 36 45 37 46 38 47 39 48 40 49
REMARK H PARENT 21 4 10 15 13 19 7 21 4 24 17 28 19 30
REMARK Flexibility Score: inf
ROOT
ATOM      1  N   UNL     1      25.159  29.523  17.787  1.00  0.00    -0.319 N 
ATOM      2  C   UNL     1      24.558  29.630  16.524  1.00  0.00     0.407 C 
ATOM      3  O   UNL     1      24.014  28.638  15.999  1.00  0.00    -0.225 OA
ATOM      4  H   UNL     1      25.609  30.362  18.219  1.00  0.00     0.167 HD
ENDROOT
BRANCH   1   5
ATOM      5  C   UNL     1      25.185  28.291  18.530  1.00  0.00     0.154 C 
BRANCH   5   6
ATOM      6  C   UNL     1      26.592  27.996  18.983  1.00  0.00     0.165 C 
BRANCH   6   7
ATOM      7  C   UNL     1      27.168  29.095  19.840  1.00  0.00     0.176 C 
BRANCH   7   8
ATOM      8  C   UNL     1      28.163  28.555  20.795  1.00  0.00     0.178 C 
ATOM      9  C   UNL     1      30.274  27.729  21.145  1.00  0.00     0.269 C 
ATOM     10  C   UNL     1      29.874  27.986  22.576  1.00  0.00     0.112 C 
ATOM     11  O   UNL     1      29.275  27.952  20.231  1.00  0.00    -0.332 OA
ATOM     12  C   UNL     1      28.529  27.439  22.922  1.00  0.00     0.145 C 
ATOM     13  C   UNL     1      27.556  27.528  21.751  1.00  0.00     0.142 C 
BRANCH   9  14
ATOM     14  O   UNL     1      30.612  26.368  21.039  1.00  0.00    -0.357 OA
ATOM     15  H   UNL     1      29.774  25.911  20.724  1.00  0.00     0.214 HD
ENDBRANCH   9  14
BRANCH   9  16
ATOM     16  C   UNL     1      31.440  28.531  20.760  1.00  0.00     0.364 C 
ATOM     17  O   UNL     1      31.675  29.611  21.353  1.00  0.00    -0.246 OA
BRANCH  16  18
ATOM     18  O   UNL     1      32.330  28.175  19.758  1.00  0.00    -0.477 OA
ATOM     19  H   UNL     1      32.052  28.406  18.791  1.00  0.00     0.296 HD
ENDBRANCH  16  18
ENDBRANCH   9  16
BRANCH  12  20
ATOM     20  O   UNL     1      28.688  26.099  23.330  1.00  0.00    -0.391 OA
ATOM     21  H   UNL     1      29.586  26.056  23.755  1.00  0.00     0.211 HD
ENDBRANCH  12  20
BRANCH  13  22
ATOM     22  N   UNL     1      26.240  27.883  22.161  1.00  0.00    -0.348 N 
ATOM     23  C   UNL     1      25.213  26.907  22.199  1.00  0.00     0.217 C 
ATOM     24  H   UNL     1      26.004  28.854  22.441  1.00  0.00     0.163 HD
ATOM     25  C   UNL     1      23.841  27.331  22.641  1.00  0.00     0.114 C 
ATOM     26  O   UNL     1      25.375  25.714  21.889  1.00  0.00    -0.275 OA
ENDBRANCH  13  22
ENDBRANCH   7   8
BRANCH   7  27
ATOM     27  O   UNL     1      26.154  29.839  20.387  1.00  0.00    -0.388 OA
ATOM     28  H   UNL     1      25.334  29.688  19.818  1.00  0.00     0.211 HD
ENDBRANCH   7  27
ENDBRANCH   6   7
BRANCH   6  29
ATOM     29  O   UNL     1      27.446  27.909  17.839  1.00  0.00    -0.388 OA
ATOM     30  H   UNL     1      27.738  28.797  17.552  1.00  0.00     0.211 HD
ENDBRANCH   6  29
ENDBRANCH   5   6
ENDBRANCH   1   5
BRANCH   2  31
ATOM     31  O   UNL     1      24.527  30.811  15.789  1.00  0.00    -0.443 OA
BRANCH  31  32
ATOM     32  C   UNL     1      25.642  31.166  14.995  1.00  0.00     0.294 C 
BRANCH  32  33
ATOM     33  C   UNL     1      26.887  31.111  15.775  1.00  0.00     0.121 A 
ATOM     34  C   UNL     1      27.435  32.042  16.631  1.00  0.00     0.144 A 
ATOM     35  N   UNL     1      27.747  30.078  15.779  1.00  0.00    -0.131 NA
ATOM     36  N   UNL     1      28.604  31.558  17.131  1.00  0.00    -0.219 N 
ATOM     37  N   UNL     1      28.751  30.373  16.590  1.00  0.00    -0.062 NA
BRANCH  36  38
ATOM     38  C   UNL     1      29.491  32.187  18.046  1.00  0.00     0.081 A 
ATOM     39  C   UNL     1      29.297  32.070  19.415  1.00  0.00     0.049 A 
ATOM     40  C   UNL     1      30.550  32.918  17.561  1.00  0.00     0.065 A 
ATOM     41  C   UNL     1      30.142  32.669  20.315  1.00  0.00     0.043 A 
ATOM     42  C   UNL     1      31.423  33.535  18.441  1.00  0.00     0.017 A 
ATOM     43  Cl  UNL     1      29.906  32.529  22.055  1.00  0.00    -0.084 Cl
ATOM     44  C   UNL     1      31.199  33.399  19.811  1.00  0.00     0.021 A 
BRANCH  40  45
ATOM     45  C   UNL     1      30.739  33.029  16.134  1.00  0.00     0.255 C 
ATOM     46  O   UNL     1      31.398  32.190  15.457  1.00  0.00    -0.269 OA
ATOM     47  N   UNL     1      30.173  34.119  15.433  1.00  0.00    -0.345 N 
ATOM     48  C   UNL     1      29.412  35.101  16.164  1.00  0.00     0.146 C 
ATOM     49  C   UNL     1      30.331  34.281  13.995  1.00  0.00     0.146 C 
ENDBRANCH  40  45
ENDBRANCH  36  38
ENDBRANCH  32  33
ENDBRANCH  31  32
ENDBRANCH   2  31
TORSDOF 16
BEGIN_RES LYS A 131
REMARK  4 active torsions:
REMARK  status: ('A' for Active; 'I' for Inactive)
REMARK    1  A    between atoms: CA   and  CB  
REMARK    2  A    between atoms: CB   and  CG  
REMARK    3  A    between atoms: CG   and  CD  
REMARK    4  A    between atoms: CD   and  CE  
ROOT
ATOM      1  CA  LYS A 131      29.867  25.555  16.977  1.00 20.52     0.186 C 
ENDROOT
BRANCH   1   2
ATOM      2  CB  LYS A 131      28.345  25.722  17.026  1.00 20.94     0.034 C 
BRANCH   2   3
ATOM      3  CG  LYS A 131      27.602  24.398  16.934  1.00 22.96     0.005 C 
BRANCH   3   4
ATOM      4  CD  LYS A 131      26.149  24.537  17.296  1.00 24.33     0.041 C 
BRANCH   4   5
ATOM      5  CE  LYS A 131      25.606  23.186  17.751  1.00 26.91     0.338 C 
ATOM      6  NZ  LYS A 131      25.478  23.149  19.227  1.00 27.40     0.618 N 
ENDBRANCH   4   5
ENDBRANCH   3   4
ENDBRANCH   2   3
ENDBRANCH   1   2
END_RES LYS A 131
BEGIN_RES LYS A 135
REMARK  4 active torsions:
REMARK  status: ('A' for Active; 'I' for Inactive)
REMARK    5  A    between atoms: CA   and  CB  
REMARK    6  A    between atoms: CB   and  CG  
REMARK    7  A    between atoms: CG   and  CD  
REMARK    8  A    between atoms: CD   and  CE  
ROOT
ATOM      7  CA  LYS A 135      33.193  34.663   9.290  1.00 25.02     0.186 C 
ENDROOT
BRANCH   7   8
ATOM      8  CB  LYS A 135      32.060  35.360  10.034  1.00 26.63     0.034 C 
BRANCH   8   9
ATOM      9  CG  LYS A 135      30.800  35.499   9.219  1.00 29.45     0.005 C 
BRANCH   9  10
ATOM     10  CD  LYS A 135      30.105  34.154   9.073  1.00 32.00     0.041 C 
BRANCH  10  11
ATOM     11  CE  LYS A 135      28.653  34.345   8.679  1.00 34.25     0.338 C 
ATOM     12  NZ  LYS A 135      27.741  33.668   9.642  1.00 35.99     0.618 N 
ENDBRANCH  10  11
ENDBRANCH   9  10
ENDBRANCH   8   9
ENDBRANCH   7   8
END_RES LYS A 135
