REMARK VINA RESULT:    -3.790      5.921      9.565
REMARK INTER + INTRA:         -13.254
REMARK INTER:                  -5.773
REMARK INTRA:                  -7.482
REMARK UNBOUND:                -6.362
REMARK SMILES CC(=O)N[C@@H]1[C@@H](O)C[C@](O)(C(=O)O)O[C@H]1C(O)[C@H](O)CNC(=O)OCc1cn(CC(=O)O)nn1
REMARK SMILES IDX 21 1 22 2 23 3 20 5 18 6 16 7 15 8 9 9 8 10 14 11 6 12 5 13
REMARK SMILES IDX 10 14 11 16 12 17 13 18 7 20 4 22 2 23 1 25 3 26 17 27 19 29
REMARK SMILES IDX 24 31 25 32 26 33 27 34 34 35 28 36 33 37 29 38 30 39 31 40
REMARK SMILES IDX 32 41
REMARK H PARENT 21 4 10 15 13 19 7 21 4 24 17 28 19 30 32 42
REMARK Flexibility Score: inf
ROOT
ATOM      1  N   UNL     1      21.071  38.247   8.259  1.00  0.00    -0.319 N 
ATOM      2  C   UNL     1      20.456  38.998   9.279  1.00  0.00     0.407 C 
ATOM      3  O   UNL     1      20.655  38.772  10.472  1.00  0.00    -0.225 OA
ATOM      4  H   UNL     1      20.821  38.549   7.269  1.00  0.00     0.167 HD
ENDROOT
BRANCH   1   5
ATOM      5  C   UNL     1      21.977  37.141   8.429  1.00  0.00     0.154 C 
BRANCH   5   6
ATOM      6  C   UNL     1      23.361  37.346   7.902  1.00  0.00     0.165 C 
BRANCH   6   7
ATOM      7  C   UNL     1      24.324  37.844   8.913  1.00  0.00     0.176 C 
BRANCH   7   8
ATOM      8  C   UNL     1      25.691  38.192   8.387  1.00  0.00     0.178 C 
ATOM      9  C   UNL     1      27.079  37.790   6.530  1.00  0.00     0.269 C 
ATOM     10  C   UNL     1      28.309  37.801   7.375  1.00  0.00     0.112 C 
ATOM     11  O   UNL     1      25.891  37.583   7.140  1.00  0.00    -0.332 OA
ATOM     12  C   UNL     1      28.058  38.489   8.680  1.00  0.00     0.145 C 
ATOM     13  C   UNL     1      26.830  37.782   9.282  1.00  0.00     0.142 C 
BRANCH   9  14
ATOM     14  O   UNL     1      27.301  36.808   5.520  1.00  0.00    -0.357 OA
ATOM     15  H   UNL     1      28.268  36.579   5.593  1.00  0.00     0.214 HD
ENDBRANCH   9  14
BRANCH   9  16
ATOM     16  C   UNL     1      27.028  39.076   5.771  1.00  0.00     0.364 C 
ATOM     17  O   UNL     1      27.976  39.546   5.109  1.00  0.00    -0.246 OA
BRANCH  16  18
ATOM     18  O   UNL     1      25.857  39.804   5.794  1.00  0.00    -0.477 OA
ATOM     19  H   UNL     1      24.967  39.432   5.471  1.00  0.00     0.296 HD
ENDBRANCH  16  18
ENDBRANCH   9  16
BRANCH  12  20
ATOM     20  O   UNL     1      29.140  38.400   9.551  1.00  0.00    -0.391 OA
ATOM     21  H   UNL     1      29.344  37.435   9.660  1.00  0.00     0.211 HD
ENDBRANCH  12  20
BRANCH  13  22
ATOM     22  N   UNL     1      26.729  38.130  10.661  1.00  0.00    -0.348 N 
ATOM     23  C   UNL     1      26.442  37.168  11.676  1.00  0.00     0.217 C 
ATOM     24  H   UNL     1      26.878  39.111  10.962  1.00  0.00     0.163 HD
ATOM     25  C   UNL     1      26.329  37.492  13.116  1.00  0.00     0.114 C 
ATOM     26  O   UNL     1      26.278  35.977  11.321  1.00  0.00    -0.275 OA
ENDBRANCH  13  22
ENDBRANCH   7   8
BRANCH   7  27
ATOM     27  O   UNL     1      23.769  38.832   9.709  1.00  0.00    -0.388 OA
ATOM     28  H   UNL     1      22.781  38.768   9.749  1.00  0.00     0.211 HD
ENDBRANCH   7  27
ENDBRANCH   6   7
BRANCH   6  29
ATOM     29  O   UNL     1      23.287  38.205   6.794  1.00  0.00    -0.388 OA
ATOM     30  H   UNL     1      22.359  38.350   6.503  1.00  0.00     0.211 HD
ENDBRANCH   6  29
ENDBRANCH   5   6
ENDBRANCH   1   5
BRANCH   2  31
ATOM     31  O   UNL     1      19.587  40.042   8.972  1.00  0.00    -0.443 OA
BRANCH  31  32
ATOM     32  C   UNL     1      19.949  41.223   8.329  1.00  0.00     0.294 C 
BRANCH  32  33
ATOM     33  C   UNL     1      21.412  41.454   8.241  1.00  0.00     0.120 A 
ATOM     34  C   UNL     1      22.233  42.174   9.052  1.00  0.00     0.139 A 
ATOM     35  N   UNL     1      22.226  40.949   7.268  1.00  0.00    -0.132 NA
ATOM     36  N   UNL     1      23.487  42.096   8.573  1.00  0.00    -0.241 N 
ATOM     37  N   UNL     1      23.469  41.354   7.498  1.00  0.00    -0.066 NA
BRANCH  36  38
ATOM     38  C   UNL     1      24.649  42.731   9.162  1.00  0.00     0.268 C 
BRANCH  38  39
ATOM     39  C   UNL     1      25.775  41.777   9.198  1.00  0.00     0.325 C 
ATOM     40  O   UNL     1      25.968  41.091  10.241  1.00  0.00    -0.250 OA
BRANCH  39  41
ATOM     41  O   UNL     1      26.607  41.632   8.108  1.00  0.00    -0.480 OA
ATOM     42  H   UNL     1      26.182  41.754   7.184  1.00  0.00     0.296 HD
ENDBRANCH  39  41
ENDBRANCH  38  39
ENDBRANCH  36  38
ENDBRANCH  32  33
ENDBRANCH  31  32
ENDBRANCH   2  31
TORSDOF 17
BEGIN_RES LYS A 131
REMARK  4 active torsions:
REMARK  status: ('A' for Active; 'I' for Inactive)
REMARK    1  A    between atoms: CA   and  CB  
REMARK    2  A    between atoms: CB   and  CG  
REMARK    3  A    between atoms: CG   and  CD  
REMARK    4  A    between atoms: CD   and  CE  
ROOT
ATOM      1  CA  LYS A 131      29.867  25.555  16.977  1.00 20.52     0.186 C 
ENDROOT
BRANCH   1   2
ATOM      2  CB  LYS A 131      28.345  25.722  17.026  1.00 20.94     0.034 C 
BRANCH   2   3
ATOM      3  CG  LYS A 131      27.601  24.403  16.887  1.00 22.96     0.005 C 
BRANCH   3   4
ATOM      4  CD  LYS A 131      26.153  24.526  17.272  1.00 24.33     0.041 C 
BRANCH   4   5
ATOM      5  CE  LYS A 131      25.636  23.172  17.749  1.00 26.91     0.338 C 
ATOM      6  NZ  LYS A 131      25.518  23.152  19.226  1.00 27.40     0.618 N 
ENDBRANCH   4   5
ENDBRANCH   3   4
ENDBRANCH   2   3
ENDBRANCH   1   2
END_RES LYS A 131
BEGIN_RES LYS A 135
REMARK  4 active torsions:
REMARK  status: ('A' for Active; 'I' for Inactive)
REMARK    5  A    between atoms: CA   and  CB  
REMARK    6  A    between atoms: CB   and  CG  
REMARK    7  A    between atoms: CG   and  CD  
REMARK    8  A    between atoms: CD   and  CE  
ROOT
ATOM      7  CA  LYS A 135      33.193  34.663   9.290  1.00 25.02     0.186 C 
ENDROOT
BRANCH   7   8
ATOM      8  CB  LYS A 135      32.060  35.360  10.034  1.00 26.63     0.034 C 
BRANCH   8   9
ATOM      9  CG  LYS A 135      30.790  35.470   9.231  1.00 29.45     0.005 C 
BRANCH   9  10
ATOM     10  CD  LYS A 135      29.836  34.337   9.576  1.00 32.00     0.041 C 
BRANCH  10  11
ATOM     11  CE  LYS A 135      28.575  34.428   8.738  1.00 34.25     0.338 C 
ATOM     12  NZ  LYS A 135      27.459  33.667   9.364  1.00 35.99     0.618 N 
ENDBRANCH  10  11
ENDBRANCH   9  10
ENDBRANCH   8   9
ENDBRANCH   7   8
END_RES LYS A 135
