REMARK VINA RESULT:    -4.639      3.079      6.187
REMARK INTER + INTRA:         -13.824
REMARK INTER:                  -9.548
REMARK INTRA:                  -4.277
REMARK UNBOUND:                -5.796
REMARK SMILES CC(=O)N[C@@H]1[C@@H](O)C[C@](O)(C(=O)O)O[C@H]1C(O)[C@H](O)CNC(=O)OCc1cn(C2CCCCC2)nn1
REMARK SMILES IDX 20 1 18 2 16 3 15 4 9 5 8 6 14 7 6 8 5 9 10 10 11 12 12 13
REMARK SMILES IDX 13 14 7 16 4 18 2 19 1 21 3 22 17 23 19 25 21 27 22 28 23 30
REMARK SMILES IDX 24 31 25 32 26 33 27 34 36 35 28 36 35 37 29 38 30 39 34 40
REMARK SMILES IDX 31 41 33 42 32 43
REMARK H PARENT 10 11 13 15 7 17 4 20 17 24 19 26 21 29
REMARK Flexibility Score: inf
ROOT
ATOM      1  C   UNL     1      25.693  30.143  15.847  1.00  0.00     0.154 C 
ENDROOT
BRANCH   1   2
ATOM      2  C   UNL     1      26.855  29.859  16.786  1.00  0.00     0.165 C 
BRANCH   2   3
ATOM      3  C   UNL     1      28.065  30.523  16.205  1.00  0.00     0.176 C 
BRANCH   3   4
ATOM      4  C   UNL     1      28.699  31.578  17.086  1.00  0.00     0.178 C 
ATOM      5  C   UNL     1      28.819  33.627  15.932  1.00  0.00     0.269 C 
ATOM      6  C   UNL     1      30.277  33.799  16.322  1.00  0.00     0.112 C 
ATOM      7  O   UNL     1      28.209  32.832  16.844  1.00  0.00    -0.332 OA
ATOM      8  C   UNL     1      30.975  32.468  16.423  1.00  0.00     0.145 C 
ATOM      9  C   UNL     1      30.176  31.469  17.236  1.00  0.00     0.142 C 
BRANCH   5  10
ATOM     10  O   UNL     1      28.706  33.217  14.605  1.00  0.00    -0.357 OA
ATOM     11  H   UNL     1      28.707  34.045  14.028  1.00  0.00     0.214 HD
ENDBRANCH   5  10
BRANCH   5  12
ATOM     12  C   UNL     1      28.221  34.986  16.045  1.00  0.00     0.364 C 
ATOM     13  O   UNL     1      27.446  35.253  16.991  1.00  0.00    -0.246 OA
BRANCH  12  14
ATOM     14  O   UNL     1      28.520  35.940  15.115  1.00  0.00    -0.477 OA
ATOM     15  H   UNL     1      28.048  36.832  15.032  1.00  0.00     0.296 HD
ENDBRANCH  12  14
ENDBRANCH   5  12
BRANCH   8  16
ATOM     16  O   UNL     1      31.293  31.973  15.165  1.00  0.00    -0.391 OA
ATOM     17  H   UNL     1      32.249  31.724  15.131  1.00  0.00     0.211 HD
ENDBRANCH   8  16
BRANCH   9  18
ATOM     18  N   UNL     1      30.576  31.573  18.641  1.00  0.00    -0.348 N 
ATOM     19  C   UNL     1      30.103  30.601  19.547  1.00  0.00     0.217 C 
ATOM     20  H   UNL     1      31.191  32.337  18.979  1.00  0.00     0.163 HD
ATOM     21  C   UNL     1      30.455  30.621  21.001  1.00  0.00     0.114 C 
ATOM     22  O   UNL     1      29.347  29.643  19.190  1.00  0.00    -0.275 OA
ENDBRANCH   9  18
ENDBRANCH   3   4
BRANCH   3  23
ATOM     23  O   UNL     1      28.939  29.646  15.619  1.00  0.00    -0.388 OA
ATOM     24  H   UNL     1      28.546  28.729  15.474  1.00  0.00     0.211 HD
ENDBRANCH   3  23
ENDBRANCH   2   3
BRANCH   2  25
ATOM     25  O   UNL     1      26.945  28.497  16.947  1.00  0.00    -0.388 OA
ATOM     26  H   UNL     1      27.627  28.145  16.354  1.00  0.00     0.211 HD
ENDBRANCH   2  25
ENDBRANCH   1   2
BRANCH   1  27
ATOM     27  N   UNL     1      26.007  31.330  15.087  1.00  0.00    -0.319 N 
ATOM     28  C   UNL     1      25.192  32.485  15.002  1.00  0.00     0.407 C 
ATOM     29  H   UNL     1      26.914  31.388  14.529  1.00  0.00     0.167 HD
ATOM     30  O   UNL     1      24.101  32.516  15.620  1.00  0.00    -0.225 OA
BRANCH  28  31
ATOM     31  O   UNL     1      25.573  33.590  14.246  1.00  0.00    -0.443 OA
BRANCH  31  32
ATOM     32  C   UNL     1      25.148  33.701  12.911  1.00  0.00     0.294 C 
BRANCH  32  33
ATOM     33  C   UNL     1      26.196  34.429  12.148  1.00  0.00     0.120 A 
ATOM     34  C   UNL     1      26.122  34.817  10.804  1.00  0.00     0.138 A 
ATOM     35  N   UNL     1      27.407  34.867  12.542  1.00  0.00    -0.132 NA
ATOM     36  N   UNL     1      27.255  35.451  10.457  1.00  0.00    -0.249 N 
ATOM     37  N   UNL     1      28.019  35.465  11.535  1.00  0.00    -0.067 NA
BRANCH  36  38
ATOM     38  C   UNL     1      27.576  36.010   9.151  1.00  0.00     0.109 C 
ATOM     39  C   UNL     1      29.071  36.220   9.056  1.00  0.00     0.027 C 
ATOM     40  C   UNL     1      27.168  35.044   8.062  1.00  0.00     0.027 C 
ATOM     41  C   UNL     1      29.730  35.159   8.195  1.00  0.00     0.002 C 
ATOM     42  C   UNL     1      27.747  35.577   6.763  1.00  0.00     0.002 C 
ATOM     43  C   UNL     1      29.230  35.265   6.780  1.00  0.00     0.000 C 
ENDBRANCH  36  38
ENDBRANCH  32  33
ENDBRANCH  31  32
ENDBRANCH  28  31
ENDBRANCH   1  27
TORSDOF 15
BEGIN_RES LYS A 131
REMARK  4 active torsions:
REMARK  status: ('A' for Active; 'I' for Inactive)
REMARK    1  A    between atoms: CA   and  CB  
REMARK    2  A    between atoms: CB   and  CG  
REMARK    3  A    between atoms: CG   and  CD  
REMARK    4  A    between atoms: CD   and  CE  
ROOT
ATOM      1  CA  LYS A 131      29.867  25.555  16.977  1.00 20.52     0.186 C 
ENDROOT
BRANCH   1   2
ATOM      2  CB  LYS A 131      28.345  25.722  17.026  1.00 20.94     0.034 C 
BRANCH   2   3
ATOM      3  CG  LYS A 131      27.600  24.407  16.854  1.00 22.96     0.005 C 
BRANCH   3   4
ATOM      4  CD  LYS A 131      26.508  24.237  17.873  1.00 24.33     0.041 C 
BRANCH   4   5
ATOM      5  CE  LYS A 131      25.150  24.366  17.189  1.00 26.91     0.338 C 
ATOM      6  NZ  LYS A 131      24.459  23.055  17.157  1.00 27.40     0.618 N 
ENDBRANCH   4   5
ENDBRANCH   3   4
ENDBRANCH   2   3
ENDBRANCH   1   2
END_RES LYS A 131
BEGIN_RES LYS A 135
REMARK  4 active torsions:
REMARK  status: ('A' for Active; 'I' for Inactive)
REMARK    5  A    between atoms: CA   and  CB  
REMARK    6  A    between atoms: CB   and  CG  
REMARK    7  A    between atoms: CG   and  CD  
REMARK    8  A    between atoms: CD   and  CE  
ROOT
ATOM      7  CA  LYS A 135      33.193  34.663   9.290  1.00 25.02     0.186 C 
ENDROOT
BRANCH   7   8
ATOM      8  CB  LYS A 135      32.060  35.360  10.034  1.00 26.63     0.034 C 
BRANCH   8   9
ATOM      9  CG  LYS A 135      32.507  36.067  11.287  1.00 29.45     0.005 C 
BRANCH   9  10
ATOM     10  CD  LYS A 135      31.348  36.221  12.260  1.00 32.00     0.041 C 
BRANCH  10  11
ATOM     11  CE  LYS A 135      31.615  35.442  13.534  1.00 34.25     0.338 C 
ATOM     12  NZ  LYS A 135      33.070  35.173  13.703  1.00 35.99     0.618 N 
ENDBRANCH  10  11
ENDBRANCH   9  10
ENDBRANCH   8   9
ENDBRANCH   7   8
END_RES LYS A 135
