REMARK VINA RESULT:    -4.897      7.836     14.278
REMARK INTER + INTRA:         -15.508
REMARK INTER:                  -9.867
REMARK INTRA:                  -5.642
REMARK UNBOUND:                -6.317
REMARK SMILES CC(=O)N[C@@H]1[C@@H](O)C[C@](O)(C(=O)O)O[C@H]1C(O)[C@H](O)CNC(=O)OCc1cn(-c2cccc(C=CC(=O)O)c2)nn1
REMARK SMILES IDX 21 1 22 2 23 3 20 5 18 6 16 7 15 8 9 9 8 10 14 11 6 12 5 13
REMARK SMILES IDX 10 14 11 16 12 17 13 18 7 20 4 22 2 23 1 25 3 26 17 27 19 29
REMARK SMILES IDX 24 31 25 32 26 33 27 34 41 35 28 36 40 37 29 38 39 39 30 40
REMARK SMILES IDX 33 41 31 42 32 43 34 44 35 45 36 46 37 47 38 48
REMARK H PARENT 21 4 10 15 13 19 7 21 4 24 17 28 19 30 38 49
REMARK Flexibility Score: inf
ROOT
ATOM      1  N   UNL     1      29.450  26.960  20.302  1.00  0.00    -0.319 N 
ATOM      2  C   UNL     1      28.259  27.648  19.975  1.00  0.00     0.407 C 
ATOM      3  O   UNL     1      27.699  28.438  20.763  1.00  0.00    -0.225 OA
ATOM      4  H   UNL     1      29.828  26.299  19.539  1.00  0.00     0.167 HD
ENDROOT
BRANCH   1   5
ATOM      5  C   UNL     1      30.182  27.065  21.531  1.00  0.00     0.154 C 
BRANCH   5   6
ATOM      6  C   UNL     1      31.635  27.307  21.277  1.00  0.00     0.165 C 
BRANCH   6   7
ATOM      7  C   UNL     1      32.163  28.590  21.890  1.00  0.00     0.176 C 
BRANCH   7   8
ATOM      8  C   UNL     1      31.241  29.725  21.629  1.00  0.00     0.178 C 
ATOM      9  C   UNL     1      30.339  31.274  20.174  1.00  0.00     0.269 C 
ATOM     10  C   UNL     1      29.486  31.592  21.371  1.00  0.00     0.112 C 
ATOM     11  O   UNL     1      31.128  30.153  20.344  1.00  0.00    -0.332 OA
ATOM     12  C   UNL     1      30.207  31.662  22.666  1.00  0.00     0.145 C 
ATOM     13  C   UNL     1      31.508  30.904  22.562  1.00  0.00     0.142 C 
BRANCH   9  14
ATOM     14  O   UNL     1      31.069  32.406  19.815  1.00  0.00    -0.357 OA
ATOM     15  H   UNL     1      30.509  33.207  19.736  1.00  0.00     0.214 HD
ENDBRANCH   9  14
BRANCH   9  16
ATOM     16  C   UNL     1      29.412  30.982  19.044  1.00  0.00     0.364 C 
ATOM     17  O   UNL     1      28.194  31.358  19.123  1.00  0.00    -0.246 OA
BRANCH  16  18
ATOM     18  O   UNL     1      29.825  30.313  17.901  1.00  0.00    -0.477 OA
ATOM     19  H   UNL     1      29.754  29.321  17.795  1.00  0.00     0.296 HD
ENDBRANCH  16  18
ENDBRANCH   9  16
BRANCH  12  20
ATOM     20  O   UNL     1      30.402  32.961  23.126  1.00  0.00    -0.391 OA
ATOM     21  H   UNL     1      30.596  32.947  24.077  1.00  0.00     0.211 HD
ENDBRANCH  12  20
BRANCH  13  22
ATOM     22  N   UNL     1      32.020  30.499  23.834  1.00  0.00    -0.348 N 
ATOM     23  C   UNL     1      33.223  31.021  24.377  1.00  0.00     0.217 C 
ATOM     24  H   UNL     1      31.512  29.781  24.432  1.00  0.00     0.163 HD
ATOM     25  C   UNL     1      33.712  30.573  25.695  1.00  0.00     0.114 C 
ATOM     26  O   UNL     1      33.894  31.875  23.745  1.00  0.00    -0.275 OA
ENDBRANCH  13  22
ENDBRANCH   7   8
BRANCH   7  27
ATOM     27  O   UNL     1      33.492  28.825  21.556  1.00  0.00    -0.388 OA
ATOM     28  H   UNL     1      34.043  28.602  22.338  1.00  0.00     0.211 HD
ENDBRANCH   7  27
ENDBRANCH   6   7
BRANCH   6  29
ATOM     29  O   UNL     1      31.929  27.316  19.912  1.00  0.00    -0.388 OA
ATOM     30  H   UNL     1      31.156  27.718  19.426  1.00  0.00     0.211 HD
ENDBRANCH   6  29
ENDBRANCH   5   6
ENDBRANCH   1   5
BRANCH   2  31
ATOM     31  O   UNL     1      27.640  27.468  18.721  1.00  0.00    -0.443 OA
BRANCH  31  32
ATOM     32  C   UNL     1      26.358  27.974  18.523  1.00  0.00     0.294 C 
BRANCH  32  33
ATOM     33  C   UNL     1      26.254  28.828  17.316  1.00  0.00     0.121 A 
ATOM     34  C   UNL     1      25.148  29.250  16.617  1.00  0.00     0.144 A 
ATOM     35  N   UNL     1      27.304  29.362  16.670  1.00  0.00    -0.131 NA
ATOM     36  N   UNL     1      25.539  30.022  15.572  1.00  0.00    -0.220 N 
ATOM     37  N   UNL     1      26.857  30.071  15.632  1.00  0.00    -0.062 NA
BRANCH  36  38
ATOM     38  C   UNL     1      24.661  30.635  14.627  1.00  0.00     0.067 A 
ATOM     39  C   UNL     1      23.769  29.892  13.899  1.00  0.00     0.036 A 
ATOM     40  C   UNL     1      24.700  31.996  14.427  1.00  0.00     0.028 A 
ATOM     41  C   UNL     1      22.892  30.495  12.955  1.00  0.00    -0.023 A 
ATOM     42  C   UNL     1      23.887  32.633  13.538  1.00  0.00     0.003 A 
ATOM     43  C   UNL     1      22.978  31.853  12.803  1.00  0.00     0.008 A 
BRANCH  41  44
ATOM     44  C   UNL     1      21.959  29.675  12.262  1.00  0.00     0.015 C 
ATOM     45  C   UNL     1      20.990  28.886  12.520  1.00  0.00     0.094 C 
BRANCH  45  46
ATOM     46  C   UNL     1      20.337  28.425  13.679  1.00  0.00     0.328 C 
ATOM     47  O   UNL     1      20.098  29.305  14.650  1.00  0.00    -0.247 OA
BRANCH  46  48
ATOM     48  O   UNL     1      19.869  27.188  14.045  1.00  0.00    -0.478 OA
ATOM     49  H   UNL     1      18.895  26.931  14.023  1.00  0.00     0.297 HD
ENDBRANCH  46  48
ENDBRANCH  45  46
ENDBRANCH  41  44
ENDBRANCH  36  38
ENDBRANCH  32  33
ENDBRANCH  31  32
ENDBRANCH   2  31
TORSDOF 18
BEGIN_RES LYS A 131
REMARK  4 active torsions:
REMARK  status: ('A' for Active; 'I' for Inactive)
REMARK    1  A    between atoms: CA   and  CB  
REMARK    2  A    between atoms: CB   and  CG  
REMARK    3  A    between atoms: CG   and  CD  
REMARK    4  A    between atoms: CD   and  CE  
ROOT
ATOM      1  CA  LYS A 131      29.867  25.555  16.977  1.00 20.52     0.186 C 
ENDROOT
BRANCH   1   2
ATOM      2  CB  LYS A 131      28.345  25.722  17.026  1.00 20.94     0.034 C 
BRANCH   2   3
ATOM      3  CG  LYS A 131      27.601  24.401  16.898  1.00 22.96     0.005 C 
BRANCH   3   4
ATOM      4  CD  LYS A 131      26.500  24.271  17.914  1.00 24.33     0.041 C 
BRANCH   4   5
ATOM      5  CE  LYS A 131      25.163  24.600  17.260  1.00 26.91     0.338 C 
ATOM      6  NZ  LYS A 131      24.055  24.435  18.231  1.00 27.40     0.618 N 
ENDBRANCH   4   5
ENDBRANCH   3   4
ENDBRANCH   2   3
ENDBRANCH   1   2
END_RES LYS A 131
BEGIN_RES LYS A 135
REMARK  4 active torsions:
REMARK  status: ('A' for Active; 'I' for Inactive)
REMARK    5  A    between atoms: CA   and  CB  
REMARK    6  A    between atoms: CB   and  CG  
REMARK    7  A    between atoms: CG   and  CD  
REMARK    8  A    between atoms: CD   and  CE  
ROOT
ATOM      7  CA  LYS A 135      33.193  34.663   9.290  1.00 25.02     0.186 C 
ENDROOT
BRANCH   7   8
ATOM      8  CB  LYS A 135      32.060  35.360  10.034  1.00 26.63     0.034 C 
BRANCH   8   9
ATOM      9  CG  LYS A 135      30.763  34.593  10.011  1.00 29.45     0.005 C 
BRANCH   9  10
ATOM     10  CD  LYS A 135      30.438  34.130   8.600  1.00 32.00     0.041 C 
BRANCH  10  11
ATOM     11  CE  LYS A 135      29.574  35.153   7.888  1.00 34.25     0.338 C 
ATOM     12  NZ  LYS A 135      28.128  34.823   8.027  1.00 35.99     0.618 N 
ENDBRANCH  10  11
ENDBRANCH   9  10
ENDBRANCH   8   9
ENDBRANCH   7   8
END_RES LYS A 135
