REMARK VINA RESULT:    -7.584      3.943      8.366
REMARK INTER + INTRA:         -12.754
REMARK INTER:                  -7.707
REMARK INTRA:                  -5.047
REMARK UNBOUND:                 3.032
REMARK SMILES CC(=O)N[C@@H]1[C@@H](O)C[C@](O)(C(=O)O)O[C@H]1C(O)[C@H](O)CNC(=O)OCc1cn(C2CC(O)C=C[C@@H](O)C2)nn1
REMARK SMILES IDX 21 1 22 2 23 3 20 5 18 6 16 7 15 8 9 9 8 10 14 11 6 12 5 13
REMARK SMILES IDX 10 14 11 16 12 17 13 18 7 20 4 22 2 23 1 25 3 26 17 27 19 29
REMARK SMILES IDX 24 31 25 32 26 33 27 34 39 35 28 36 38 37 29 38 30 39 31 40
REMARK SMILES IDX 32 42 37 44 35 45 34 46 33 47 36 49
REMARK H PARENT 21 4 10 15 13 19 7 21 4 24 17 28 19 30 32 43 36 50
REMARK Flexibility Score: 90.00
ROOT
ATOM      1  N   UNL     1      23.524  38.949  10.924  1.00  0.00    -0.319 N 
ATOM      2  C   UNL     1      24.584  39.745  11.453  1.00  0.00     0.407 C 
ATOM      3  O   UNL     1      25.045  40.751  10.854  1.00  0.00    -0.225 OA
ATOM      4  H   UNL     1      23.162  38.120  11.443  1.00  0.00     0.167 HD
ENDROOT
BRANCH   1   5
ATOM      5  C   UNL     1      22.991  39.371   9.628  1.00  0.00     0.154 C 
BRANCH   5   6
ATOM      6  C   UNL     1      23.099  38.170   8.707  1.00  0.00     0.165 C 
BRANCH   6   7
ATOM      7  C   UNL     1      24.447  38.077   8.028  1.00  0.00     0.176 C 
BRANCH   7   8
ATOM      8  C   UNL     1      25.186  36.829   8.395  1.00  0.00     0.178 C 
ATOM      9  C   UNL     1      26.207  35.583  10.008  1.00  0.00     0.269 C 
ATOM     10  C   UNL     1      26.261  34.610   8.849  1.00  0.00     0.112 C 
ATOM     11  O   UNL     1      25.384  36.670   9.740  1.00  0.00    -0.332 OA
ATOM     12  C   UNL     1      26.826  35.254   7.599  1.00  0.00     0.145 C 
ATOM     13  C   UNL     1      26.525  36.721   7.699  1.00  0.00     0.142 C 
BRANCH   9  14
ATOM     14  O   UNL     1      27.482  35.975  10.400  1.00  0.00    -0.357 OA
ATOM     15  H   UNL     1      27.664  36.925  10.175  1.00  0.00     0.214 HD
ENDBRANCH   9  14
BRANCH   9  16
ATOM     16  C   UNL     1      25.591  34.854  11.143  1.00  0.00     0.364 C 
ATOM     17  O   UNL     1      24.362  34.931  11.412  1.00  0.00    -0.246 OA
BRANCH  16  18
ATOM     18  O   UNL     1      26.384  34.060  11.942  1.00  0.00    -0.477 OA
ATOM     19  H   UNL     1      27.012  34.410  12.659  1.00  0.00     0.296 HD
ENDBRANCH  16  18
ENDBRANCH   9  16
BRANCH  12  20
ATOM     20  O   UNL     1      28.169  34.961   7.550  1.00  0.00    -0.391 OA
ATOM     21  H   UNL     1      28.668  35.827   7.669  1.00  0.00     0.211 HD
ENDBRANCH  12  20
BRANCH  13  22
ATOM     22  N   UNL     1      26.595  37.441   6.482  1.00  0.00    -0.348 N 
ATOM     23  C   UNL     1      27.787  37.899   5.858  1.00  0.00     0.217 C 
ATOM     24  H   UNL     1      25.703  37.662   5.990  1.00  0.00     0.163 HD
ATOM     25  C   UNL     1      27.755  38.654   4.570  1.00  0.00     0.114 C 
ATOM     26  O   UNL     1      28.867  37.648   6.427  1.00  0.00    -0.275 OA
ENDBRANCH  13  22
ENDBRANCH   7   8
BRANCH   7  27
ATOM     27  O   UNL     1      25.172  39.235   8.169  1.00  0.00    -0.388 OA
ATOM     28  H   UNL     1      24.548  39.988   8.261  1.00  0.00     0.211 HD
ENDBRANCH   7  27
ENDBRANCH   6   7
BRANCH   6  29
ATOM     29  O   UNL     1      22.159  38.306   7.658  1.00  0.00    -0.388 OA
ATOM     30  H   UNL     1      21.312  38.715   7.991  1.00  0.00     0.211 HD
ENDBRANCH   6  29
ENDBRANCH   5   6
ENDBRANCH   1   5
BRANCH   2  31
ATOM     31  O   UNL     1      25.138  39.414  12.665  1.00  0.00    -0.443 OA
BRANCH  31  32
ATOM     32  C   UNL     1      25.037  38.135  13.266  1.00  0.00     0.294 C 
BRANCH  32  33
ATOM     33  C   UNL     1      26.391  37.542  13.343  1.00  0.00     0.120 A 
ATOM     34  C   UNL     1      26.874  36.576  14.198  1.00  0.00     0.138 A 
ATOM     35  N   UNL     1      27.415  37.880  12.535  1.00  0.00    -0.132 NA
ATOM     36  N   UNL     1      28.166  36.352  13.896  1.00  0.00    -0.249 N 
ATOM     37  N   UNL     1      28.455  37.166  12.878  1.00  0.00    -0.067 NA
BRANCH  36  38
ATOM     38  C   UNL     1      29.059  35.401  14.560  1.00  0.00     0.115 C 
BRANCH  38  39
ATOM     39  C   UNL     1      29.956  36.178  15.463  1.00  0.00     0.063 C 
BRANCH  39  40
ATOM     40  C   UNL     1      30.713  35.361  16.450  1.00  0.00     0.139 CG0
ATOM     41  G   UNL     1      31.816  34.589  15.854  1.00  0.00     0.000 G0
BRANCH  40  42
ATOM     42  O   UNL     1      31.132  36.116  17.568  1.00  0.00    -0.389 OA
ATOM     43  H   UNL     1      30.940  37.062  17.393  1.00  0.00     0.211 HD
ENDBRANCH  40  42
ENDBRANCH  39  40
ENDBRANCH  38  39
BRANCH  38  44
ATOM     44  C   UNL     1      29.767  34.628  13.502  1.00  0.00     0.063 C 
BRANCH  44  45
ATOM     45  C   UNL     1      31.233  34.919  13.393  1.00  0.00     0.139 C 
BRANCH  45  46
ATOM     46  C   UNL     1      32.026  34.412  14.535  1.00  0.00     0.002 C 
ATOM     47  C   UNL     1      31.813  34.597  15.818  1.00  0.00     0.002 CG0
ATOM     48  G   UNL     1      30.737  35.354  16.479  1.00  0.00     0.000 G0
ENDBRANCH  45  46
BRANCH  45  49
ATOM     49  O   UNL     1      31.774  34.502  12.178  1.00  0.00    -0.389 OA
ATOM     50  H   UNL     1      32.284  35.227  11.738  1.00  0.00     0.211 HD
ENDBRANCH  45  49
ENDBRANCH  44  45
ENDBRANCH  38  44
ENDBRANCH  36  38
ENDBRANCH  32  33
ENDBRANCH  31  32
ENDBRANCH   2  31
TORSDOF 17
BEGIN_RES LYS A 131
REMARK  4 active torsions:
REMARK  status: ('A' for Active; 'I' for Inactive)
REMARK    1  A    between atoms: CA   and  CB  
REMARK    2  A    between atoms: CB   and  CG  
REMARK    3  A    between atoms: CG   and  CD  
REMARK    4  A    between atoms: CD   and  CE  
ROOT
ATOM      1  CA  LYS A 131      29.867  25.555  16.977  1.00 20.52     0.186 C 
ENDROOT
BRANCH   1   2
ATOM      2  CB  LYS A 131      28.345  25.722  17.026  1.00 20.94     0.034 C 
BRANCH   2   3
ATOM      3  CG  LYS A 131      27.602  24.398  16.935  1.00 22.96     0.005 C 
BRANCH   3   4
ATOM      4  CD  LYS A 131      26.246  24.464  17.580  1.00 24.33     0.041 C 
BRANCH   4   5
ATOM      5  CE  LYS A 131      25.615  23.075  17.583  1.00 26.91     0.338 C 
ATOM      6  NZ  LYS A 131      24.293  23.107  18.251  1.00 27.40     0.618 N 
ENDBRANCH   4   5
ENDBRANCH   3   4
ENDBRANCH   2   3
ENDBRANCH   1   2
END_RES LYS A 131
BEGIN_RES LYS A 135
REMARK  4 active torsions:
REMARK  status: ('A' for Active; 'I' for Inactive)
REMARK    5  A    between atoms: CA   and  CB  
REMARK    6  A    between atoms: CB   and  CG  
REMARK    7  A    between atoms: CG   and  CD  
REMARK    8  A    between atoms: CD   and  CE  
ROOT
ATOM      7  CA  LYS A 135      33.193  34.663   9.290  1.00 25.02     0.186 C 
ENDROOT
BRANCH   7   8
ATOM      8  CB  LYS A 135      32.060  35.360  10.034  1.00 26.63     0.034 C 
BRANCH   8   9
ATOM      9  CG  LYS A 135      30.943  35.822   9.134  1.00 29.45     0.005 C 
BRANCH   9  10
ATOM     10  CD  LYS A 135      30.334  37.115   9.655  1.00 32.00     0.041 C 
BRANCH  10  11
ATOM     11  CE  LYS A 135      31.026  38.315   9.038  1.00 34.25     0.338 C 
ATOM     12  NZ  LYS A 135      31.881  39.013  10.038  1.00 35.99     0.618 N 
ENDBRANCH  10  11
ENDBRANCH   9  10
ENDBRANCH   8   9
ENDBRANCH   7   8
END_RES LYS A 135
