REMARK VINA RESULT:    -4.212      7.710     15.300
REMARK INTER + INTRA:         -13.978
REMARK INTER:                  -6.586
REMARK INTRA:                  -7.392
REMARK UNBOUND:                -5.949
REMARK SMILES CCOC(=O)Cn1cc(COC(=O)NC[C@@H](O)C(O)[C@@H]2O[C@@](O)(C(=O)O)C[C@H](O)[C@H]2NC(C)=O)nn1
REMARK SMILES IDX 14 1 12 2 13 3 15 5 16 6 18 7 20 8 22 9 27 10 21 11 28 12
REMARK SMILES IDX 30 13 23 14 24 16 25 17 26 18 29 20 31 22 32 23 33 25 34 26
REMARK SMILES IDX 19 27 17 29 11 31 10 32 9 33 8 34 35 35 7 36 36 37 6 38 4 39
REMARK SMILES IDX 5 40 3 41 2 42 1 43
REMARK H PARENT 14 4 23 15 26 19 29 21 31 24 19 28 17 30
REMARK Flexibility Score: inf
ROOT
ATOM      1  N   UNL     1      28.773  40.594   4.742  1.00  0.00    -0.319 N 
ATOM      2  C   UNL     1      28.916  41.946   5.127  1.00  0.00     0.407 C 
ATOM      3  O   UNL     1      29.608  42.294   6.089  1.00  0.00    -0.225 OA
ATOM      4  H   UNL     1      28.145  40.458   3.883  1.00  0.00     0.167 HD
ENDROOT
BRANCH   1   5
ATOM      5  C   UNL     1      29.368  39.463   5.377  1.00  0.00     0.154 C 
BRANCH   5   6
ATOM      6  C   UNL     1      28.509  38.261   5.571  1.00  0.00     0.165 C 
BRANCH   6   7
ATOM      7  C   UNL     1      27.342  38.477   6.468  1.00  0.00     0.176 C 
BRANCH   7   8
ATOM      8  C   UNL     1      27.101  37.416   7.507  1.00  0.00     0.178 C 
ATOM      9  C   UNL     1      24.904  37.487   8.303  1.00  0.00     0.269 C 
ATOM     10  C   UNL     1      25.218  36.825   9.627  1.00  0.00     0.112 C 
ATOM     11  O   UNL     1      25.771  37.030   7.360  1.00  0.00    -0.332 OA
ATOM     12  C   UNL     1      26.671  36.939   9.907  1.00  0.00     0.145 C 
ATOM     13  C   UNL     1      27.410  37.849   8.913  1.00  0.00     0.142 C 
BRANCH   9  14
ATOM     14  O   UNL     1      24.902  38.851   8.529  1.00  0.00    -0.357 OA
ATOM     15  H   UNL     1      25.401  39.279   7.796  1.00  0.00     0.214 HD
ENDBRANCH   9  14
BRANCH   9  16
ATOM     16  C   UNL     1      23.538  37.054   7.931  1.00  0.00     0.364 C 
ATOM     17  O   UNL     1      22.959  36.214   8.652  1.00  0.00    -0.246 OA
BRANCH  16  18
ATOM     18  O   UNL     1      22.900  37.549   6.822  1.00  0.00    -0.477 OA
ATOM     19  H   UNL     1      23.262  37.409   5.879  1.00  0.00     0.296 HD
ENDBRANCH  16  18
ENDBRANCH   9  16
BRANCH  12  20
ATOM     20  O   UNL     1      26.959  37.372  11.198  1.00  0.00    -0.391 OA
ATOM     21  H   UNL     1      26.549  38.229  11.430  1.00  0.00     0.211 HD
ENDBRANCH  12  20
BRANCH  13  22
ATOM     22  N   UNL     1      28.808  37.655   9.237  1.00  0.00    -0.348 N 
ATOM     23  C   UNL     1      29.781  38.668   9.284  1.00  0.00     0.217 C 
ATOM     24  H   UNL     1      29.112  36.681   9.455  1.00  0.00     0.163 HD
ATOM     25  C   UNL     1      31.209  38.447   9.621  1.00  0.00     0.114 C 
ATOM     26  O   UNL     1      29.397  39.849   9.018  1.00  0.00    -0.275 OA
ENDBRANCH  13  22
ENDBRANCH   7   8
BRANCH   7  27
ATOM     27  O   UNL     1      27.337  39.748   6.991  1.00  0.00    -0.388 OA
ATOM     28  H   UNL     1      26.740  40.383   6.522  1.00  0.00     0.211 HD
ENDBRANCH   7  27
ENDBRANCH   6   7
BRANCH   6  29
ATOM     29  O   UNL     1      29.294  37.264   6.186  1.00  0.00    -0.388 OA
ATOM     30  H   UNL     1      29.354  37.431   7.172  1.00  0.00     0.211 HD
ENDBRANCH   6  29
ENDBRANCH   5   6
ENDBRANCH   1   5
BRANCH   2  31
ATOM     31  O   UNL     1      28.259  42.972   4.410  1.00  0.00    -0.443 OA
BRANCH  31  32
ATOM     32  C   UNL     1      27.074  42.709   3.683  1.00  0.00     0.294 C 
BRANCH  32  33
ATOM     33  C   UNL     1      26.085  42.175   4.656  1.00  0.00     0.120 A 
ATOM     34  C   UNL     1      25.381  42.864   5.616  1.00  0.00     0.139 A 
ATOM     35  N   UNL     1      25.675  40.883   4.789  1.00  0.00    -0.132 NA
ATOM     36  N   UNL     1      24.593  41.966   6.271  1.00  0.00    -0.241 N 
ATOM     37  N   UNL     1      24.797  40.772   5.743  1.00  0.00    -0.066 NA
BRANCH  36  38
ATOM     38  C   UNL     1      23.678  42.224   7.359  1.00  0.00     0.268 C 
BRANCH  38  39
ATOM     39  C   UNL     1      22.434  41.458   7.194  1.00  0.00     0.327 C 
ATOM     40  O   UNL     1      21.504  41.942   6.513  1.00  0.00    -0.250 OA
BRANCH  39  41
ATOM     41  O   UNL     1      22.336  40.209   7.810  1.00  0.00    -0.465 OA
BRANCH  41  42
ATOM     42  C   UNL     1      21.601  40.180   9.037  1.00  0.00     0.229 C 
ATOM     43  C   UNL     1      20.312  39.440   8.784  1.00  0.00     0.049 C 
ENDBRANCH  41  42
ENDBRANCH  39  41
ENDBRANCH  38  39
ENDBRANCH  36  38
ENDBRANCH  32  33
ENDBRANCH  31  32
ENDBRANCH   2  31
TORSDOF 18
BEGIN_RES LYS A 131
REMARK  4 active torsions:
REMARK  status: ('A' for Active; 'I' for Inactive)
REMARK    1  A    between atoms: CA   and  CB  
REMARK    2  A    between atoms: CB   and  CG  
REMARK    3  A    between atoms: CG   and  CD  
REMARK    4  A    between atoms: CD   and  CE  
ROOT
ATOM      1  CA  LYS A 131      29.867  25.555  16.977  1.00 20.52     0.186 C 
ENDROOT
BRANCH   1   2
ATOM      2  CB  LYS A 131      28.345  25.722  17.026  1.00 20.94     0.034 C 
BRANCH   2   3
ATOM      3  CG  LYS A 131      27.605  24.393  17.046  1.00 22.96     0.005 C 
BRANCH   3   4
ATOM      4  CD  LYS A 131      26.117  24.575  17.159  1.00 24.33     0.041 C 
BRANCH   4   5
ATOM      5  CE  LYS A 131      25.482  23.280  17.657  1.00 26.91     0.338 C 
ATOM      6  NZ  LYS A 131      25.633  23.160  19.126  1.00 27.40     0.618 N 
ENDBRANCH   4   5
ENDBRANCH   3   4
ENDBRANCH   2   3
ENDBRANCH   1   2
END_RES LYS A 131
BEGIN_RES LYS A 135
REMARK  4 active torsions:
REMARK  status: ('A' for Active; 'I' for Inactive)
REMARK    5  A    between atoms: CA   and  CB  
REMARK    6  A    between atoms: CB   and  CG  
REMARK    7  A    between atoms: CG   and  CD  
REMARK    8  A    between atoms: CD   and  CE  
ROOT
ATOM      7  CA  LYS A 135      33.193  34.663   9.290  1.00 25.02     0.186 C 
ENDROOT
BRANCH   7   8
ATOM      8  CB  LYS A 135      32.060  35.360  10.034  1.00 26.63     0.034 C 
BRANCH   8   9
ATOM      9  CG  LYS A 135      30.748  34.622   9.961  1.00 29.45     0.005 C 
BRANCH   9  10
ATOM     10  CD  LYS A 135      30.349  34.379   8.514  1.00 32.00     0.041 C 
BRANCH  10  11
ATOM     11  CE  LYS A 135      28.839  34.329   8.379  1.00 34.25     0.338 C 
ATOM     12  NZ  LYS A 135      28.212  33.724   9.587  1.00 35.99     0.618 N 
ENDBRANCH  10  11
ENDBRANCH   9  10
ENDBRANCH   8   9
ENDBRANCH   7   8
END_RES LYS A 135
