REMARK VINA RESULT:    -6.078      0.000      0.000
REMARK INTER + INTRA:         -14.914
REMARK INTER:                  -8.762
REMARK INTRA:                  -6.153
REMARK UNBOUND:                -4.396
REMARK SMILES CC(=O)N[C@@H]1[C@@H](O)C[C@](O)(C(=O)O)O[C@H]1C(O)[C@H](O)CNC(=O)OCc1cn(-c2ccccc2Br)nn1
REMARK SMILES IDX 20 1 18 2 16 3 15 4 9 5 8 6 14 7 6 8 5 9 10 10 11 12 12 13
REMARK SMILES IDX 13 14 7 16 4 18 2 19 1 21 3 22 17 23 19 25 21 27 22 28 23 30
REMARK SMILES IDX 24 31 25 32 26 33 27 34 37 35 28 36 36 37 29 38 30 39 34 40
REMARK SMILES IDX 31 41 33 42 35 43 32 44
REMARK H PARENT 10 11 13 15 7 17 4 20 17 24 19 26 21 29
REMARK Flexibility Score: inf
ROOT
ATOM      1  C   UNL     1      26.589  27.434  19.628  1.00  0.00     0.154 C 
ENDROOT
BRANCH   1   2
ATOM      2  C   UNL     1      27.317  27.571  20.940  1.00  0.00     0.165 C 
BRANCH   2   3
ATOM      3  C   UNL     1      28.756  27.860  20.642  1.00  0.00     0.176 C 
BRANCH   3   4
ATOM      4  C   UNL     1      29.397  28.934  21.489  1.00  0.00     0.178 C 
ATOM      5  C   UNL     1      30.315  30.572  20.084  1.00  0.00     0.269 C 
ATOM      6  C   UNL     1      31.344  30.951  21.150  1.00  0.00     0.112 C 
ATOM      7  O   UNL     1      29.240  30.111  20.767  1.00  0.00    -0.332 OA
ATOM      8  C   UNL     1      31.826  29.648  21.720  1.00  0.00     0.145 C 
ATOM      9  C   UNL     1      30.742  28.641  21.996  1.00  0.00     0.142 C 
BRANCH   5  10
ATOM     10  O   UNL     1      30.934  29.703  19.223  1.00  0.00    -0.357 OA
ATOM     11  H   UNL     1      30.669  29.951  18.303  1.00  0.00     0.214 HD
ENDBRANCH   5  10
BRANCH   5  12
ATOM     12  C   UNL     1      29.933  31.795  19.325  1.00  0.00     0.364 C 
ATOM     13  O   UNL     1      30.812  32.402  18.665  1.00  0.00    -0.246 OA
BRANCH  12  14
ATOM     14  O   UNL     1      28.629  32.278  19.331  1.00  0.00    -0.477 OA
ATOM     15  H   UNL     1      27.848  31.776  18.916  1.00  0.00     0.296 HD
ENDBRANCH  12  14
ENDBRANCH   5  12
BRANCH   8  16
ATOM     16  O   UNL     1      32.727  29.122  20.793  1.00  0.00    -0.391 OA
ATOM     17  H   UNL     1      32.273  28.612  20.099  1.00  0.00     0.211 HD
ENDBRANCH   8  16
BRANCH   9  18
ATOM     18  N   UNL     1      30.652  28.452  23.459  1.00  0.00    -0.348 N 
ATOM     19  C   UNL     1      30.475  27.170  24.026  1.00  0.00     0.217 C 
ATOM     20  H   UNL     1      30.723  29.286  24.110  1.00  0.00     0.163 HD
ATOM     21  C   UNL     1      30.374  26.972  25.512  1.00  0.00     0.114 C 
ATOM     22  O   UNL     1      30.400  26.185  23.250  1.00  0.00    -0.275 OA
ENDBRANCH   9  18
ENDBRANCH   3   4
BRANCH   3  23
ATOM     23  O   UNL     1      29.473  26.697  20.532  1.00  0.00    -0.388 OA
ATOM     24  H   UNL     1      29.903  26.422  21.397  1.00  0.00     0.211 HD
ENDBRANCH   3  23
ENDBRANCH   2   3
BRANCH   2  25
ATOM     25  O   UNL     1      27.189  26.422  21.676  1.00  0.00    -0.388 OA
ATOM     26  H   UNL     1      26.489  25.809  21.318  1.00  0.00     0.211 HD
ENDBRANCH   2  25
ENDBRANCH   1   2
BRANCH   1  27
ATOM     27  N   UNL     1      27.253  27.927  18.470  1.00  0.00    -0.319 N 
ATOM     28  C   UNL     1      27.205  29.270  18.035  1.00  0.00     0.407 C 
ATOM     29  H   UNL     1      27.839  27.264  17.861  1.00  0.00     0.167 HD
ATOM     30  O   UNL     1      26.555  30.164  18.626  1.00  0.00    -0.225 OA
BRANCH  28  31
ATOM     31  O   UNL     1      27.920  29.626  16.882  1.00  0.00    -0.443 OA
BRANCH  31  32
ATOM     32  C   UNL     1      27.284  30.487  15.965  1.00  0.00     0.294 C 
BRANCH  32  33
ATOM     33  C   UNL     1      27.990  31.791  15.998  1.00  0.00     0.121 A 
ATOM     34  C   UNL     1      29.147  32.084  15.264  1.00  0.00     0.144 A 
ATOM     35  N   UNL     1      27.743  32.921  16.671  1.00  0.00    -0.131 NA
ATOM     36  N   UNL     1      29.542  33.344  15.516  1.00  0.00    -0.219 N 
ATOM     37  N   UNL     1      28.666  33.830  16.378  1.00  0.00    -0.062 NA
BRANCH  36  38
ATOM     38  C   UNL     1      30.678  34.001  14.955  1.00  0.00     0.081 A 
ATOM     39  C   UNL     1      31.936  33.866  15.500  1.00  0.00     0.029 A 
ATOM     40  C   UNL     1      30.559  34.799  13.837  1.00  0.00     0.043 A 
ATOM     41  C   UNL     1      33.037  34.516  14.938  1.00  0.00     0.002 A 
ATOM     42  C   UNL     1      31.649  35.446  13.276  1.00  0.00     0.018 A 
ATOM     43  Br  UNL     1      28.811  34.993  13.069  1.00  0.00    -0.048 Br
ATOM     44  C   UNL     1      32.909  35.313  13.819  1.00  0.00     0.001 A 
ENDBRANCH  36  38
ENDBRANCH  32  33
ENDBRANCH  31  32
ENDBRANCH  28  31
ENDBRANCH   1  27
TORSDOF 15
BEGIN_RES LYS A 131
REMARK  4 active torsions:
REMARK  status: ('A' for Active; 'I' for Inactive)
REMARK    1  A    between atoms: CA   and  CB  
REMARK    2  A    between atoms: CB   and  CG  
REMARK    3  A    between atoms: CG   and  CD  
REMARK    4  A    between atoms: CD   and  CE  
ROOT
ATOM      1  CA  LYS A 131      29.867  25.555  16.977  1.00 20.52     0.186 C 
ENDROOT
BRANCH   1   2
ATOM      2  CB  LYS A 131      28.345  25.722  17.026  1.00 20.94     0.034 C 
BRANCH   2   3
ATOM      3  CG  LYS A 131      27.600  24.412  16.818  1.00 22.96     0.005 C 
BRANCH   3   4
ATOM      4  CD  LYS A 131      26.828  23.999  18.040  1.00 24.33     0.041 C 
BRANCH   4   5
ATOM      5  CE  LYS A 131      25.501  23.378  17.618  1.00 26.91     0.338 C 
ATOM      6  NZ  LYS A 131      24.671  24.370  16.894  1.00 27.40     0.618 N 
ENDBRANCH   4   5
ENDBRANCH   3   4
ENDBRANCH   2   3
ENDBRANCH   1   2
END_RES LYS A 131
BEGIN_RES LYS A 135
REMARK  4 active torsions:
REMARK  status: ('A' for Active; 'I' for Inactive)
REMARK    5  A    between atoms: CA   and  CB  
REMARK    6  A    between atoms: CB   and  CG  
REMARK    7  A    between atoms: CG   and  CD  
REMARK    8  A    between atoms: CD   and  CE  
ROOT
ATOM      7  CA  LYS A 135      33.193  34.663   9.290  1.00 25.02     0.186 C 
ENDROOT
BRANCH   7   8
ATOM      8  CB  LYS A 135      32.060  35.360  10.034  1.00 26.63     0.034 C 
BRANCH   8   9
ATOM      9  CG  LYS A 135      30.705  34.753   9.774  1.00 29.45     0.005 C 
BRANCH   9  10
ATOM     10  CD  LYS A 135      30.191  35.157   8.401  1.00 32.00     0.041 C 
BRANCH  10  11
ATOM     11  CE  LYS A 135      28.831  34.540   8.139  1.00 34.25     0.338 C 
ATOM     12  NZ  LYS A 135      28.271  33.931   9.377  1.00 35.99     0.618 N 
ENDBRANCH  10  11
ENDBRANCH   9  10
ENDBRANCH   8   9
ENDBRANCH   7   8
END_RES LYS A 135
