REMARK VINA RESULT:    -5.361      2.169      4.849
REMARK INTER + INTRA:         -15.361
REMARK INTER:                  -8.888
REMARK INTRA:                  -6.473
REMARK UNBOUND:                -6.084
REMARK SMILES CC(=O)N[C@@H]1[C@@H](O)C[C@](O)(C(=O)O)O[C@H]1C(O)[C@H](O)CNC(=O)OCc1cn(-c2c3ccccc3nc3ccccc23)nn1
REMARK SMILES IDX 20 1 18 2 16 3 15 4 9 5 8 6 14 7 6 8 5 9 10 10 11 12 12 13
REMARK SMILES IDX 13 14 7 16 4 18 2 19 1 21 3 22 17 23 19 25 21 27 22 28 23 30
REMARK SMILES IDX 24 31 25 32 26 33 27 34 44 35 28 36 43 37 29 38 30 39 42 40
REMARK SMILES IDX 31 41 35 42 37 43 41 44 32 45 34 46 36 47 38 48 40 49 33 50
REMARK SMILES IDX 39 51
REMARK H PARENT 10 11 13 15 7 17 4 20 17 24 19 26 21 29
REMARK Flexibility Score: inf
ROOT
ATOM      1  C   UNL     1      21.404  36.161   9.474  1.00  0.00     0.154 C 
ENDROOT
BRANCH   1   2
ATOM      2  C   UNL     1      21.902  36.631   8.134  1.00  0.00     0.165 C 
BRANCH   2   3
ATOM      3  C   UNL     1      22.342  38.052   8.304  1.00  0.00     0.176 C 
BRANCH   3   4
ATOM      4  C   UNL     1      23.828  38.208   8.591  1.00  0.00     0.178 C 
ATOM      5  C   UNL     1      25.663  36.913   8.890  1.00  0.00     0.269 C 
ATOM      6  C   UNL     1      26.091  37.529  10.196  1.00  0.00     0.112 C 
ATOM      7  O   UNL     1      24.319  36.937   8.709  1.00  0.00    -0.332 OA
ATOM      8  C   UNL     1      25.030  38.396  10.807  1.00  0.00     0.145 C 
ATOM      9  C   UNL     1      24.088  38.999   9.819  1.00  0.00     0.142 C 
BRANCH   5  10
ATOM     10  O   UNL     1      26.004  35.520   8.931  1.00  0.00    -0.357 OA
ATOM     11  H   UNL     1      26.575  35.300   8.156  1.00  0.00     0.214 HD
ENDBRANCH   5  10
BRANCH   5  12
ATOM     12  C   UNL     1      26.481  37.447   7.774  1.00  0.00     0.364 C 
ATOM     13  O   UNL     1      27.431  38.251   7.969  1.00  0.00    -0.246 OA
BRANCH  12  14
ATOM     14  O   UNL     1      26.251  37.096   6.435  1.00  0.00    -0.477 OA
ATOM     15  H   UNL     1      25.381  37.360   5.999  1.00  0.00     0.296 HD
ENDBRANCH  12  14
ENDBRANCH   5  12
BRANCH   8  16
ATOM     16  O   UNL     1      24.342  37.647  11.767  1.00  0.00    -0.391 OA
ATOM     17  H   UNL     1      24.085  38.205  12.543  1.00  0.00     0.211 HD
ENDBRANCH   8  16
BRANCH   9  18
ATOM     18  N   UNL     1      24.506  40.381   9.557  1.00  0.00    -0.348 N 
ATOM     19  C   UNL     1      23.648  41.494   9.773  1.00  0.00     0.217 C 
ATOM     20  H   UNL     1      25.460  40.605   9.197  1.00  0.00     0.163 HD
ATOM     21  C   UNL     1      24.092  42.896   9.502  1.00  0.00     0.114 C 
ATOM     22  O   UNL     1      22.479  41.313  10.203  1.00  0.00    -0.275 OA
ENDBRANCH   9  18
ENDBRANCH   3   4
BRANCH   3  23
ATOM     23  O   UNL     1      21.641  38.623   9.356  1.00  0.00    -0.388 OA
ATOM     24  H   UNL     1      20.958  37.972   9.650  1.00  0.00     0.211 HD
ENDBRANCH   3  23
ENDBRANCH   2   3
BRANCH   2  25
ATOM     25  O   UNL     1      20.928  36.470   7.178  1.00  0.00    -0.388 OA
ATOM     26  H   UNL     1      20.117  36.980   7.480  1.00  0.00     0.211 HD
ENDBRANCH   2  25
ENDBRANCH   1   2
BRANCH   1  27
ATOM     27  N   UNL     1      22.395  35.793  10.425  1.00  0.00    -0.319 N 
ATOM     28  C   UNL     1      22.143  35.086  11.619  1.00  0.00     0.407 C 
ATOM     29  H   UNL     1      23.436  36.047  10.277  1.00  0.00     0.167 HD
ATOM     30  O   UNL     1      20.992  34.730  11.941  1.00  0.00    -0.225 OA
BRANCH  28  31
ATOM     31  O   UNL     1      23.173  34.742  12.509  1.00  0.00    -0.443 OA
BRANCH  31  32
ATOM     32  C   UNL     1      24.367  34.123  12.029  1.00  0.00     0.294 C 
BRANCH  32  33
ATOM     33  C   UNL     1      25.501  34.668  12.813  1.00  0.00     0.121 A 
ATOM     34  C   UNL     1      26.839  34.389  12.627  1.00  0.00     0.144 A 
ATOM     35  N   UNL     1      25.482  35.534  13.855  1.00  0.00    -0.131 NA
ATOM     36  N   UNL     1      27.575  35.065  13.523  1.00  0.00    -0.219 N 
ATOM     37  N   UNL     1      26.733  35.755  14.261  1.00  0.00    -0.062 NA
BRANCH  36  38
ATOM     38  C   UNL     1      28.980  35.056  13.667  1.00  0.00     0.085 A 
ATOM     39  C   UNL     1      29.606  34.061  14.423  1.00  0.00     0.027 A 
ATOM     40  C   UNL     1      29.785  36.013  13.071  1.00  0.00     0.027 A 
ATOM     41  C   UNL     1      28.860  33.081  15.042  1.00  0.00     0.012 A 
ATOM     42  C   UNL     1      30.956  34.024  14.575  1.00  0.00     0.073 A 
ATOM     43  C   UNL     1      31.151  35.956  13.237  1.00  0.00     0.073 A 
ATOM     44  C   UNL     1      29.169  36.990  12.330  1.00  0.00     0.012 A 
ATOM     45  C   UNL     1      29.429  32.079  15.799  1.00  0.00     0.001 A 
ATOM     46  C   UNL     1      31.544  33.019  15.336  1.00  0.00     0.029 A 
ATOM     47  N   UNL     1      31.704  34.973  13.979  1.00  0.00    -0.248 NA
ATOM     48  C   UNL     1      31.910  36.927  12.628  1.00  0.00     0.029 A 
ATOM     49  C   UNL     1      29.967  37.963  11.724  1.00  0.00     0.001 A 
ATOM     50  C   UNL     1      30.817  32.031  15.961  1.00  0.00     0.002 A 
ATOM     51  C   UNL     1      31.337  37.944  11.865  1.00  0.00     0.002 A 
ENDBRANCH  36  38
ENDBRANCH  32  33
ENDBRANCH  31  32
ENDBRANCH  28  31
ENDBRANCH   1  27
TORSDOF 15
BEGIN_RES LYS A 131
REMARK  4 active torsions:
REMARK  status: ('A' for Active; 'I' for Inactive)
REMARK    1  A    between atoms: CA   and  CB  
REMARK    2  A    between atoms: CB   and  CG  
REMARK    3  A    between atoms: CG   and  CD  
REMARK    4  A    between atoms: CD   and  CE  
ROOT
ATOM      1  CA  LYS A 131      29.867  25.555  16.977  1.00 20.52     0.186 C 
ENDROOT
BRANCH   1   2
ATOM      2  CB  LYS A 131      28.345  25.722  17.026  1.00 20.94     0.034 C 
BRANCH   2   3
ATOM      3  CG  LYS A 131      27.601  24.403  16.887  1.00 22.96     0.005 C 
BRANCH   3   4
ATOM      4  CD  LYS A 131      26.155  24.524  17.279  1.00 24.33     0.041 C 
BRANCH   4   5
ATOM      5  CE  LYS A 131      26.055  25.123  18.678  1.00 26.91     0.338 C 
ATOM      6  NZ  LYS A 131      25.485  24.136  19.626  1.00 27.40     0.618 N 
ENDBRANCH   4   5
ENDBRANCH   3   4
ENDBRANCH   2   3
ENDBRANCH   1   2
END_RES LYS A 131
BEGIN_RES LYS A 135
REMARK  4 active torsions:
REMARK  status: ('A' for Active; 'I' for Inactive)
REMARK    5  A    between atoms: CA   and  CB  
REMARK    6  A    between atoms: CB   and  CG  
REMARK    7  A    between atoms: CG   and  CD  
REMARK    8  A    between atoms: CD   and  CE  
ROOT
ATOM      7  CA  LYS A 135      33.193  34.663   9.290  1.00 25.02     0.186 C 
ENDROOT
BRANCH   7   8
ATOM      8  CB  LYS A 135      32.060  35.360  10.034  1.00 26.63     0.034 C 
BRANCH   8   9
ATOM      9  CG  LYS A 135      30.702  34.770   9.753  1.00 29.45     0.005 C 
BRANCH   9  10
ATOM     10  CD  LYS A 135      30.537  34.485   8.268  1.00 32.00     0.041 C 
BRANCH  10  11
ATOM     11  CE  LYS A 135      29.144  34.866   7.805  1.00 34.25     0.338 C 
ATOM     12  NZ  LYS A 135      29.182  35.503   6.460  1.00 35.99     0.618 N 
ENDBRANCH  10  11
ENDBRANCH   9  10
ENDBRANCH   8   9
ENDBRANCH   7   8
END_RES LYS A 135
