REMARK VINA RESULT:    -5.179      5.306     11.340
REMARK INTER + INTRA:         -16.248
REMARK INTER:                 -11.952
REMARK INTRA:                  -4.296
REMARK UNBOUND:                -6.527
REMARK SMILES CC(=O)N[C@@H]1[C@@H](O)C[C@](O)(C(=O)O)O[C@H]1C(O)[C@H](O)CNC(=O)OCc1cn(-c2ccc(S(=O)(=O)c3ccc(N)cc3)cc2)nn1
REMARK SMILES IDX 21 1 22 2 23 3 20 5 18 6 16 7 15 8 9 9 8 10 14 11 6 12 5 13
REMARK SMILES IDX 10 14 11 16 12 17 13 18 7 20 4 22 2 23 1 25 3 26 17 27 19 29
REMARK SMILES IDX 24 31 25 32 26 33 27 34 46 35 28 36 45 37 29 38 30 39 44 40
REMARK SMILES IDX 31 41 43 42 32 43 33 44 34 45 35 46 36 47 37 48 42 49 38 50
REMARK SMILES IDX 41 51 39 52 40 53
REMARK H PARENT 21 4 10 15 13 19 7 21 4 24 17 28 19 30 40 54 40 55
REMARK Flexibility Score: inf
ROOT
ATOM      1  N   UNL     1      26.195  36.852  10.979  1.00  0.00    -0.319 N 
ATOM      2  C   UNL     1      26.797  35.809  11.721  1.00  0.00     0.407 C 
ATOM      3  O   UNL     1      26.119  34.845  12.096  1.00  0.00    -0.225 OA
ATOM      4  H   UNL     1      26.857  37.641  10.696  1.00  0.00     0.167 HD
ENDROOT
BRANCH   1   5
ATOM      5  C   UNL     1      24.803  36.911  10.598  1.00  0.00     0.154 C 
BRANCH   5   6
ATOM      6  C   UNL     1      24.630  36.279   9.260  1.00  0.00     0.165 C 
BRANCH   6   7
ATOM      7  C   UNL     1      25.291  37.063   8.146  1.00  0.00     0.176 C 
BRANCH   7   8
ATOM      8  C   UNL     1      26.510  36.423   7.574  1.00  0.00     0.178 C 
ATOM      9  C   UNL     1      28.479  35.472   8.337  1.00  0.00     0.269 C 
ATOM     10  C   UNL     1      29.013  35.506   6.939  1.00  0.00     0.112 C 
ATOM     11  O   UNL     1      27.097  35.494   8.400  1.00  0.00    -0.332 OA
ATOM     12  C   UNL     1      28.392  36.533   6.061  1.00  0.00     0.145 C 
ATOM     13  C   UNL     1      27.469  37.397   6.937  1.00  0.00     0.142 C 
BRANCH   9  14
ATOM     14  O   UNL     1      29.051  36.491   9.132  1.00  0.00    -0.357 OA
ATOM     15  H   UNL     1      28.354  37.128   9.364  1.00  0.00     0.214 HD
ENDBRANCH   9  14
BRANCH   9  16
ATOM     16  C   UNL     1      28.923  34.188   8.955  1.00  0.00     0.364 C 
ATOM     17  O   UNL     1      28.044  33.420   9.455  1.00  0.00    -0.246 OA
BRANCH  16  18
ATOM     18  O   UNL     1      30.230  33.778   9.020  1.00  0.00    -0.477 OA
ATOM     19  H   UNL     1      30.962  34.426   9.305  1.00  0.00     0.296 HD
ENDBRANCH  16  18
ENDBRANCH   9  16
BRANCH  12  20
ATOM     20  O   UNL     1      29.310  37.323   5.388  1.00  0.00    -0.391 OA
ATOM     21  H   UNL     1      28.993  37.464   4.440  1.00  0.00     0.211 HD
ENDBRANCH  12  20
BRANCH  13  22
ATOM     22  N   UNL     1      26.697  38.269   6.060  1.00  0.00    -0.348 N 
ATOM     23  C   UNL     1      26.870  39.674   6.123  1.00  0.00     0.217 C 
ATOM     24  H   UNL     1      26.006  37.898   5.374  1.00  0.00     0.163 HD
ATOM     25  C   UNL     1      26.085  40.602   5.234  1.00  0.00     0.114 C 
ATOM     26  O   UNL     1      27.672  40.221   6.910  1.00  0.00    -0.275 OA
ENDBRANCH  13  22
ENDBRANCH   7   8
BRANCH   7  27
ATOM     27  O   UNL     1      24.295  37.260   7.182  1.00  0.00    -0.388 OA
ATOM     28  H   UNL     1      23.454  37.443   7.652  1.00  0.00     0.211 HD
ENDBRANCH   7  27
ENDBRANCH   6   7
BRANCH   6  29
ATOM     29  O   UNL     1      23.296  35.994   9.009  1.00  0.00    -0.388 OA
ATOM     30  H   UNL     1      22.767  36.228   9.813  1.00  0.00     0.211 HD
ENDBRANCH   6  29
ENDBRANCH   5   6
ENDBRANCH   1   5
BRANCH   2  31
ATOM     31  O   UNL     1      28.145  35.807  12.063  1.00  0.00    -0.443 OA
BRANCH  31  32
ATOM     32  C   UNL     1      28.789  34.652  12.580  1.00  0.00     0.294 C 
BRANCH  32  33
ATOM     33  C   UNL     1      29.243  34.853  13.985  1.00  0.00     0.121 A 
ATOM     34  C   UNL     1      30.519  35.199  14.338  1.00  0.00     0.144 A 
ATOM     35  N   UNL     1      28.535  34.742  15.117  1.00  0.00    -0.131 NA
ATOM     36  N   UNL     1      30.562  35.293  15.687  1.00  0.00    -0.220 N 
ATOM     37  N   UNL     1      29.360  35.013  16.108  1.00  0.00    -0.062 NA
BRANCH  36  38
ATOM     38  C   UNL     1      31.735  35.635  16.407  1.00  0.00     0.066 A 
ATOM     39  C   UNL     1      32.610  36.572  15.903  1.00  0.00     0.030 A 
ATOM     40  C   UNL     1      32.050  35.062  17.620  1.00  0.00     0.030 A 
ATOM     41  C   UNL     1      33.766  36.936  16.573  1.00  0.00     0.023 A 
ATOM     42  C   UNL     1      33.215  35.422  18.305  1.00  0.00     0.023 A 
ATOM     43  C   UNL     1      34.072  36.359  17.781  1.00  0.00     0.072 A 
BRANCH  43  44
ATOM     44  S   UNL     1      35.515  36.814  18.617  1.00  0.00     0.206 S 
ATOM     45  O   UNL     1      35.273  36.809  20.088  1.00  0.00    -0.219 OA
ATOM     46  O   UNL     1      35.997  38.183  18.234  1.00  0.00    -0.219 OA
BRANCH  44  47
ATOM     47  C   UNL     1      36.775  35.669  18.171  1.00  0.00     0.072 A 
ATOM     48  C   UNL     1      37.282  34.837  19.134  1.00  0.00     0.023 A 
ATOM     49  C   UNL     1      37.260  35.592  16.869  1.00  0.00     0.023 A 
ATOM     50  C   UNL     1      38.277  33.918  18.826  1.00  0.00     0.027 A 
ATOM     51  C   UNL     1      38.252  34.686  16.528  1.00  0.00     0.027 A 
ATOM     52  C   UNL     1      38.735  33.870  17.523  1.00  0.00     0.031 A 
BRANCH  52  53
ATOM     53  N   UNL     1      39.747  32.939  17.197  1.00  0.00    -0.399 N 
ATOM     54  H   UNL     1      40.715  33.257  17.025  1.00  0.00     0.156 HD
ATOM     55  H   UNL     1      39.511  31.934  17.131  1.00  0.00     0.156 HD
ENDBRANCH  52  53
ENDBRANCH  44  47
ENDBRANCH  43  44
ENDBRANCH  36  38
ENDBRANCH  32  33
ENDBRANCH  31  32
ENDBRANCH   2  31
TORSDOF 18
BEGIN_RES LYS A 131
REMARK  4 active torsions:
REMARK  status: ('A' for Active; 'I' for Inactive)
REMARK    1  A    between atoms: CA   and  CB  
REMARK    2  A    between atoms: CB   and  CG  
REMARK    3  A    between atoms: CG   and  CD  
REMARK    4  A    between atoms: CD   and  CE  
ROOT
ATOM      1  CA  LYS A 131      29.867  25.555  16.977  1.00 20.52     0.186 C 
ENDROOT
BRANCH   1   2
ATOM      2  CB  LYS A 131      28.345  25.722  17.026  1.00 20.94     0.034 C 
BRANCH   2   3
ATOM      3  CG  LYS A 131      27.601  24.401  16.902  1.00 22.96     0.005 C 
BRANCH   3   4
ATOM      4  CD  LYS A 131      26.180  24.504  17.380  1.00 24.33     0.041 C 
BRANCH   4   5
ATOM      5  CE  LYS A 131      25.993  25.812  18.143  1.00 26.91     0.338 C 
ATOM      6  NZ  LYS A 131      25.793  25.546  19.587  1.00 27.40     0.618 N 
ENDBRANCH   4   5
ENDBRANCH   3   4
ENDBRANCH   2   3
ENDBRANCH   1   2
END_RES LYS A 131
BEGIN_RES LYS A 135
REMARK  4 active torsions:
REMARK  status: ('A' for Active; 'I' for Inactive)
REMARK    5  A    between atoms: CA   and  CB  
REMARK    6  A    between atoms: CB   and  CG  
REMARK    7  A    between atoms: CG   and  CD  
REMARK    8  A    between atoms: CD   and  CE  
ROOT
ATOM      7  CA  LYS A 135      33.193  34.663   9.290  1.00 25.02     0.186 C 
ENDROOT
BRANCH   7   8
ATOM      8  CB  LYS A 135      32.060  35.360  10.034  1.00 26.63     0.034 C 
BRANCH   8   9
ATOM      9  CG  LYS A 135      32.513  36.097  11.268  1.00 29.45     0.005 C 
BRANCH   9  10
ATOM     10  CD  LYS A 135      32.167  37.575  11.167  1.00 32.00     0.041 C 
BRANCH  10  11
ATOM     11  CE  LYS A 135      31.395  38.026  12.393  1.00 34.25     0.338 C 
ATOM     12  NZ  LYS A 135      30.727  39.335  12.154  1.00 35.99     0.618 N 
ENDBRANCH  10  11
ENDBRANCH   9  10
ENDBRANCH   8   9
ENDBRANCH   7   8
END_RES LYS A 135
