REMARK VINA RESULT:    -4.940      3.692      6.451
REMARK INTER + INTRA:         -15.450
REMARK INTER:                  -8.256
REMARK INTRA:                  -7.194
REMARK UNBOUND:                -5.744
REMARK SMILES CC(=O)N[C@@H]1[C@@H](O)C[C@](O)(C(=O)O)O[C@H]1C(O)[C@H](O)CNC(=O)OCc1cn([C@@H](CC(=O)O)C(=O)O)nn1
REMARK SMILES IDX 21 1 22 2 23 3 20 5 18 6 16 7 15 8 9 9 8 10 14 11 6 12 5 13
REMARK SMILES IDX 10 14 11 16 12 17 13 18 7 20 4 22 2 23 1 25 3 26 17 27 19 29
REMARK SMILES IDX 24 31 25 32 26 33 27 34 38 35 28 36 37 37 29 38 30 39 31 40
REMARK SMILES IDX 32 41 33 42 34 44 35 45 36 46
REMARK H PARENT 21 4 10 15 13 19 7 21 4 24 17 28 19 30 33 43 36 47
REMARK Flexibility Score: inf
ROOT
ATOM      1  N   UNL     1      26.073  28.820  18.706  1.00  0.00    -0.319 N 
ATOM      2  C   UNL     1      25.515  30.062  18.277  1.00  0.00     0.407 C 
ATOM      3  O   UNL     1      25.424  30.985  19.093  1.00  0.00    -0.225 OA
ATOM      4  H   UNL     1      26.118  28.081  17.956  1.00  0.00     0.167 HD
ENDROOT
BRANCH   1   5
ATOM      5  C   UNL     1      26.544  28.554  20.029  1.00  0.00     0.154 C 
BRANCH   5   6
ATOM      6  C   UNL     1      27.947  27.984  19.999  1.00  0.00     0.165 C 
BRANCH   6   7
ATOM      7  C   UNL     1      28.984  29.068  20.226  1.00  0.00     0.176 C 
BRANCH   7   8
ATOM      8  C   UNL     1      29.538  29.105  21.605  1.00  0.00     0.178 C 
ATOM      9  C   UNL     1      31.385  30.372  20.987  1.00  0.00     0.269 C 
ATOM     10  C   UNL     1      32.107  29.150  20.600  1.00  0.00     0.112 C 
ATOM     11  O   UNL     1      30.311  30.249  21.830  1.00  0.00    -0.332 OA
ATOM     12  C   UNL     1      31.649  27.852  21.135  1.00  0.00     0.145 C 
ATOM     13  C   UNL     1      30.374  27.898  21.928  1.00  0.00     0.142 C 
BRANCH   9  14
ATOM     14  O   UNL     1      30.895  31.058  19.847  1.00  0.00    -0.357 OA
ATOM     15  H   UNL     1      29.962  31.307  20.084  1.00  0.00     0.214 HD
ENDBRANCH   9  14
BRANCH   9  16
ATOM     16  C   UNL     1      32.305  31.353  21.628  1.00  0.00     0.364 C 
ATOM     17  O   UNL     1      33.103  31.073  22.551  1.00  0.00    -0.246 OA
BRANCH  16  18
ATOM     18  O   UNL     1      32.271  32.659  21.166  1.00  0.00    -0.477 OA
ATOM     19  H   UNL     1      32.418  33.464  21.789  1.00  0.00     0.296 HD
ENDBRANCH  16  18
ENDBRANCH   9  16
BRANCH  12  20
ATOM     20  O   UNL     1      31.525  26.917  20.111  1.00  0.00    -0.391 OA
ATOM     21  H   UNL     1      32.288  26.871  19.510  1.00  0.00     0.211 HD
ENDBRANCH  12  20
BRANCH  13  22
ATOM     22  N   UNL     1      30.679  27.913  23.380  1.00  0.00    -0.348 N 
ATOM     23  C   UNL     1      30.349  26.812  24.202  1.00  0.00     0.217 C 
ATOM     24  H   UNL     1      31.140  28.731  23.830  1.00  0.00     0.163 HD
ATOM     25  C   UNL     1      30.635  26.783  25.666  1.00  0.00     0.114 C 
ATOM     26  O   UNL     1      29.794  25.824  23.676  1.00  0.00    -0.275 OA
ENDBRANCH  13  22
ENDBRANCH   7   8
BRANCH   7  27
ATOM     27  O   UNL     1      28.250  30.263  19.978  1.00  0.00    -0.388 OA
ATOM     28  H   UNL     1      27.737  30.183  19.140  1.00  0.00     0.211 HD
ENDBRANCH   7  27
ENDBRANCH   6   7
BRANCH   6  29
ATOM     29  O   UNL     1      28.111  27.298  18.803  1.00  0.00    -0.388 OA
ATOM     30  H   UNL     1      28.870  26.664  18.814  1.00  0.00     0.211 HD
ENDBRANCH   6  29
ENDBRANCH   5   6
ENDBRANCH   1   5
BRANCH   2  31
ATOM     31  O   UNL     1      25.073  30.268  16.980  1.00  0.00    -0.443 OA
BRANCH  31  32
ATOM     32  C   UNL     1      25.975  30.189  15.905  1.00  0.00     0.294 C 
BRANCH  32  33
ATOM     33  C   UNL     1      27.339  30.644  16.268  1.00  0.00     0.120 A 
ATOM     34  C   UNL     1      27.822  31.887  15.936  1.00  0.00     0.139 A 
ATOM     35  N   UNL     1      28.310  30.020  16.931  1.00  0.00    -0.132 NA
ATOM     36  N   UNL     1      29.089  31.981  16.415  1.00  0.00    -0.237 N 
ATOM     37  N   UNL     1      29.341  30.845  17.001  1.00  0.00    -0.066 NA
BRANCH  36  38
ATOM     38  C   UNL     1      29.908  33.177  16.241  1.00  0.00     0.229 C 
BRANCH  38  39
ATOM     39  C   UNL     1      30.958  33.226  17.318  1.00  0.00     0.161 C 
BRANCH  39  40
ATOM     40  C   UNL     1      30.676  34.253  18.333  1.00  0.00     0.306 C 
ATOM     41  O   UNL     1      30.961  35.450  18.081  1.00  0.00    -0.252 OA
BRANCH  40  42
ATOM     42  O   UNL     1      30.104  33.876  19.539  1.00  0.00    -0.481 OA
ATOM     43  H   UNL     1      29.151  34.202  19.761  1.00  0.00     0.296 HD
ENDBRANCH  40  42
ENDBRANCH  39  40
ENDBRANCH  38  39
BRANCH  38  44
ATOM     44  C   UNL     1      30.622  33.069  14.939  1.00  0.00     0.329 C 
ATOM     45  O   UNL     1      30.415  33.831  13.961  1.00  0.00    -0.250 OA
BRANCH  44  46
ATOM     46  O   UNL     1      31.568  32.069  14.795  1.00  0.00    -0.480 OA
ATOM     47  H   UNL     1      32.119  31.955  13.952  1.00  0.00     0.296 HD
ENDBRANCH  44  46
ENDBRANCH  38  44
ENDBRANCH  36  38
ENDBRANCH  32  33
ENDBRANCH  31  32
ENDBRANCH   2  31
TORSDOF 20
BEGIN_RES LYS A 131
REMARK  4 active torsions:
REMARK  status: ('A' for Active; 'I' for Inactive)
REMARK    1  A    between atoms: CA   and  CB  
REMARK    2  A    between atoms: CB   and  CG  
REMARK    3  A    between atoms: CG   and  CD  
REMARK    4  A    between atoms: CD   and  CE  
ROOT
ATOM      1  CA  LYS A 131      29.867  25.555  16.977  1.00 20.52     0.186 C 
ENDROOT
BRANCH   1   2
ATOM      2  CB  LYS A 131      28.345  25.722  17.026  1.00 20.94     0.034 C 
BRANCH   2   3
ATOM      3  CG  LYS A 131      27.599  24.425  16.750  1.00 22.96     0.005 C 
BRANCH   3   4
ATOM      4  CD  LYS A 131      26.796  23.971  17.937  1.00 24.33     0.041 C 
BRANCH   4   5
ATOM      5  CE  LYS A 131      25.325  23.871  17.549  1.00 26.91     0.338 C 
ATOM      6  NZ  LYS A 131      24.680  25.204  17.613  1.00 27.40     0.618 N 
ENDBRANCH   4   5
ENDBRANCH   3   4
ENDBRANCH   2   3
ENDBRANCH   1   2
END_RES LYS A 131
BEGIN_RES LYS A 135
REMARK  4 active torsions:
REMARK  status: ('A' for Active; 'I' for Inactive)
REMARK    5  A    between atoms: CA   and  CB  
REMARK    6  A    between atoms: CB   and  CG  
REMARK    7  A    between atoms: CG   and  CD  
REMARK    8  A    between atoms: CD   and  CE  
ROOT
ATOM      7  CA  LYS A 135      33.193  34.663   9.290  1.00 25.02     0.186 C 
ENDROOT
BRANCH   7   8
ATOM      8  CB  LYS A 135      32.060  35.360  10.034  1.00 26.63     0.034 C 
BRANCH   8   9
ATOM      9  CG  LYS A 135      30.827  35.572   9.193  1.00 29.45     0.005 C 
BRANCH   9  10
ATOM     10  CD  LYS A 135      30.229  34.238   8.773  1.00 32.00     0.041 C 
BRANCH  10  11
ATOM     11  CE  LYS A 135      28.736  34.373   8.543  1.00 34.25     0.338 C 
ATOM     12  NZ  LYS A 135      27.963  33.686   9.615  1.00 35.99     0.618 N 
ENDBRANCH  10  11
ENDBRANCH   9  10
ENDBRANCH   8   9
ENDBRANCH   7   8
END_RES LYS A 135
