REMARK VINA RESULT:    -4.444      6.035     10.206
REMARK INTER + INTRA:         -14.204
REMARK INTER:                  -8.020
REMARK INTRA:                  -6.184
REMARK UNBOUND:                -5.994
REMARK SMILES CC(=O)N[C@@H]1[C@@H](O)C[C@](O)(C(=O)O)O[C@H]1C(O)[C@H](O)CNC(=O)OCc1cn(CCN2CCCC2)nn1
REMARK SMILES IDX 21 1 22 2 23 3 20 5 18 6 16 7 15 8 9 9 8 10 14 11 6 12 5 13
REMARK SMILES IDX 10 14 11 16 12 17 13 18 7 20 4 22 2 23 1 25 3 26 17 27 19 29
REMARK SMILES IDX 24 31 25 32 26 33 27 34 37 35 28 36 36 37 29 38 30 39 31 40
REMARK SMILES IDX 32 41 35 42 33 43 34 44
REMARK H PARENT 21 4 10 15 13 19 7 21 4 24 17 28 19 30
REMARK Flexibility Score: inf
ROOT
ATOM      1  N   UNL     1      19.827  34.548  10.116  1.00  0.00    -0.319 N 
ATOM      2  C   UNL     1      20.293  34.257  11.411  1.00  0.00     0.407 C 
ATOM      3  O   UNL     1      19.738  33.393  12.101  1.00  0.00    -0.225 OA
ATOM      4  H   UNL     1      20.378  35.324   9.614  1.00  0.00     0.167 HD
ENDROOT
BRANCH   1   5
ATOM      5  C   UNL     1      18.730  33.931   9.440  1.00  0.00     0.154 C 
BRANCH   5   6
ATOM      6  C   UNL     1      18.494  34.571   8.103  1.00  0.00     0.165 C 
BRANCH   6   7
ATOM      7  C   UNL     1      17.691  35.862   8.238  1.00  0.00     0.176 C 
BRANCH   7   8
ATOM      8  C   UNL     1      18.556  36.975   7.621  1.00  0.00     0.178 C 
ATOM      9  C   UNL     1      19.976  38.057   9.142  1.00  0.00     0.269 C 
ATOM     10  C   UNL     1      18.738  38.813   9.584  1.00  0.00     0.112 C 
ATOM     11  O   UNL     1      19.749  37.055   8.251  1.00  0.00    -0.332 OA
ATOM     12  C   UNL     1      17.984  39.311   8.400  1.00  0.00     0.145 C 
ATOM     13  C   UNL     1      17.783  38.223   7.396  1.00  0.00     0.142 C 
BRANCH   9  14
ATOM     14  O   UNL     1      20.446  37.430  10.323  1.00  0.00    -0.357 OA
ATOM     15  H   UNL     1      21.103  38.052  10.762  1.00  0.00     0.214 HD
ENDBRANCH   9  14
BRANCH   9  16
ATOM     16  C   UNL     1      21.045  38.984   8.702  1.00  0.00     0.364 C 
ATOM     17  O   UNL     1      21.100  40.137   9.182  1.00  0.00    -0.246 OA
BRANCH  16  18
ATOM     18  O   UNL     1      21.986  38.593   7.768  1.00  0.00    -0.477 OA
ATOM     19  H   UNL     1      22.966  38.667   8.003  1.00  0.00     0.296 HD
ENDBRANCH  16  18
ENDBRANCH   9  16
BRANCH  12  20
ATOM     20  O   UNL     1      16.767  39.815   8.845  1.00  0.00    -0.391 OA
ATOM     21  H   UNL     1      16.269  40.230   8.090  1.00  0.00     0.211 HD
ENDBRANCH  12  20
BRANCH  13  22
ATOM     22  N   UNL     1      17.944  38.711   6.027  1.00  0.00    -0.348 N 
ATOM     23  C   UNL     1      16.922  39.366   5.331  1.00  0.00     0.217 C 
ATOM     24  H   UNL     1      18.867  38.547   5.583  1.00  0.00     0.163 HD
ATOM     25  C   UNL     1      17.174  39.829   3.942  1.00  0.00     0.114 C 
ATOM     26  O   UNL     1      15.790  39.564   5.882  1.00  0.00    -0.275 OA
ENDBRANCH  13  22
ENDBRANCH   7   8
BRANCH   7  27
ATOM     27  O   UNL     1      16.520  35.705   7.505  1.00  0.00    -0.388 OA
ATOM     28  H   UNL     1      15.836  36.371   7.692  1.00  0.00     0.211 HD
ENDBRANCH   7  27
ENDBRANCH   6   7
BRANCH   6  29
ATOM     29  O   UNL     1      17.949  33.738   7.151  1.00  0.00    -0.388 OA
ATOM     30  H   UNL     1      18.493  33.621   6.338  1.00  0.00     0.211 HD
ENDBRANCH   6  29
ENDBRANCH   5   6
ENDBRANCH   1   5
BRANCH   2  31
ATOM     31  O   UNL     1      21.387  34.916  11.980  1.00  0.00    -0.443 OA
BRANCH  31  32
ATOM     32  C   UNL     1      22.707  34.515  11.672  1.00  0.00     0.294 C 
BRANCH  32  33
ATOM     33  C   UNL     1      23.294  35.309  10.563  1.00  0.00     0.120 A 
ATOM     34  C   UNL     1      24.596  35.805  10.480  1.00  0.00     0.138 A 
ATOM     35  N   UNL     1      22.713  35.717   9.421  1.00  0.00    -0.132 NA
ATOM     36  N   UNL     1      24.764  36.478   9.328  1.00  0.00    -0.251 N 
ATOM     37  N   UNL     1      23.577  36.398   8.708  1.00  0.00    -0.067 NA
BRANCH  36  38
ATOM     38  C   UNL     1      25.942  37.157   8.829  1.00  0.00     0.161 C 
BRANCH  38  39
ATOM     39  C   UNL     1      26.110  37.022   7.353  1.00  0.00     0.108 C 
BRANCH  39  40
ATOM     40  N   UNL     1      27.022  37.971   6.764  1.00  0.00    -0.301 NA
ATOM     41  C   UNL     1      28.009  38.327   7.770  1.00  0.00     0.084 C 
ATOM     42  C   UNL     1      27.771  37.400   5.662  1.00  0.00     0.084 C 
ATOM     43  C   UNL     1      29.351  38.339   7.112  1.00  0.00     0.017 C 
ATOM     44  C   UNL     1      29.001  38.285   5.639  1.00  0.00     0.017 C 
ENDBRANCH  39  40
ENDBRANCH  38  39
ENDBRANCH  36  38
ENDBRANCH  32  33
ENDBRANCH  31  32
ENDBRANCH   2  31
TORSDOF 17
BEGIN_RES LYS A 131
REMARK  4 active torsions:
REMARK  status: ('A' for Active; 'I' for Inactive)
REMARK    1  A    between atoms: CA   and  CB  
REMARK    2  A    between atoms: CB   and  CG  
REMARK    3  A    between atoms: CG   and  CD  
REMARK    4  A    between atoms: CD   and  CE  
ROOT
ATOM      1  CA  LYS A 131      29.867  25.555  16.977  1.00 20.52     0.186 C 
ENDROOT
BRANCH   1   2
ATOM      2  CB  LYS A 131      28.345  25.722  17.026  1.00 20.94     0.034 C 
BRANCH   2   3
ATOM      3  CG  LYS A 131      27.610  24.398  17.167  1.00 22.96     0.005 C 
BRANCH   3   4
ATOM      4  CD  LYS A 131      26.127  24.588  17.334  1.00 24.33     0.041 C 
BRANCH   4   5
ATOM      5  CE  LYS A 131      25.541  23.393  18.078  1.00 26.91     0.338 C 
ATOM      6  NZ  LYS A 131      24.531  22.705  17.239  1.00 27.40     0.618 N 
ENDBRANCH   4   5
ENDBRANCH   3   4
ENDBRANCH   2   3
ENDBRANCH   1   2
END_RES LYS A 131
BEGIN_RES LYS A 135
REMARK  4 active torsions:
REMARK  status: ('A' for Active; 'I' for Inactive)
REMARK    5  A    between atoms: CA   and  CB  
REMARK    6  A    between atoms: CB   and  CG  
REMARK    7  A    between atoms: CG   and  CD  
REMARK    8  A    between atoms: CD   and  CE  
ROOT
ATOM      7  CA  LYS A 135      33.193  34.663   9.290  1.00 25.02     0.186 C 
ENDROOT
BRANCH   7   8
ATOM      8  CB  LYS A 135      32.060  35.360  10.034  1.00 26.63     0.034 C 
BRANCH   8   9
ATOM      9  CG  LYS A 135      30.715  34.713   9.827  1.00 29.45     0.005 C 
BRANCH   9  10
ATOM     10  CD  LYS A 135      30.476  34.434   8.351  1.00 32.00     0.041 C 
BRANCH  10  11
ATOM     11  CE  LYS A 135      29.038  34.742   7.977  1.00 34.25     0.338 C 
ATOM     12  NZ  LYS A 135      28.089  34.134   8.950  1.00 35.99     0.618 N 
ENDBRANCH  10  11
ENDBRANCH   9  10
ENDBRANCH   8   9
ENDBRANCH   7   8
END_RES LYS A 135
