REMARK VINA RESULT:    -5.052      2.152      3.805
REMARK INTER + INTRA:         -16.037
REMARK INTER:                 -10.531
REMARK INTRA:                  -5.506
REMARK UNBOUND:                -6.408
REMARK SMILES CC(=O)N[C@@H]1[C@@H](O)C[C@](O)(C(=O)O)O[C@H]1C(O)[C@H](O)CNC(=O)OCc1cn(-c2ccc(S(=O)(=O)Nc3nccs3)cc2)nn1
REMARK SMILES IDX 21 1 22 2 23 3 20 5 18 6 16 7 15 8 9 9 8 10 14 11 6 12 5 13
REMARK SMILES IDX 10 14 11 16 12 17 13 18 7 20 4 22 2 23 1 25 3 26 17 27 19 29
REMARK SMILES IDX 24 31 25 32 26 33 27 34 45 35 28 36 44 37 29 38 30 39 43 40
REMARK SMILES IDX 31 41 42 42 32 43 33 44 34 45 35 46 36 47 37 49 38 50 41 51
REMARK SMILES IDX 39 52 40 53
REMARK H PARENT 21 4 10 15 13 19 7 21 4 24 17 28 19 30 36 48
REMARK Flexibility Score: inf
ROOT
ATOM      1  N   UNL     1      27.103  31.394  19.845  1.00  0.00    -0.319 N 
ATOM      2  C   UNL     1      26.194  30.484  19.262  1.00  0.00     0.407 C 
ATOM      3  O   UNL     1      26.164  29.285  19.703  1.00  0.00    -0.225 OA
ATOM      4  H   UNL     1      27.132  32.367  19.495  1.00  0.00     0.167 HD
ENDROOT
BRANCH   1   5
ATOM      5  C   UNL     1      27.986  31.005  20.911  1.00  0.00     0.154 C 
BRANCH   5   6
ATOM      6  C   UNL     1      29.432  30.957  20.483  1.00  0.00     0.165 C 
BRANCH   6   7
ATOM      7  C   UNL     1      29.942  29.550  20.365  1.00  0.00     0.176 C 
BRANCH   7   8
ATOM      8  C   UNL     1      30.080  28.903  21.755  1.00  0.00     0.178 C 
ATOM      9  C   UNL     1      32.416  28.718  22.036  1.00  0.00     0.269 C 
ATOM     10  C   UNL     1      32.255  27.224  22.242  1.00  0.00     0.112 C 
ATOM     11  O   UNL     1      31.250  29.352  22.286  1.00  0.00    -0.332 OA
ATOM     12  C   UNL     1      31.210  26.784  21.245  1.00  0.00     0.145 C 
ATOM     13  C   UNL     1      29.905  27.442  21.622  1.00  0.00     0.142 C 
BRANCH   9  14
ATOM     14  O   UNL     1      32.752  28.878  20.685  1.00  0.00    -0.357 OA
ATOM     15  H   UNL     1      33.324  29.651  20.522  1.00  0.00     0.214 HD
ENDBRANCH   9  14
BRANCH   9  16
ATOM     16  C   UNL     1      33.552  29.245  22.835  1.00  0.00     0.364 C 
ATOM     17  O   UNL     1      34.409  29.954  22.287  1.00  0.00    -0.246 OA
BRANCH  16  18
ATOM     18  O   UNL     1      33.667  28.954  24.180  1.00  0.00    -0.477 OA
ATOM     19  H   UNL     1      33.435  29.670  24.885  1.00  0.00     0.296 HD
ENDBRANCH  16  18
ENDBRANCH   9  16
BRANCH  12  20
ATOM     20  O   UNL     1      31.625  27.091  19.955  1.00  0.00    -0.391 OA
ATOM     21  H   UNL     1      32.588  27.360  20.010  1.00  0.00     0.211 HD
ENDBRANCH  12  20
BRANCH  13  22
ATOM     22  N   UNL     1      29.397  26.766  22.772  1.00  0.00    -0.348 N 
ATOM     23  C   UNL     1      28.006  26.673  22.990  1.00  0.00     0.217 C 
ATOM     24  H   UNL     1      30.044  26.341  23.457  1.00  0.00     0.163 HD
ATOM     25  C   UNL     1      27.391  25.991  24.157  1.00  0.00     0.114 C 
ATOM     26  O   UNL     1      27.253  27.192  22.155  1.00  0.00    -0.275 OA
ENDBRANCH  13  22
ENDBRANCH   7   8
BRANCH   7  27
ATOM     27  O   UNL     1      29.105  28.743  19.559  1.00  0.00    -0.388 OA
ATOM     28  H   UNL     1      29.366  28.889  18.632  1.00  0.00     0.211 HD
ENDBRANCH   7  27
ENDBRANCH   6   7
BRANCH   6  29
ATOM     29  O   UNL     1      30.138  31.678  21.471  1.00  0.00    -0.388 OA
ATOM     30  H   UNL     1      29.722  31.437  22.335  1.00  0.00     0.211 HD
ENDBRANCH   6  29
ENDBRANCH   5   6
ENDBRANCH   1   5
BRANCH   2  31
ATOM     31  O   UNL     1      25.329  30.811  18.239  1.00  0.00    -0.443 OA
BRANCH  31  32
ATOM     32  C   UNL     1      25.402  30.178  16.954  1.00  0.00     0.294 C 
BRANCH  32  33
ATOM     33  C   UNL     1      26.808  30.353  16.484  1.00  0.00     0.121 A 
ATOM     34  C   UNL     1      27.438  31.556  16.158  1.00  0.00     0.144 A 
ATOM     35  N   UNL     1      27.754  29.414  16.276  1.00  0.00    -0.131 NA
ATOM     36  N   UNL     1      28.701  31.308  15.777  1.00  0.00    -0.220 N 
ATOM     37  N   UNL     1      28.850  30.001  15.863  1.00  0.00    -0.062 NA
BRANCH  36  38
ATOM     38  C   UNL     1      29.644  32.292  15.373  1.00  0.00     0.066 A 
ATOM     39  C   UNL     1      29.312  33.345  14.552  1.00  0.00     0.030 A 
ATOM     40  C   UNL     1      30.948  32.206  15.810  1.00  0.00     0.030 A 
ATOM     41  C   UNL     1      30.253  34.299  14.166  1.00  0.00     0.024 A 
ATOM     42  C   UNL     1      31.879  33.147  15.431  1.00  0.00     0.024 A 
ATOM     43  C   UNL     1      31.557  34.223  14.597  1.00  0.00     0.088 A 
BRANCH  43  44
ATOM     44  S   UNL     1      32.762  35.395  14.153  1.00  0.00     0.263 S 
ATOM     45  O   UNL     1      34.084  34.646  14.038  1.00  0.00    -0.201 OA
ATOM     46  O   UNL     1      32.915  36.346  15.290  1.00  0.00    -0.201 OA
BRANCH  44  47
ATOM     47  N   UNL     1      32.453  36.208  12.693  1.00  0.00    -0.255 N 
ATOM     48  H   UNL     1      32.852  35.790  11.808  1.00  0.00     0.182 HD
BRANCH  47  49
ATOM     49  C   UNL     1      31.719  37.392  12.519  1.00  0.00     0.196 A 
ATOM     50  N   UNL     1      31.504  38.282  11.712  1.00  0.00    -0.228 NA
ATOM     51  S   UNL     1      30.596  37.988  13.917  1.00  0.00    -0.105 S 
ATOM     52  C   UNL     1      30.727  39.310  11.827  1.00  0.00     0.125 A 
ATOM     53  C   UNL     1      30.027  39.484  12.971  1.00  0.00     0.089 A 
ENDBRANCH  47  49
ENDBRANCH  44  47
ENDBRANCH  43  44
ENDBRANCH  36  38
ENDBRANCH  32  33
ENDBRANCH  31  32
ENDBRANCH   2  31
TORSDOF 18
BEGIN_RES LYS A 131
REMARK  4 active torsions:
REMARK  status: ('A' for Active; 'I' for Inactive)
REMARK    1  A    between atoms: CA   and  CB  
REMARK    2  A    between atoms: CB   and  CG  
REMARK    3  A    between atoms: CG   and  CD  
REMARK    4  A    between atoms: CD   and  CE  
ROOT
ATOM      1  CA  LYS A 131      29.867  25.555  16.977  1.00 20.52     0.186 C 
ENDROOT
BRANCH   1   2
ATOM      2  CB  LYS A 131      28.345  25.722  17.026  1.00 20.94     0.034 C 
BRANCH   2   3
ATOM      3  CG  LYS A 131      27.602  24.398  16.935  1.00 22.96     0.005 C 
BRANCH   3   4
ATOM      4  CD  LYS A 131      26.152  24.535  17.310  1.00 24.33     0.041 C 
BRANCH   4   5
ATOM      5  CE  LYS A 131      25.912  23.874  18.663  1.00 26.91     0.338 C 
ATOM      6  NZ  LYS A 131      24.861  22.835  18.554  1.00 27.40     0.618 N 
ENDBRANCH   4   5
ENDBRANCH   3   4
ENDBRANCH   2   3
ENDBRANCH   1   2
END_RES LYS A 131
BEGIN_RES LYS A 135
REMARK  4 active torsions:
REMARK  status: ('A' for Active; 'I' for Inactive)
REMARK    5  A    between atoms: CA   and  CB  
REMARK    6  A    between atoms: CB   and  CG  
REMARK    7  A    between atoms: CG   and  CD  
REMARK    8  A    between atoms: CD   and  CE  
ROOT
ATOM      7  CA  LYS A 135      33.193  34.663   9.290  1.00 25.02     0.186 C 
ENDROOT
BRANCH   7   8
ATOM      8  CB  LYS A 135      32.060  35.360  10.034  1.00 26.63     0.034 C 
BRANCH   8   9
ATOM      9  CG  LYS A 135      30.893  35.721   9.152  1.00 29.45     0.005 C 
BRANCH   9  10
ATOM     10  CD  LYS A 135      30.398  34.502   8.390  1.00 32.00     0.041 C 
BRANCH  10  11
ATOM     11  CE  LYS A 135      28.884  34.501   8.309  1.00 34.25     0.338 C 
ATOM     12  NZ  LYS A 135      28.280  33.975   9.565  1.00 35.99     0.618 N 
ENDBRANCH  10  11
ENDBRANCH   9  10
ENDBRANCH   8   9
ENDBRANCH   7   8
END_RES LYS A 135
