REMARK VINA RESULT:    -5.518      2.122      3.498
REMARK INTER + INTRA:         -15.951
REMARK INTER:                 -11.240
REMARK INTRA:                  -4.711
REMARK UNBOUND:                -5.110
REMARK SMILES CC(=O)N[C@@H]1[C@@H](O)C[C@](O)(C(=O)O)O[C@H]1C(O)[C@H](O)CNC(=O)OCc1cn([C@@H](C)C(=O)OCc2ccccc2)nn1
REMARK SMILES IDX 24 1 22 2 21 3 23 5 20 6 18 7 16 8 15 9 9 10 8 11 14 12 6 13
REMARK SMILES IDX 5 14 10 15 11 17 12 18 13 19 7 21 4 23 2 24 1 26 3 27 17 28
REMARK SMILES IDX 19 30 25 32 26 33 27 34 42 35 28 36 41 37 29 38 30 39 31 40
REMARK SMILES IDX 32 41 33 42 34 43 35 44 36 45 40 46 37 47 39 48 38 49
REMARK H PARENT 21 4 10 16 13 20 7 22 4 25 17 29 19 31
REMARK Flexibility Score: inf
ROOT
ATOM      1  O   UNL     1      22.542  40.047   8.647  1.00  0.00    -0.443 OA
ENDROOT
BRANCH   1   2
ATOM      2  C   UNL     1      21.141  40.150   8.815  1.00  0.00     0.407 C 
ATOM      3  N   UNL     1      20.300  39.064   8.490  1.00  0.00    -0.319 N 
ATOM      4  H   UNL     1      20.798  38.199   8.108  1.00  0.00     0.167 HD
ATOM      5  O   UNL     1      20.731  41.240   9.256  1.00  0.00    -0.225 OA
BRANCH   3   6
ATOM      6  C   UNL     1      18.881  39.090   8.649  1.00  0.00     0.154 C 
BRANCH   6   7
ATOM      7  C   UNL     1      18.338  37.775   9.096  1.00  0.00     0.165 C 
BRANCH   7   8
ATOM      8  C   UNL     1      18.113  36.865   7.891  1.00  0.00     0.176 C 
BRANCH   8   9
ATOM      9  C   UNL     1      18.783  35.532   8.016  1.00  0.00     0.178 C 
ATOM     10  C   UNL     1      16.962  34.312   8.843  1.00  0.00     0.269 C 
ATOM     11  C   UNL     1      17.558  34.401  10.211  1.00  0.00     0.112 C 
ATOM     12  O   UNL     1      17.863  34.487   7.822  1.00  0.00    -0.332 OA
ATOM     13  C   UNL     1      19.055  34.189  10.110  1.00  0.00     0.145 C 
ATOM     14  C   UNL     1      19.595  35.322   9.252  1.00  0.00     0.142 C 
BRANCH  10  15
ATOM     15  O   UNL     1      15.896  35.174   8.728  1.00  0.00    -0.357 OA
ATOM     16  H   UNL     1      15.995  35.817   7.972  1.00  0.00     0.214 HD
ENDBRANCH  10  15
BRANCH  10  17
ATOM     17  C   UNL     1      16.419  32.916   8.665  1.00  0.00     0.364 C 
ATOM     18  O   UNL     1      15.180  32.713   8.604  1.00  0.00    -0.246 OA
BRANCH  17  19
ATOM     19  O   UNL     1      17.252  31.811   8.562  1.00  0.00    -0.477 OA
ATOM     20  H   UNL     1      17.380  31.153   9.346  1.00  0.00     0.296 HD
ENDBRANCH  17  19
ENDBRANCH  10  17
BRANCH  13  21
ATOM     21  O   UNL     1      19.634  34.169  11.363  1.00  0.00    -0.391 OA
ATOM     22  H   UNL     1      19.464  34.993  11.884  1.00  0.00     0.211 HD
ENDBRANCH  13  21
BRANCH  14  23
ATOM     23  N   UNL     1      21.011  35.073   8.967  1.00  0.00    -0.348 N 
ATOM     24  C   UNL     1      22.053  35.919   9.449  1.00  0.00     0.217 C 
ATOM     25  H   UNL     1      21.308  34.246   8.385  1.00  0.00     0.163 HD
ATOM     26  C   UNL     1      23.480  35.613   9.124  1.00  0.00     0.114 C 
ATOM     27  O   UNL     1      21.764  36.919  10.146  1.00  0.00    -0.275 OA
ENDBRANCH  14  23
ENDBRANCH   8   9
BRANCH   8  28
ATOM     28  O   UNL     1      18.613  37.503   6.749  1.00  0.00    -0.388 OA
ATOM     29  H   UNL     1      19.494  37.103   6.515  1.00  0.00     0.211 HD
ENDBRANCH   8  28
ENDBRANCH   7   8
BRANCH   7  30
ATOM     30  O   UNL     1      17.130  37.967   9.765  1.00  0.00    -0.388 OA
ATOM     31  H   UNL     1      16.415  37.343   9.445  1.00  0.00     0.211 HD
ENDBRANCH   7  30
ENDBRANCH   6   7
ENDBRANCH   3   6
ENDBRANCH   1   2
BRANCH   1  32
ATOM     32  C   UNL     1      23.043  39.148   7.680  1.00  0.00     0.294 C 
BRANCH  32  33
ATOM     33  C   UNL     1      24.389  39.528   7.213  1.00  0.00     0.120 A 
ATOM     34  C   UNL     1      25.594  38.909   7.452  1.00  0.00     0.139 A 
ATOM     35  N   UNL     1      24.676  40.589   6.440  1.00  0.00    -0.132 NA
ATOM     36  N   UNL     1      26.576  39.600   6.826  1.00  0.00    -0.238 N 
ATOM     37  N   UNL     1      25.996  40.604   6.227  1.00  0.00    -0.066 NA
BRANCH  36  38
ATOM     38  C   UNL     1      27.976  39.269   6.838  1.00  0.00     0.215 C 
ATOM     39  C   UNL     1      28.385  38.784   8.212  1.00  0.00     0.046 C 
BRANCH  38  40
ATOM     40  C   UNL     1      28.255  38.288   5.781  1.00  0.00     0.331 C 
ATOM     41  O   UNL     1      27.995  38.578   4.576  1.00  0.00    -0.250 OA
BRANCH  40  42
ATOM     42  O   UNL     1      28.794  37.046   6.041  1.00  0.00    -0.459 OA
BRANCH  42  43
ATOM     43  C   UNL     1      28.130  35.822   5.990  1.00  0.00     0.268 C 
BRANCH  43  44
ATOM     44  C   UNL     1      28.255  35.143   7.310  1.00  0.00    -0.011 A 
ATOM     45  C   UNL     1      29.498  34.861   7.833  1.00  0.00     0.007 A 
ATOM     46  C   UNL     1      27.132  34.800   8.012  1.00  0.00     0.007 A 
ATOM     47  C   UNL     1      29.617  34.239   9.052  1.00  0.00     0.000 A 
ATOM     48  C   UNL     1      27.221  34.180   9.227  1.00  0.00     0.000 A 
ATOM     49  C   UNL     1      28.463  33.900   9.744  1.00  0.00     0.000 A 
ENDBRANCH  43  44
ENDBRANCH  42  43
ENDBRANCH  40  42
ENDBRANCH  38  40
ENDBRANCH  36  38
ENDBRANCH  32  33
ENDBRANCH   1  32
TORSDOF 19
BEGIN_RES LYS A 131
REMARK  4 active torsions:
REMARK  status: ('A' for Active; 'I' for Inactive)
REMARK    1  A    between atoms: CA   and  CB  
REMARK    2  A    between atoms: CB   and  CG  
REMARK    3  A    between atoms: CG   and  CD  
REMARK    4  A    between atoms: CD   and  CE  
ROOT
ATOM      1  CA  LYS A 131      29.867  25.555  16.977  1.00 20.52     0.186 C 
ENDROOT
BRANCH   1   2
ATOM      2  CB  LYS A 131      28.345  25.722  17.026  1.00 20.94     0.034 C 
BRANCH   2   3
ATOM      3  CG  LYS A 131      27.605  24.393  17.027  1.00 22.96     0.005 C 
BRANCH   3   4
ATOM      4  CD  LYS A 131      26.121  24.572  17.193  1.00 24.33     0.041 C 
BRANCH   4   5
ATOM      5  CE  LYS A 131      25.699  24.069  18.570  1.00 26.91     0.338 C 
ATOM      6  NZ  LYS A 131      25.774  25.162  19.568  1.00 27.40     0.618 N 
ENDBRANCH   4   5
ENDBRANCH   3   4
ENDBRANCH   2   3
ENDBRANCH   1   2
END_RES LYS A 131
BEGIN_RES LYS A 135
REMARK  4 active torsions:
REMARK  status: ('A' for Active; 'I' for Inactive)
REMARK    5  A    between atoms: CA   and  CB  
REMARK    6  A    between atoms: CB   and  CG  
REMARK    7  A    between atoms: CG   and  CD  
REMARK    8  A    between atoms: CD   and  CE  
ROOT
ATOM      7  CA  LYS A 135      33.193  34.663   9.290  1.00 25.02     0.186 C 
ENDROOT
BRANCH   7   8
ATOM      8  CB  LYS A 135      32.060  35.360  10.034  1.00 26.63     0.034 C 
BRANCH   8   9
ATOM      9  CG  LYS A 135      32.466  35.900  11.381  1.00 29.45     0.005 C 
BRANCH   9  10
ATOM     10  CD  LYS A 135      31.248  36.096  12.270  1.00 32.00     0.041 C 
BRANCH  10  11
ATOM     11  CE  LYS A 135      31.018  34.872  13.135  1.00 34.25     0.338 C 
ATOM     12  NZ  LYS A 135      29.579  34.489  13.152  1.00 35.99     0.618 N 
ENDBRANCH  10  11
ENDBRANCH   9  10
ENDBRANCH   8   9
ENDBRANCH   7   8
END_RES LYS A 135
