REMARK VINA RESULT:    -7.827      4.280      7.601
REMARK INTER + INTRA:         -13.260
REMARK INTER:                  -8.793
REMARK INTRA:                  -4.467
REMARK UNBOUND:                 3.032
REMARK SMILES CC(=O)N[C@@H]1[C@@H](O)C[C@](O)(C(=O)O)O[C@H]1C(O)[C@H](O)CNC(=O)OCc1cn(C2CC(O)C=C[C@@H](O)C2)nn1
REMARK SMILES IDX 21 1 22 2 23 3 20 5 18 6 16 7 15 8 9 9 8 10 14 11 6 12 5 13
REMARK SMILES IDX 10 14 11 16 12 17 13 18 7 20 4 22 2 23 1 25 3 26 17 27 19 29
REMARK SMILES IDX 24 31 25 32 26 33 27 34 39 35 28 36 38 37 29 38 30 39 31 40
REMARK SMILES IDX 32 42 37 44 35 45 34 46 33 47 36 49
REMARK H PARENT 21 4 10 15 13 19 7 21 4 24 17 28 19 30 32 43 36 50
REMARK Flexibility Score: 90.00
ROOT
ATOM      1  N   UNL     1      28.120  35.463   7.424  1.00  0.00    -0.319 N 
ATOM      2  C   UNL     1      29.129  34.911   8.270  1.00  0.00     0.407 C 
ATOM      3  O   UNL     1      30.308  34.707   7.881  1.00  0.00    -0.225 OA
ATOM      4  H   UNL     1      27.150  35.621   7.774  1.00  0.00     0.167 HD
ENDROOT
BRANCH   1   5
ATOM      5  C   UNL     1      28.535  35.784   6.058  1.00  0.00     0.154 C 
BRANCH   5   6
ATOM      6  C   UNL     1      27.824  37.072   5.684  1.00  0.00     0.165 C 
BRANCH   6   7
ATOM      7  C   UNL     1      28.700  38.292   5.860  1.00  0.00     0.176 C 
BRANCH   7   8
ATOM      8  C   UNL     1      29.383  38.317   7.191  1.00  0.00     0.178 C 
ATOM      9  C   UNL     1      29.266  38.769   9.422  1.00  0.00     0.269 C 
ATOM     10  C   UNL     1      30.638  38.132   9.354  1.00  0.00     0.112 C 
ATOM     11  O   UNL     1      28.553  38.605   8.241  1.00  0.00    -0.332 OA
ATOM     12  C   UNL     1      31.494  38.753   8.268  1.00  0.00     0.145 C 
ATOM     13  C   UNL     1      30.549  39.281   7.227  1.00  0.00     0.142 C 
BRANCH   9  14
ATOM     14  O   UNL     1      29.346  40.104   9.804  1.00  0.00    -0.357 OA
ATOM     15  H   UNL     1      30.135  40.558   9.406  1.00  0.00     0.214 HD
ENDBRANCH   9  14
BRANCH   9  16
ATOM     16  C   UNL     1      28.516  38.045  10.476  1.00  0.00     0.364 C 
ATOM     17  O   UNL     1      29.089  37.400  11.395  1.00  0.00    -0.246 OA
BRANCH  16  18
ATOM     18  O   UNL     1      27.139  38.070  10.460  1.00  0.00    -0.477 OA
ATOM     19  H   UNL     1      26.555  37.361  10.025  1.00  0.00     0.296 HD
ENDBRANCH  16  18
ENDBRANCH   9  16
BRANCH  12  20
ATOM     20  O   UNL     1      32.275  39.721   8.856  1.00  0.00    -0.391 OA
ATOM     21  H   UNL     1      31.920  40.615   8.555  1.00  0.00     0.211 HD
ENDBRANCH  12  20
BRANCH  13  22
ATOM     22  N   UNL     1      31.122  39.530   5.956  1.00  0.00    -0.348 N 
ATOM     23  C   UNL     1      31.820  40.709   5.580  1.00  0.00     0.217 C 
ATOM     24  H   UNL     1      31.031  38.795   5.224  1.00  0.00     0.163 HD
ATOM     25  C   UNL     1      32.389  40.878   4.210  1.00  0.00     0.114 C 
ATOM     26  O   UNL     1      31.942  41.605   6.439  1.00  0.00    -0.275 OA
ENDBRANCH  13  22
ENDBRANCH   7   8
BRANCH   7  27
ATOM     27  O   UNL     1      28.037  39.449   5.534  1.00  0.00    -0.388 OA
ATOM     28  H   UNL     1      27.936  39.993   6.347  1.00  0.00     0.211 HD
ENDBRANCH   7  27
ENDBRANCH   6   7
BRANCH   6  29
ATOM     29  O   UNL     1      26.729  37.266   6.558  1.00  0.00    -0.388 OA
ATOM     30  H   UNL     1      27.044  37.450   7.487  1.00  0.00     0.211 HD
ENDBRANCH   6  29
ENDBRANCH   5   6
ENDBRANCH   1   5
BRANCH   2  31
ATOM     31  O   UNL     1      28.819  34.584   9.567  1.00  0.00    -0.443 OA
BRANCH  31  32
ATOM     32  C   UNL     1      27.735  33.752   9.942  1.00  0.00     0.294 C 
BRANCH  32  33
ATOM     33  C   UNL     1      26.636  34.608  10.446  1.00  0.00     0.120 A 
ATOM     34  C   UNL     1      25.484  35.013   9.810  1.00  0.00     0.138 A 
ATOM     35  N   UNL     1      26.602  35.151  11.679  1.00  0.00    -0.132 NA
ATOM     36  N   UNL     1      24.781  35.784  10.660  1.00  0.00    -0.249 N 
ATOM     37  N   UNL     1      25.497  35.843  11.786  1.00  0.00    -0.067 NA
BRANCH  36  38
ATOM     38  C   UNL     1      23.492  36.422  10.388  1.00  0.00     0.115 C 
BRANCH  38  39
ATOM     39  C   UNL     1      22.583  35.382   9.825  1.00  0.00     0.063 C 
BRANCH  39  40
ATOM     40  C   UNL     1      21.179  35.828   9.609  1.00  0.00     0.139 CG0
ATOM     41  G   UNL     1      21.002  36.654   8.404  1.00  0.00     0.000 G0
BRANCH  40  42
ATOM     42  O   UNL     1      20.259  34.757   9.663  1.00  0.00    -0.389 OA
ATOM     43  H   UNL     1      19.791  34.793  10.524  1.00  0.00     0.211 HD
ENDBRANCH  40  42
ENDBRANCH  39  40
ENDBRANCH  38  39
BRANCH  38  44
ATOM     44  C   UNL     1      23.741  37.580   9.483  1.00  0.00     0.063 C 
BRANCH  44  45
ATOM     45  C   UNL     1      23.437  37.318   8.039  1.00  0.00     0.139 C 
BRANCH  45  46
ATOM     46  C   UNL     1      21.990  37.274   7.735  1.00  0.00     0.002 C 
ATOM     47  C   UNL     1      21.040  36.648   8.393  1.00  0.00     0.002 CG0
ATOM     48  G   UNL     1      21.143  35.821   9.606  1.00  0.00     0.000 G0
ENDBRANCH  45  46
BRANCH  45  49
ATOM     49  O   UNL     1      24.106  38.192   7.184  1.00  0.00    -0.389 OA
ATOM     50  H   UNL     1      25.088  38.085   7.249  1.00  0.00     0.211 HD
ENDBRANCH  45  49
ENDBRANCH  44  45
ENDBRANCH  38  44
ENDBRANCH  36  38
ENDBRANCH  32  33
ENDBRANCH  31  32
ENDBRANCH   2  31
TORSDOF 17
BEGIN_RES LYS A 131
REMARK  4 active torsions:
REMARK  status: ('A' for Active; 'I' for Inactive)
REMARK    1  A    between atoms: CA   and  CB  
REMARK    2  A    between atoms: CB   and  CG  
REMARK    3  A    between atoms: CG   and  CD  
REMARK    4  A    between atoms: CD   and  CE  
ROOT
ATOM      1  CA  LYS A 131      29.867  25.555  16.977  1.00 20.52     0.186 C 
ENDROOT
BRANCH   1   2
ATOM      2  CB  LYS A 131      28.345  25.722  17.026  1.00 20.94     0.034 C 
BRANCH   2   3
ATOM      3  CG  LYS A 131      27.602  24.398  16.935  1.00 22.96     0.005 C 
BRANCH   3   4
ATOM      4  CD  LYS A 131      26.156  24.532  17.323  1.00 24.33     0.041 C 
BRANCH   4   5
ATOM      5  CE  LYS A 131      25.976  25.768  18.198  1.00 26.91     0.338 C 
ATOM      6  NZ  LYS A 131      25.775  25.378  19.613  1.00 27.40     0.618 N 
ENDBRANCH   4   5
ENDBRANCH   3   4
ENDBRANCH   2   3
ENDBRANCH   1   2
END_RES LYS A 131
BEGIN_RES LYS A 135
REMARK  4 active torsions:
REMARK  status: ('A' for Active; 'I' for Inactive)
REMARK    5  A    between atoms: CA   and  CB  
REMARK    6  A    between atoms: CB   and  CG  
REMARK    7  A    between atoms: CG   and  CD  
REMARK    8  A    between atoms: CD   and  CE  
ROOT
ATOM      7  CA  LYS A 135      33.193  34.663   9.290  1.00 25.02     0.186 C 
ENDROOT
BRANCH   7   8
ATOM      8  CB  LYS A 135      32.060  35.360  10.034  1.00 26.63     0.034 C 
BRANCH   8   9
ATOM      9  CG  LYS A 135      32.338  35.563  11.501  1.00 29.45     0.005 C 
BRANCH   9  10
ATOM     10  CD  LYS A 135      31.268  34.889  12.348  1.00 32.00     0.041 C 
BRANCH  10  11
ATOM     11  CE  LYS A 135      31.320  35.398  13.775  1.00 34.25     0.338 C 
ATOM     12  NZ  LYS A 135      32.169  36.617  13.880  1.00 35.99     0.618 N 
ENDBRANCH  10  11
ENDBRANCH   9  10
ENDBRANCH   8   9
ENDBRANCH   7   8
END_RES LYS A 135
