REMARK VINA RESULT:    -4.843      5.296     11.332
REMARK INTER + INTRA:         -14.902
REMARK INTER:                 -10.306
REMARK INTRA:                  -4.596
REMARK UNBOUND:                -5.671
REMARK SMILES CCOC(=O)c1cccc(-n2cc(COC(=O)NC[C@@H](O)C(O)[C@@H]3O[C@@](O)(C(=O)O)C[C@H](O)[C@H]3NC(C)=O)nn2)c1
REMARK SMILES IDX 18 1 16 2 17 3 19 5 20 6 22 7 24 8 26 9 31 10 25 11 32 12
REMARK SMILES IDX 34 13 27 14 28 16 29 17 30 18 33 20 35 22 36 23 37 25 38 26
REMARK SMILES IDX 23 27 21 29 15 31 14 32 13 33 12 34 39 35 11 36 40 37 10 38
REMARK SMILES IDX 41 39 9 40 6 41 8 42 7 43 4 44 5 45 3 46 2 47 1 48
REMARK H PARENT 18 4 27 15 30 19 33 21 35 24 23 28 21 30
REMARK Flexibility Score: inf
ROOT
ATOM      1  N   UNL     1      21.640  36.332   8.864  1.00  0.00    -0.319 N 
ATOM      2  C   UNL     1      20.619  36.985   9.604  1.00  0.00     0.407 C 
ATOM      3  O   UNL     1      20.034  37.966   9.081  1.00  0.00    -0.225 OA
ATOM      4  H   UNL     1      22.110  35.522   9.316  1.00  0.00     0.167 HD
ENDROOT
BRANCH   1   5
ATOM      5  C   UNL     1      22.013  36.774   7.536  1.00  0.00     0.154 C 
BRANCH   5   6
ATOM      6  C   UNL     1      23.367  37.399   7.489  1.00  0.00     0.165 C 
BRANCH   6   7
ATOM      7  C   UNL     1      24.156  37.220   8.746  1.00  0.00     0.176 C 
BRANCH   7   8
ATOM      8  C   UNL     1      25.666  37.076   8.421  1.00  0.00     0.178 C 
ATOM      9  C   UNL     1      27.108  36.844   6.692  1.00  0.00     0.269 C 
ATOM     10  C   UNL     1      27.578  35.476   7.132  1.00  0.00     0.112 C 
ATOM     11  O   UNL     1      25.809  37.010   7.060  1.00  0.00    -0.332 OA
ATOM     12  C   UNL     1      27.427  35.261   8.607  1.00  0.00     0.145 C 
ATOM     13  C   UNL     1      26.231  35.948   9.201  1.00  0.00     0.142 C 
BRANCH   9  14
ATOM     14  O   UNL     1      27.121  36.792   5.270  1.00  0.00    -0.357 OA
ATOM     15  H   UNL     1      27.503  35.961   4.937  1.00  0.00     0.214 HD
ENDBRANCH   9  14
BRANCH   9  16
ATOM     16  C   UNL     1      28.054  37.887   7.109  1.00  0.00     0.364 C 
ATOM     17  O   UNL     1      27.701  39.084   7.383  1.00  0.00    -0.246 OA
BRANCH  16  18
ATOM     18  O   UNL     1      29.417  37.546   7.212  1.00  0.00    -0.477 OA
ATOM     19  H   UNL     1      29.641  36.551   7.339  1.00  0.00     0.296 HD
ENDBRANCH  16  18
ENDBRANCH   9  16
BRANCH  12  20
ATOM     20  O   UNL     1      27.410  33.890   8.859  1.00  0.00    -0.391 OA
ATOM     21  H   UNL     1      28.244  33.570   9.285  1.00  0.00     0.211 HD
ENDBRANCH  12  20
BRANCH  13  22
ATOM     22  N   UNL     1      26.484  36.378  10.564  1.00  0.00    -0.348 N 
ATOM     23  C   UNL     1      26.277  35.517  11.674  1.00  0.00     0.217 C 
ATOM     24  H   UNL     1      26.835  37.370  10.715  1.00  0.00     0.163 HD
ATOM     25  C   UNL     1      26.557  36.030  13.041  1.00  0.00     0.114 C 
ATOM     26  O   UNL     1      25.859  34.320  11.513  1.00  0.00    -0.275 OA
ENDBRANCH  13  22
ENDBRANCH   7   8
BRANCH   7  27
ATOM     27  O   UNL     1      24.023  38.227   9.668  1.00  0.00    -0.388 OA
ATOM     28  H   UNL     1      24.658  38.961   9.585  1.00  0.00     0.211 HD
ENDBRANCH   7  27
ENDBRANCH   6   7
BRANCH   6  29
ATOM     29  O   UNL     1      23.291  38.724   7.070  1.00  0.00    -0.388 OA
ATOM     30  H   UNL     1      22.751  39.215   7.746  1.00  0.00     0.211 HD
ENDBRANCH   6  29
ENDBRANCH   5   6
ENDBRANCH   1   5
BRANCH   2  31
ATOM     31  O   UNL     1      20.226  36.603  10.875  1.00  0.00    -0.443 OA
BRANCH  31  32
ATOM     32  C   UNL     1      21.156  36.159  11.846  1.00  0.00     0.294 C 
BRANCH  32  33
ATOM     33  C   UNL     1      21.048  34.700  12.038  1.00  0.00     0.121 A 
ATOM     34  C   UNL     1      22.026  33.804  12.435  1.00  0.00     0.144 A 
ATOM     35  N   UNL     1      19.946  33.940  11.858  1.00  0.00    -0.131 NA
ATOM     36  N   UNL     1      21.500  32.563  12.481  1.00  0.00    -0.220 N 
ATOM     37  N   UNL     1      20.220  32.691  12.119  1.00  0.00    -0.062 NA
BRANCH  36  38
ATOM     38  C   UNL     1      22.123  31.345  12.830  1.00  0.00     0.067 A 
ATOM     39  C   UNL     1      23.163  31.300  13.739  1.00  0.00     0.044 A 
ATOM     40  C   UNL     1      21.716  30.150  12.277  1.00  0.00     0.028 A 
ATOM     41  C   UNL     1      23.799  30.131  14.109  1.00  0.00     0.062 A 
ATOM     42  C   UNL     1      22.336  28.955  12.630  1.00  0.00     0.003 A 
ATOM     43  C   UNL     1      23.366  28.956  13.537  1.00  0.00     0.016 A 
BRANCH  41  44
ATOM     44  C   UNL     1      24.893  30.113  15.072  1.00  0.00     0.338 C 
ATOM     45  O   UNL     1      24.836  29.334  16.055  1.00  0.00    -0.246 OA
BRANCH  44  46
ATOM     46  O   UNL     1      26.008  30.926  14.949  1.00  0.00    -0.462 OA
BRANCH  46  47
ATOM     47  C   UNL     1      27.080  30.896  15.871  1.00  0.00     0.230 C 
ATOM     48  C   UNL     1      27.130  32.211  16.592  1.00  0.00     0.049 C 
ENDBRANCH  46  47
ENDBRANCH  44  46
ENDBRANCH  41  44
ENDBRANCH  36  38
ENDBRANCH  32  33
ENDBRANCH  31  32
ENDBRANCH   2  31
TORSDOF 18
BEGIN_RES LYS A 131
REMARK  4 active torsions:
REMARK  status: ('A' for Active; 'I' for Inactive)
REMARK    1  A    between atoms: CA   and  CB  
REMARK    2  A    between atoms: CB   and  CG  
REMARK    3  A    between atoms: CG   and  CD  
REMARK    4  A    between atoms: CD   and  CE  
ROOT
ATOM      1  CA  LYS A 131      29.867  25.555  16.977  1.00 20.52     0.186 C 
ENDROOT
BRANCH   1   2
ATOM      2  CB  LYS A 131      28.345  25.722  17.026  1.00 20.94     0.034 C 
BRANCH   2   3
ATOM      3  CG  LYS A 131      27.601  24.403  16.888  1.00 22.96     0.005 C 
BRANCH   3   4
ATOM      4  CD  LYS A 131      26.274  24.424  17.595  1.00 24.33     0.041 C 
BRANCH   4   5
ATOM      5  CE  LYS A 131      25.667  23.025  17.579  1.00 26.91     0.338 C 
ATOM      6  NZ  LYS A 131      24.989  22.738  18.865  1.00 27.40     0.618 N 
ENDBRANCH   4   5
ENDBRANCH   3   4
ENDBRANCH   2   3
ENDBRANCH   1   2
END_RES LYS A 131
BEGIN_RES LYS A 135
REMARK  4 active torsions:
REMARK  status: ('A' for Active; 'I' for Inactive)
REMARK    5  A    between atoms: CA   and  CB  
REMARK    6  A    between atoms: CB   and  CG  
REMARK    7  A    between atoms: CG   and  CD  
REMARK    8  A    between atoms: CD   and  CE  
ROOT
ATOM      7  CA  LYS A 135      33.193  34.663   9.290  1.00 25.02     0.186 C 
ENDROOT
BRANCH   7   8
ATOM      8  CB  LYS A 135      32.060  35.360  10.034  1.00 26.63     0.034 C 
BRANCH   8   9
ATOM      9  CG  LYS A 135      30.759  34.601   9.998  1.00 29.45     0.005 C 
BRANCH   9  10
ATOM     10  CD  LYS A 135      29.909  34.934  11.215  1.00 32.00     0.041 C 
BRANCH  10  11
ATOM     11  CE  LYS A 135      30.748  34.888  12.478  1.00 34.25     0.338 C 
ATOM     12  NZ  LYS A 135      30.283  35.900  13.467  1.00 35.99     0.618 N 
ENDBRANCH  10  11
ENDBRANCH   9  10
ENDBRANCH   8   9
ENDBRANCH   7   8
END_RES LYS A 135
