REMARK VINA RESULT:    -4.006      4.507      7.949
REMARK INTER + INTRA:         -14.967
REMARK INTER:                  -8.649
REMARK INTRA:                  -6.318
REMARK UNBOUND:                -7.565
REMARK SMILES CC(=O)N[C@@H]1[C@@H](O)C[C@](O)(C(=O)O)O[C@H]1C(O)[C@H](O)CNC(=O)OCc1cn(CC(=O)Nc2ncccn2)nn1
REMARK SMILES IDX 21 1 22 2 23 3 20 5 18 6 16 7 15 8 9 9 8 10 14 11 6 12 5 13
REMARK SMILES IDX 10 14 11 16 12 17 13 18 7 20 4 22 2 23 1 25 3 26 17 27 19 29
REMARK SMILES IDX 24 31 25 32 26 33 27 34 40 35 28 36 39 37 29 38 30 39 31 40
REMARK SMILES IDX 32 41 33 43 34 44 38 45 35 46 37 47 36 48
REMARK H PARENT 21 4 10 15 13 19 7 21 4 24 17 28 19 30 32 42
REMARK Flexibility Score: inf
ROOT
ATOM      1  N   UNL     1      28.376  35.023   7.925  1.00  0.00    -0.319 N 
ATOM      2  C   UNL     1      29.516  34.682   8.730  1.00  0.00     0.407 C 
ATOM      3  O   UNL     1      30.684  34.915   8.329  1.00  0.00    -0.225 OA
ATOM      4  H   UNL     1      27.423  34.825   8.272  1.00  0.00     0.167 HD
ENDROOT
BRANCH   1   5
ATOM      5  C   UNL     1      28.618  35.636   6.648  1.00  0.00     0.154 C 
BRANCH   5   6
ATOM      6  C   UNL     1      27.856  36.922   6.446  1.00  0.00     0.165 C 
BRANCH   6   7
ATOM      7  C   UNL     1      27.019  37.146   7.682  1.00  0.00     0.176 C 
BRANCH   7   8
ATOM      8  C   UNL     1      26.615  38.617   7.817  1.00  0.00     0.178 C 
ATOM      9  C   UNL     1      25.327  40.230   6.904  1.00  0.00     0.269 C 
ATOM     10  C   UNL     1      26.270  41.257   7.415  1.00  0.00     0.112 C 
ATOM     11  O   UNL     1      25.947  39.032   6.691  1.00  0.00    -0.332 OA
ATOM     12  C   UNL     1      27.718  40.836   7.493  1.00  0.00     0.145 C 
ATOM     13  C   UNL     1      27.885  39.431   7.998  1.00  0.00     0.142 C 
BRANCH   9  14
ATOM     14  O   UNL     1      24.871  40.634   5.604  1.00  0.00    -0.357 OA
ATOM     15  H   UNL     1      24.124  40.032   5.334  1.00  0.00     0.214 HD
ENDBRANCH   9  14
BRANCH   9  16
ATOM     16  C   UNL     1      24.083  40.147   7.723  1.00  0.00     0.364 C 
ATOM     17  O   UNL     1      24.048  40.592   8.870  1.00  0.00    -0.246 OA
BRANCH  16  18
ATOM     18  O   UNL     1      22.916  39.563   7.223  1.00  0.00    -0.477 OA
ATOM     19  H   UNL     1      22.462  39.902   6.393  1.00  0.00     0.296 HD
ENDBRANCH  16  18
ENDBRANCH   9  16
BRANCH  12  20
ATOM     20  O   UNL     1      28.250  40.982   6.210  1.00  0.00    -0.391 OA
ATOM     21  H   UNL     1      29.066  41.559   6.213  1.00  0.00     0.211 HD
ENDBRANCH  12  20
BRANCH  13  22
ATOM     22  N   UNL     1      28.313  39.324   9.350  1.00  0.00    -0.348 N 
ATOM     23  C   UNL     1      29.511  38.696   9.776  1.00  0.00     0.217 C 
ATOM     24  H   UNL     1      27.717  39.729  10.112  1.00  0.00     0.163 HD
ATOM     25  C   UNL     1      29.897  38.616  11.219  1.00  0.00     0.114 C 
ATOM     26  O   UNL     1      30.247  38.204   8.903  1.00  0.00    -0.275 OA
ENDBRANCH  13  22
ENDBRANCH   7   8
BRANCH   7  27
ATOM     27  O   UNL     1      25.905  36.329   7.709  1.00  0.00    -0.388 OA
ATOM     28  H   UNL     1      25.119  36.866   7.385  1.00  0.00     0.211 HD
ENDBRANCH   7  27
ENDBRANCH   6   7
BRANCH   6  29
ATOM     29  O   UNL     1      27.065  36.772   5.309  1.00  0.00    -0.388 OA
ATOM     30  H   UNL     1      27.680  36.580   4.551  1.00  0.00     0.211 HD
ENDBRANCH   6  29
ENDBRANCH   5   6
ENDBRANCH   1   5
BRANCH   2  31
ATOM     31  O   UNL     1      29.369  34.092   9.964  1.00  0.00    -0.443 OA
BRANCH  31  32
ATOM     32  C   UNL     1      28.939  34.721  11.135  1.00  0.00     0.294 C 
BRANCH  32  33
ATOM     33  C   UNL     1      27.551  35.205  10.977  1.00  0.00     0.120 A 
ATOM     34  C   UNL     1      27.014  36.423  11.337  1.00  0.00     0.138 A 
ATOM     35  N   UNL     1      26.556  34.494  10.422  1.00  0.00    -0.132 NA
ATOM     36  N   UNL     1      25.729  36.405  10.990  1.00  0.00    -0.243 N 
ATOM     37  N   UNL     1      25.484  35.229  10.442  1.00  0.00    -0.067 NA
BRANCH  36  38
ATOM     38  C   UNL     1      24.798  37.521  11.192  1.00  0.00     0.246 C 
BRANCH  38  39
ATOM     39  C   UNL     1      23.436  37.134  10.718  1.00  0.00     0.248 C 
ATOM     40  O   UNL     1      22.487  36.859  11.470  1.00  0.00    -0.272 OA
ATOM     41  N   UNL     1      23.212  37.079   9.304  1.00  0.00    -0.293 N 
ATOM     42  H   UNL     1      23.993  37.305   8.648  1.00  0.00     0.173 HD
BRANCH  41  43
ATOM     43  C   UNL     1      21.955  36.729   8.759  1.00  0.00     0.229 A 
ATOM     44  N   UNL     1      21.632  35.477   8.382  1.00  0.00    -0.221 NA
ATOM     45  N   UNL     1      21.006  37.671   8.595  1.00  0.00    -0.221 NA
ATOM     46  C   UNL     1      20.425  35.173   7.866  1.00  0.00     0.117 A 
ATOM     47  C   UNL     1      19.797  37.435   8.094  1.00  0.00     0.117 A 
ATOM     48  C   UNL     1      19.465  36.152   7.706  1.00  0.00     0.040 A 
ENDBRANCH  41  43
ENDBRANCH  38  39
ENDBRANCH  36  38
ENDBRANCH  32  33
ENDBRANCH  31  32
ENDBRANCH   2  31
TORSDOF 17
BEGIN_RES LYS A 131
REMARK  4 active torsions:
REMARK  status: ('A' for Active; 'I' for Inactive)
REMARK    1  A    between atoms: CA   and  CB  
REMARK    2  A    between atoms: CB   and  CG  
REMARK    3  A    between atoms: CG   and  CD  
REMARK    4  A    between atoms: CD   and  CE  
ROOT
ATOM      1  CA  LYS A 131      29.867  25.555  16.977  1.00 20.52     0.186 C 
ENDROOT
BRANCH   1   2
ATOM      2  CB  LYS A 131      28.345  25.722  17.026  1.00 20.94     0.034 C 
BRANCH   2   3
ATOM      3  CG  LYS A 131      27.602  24.399  16.921  1.00 22.96     0.005 C 
BRANCH   3   4
ATOM      4  CD  LYS A 131      26.157  24.528  17.318  1.00 24.33     0.041 C 
BRANCH   4   5
ATOM      5  CE  LYS A 131      26.054  25.341  18.604  1.00 26.91     0.338 C 
ATOM      6  NZ  LYS A 131      24.740  26.022  18.683  1.00 27.40     0.618 N 
ENDBRANCH   4   5
ENDBRANCH   3   4
ENDBRANCH   2   3
ENDBRANCH   1   2
END_RES LYS A 131
BEGIN_RES LYS A 135
REMARK  4 active torsions:
REMARK  status: ('A' for Active; 'I' for Inactive)
REMARK    5  A    between atoms: CA   and  CB  
REMARK    6  A    between atoms: CB   and  CG  
REMARK    7  A    between atoms: CG   and  CD  
REMARK    8  A    between atoms: CD   and  CE  
ROOT
ATOM      7  CA  LYS A 135      33.193  34.663   9.290  1.00 25.02     0.186 C 
ENDROOT
BRANCH   7   8
ATOM      8  CB  LYS A 135      32.060  35.360  10.034  1.00 26.63     0.034 C 
BRANCH   8   9
ATOM      9  CG  LYS A 135      32.531  36.230  11.170  1.00 29.45     0.005 C 
BRANCH   9  10
ATOM     10  CD  LYS A 135      32.209  35.586  12.510  1.00 32.00     0.041 C 
BRANCH  10  11
ATOM     11  CE  LYS A 135      31.969  36.646  13.567  1.00 34.25     0.338 C 
ATOM     12  NZ  LYS A 135      31.724  36.029  14.900  1.00 35.99     0.618 N 
ENDBRANCH  10  11
ENDBRANCH   9  10
ENDBRANCH   8   9
ENDBRANCH   7   8
END_RES LYS A 135
