REMARK VINA RESULT:    -4.497      7.847     13.329
REMARK INTER + INTRA:         -14.049
REMARK INTER:                  -6.658
REMARK INTRA:                  -7.391
REMARK UNBOUND:                -5.477
REMARK SMILES CC(=O)N[C@@H]1[C@@H](O)C[C@](O)(C(=O)O)O[C@H]1C(O)[C@H](O)CNC(=O)OCc1cn(CC(O)CO)nn1
REMARK SMILES IDX 21 1 22 2 23 3 20 5 18 6 16 7 15 8 9 9 8 10 14 11 6 12 5 13
REMARK SMILES IDX 10 14 11 16 12 17 13 18 7 20 4 22 2 23 1 25 3 26 17 27 19 29
REMARK SMILES IDX 24 31 25 32 26 33 27 34 35 35 28 36 34 37 29 38 30 39 31 40
REMARK SMILES IDX 32 42 33 43
REMARK H PARENT 21 4 10 15 13 19 7 21 4 24 17 28 19 30 31 41 33 44
REMARK Flexibility Score: inf
ROOT
ATOM      1  N   UNL     1      20.588  38.306   8.283  1.00  0.00    -0.319 N 
ATOM      2  C   UNL     1      20.783  38.879   9.564  1.00  0.00     0.407 C 
ATOM      3  O   UNL     1      21.286  38.225  10.494  1.00  0.00    -0.225 OA
ATOM      4  H   UNL     1      20.148  38.946   7.555  1.00  0.00     0.167 HD
ENDROOT
BRANCH   1   5
ATOM      5  C   UNL     1      20.957  36.961   8.001  1.00  0.00     0.154 C 
BRANCH   5   6
ATOM      6  C   UNL     1      22.328  36.824   7.377  1.00  0.00     0.165 C 
BRANCH   6   7
ATOM      7  C   UNL     1      23.201  36.121   8.409  1.00  0.00     0.176 C 
BRANCH   7   8
ATOM      8  C   UNL     1      24.381  37.018   8.800  1.00  0.00     0.178 C 
ATOM      9  C   UNL     1      26.462  36.274   8.085  1.00  0.00     0.269 C 
ATOM     10  C   UNL     1      27.163  37.081   9.160  1.00  0.00     0.112 C 
ATOM     11  O   UNL     1      25.296  36.937   7.789  1.00  0.00    -0.332 OA
ATOM     12  C   UNL     1      26.329  37.004  10.391  1.00  0.00     0.145 C 
ATOM     13  C   UNL     1      24.887  36.638  10.156  1.00  0.00     0.142 C 
BRANCH   9  14
ATOM     14  O   UNL     1      26.264  34.998   8.608  1.00  0.00    -0.357 OA
ATOM     15  H   UNL     1      26.605  34.288   8.018  1.00  0.00     0.214 HD
ENDBRANCH   9  14
BRANCH   9  16
ATOM     16  C   UNL     1      27.286  36.186   6.851  1.00  0.00     0.364 C 
ATOM     17  O   UNL     1      28.309  35.457   6.863  1.00  0.00    -0.246 OA
BRANCH  16  18
ATOM     18  O   UNL     1      26.922  36.893   5.730  1.00  0.00    -0.477 OA
ATOM     19  H   UNL     1      26.893  36.442   4.820  1.00  0.00     0.296 HD
ENDBRANCH  16  18
ENDBRANCH   9  16
BRANCH  12  20
ATOM     20  O   UNL     1      26.877  36.016  11.218  1.00  0.00    -0.391 OA
ATOM     21  H   UNL     1      26.295  35.875  11.987  1.00  0.00     0.211 HD
ENDBRANCH  12  20
BRANCH  13  22
ATOM     22  N   UNL     1      24.123  37.306  11.188  1.00  0.00    -0.348 N 
ATOM     23  C   UNL     1      23.831  36.615  12.393  1.00  0.00     0.217 C 
ATOM     24  H   UNL     1      23.770  38.285  11.087  1.00  0.00     0.163 HD
ATOM     25  C   UNL     1      23.040  37.259  13.500  1.00  0.00     0.114 C 
ATOM     26  O   UNL     1      24.208  35.436  12.615  1.00  0.00    -0.275 OA
ENDBRANCH  13  22
ENDBRANCH   7   8
BRANCH   7  27
ATOM     27  O   UNL     1      22.431  35.760   9.487  1.00  0.00    -0.388 OA
ATOM     28  H   UNL     1      22.239  34.781   9.491  1.00  0.00     0.211 HD
ENDBRANCH   7  27
ENDBRANCH   6   7
BRANCH   6  29
ATOM     29  O   UNL     1      22.846  38.079   7.057  1.00  0.00    -0.388 OA
ATOM     30  H   UNL     1      22.387  38.386   6.251  1.00  0.00     0.211 HD
ENDBRANCH   6  29
ENDBRANCH   5   6
ENDBRANCH   1   5
BRANCH   2  31
ATOM     31  O   UNL     1      20.416  40.208   9.825  1.00  0.00    -0.443 OA
BRANCH  31  32
ATOM     32  C   UNL     1      21.431  41.148  10.026  1.00  0.00     0.294 C 
BRANCH  32  33
ATOM     33  C   UNL     1      22.369  41.210   8.877  1.00  0.00     0.120 A 
ATOM     34  C   UNL     1      23.719  41.396   8.928  1.00  0.00     0.138 A 
ATOM     35  N   UNL     1      22.048  41.094   7.585  1.00  0.00    -0.132 NA
ATOM     36  N   UNL     1      24.167  41.384   7.644  1.00  0.00    -0.249 N 
ATOM     37  N   UNL     1      23.133  41.198   6.834  1.00  0.00    -0.067 NA
BRANCH  36  38
ATOM     38  C   UNL     1      25.564  41.550   7.249  1.00  0.00     0.180 C 
BRANCH  38  39
ATOM     39  C   UNL     1      26.165  40.159   7.229  1.00  0.00     0.161 C 
BRANCH  39  40
ATOM     40  O   UNL     1      25.459  39.365   6.332  1.00  0.00    -0.389 OA
ATOM     41  H   UNL     1      25.257  38.501   6.782  1.00  0.00     0.211 HD
ENDBRANCH  39  40
BRANCH  39  42
ATOM     42  C   UNL     1      27.637  40.227   6.807  1.00  0.00     0.189 C 
BRANCH  42  43
ATOM     43  O   UNL     1      27.779  39.659   5.540  1.00  0.00    -0.394 OA
ATOM     44  H   UNL     1      26.936  39.806   5.017  1.00  0.00     0.210 HD
ENDBRANCH  42  43
ENDBRANCH  39  42
ENDBRANCH  38  39
ENDBRANCH  36  38
ENDBRANCH  32  33
ENDBRANCH  31  32
ENDBRANCH   2  31
TORSDOF 19
BEGIN_RES LYS A 131
REMARK  4 active torsions:
REMARK  status: ('A' for Active; 'I' for Inactive)
REMARK    1  A    between atoms: CA   and  CB  
REMARK    2  A    between atoms: CB   and  CG  
REMARK    3  A    between atoms: CG   and  CD  
REMARK    4  A    between atoms: CD   and  CE  
ROOT
ATOM      1  CA  LYS A 131      29.867  25.555  16.977  1.00 20.52     0.186 C 
ENDROOT
BRANCH   1   2
ATOM      2  CB  LYS A 131      28.345  25.722  17.026  1.00 20.94     0.034 C 
BRANCH   2   3
ATOM      3  CG  LYS A 131      27.604  24.394  16.995  1.00 22.96     0.005 C 
BRANCH   3   4
ATOM      4  CD  LYS A 131      26.117  24.572  17.135  1.00 24.33     0.041 C 
BRANCH   4   5
ATOM      5  CE  LYS A 131      25.826  25.556  18.263  1.00 26.91     0.338 C 
ATOM      6  NZ  LYS A 131      25.728  24.845  19.560  1.00 27.40     0.618 N 
ENDBRANCH   4   5
ENDBRANCH   3   4
ENDBRANCH   2   3
ENDBRANCH   1   2
END_RES LYS A 131
BEGIN_RES LYS A 135
REMARK  4 active torsions:
REMARK  status: ('A' for Active; 'I' for Inactive)
REMARK    5  A    between atoms: CA   and  CB  
REMARK    6  A    between atoms: CB   and  CG  
REMARK    7  A    between atoms: CG   and  CD  
REMARK    8  A    between atoms: CD   and  CE  
ROOT
ATOM      7  CA  LYS A 135      33.193  34.663   9.290  1.00 25.02     0.186 C 
ENDROOT
BRANCH   7   8
ATOM      8  CB  LYS A 135      32.060  35.360  10.034  1.00 26.63     0.034 C 
BRANCH   8   9
ATOM      9  CG  LYS A 135      30.688  34.951   9.563  1.00 29.45     0.005 C 
BRANCH   9  10
ATOM     10  CD  LYS A 135      29.778  34.663  10.747  1.00 32.00     0.041 C 
BRANCH  10  11
ATOM     11  CE  LYS A 135      30.526  34.856  12.053  1.00 34.25     0.338 C 
ATOM     12  NZ  LYS A 135      29.846  35.859  12.918  1.00 35.99     0.618 N 
ENDBRANCH  10  11
ENDBRANCH   9  10
ENDBRANCH   8   9
ENDBRANCH   7   8
END_RES LYS A 135
