REMARK VINA RESULT:    -4.538      5.356      8.225
REMARK INTER + INTRA:         -14.378
REMARK INTER:                  -8.537
REMARK INTRA:                  -5.841
REMARK UNBOUND:                -5.994
REMARK SMILES CC(=O)N[C@@H]1[C@@H](O)C[C@](O)(C(=O)O)O[C@H]1C(O)[C@H](O)CNC(=O)OCc1cn(CCN2CCCC2)nn1
REMARK SMILES IDX 21 1 22 2 23 3 20 5 18 6 16 7 15 8 9 9 8 10 14 11 6 12 5 13
REMARK SMILES IDX 10 14 11 16 12 17 13 18 7 20 4 22 2 23 1 25 3 26 17 27 19 29
REMARK SMILES IDX 24 31 25 32 26 33 27 34 37 35 28 36 36 37 29 38 30 39 31 40
REMARK SMILES IDX 32 41 35 42 33 43 34 44
REMARK H PARENT 21 4 10 15 13 19 7 21 4 24 17 28 19 30
REMARK Flexibility Score: inf
ROOT
ATOM      1  N   UNL     1      20.546  35.418   7.714  1.00  0.00    -0.319 N 
ATOM      2  C   UNL     1      19.146  35.553   7.713  1.00  0.00     0.407 C 
ATOM      3  O   UNL     1      18.621  36.668   7.595  1.00  0.00    -0.225 OA
ATOM      4  H   UNL     1      20.890  34.405   7.834  1.00  0.00     0.167 HD
ENDROOT
BRANCH   1   5
ATOM      5  C   UNL     1      21.510  36.463   7.578  1.00  0.00     0.154 C 
BRANCH   5   6
ATOM      6  C   UNL     1      22.170  36.763   8.893  1.00  0.00     0.165 C 
BRANCH   6   7
ATOM      7  C   UNL     1      23.119  35.642   9.306  1.00  0.00     0.176 C 
BRANCH   7   8
ATOM      8  C   UNL     1      24.349  36.325   9.930  1.00  0.00     0.178 C 
ATOM      9  C   UNL     1      25.738  37.417   8.388  1.00  0.00     0.269 C 
ATOM     10  C   UNL     1      26.266  36.035   8.058  1.00  0.00     0.112 C 
ATOM     11  O   UNL     1      24.677  37.438   9.238  1.00  0.00    -0.332 OA
ATOM     12  C   UNL     1      26.565  35.281   9.307  1.00  0.00     0.145 C 
ATOM     13  C   UNL     1      25.419  35.351  10.264  1.00  0.00     0.142 C 
BRANCH   9  14
ATOM     14  O   UNL     1      25.259  37.916   7.152  1.00  0.00    -0.357 OA
ATOM     15  H   UNL     1      25.376  38.915   7.155  1.00  0.00     0.214 HD
ENDBRANCH   9  14
BRANCH   9  16
ATOM     16  C   UNL     1      26.830  38.324   8.814  1.00  0.00     0.364 C 
ATOM     17  O   UNL     1      27.649  38.744   7.968  1.00  0.00    -0.246 OA
BRANCH  16  18
ATOM     18  O   UNL     1      26.959  38.713  10.133  1.00  0.00    -0.477 OA
ATOM     19  H   UNL     1      26.147  38.676  10.733  1.00  0.00     0.296 HD
ENDBRANCH  16  18
ENDBRANCH   9  16
BRANCH  12  20
ATOM     20  O   UNL     1      26.850  33.966   8.959  1.00  0.00    -0.391 OA
ATOM     21  H   UNL     1      26.747  33.370   9.750  1.00  0.00     0.211 HD
ENDBRANCH  12  20
BRANCH  13  22
ATOM     22  N   UNL     1      25.873  35.509  11.644  1.00  0.00    -0.348 N 
ATOM     23  C   UNL     1      25.341  34.769  12.706  1.00  0.00     0.217 C 
ATOM     24  H   UNL     1      26.622  36.208  11.808  1.00  0.00     0.163 HD
ATOM     25  C   UNL     1      25.863  34.996  14.078  1.00  0.00     0.114 C 
ATOM     26  O   UNL     1      24.420  33.914  12.499  1.00  0.00    -0.275 OA
ENDBRANCH  13  22
ENDBRANCH   7   8
BRANCH   7  27
ATOM     27  O   UNL     1      22.465  34.871  10.263  1.00  0.00    -0.388 OA
ATOM     28  H   UNL     1      21.844  34.218   9.897  1.00  0.00     0.211 HD
ENDBRANCH   7  27
ENDBRANCH   6   7
BRANCH   6  29
ATOM     29  O   UNL     1      21.305  37.091   9.912  1.00  0.00    -0.388 OA
ATOM     30  H   UNL     1      21.729  37.489  10.708  1.00  0.00     0.211 HD
ENDBRANCH   6  29
ENDBRANCH   5   6
ENDBRANCH   1   5
BRANCH   2  31
ATOM     31  O   UNL     1      18.287  34.459   7.843  1.00  0.00    -0.443 OA
BRANCH  31  32
ATOM     32  C   UNL     1      17.602  34.222   9.056  1.00  0.00     0.294 C 
BRANCH  32  33
ATOM     33  C   UNL     1      18.525  33.897  10.172  1.00  0.00     0.120 A 
ATOM     34  C   UNL     1      18.457  32.798  11.030  1.00  0.00     0.138 A 
ATOM     35  N   UNL     1      19.605  34.578  10.596  1.00  0.00    -0.132 NA
ATOM     36  N   UNL     1      19.464  32.839  11.919  1.00  0.00    -0.251 N 
ATOM     37  N   UNL     1      20.146  33.954  11.614  1.00  0.00    -0.067 NA
BRANCH  36  38
ATOM     38  C   UNL     1      19.779  31.915  12.988  1.00  0.00     0.161 C 
BRANCH  38  39
ATOM     39  C   UNL     1      20.109  30.545  12.497  1.00  0.00     0.108 C 
BRANCH  39  40
ATOM     40  N   UNL     1      21.502  30.340  12.188  1.00  0.00    -0.301 NA
ATOM     41  C   UNL     1      22.287  31.177  13.079  1.00  0.00     0.084 C 
ATOM     42  C   UNL     1      21.926  28.978  12.451  1.00  0.00     0.084 C 
ATOM     43  C   UNL     1      23.441  30.366  13.573  1.00  0.00     0.017 C 
ATOM     44  C   UNL     1      23.417  29.159  12.658  1.00  0.00     0.017 C 
ENDBRANCH  39  40
ENDBRANCH  38  39
ENDBRANCH  36  38
ENDBRANCH  32  33
ENDBRANCH  31  32
ENDBRANCH   2  31
TORSDOF 17
BEGIN_RES LYS A 131
REMARK  4 active torsions:
REMARK  status: ('A' for Active; 'I' for Inactive)
REMARK    1  A    between atoms: CA   and  CB  
REMARK    2  A    between atoms: CB   and  CG  
REMARK    3  A    between atoms: CG   and  CD  
REMARK    4  A    between atoms: CD   and  CE  
ROOT
ATOM      1  CA  LYS A 131      29.867  25.555  16.977  1.00 20.52     0.186 C 
ENDROOT
BRANCH   1   2
ATOM      2  CB  LYS A 131      28.345  25.722  17.026  1.00 20.94     0.034 C 
BRANCH   2   3
ATOM      3  CG  LYS A 131      27.599  24.420  16.775  1.00 22.96     0.005 C 
BRANCH   3   4
ATOM      4  CD  LYS A 131      26.753  24.017  17.950  1.00 24.33     0.041 C 
BRANCH   4   5
ATOM      5  CE  LYS A 131      25.370  23.597  17.462  1.00 26.91     0.338 C 
ATOM      6  NZ  LYS A 131      24.566  24.786  17.094  1.00 27.40     0.618 N 
ENDBRANCH   4   5
ENDBRANCH   3   4
ENDBRANCH   2   3
ENDBRANCH   1   2
END_RES LYS A 131
BEGIN_RES LYS A 135
REMARK  4 active torsions:
REMARK  status: ('A' for Active; 'I' for Inactive)
REMARK    5  A    between atoms: CA   and  CB  
REMARK    6  A    between atoms: CB   and  CG  
REMARK    7  A    between atoms: CG   and  CD  
REMARK    8  A    between atoms: CD   and  CE  
ROOT
ATOM      7  CA  LYS A 135      33.193  34.663   9.290  1.00 25.02     0.186 C 
ENDROOT
BRANCH   7   8
ATOM      8  CB  LYS A 135      32.060  35.360  10.034  1.00 26.63     0.034 C 
BRANCH   8   9
ATOM      9  CG  LYS A 135      30.754  34.611   9.981  1.00 29.45     0.005 C 
BRANCH   9  10
ATOM     10  CD  LYS A 135      30.334  34.366   8.540  1.00 32.00     0.041 C 
BRANCH  10  11
ATOM     11  CE  LYS A 135      29.831  35.649   7.906  1.00 34.25     0.338 C 
ATOM     12  NZ  LYS A 135      29.295  35.398   6.539  1.00 35.99     0.618 N 
ENDBRANCH  10  11
ENDBRANCH   9  10
ENDBRANCH   8   9
ENDBRANCH   7   8
END_RES LYS A 135
