REMARK VINA RESULT:    -4.491      3.854      6.827
REMARK INTER + INTRA:         -14.073
REMARK INTER:                  -7.612
REMARK INTRA:                  -6.461
REMARK UNBOUND:                -5.644
REMARK SMILES CC(=O)N[C@@H]1[C@@H](O)C[C@](O)(C(=O)O)O[C@H]1C(O)[C@H](O)CNC(=O)OCc1cn(CCC(=O)O)nn1
REMARK SMILES IDX 21 1 22 2 23 3 20 5 18 6 16 7 15 8 9 9 8 10 14 11 6 12 5 13
REMARK SMILES IDX 10 14 11 16 12 17 13 18 7 20 4 22 2 23 1 25 3 26 17 27 19 29
REMARK SMILES IDX 24 31 25 32 26 33 27 34 35 35 28 36 34 37 29 38 30 39 31 40
REMARK SMILES IDX 32 41 33 42
REMARK H PARENT 21 4 10 15 13 19 7 21 4 24 17 28 19 30 33 43
REMARK Flexibility Score: inf
ROOT
ATOM      1  N   UNL     1      28.667  34.156  13.747  1.00  0.00    -0.319 N 
ATOM      2  C   UNL     1      29.418  34.936  12.831  1.00  0.00     0.407 C 
ATOM      3  O   UNL     1      28.913  35.949  12.261  1.00  0.00    -0.225 OA
ATOM      4  H   UNL     1      29.116  33.334  14.194  1.00  0.00     0.167 HD
ENDROOT
BRANCH   1   5
ATOM      5  C   UNL     1      27.296  34.473  14.069  1.00  0.00     0.154 C 
BRANCH   5   6
ATOM      6  C   UNL     1      27.067  34.762  15.528  1.00  0.00     0.165 C 
BRANCH   6   7
ATOM      7  C   UNL     1      26.596  33.509  16.266  1.00  0.00     0.176 C 
BRANCH   7   8
ATOM      8  C   UNL     1      27.783  32.813  16.910  1.00  0.00     0.178 C 
ATOM      9  C   UNL     1      29.879  32.091  16.176  1.00  0.00     0.269 C 
ATOM     10  C   UNL     1      29.972  31.169  17.358  1.00  0.00     0.112 C 
ATOM     11  O   UNL     1      28.972  33.116  16.332  1.00  0.00    -0.332 OA
ATOM     12  C   UNL     1      28.679  30.869  18.029  1.00  0.00     0.145 C 
ATOM     13  C   UNL     1      27.557  31.335  17.088  1.00  0.00     0.142 C 
BRANCH   9  14
ATOM     14  O   UNL     1      29.635  31.326  15.040  1.00  0.00    -0.357 OA
ATOM     15  H   UNL     1      28.666  31.445  14.837  1.00  0.00     0.214 HD
ENDBRANCH   9  14
BRANCH   9  16
ATOM     16  C   UNL     1      31.212  32.716  16.020  1.00  0.00     0.364 C 
ATOM     17  O   UNL     1      31.770  33.388  16.914  1.00  0.00    -0.246 OA
BRANCH  16  18
ATOM     18  O   UNL     1      31.894  32.561  14.827  1.00  0.00    -0.477 OA
ATOM     19  H   UNL     1      31.791  31.754  14.225  1.00  0.00     0.296 HD
ENDBRANCH  16  18
ENDBRANCH   9  16
BRANCH  12  20
ATOM     20  O   UNL     1      28.522  29.523  18.345  1.00  0.00    -0.391 OA
ATOM     21  H   UNL     1      29.350  29.128  18.734  1.00  0.00     0.211 HD
ENDBRANCH  12  20
BRANCH  13  22
ATOM     22  N   UNL     1      26.261  31.055  17.673  1.00  0.00    -0.348 N 
ATOM     23  C   UNL     1      25.347  30.183  17.018  1.00  0.00     0.217 C 
ATOM     24  H   UNL     1      25.953  31.477  18.581  1.00  0.00     0.163 HD
ATOM     25  C   UNL     1      23.994  29.864  17.587  1.00  0.00     0.114 C 
ATOM     26  O   UNL     1      25.664  29.640  15.911  1.00  0.00    -0.275 OA
ENDBRANCH  13  22
ENDBRANCH   7   8
BRANCH   7  27
ATOM     27  O   UNL     1      25.707  33.906  17.261  1.00  0.00    -0.388 OA
ATOM     28  H   UNL     1      25.475  34.872  17.199  1.00  0.00     0.211 HD
ENDBRANCH   7  27
ENDBRANCH   6   7
BRANCH   6  29
ATOM     29  O   UNL     1      26.096  35.763  15.601  1.00  0.00    -0.388 OA
ATOM     30  H   UNL     1      26.542  36.644  15.534  1.00  0.00     0.211 HD
ENDBRANCH   6  29
ENDBRANCH   5   6
ENDBRANCH   1   5
BRANCH   2  31
ATOM     31  O   UNL     1      30.720  34.583  12.561  1.00  0.00    -0.443 OA
BRANCH  31  32
ATOM     32  C   UNL     1      31.776  35.521  12.445  1.00  0.00     0.294 C 
BRANCH  32  33
ATOM     33  C   UNL     1      32.529  35.615  13.741  1.00  0.00     0.120 A 
ATOM     34  C   UNL     1      32.291  36.482  14.773  1.00  0.00     0.138 A 
ATOM     35  N   UNL     1      33.582  34.846  14.083  1.00  0.00    -0.132 NA
ATOM     36  N   UNL     1      33.212  36.221  15.733  1.00  0.00    -0.252 N 
ATOM     37  N   UNL     1      33.974  35.231  15.287  1.00  0.00    -0.067 NA
BRANCH  36  38
ATOM     38  C   UNL     1      33.293  36.926  16.994  1.00  0.00     0.158 C 
BRANCH  38  39
ATOM     39  C   UNL     1      34.443  36.319  17.793  1.00  0.00     0.146 C 
BRANCH  39  40
ATOM     40  C   UNL     1      33.867  35.877  19.099  1.00  0.00     0.305 C 
ATOM     41  O   UNL     1      34.297  36.263  20.194  1.00  0.00    -0.252 OA
BRANCH  40  42
ATOM     42  O   UNL     1      32.794  34.988  19.037  1.00  0.00    -0.481 OA
ATOM     43  H   UNL     1      32.377  34.764  18.134  1.00  0.00     0.296 HD
ENDBRANCH  40  42
ENDBRANCH  39  40
ENDBRANCH  38  39
ENDBRANCH  36  38
ENDBRANCH  32  33
ENDBRANCH  31  32
ENDBRANCH   2  31
TORSDOF 18
BEGIN_RES LYS A 131
REMARK  4 active torsions:
REMARK  status: ('A' for Active; 'I' for Inactive)
REMARK    1  A    between atoms: CA   and  CB  
REMARK    2  A    between atoms: CB   and  CG  
REMARK    3  A    between atoms: CG   and  CD  
REMARK    4  A    between atoms: CD   and  CE  
ROOT
ATOM      1  CA  LYS A 131      29.867  25.555  16.977  1.00 20.52     0.186 C 
ENDROOT
BRANCH   1   2
ATOM      2  CB  LYS A 131      28.345  25.722  17.026  1.00 20.94     0.034 C 
BRANCH   2   3
ATOM      3  CG  LYS A 131      27.599  24.437  16.700  1.00 22.96     0.005 C 
BRANCH   3   4
ATOM      4  CD  LYS A 131      27.007  23.799  17.925  1.00 24.33     0.041 C 
BRANCH   4   5
ATOM      5  CE  LYS A 131      25.599  23.303  17.611  1.00 26.91     0.338 C 
ATOM      6  NZ  LYS A 131      24.817  24.360  16.928  1.00 27.40     0.618 N 
ENDBRANCH   4   5
ENDBRANCH   3   4
ENDBRANCH   2   3
ENDBRANCH   1   2
END_RES LYS A 131
BEGIN_RES LYS A 135
REMARK  4 active torsions:
REMARK  status: ('A' for Active; 'I' for Inactive)
REMARK    5  A    between atoms: CA   and  CB  
REMARK    6  A    between atoms: CB   and  CG  
REMARK    7  A    between atoms: CG   and  CD  
REMARK    8  A    between atoms: CD   and  CE  
ROOT
ATOM      7  CA  LYS A 135      33.193  34.663   9.290  1.00 25.02     0.186 C 
ENDROOT
BRANCH   7   8
ATOM      8  CB  LYS A 135      32.060  35.360  10.034  1.00 26.63     0.034 C 
BRANCH   8   9
ATOM      9  CG  LYS A 135      30.805  35.514   9.213  1.00 29.45     0.005 C 
BRANCH   9  10
ATOM     10  CD  LYS A 135      30.128  34.168   9.011  1.00 32.00     0.041 C 
BRANCH  10  11
ATOM     11  CE  LYS A 135      28.657  34.354   8.694  1.00 34.25     0.338 C 
ATOM     12  NZ  LYS A 135      27.800  33.648   9.687  1.00 35.99     0.618 N 
ENDBRANCH  10  11
ENDBRANCH   9  10
ENDBRANCH   8   9
ENDBRANCH   7   8
END_RES LYS A 135
