REMARK VINA RESULT:    -5.442      4.643      8.723
REMARK INTER + INTRA:         -15.225
REMARK INTER:                 -10.133
REMARK INTRA:                  -5.093
REMARK UNBOUND:                -5.012
REMARK SMILES CC(=O)N[C@@H]1[C@@H](O)C[C@](O)(C(=O)O)O[C@H]1C(O)[C@H](O)CNC(=O)OCc1cn(CC(O)c2ccccc2)nn1
REMARK SMILES IDX 21 1 22 2 23 3 20 5 18 6 16 7 15 8 9 9 8 10 14 11 6 12 5 13
REMARK SMILES IDX 10 14 11 16 12 17 13 18 7 20 4 22 2 23 1 25 3 26 17 27 19 29
REMARK SMILES IDX 24 31 25 32 26 33 27 34 39 35 28 36 38 37 29 38 30 39 31 40
REMARK SMILES IDX 32 42 33 43 37 44 34 45 36 46 35 47
REMARK H PARENT 21 4 10 15 13 19 7 21 4 24 17 28 19 30 31 41
REMARK Flexibility Score: inf
ROOT
ATOM      1  N   UNL     1      30.108  31.754  17.270  1.00  0.00    -0.319 N 
ATOM      2  C   UNL     1      28.709  31.716  17.494  1.00  0.00     0.407 C 
ATOM      3  O   UNL     1      28.063  32.788  17.451  1.00  0.00    -0.225 OA
ATOM      4  H   UNL     1      30.581  30.799  17.320  1.00  0.00     0.167 HD
ENDROOT
BRANCH   1   5
ATOM      5  C   UNL     1      30.870  32.950  16.996  1.00  0.00     0.154 C 
BRANCH   5   6
ATOM      6  C   UNL     1      31.460  32.944  15.601  1.00  0.00     0.165 C 
BRANCH   6   7
ATOM      7  C   UNL     1      30.814  34.038  14.750  1.00  0.00     0.176 C 
BRANCH   7   8
ATOM      8  C   UNL     1      31.213  35.434  15.149  1.00  0.00     0.178 C 
ATOM      9  C   UNL     1      30.605  36.431  13.120  1.00  0.00     0.269 C 
ATOM     10  C   UNL     1      31.867  35.934  12.541  1.00  0.00     0.112 C 
ATOM     11  O   UNL     1      30.396  36.328  14.454  1.00  0.00    -0.332 OA
ATOM     12  C   UNL     1      33.022  35.735  13.472  1.00  0.00     0.145 C 
ATOM     13  C   UNL     1      32.642  35.701  14.933  1.00  0.00     0.142 C 
BRANCH   9  14
ATOM     14  O   UNL     1      29.564  35.669  12.508  1.00  0.00    -0.357 OA
ATOM     15  H   UNL     1      29.913  35.423  11.624  1.00  0.00     0.214 HD
ENDBRANCH   9  14
BRANCH   9  16
ATOM     16  C   UNL     1      30.367  37.835  12.616  1.00  0.00     0.364 C 
ATOM     17  O   UNL     1      30.878  38.838  13.168  1.00  0.00    -0.246 OA
BRANCH  16  18
ATOM     18  O   UNL     1      29.558  38.040  11.502  1.00  0.00    -0.477 OA
ATOM     19  H   UNL     1      28.692  38.555  11.530  1.00  0.00     0.296 HD
ENDBRANCH  16  18
ENDBRANCH   9  16
BRANCH  12  20
ATOM     20  O   UNL     1      33.715  34.542  13.119  1.00  0.00    -0.391 OA
ATOM     21  H   UNL     1      34.402  34.801  12.476  1.00  0.00     0.211 HD
ENDBRANCH  12  20
BRANCH  13  22
ATOM     22  N   UNL     1      33.099  36.964  15.491  1.00  0.00    -0.348 N 
ATOM     23  C   UNL     1      33.929  37.071  16.633  1.00  0.00     0.217 C 
ATOM     24  H   UNL     1      32.773  37.818  14.988  1.00  0.00     0.163 HD
ATOM     25  C   UNL     1      34.379  38.376  17.176  1.00  0.00     0.114 C 
ATOM     26  O   UNL     1      34.270  35.984  17.168  1.00  0.00    -0.275 OA
ENDBRANCH  13  22
ENDBRANCH   7   8
BRANCH   7  27
ATOM     27  O   UNL     1      29.421  33.909  15.124  1.00  0.00    -0.388 OA
ATOM     28  H   UNL     1      29.047  33.077  14.797  1.00  0.00     0.211 HD
ENDBRANCH   7  27
ENDBRANCH   6   7
BRANCH   6  29
ATOM     29  O   UNL     1      31.324  31.686  15.064  1.00  0.00    -0.388 OA
ATOM     30  H   UNL     1      31.095  31.068  15.797  1.00  0.00     0.211 HD
ENDBRANCH   6  29
ENDBRANCH   5   6
ENDBRANCH   1   5
BRANCH   2  31
ATOM     31  O   UNL     1      28.016  30.544  17.757  1.00  0.00    -0.443 OA
BRANCH  31  32
ATOM     32  C   UNL     1      27.748  29.578  16.760  1.00  0.00     0.294 C 
BRANCH  32  33
ATOM     33  C   UNL     1      26.357  29.750  16.294  1.00  0.00     0.120 A 
ATOM     34  C   UNL     1      25.913  30.663  15.351  1.00  0.00     0.138 A 
ATOM     35  N   UNL     1      25.240  29.082  16.666  1.00  0.00    -0.132 NA
ATOM     36  N   UNL     1      24.586  30.528  15.184  1.00  0.00    -0.249 N 
ATOM     37  N   UNL     1      24.208  29.566  15.991  1.00  0.00    -0.067 NA
BRANCH  36  38
ATOM     38  C   UNL     1      23.760  31.322  14.264  1.00  0.00     0.182 C 
BRANCH  38  39
ATOM     39  C   UNL     1      23.583  30.551  12.979  1.00  0.00     0.166 C 
BRANCH  39  40
ATOM     40  O   UNL     1      24.038  29.235  13.225  1.00  0.00    -0.386 OA
ATOM     41  H   UNL     1      23.541  28.606  12.634  1.00  0.00     0.211 HD
ENDBRANCH  39  40
BRANCH  39  42
ATOM     42  C   UNL     1      22.149  30.473  12.636  1.00  0.00    -0.018 A 
ATOM     43  C   UNL     1      21.331  31.584  12.597  1.00  0.00     0.006 A 
ATOM     44  C   UNL     1      21.592  29.222  12.337  1.00  0.00     0.006 A 
ATOM     45  C   UNL     1      20.000  31.491  12.274  1.00  0.00     0.000 A 
ATOM     46  C   UNL     1      20.269  29.127  12.015  1.00  0.00     0.000 A 
ATOM     47  C   UNL     1      19.478  30.252  11.984  1.00  0.00     0.000 A 
ENDBRANCH  39  42
ENDBRANCH  38  39
ENDBRANCH  36  38
ENDBRANCH  32  33
ENDBRANCH  31  32
ENDBRANCH   2  31
TORSDOF 18
BEGIN_RES LYS A 131
REMARK  4 active torsions:
REMARK  status: ('A' for Active; 'I' for Inactive)
REMARK    1  A    between atoms: CA   and  CB  
REMARK    2  A    between atoms: CB   and  CG  
REMARK    3  A    between atoms: CG   and  CD  
REMARK    4  A    between atoms: CD   and  CE  
ROOT
ATOM      1  CA  LYS A 131      29.867  25.555  16.977  1.00 20.52     0.186 C 
ENDROOT
BRANCH   1   2
ATOM      2  CB  LYS A 131      28.345  25.722  17.026  1.00 20.94     0.034 C 
BRANCH   2   3
ATOM      3  CG  LYS A 131      27.602  24.400  16.914  1.00 22.96     0.005 C 
BRANCH   3   4
ATOM      4  CD  LYS A 131      26.153  24.530  17.297  1.00 24.33     0.041 C 
BRANCH   4   5
ATOM      5  CE  LYS A 131      26.045  25.216  18.655  1.00 26.91     0.338 C 
ATOM      6  NZ  LYS A 131      25.486  24.285  19.663  1.00 27.40     0.618 N 
ENDBRANCH   4   5
ENDBRANCH   3   4
ENDBRANCH   2   3
ENDBRANCH   1   2
END_RES LYS A 131
BEGIN_RES LYS A 135
REMARK  4 active torsions:
REMARK  status: ('A' for Active; 'I' for Inactive)
REMARK    5  A    between atoms: CA   and  CB  
REMARK    6  A    between atoms: CB   and  CG  
REMARK    7  A    between atoms: CG   and  CD  
REMARK    8  A    between atoms: CD   and  CE  
ROOT
ATOM      7  CA  LYS A 135      33.193  34.663   9.290  1.00 25.02     0.186 C 
ENDROOT
BRANCH   7   8
ATOM      8  CB  LYS A 135      32.060  35.360  10.034  1.00 26.63     0.034 C 
BRANCH   8   9
ATOM      9  CG  LYS A 135      30.858  35.646   9.171  1.00 29.45     0.005 C 
BRANCH   9  10
ATOM     10  CD  LYS A 135      30.249  34.352   8.653  1.00 32.00     0.041 C 
BRANCH  10  11
ATOM     11  CE  LYS A 135      28.902  34.100   9.303  1.00 34.25     0.338 C 
ATOM     12  NZ  LYS A 135      27.788  34.498   8.399  1.00 35.99     0.618 N 
ENDBRANCH  10  11
ENDBRANCH   9  10
ENDBRANCH   8   9
ENDBRANCH   7   8
END_RES LYS A 135
