REMARK VINA RESULT:    -4.455      3.877      7.011
REMARK INTER + INTRA:         -15.426
REMARK INTER:                  -8.492
REMARK INTRA:                  -6.934
REMARK UNBOUND:                -6.934
REMARK SMILES CC(=O)N[C@@H]1[C@@H](O)C[C@](O)(C(=O)O)O[C@H]1C(O)[C@H](O)CNC(=O)OCc1cn(C(C)CC(=O)c2ccccc2)nn1
REMARK SMILES IDX 21 1 22 2 23 3 20 5 18 6 16 7 15 8 9 9 8 10 14 11 6 12 5 13
REMARK SMILES IDX 10 14 11 16 12 17 13 18 7 20 4 22 2 23 1 25 3 26 17 27 19 29
REMARK SMILES IDX 24 31 25 32 26 33 27 34 41 35 28 36 40 37 29 38 30 39 31 40
REMARK SMILES IDX 32 41 33 42 34 43 35 44 39 45 36 46 38 47 37 48
REMARK H PARENT 21 4 10 15 13 19 7 21 4 24 17 28 19 30
REMARK Flexibility Score: inf
ROOT
ATOM      1  N   UNL     1      29.818  37.636  16.097  1.00  0.00    -0.319 N 
ATOM      2  C   UNL     1      30.140  39.020  16.196  1.00  0.00     0.407 C 
ATOM      3  O   UNL     1      30.078  39.723  15.171  1.00  0.00    -0.225 OA
ATOM      4  H   UNL     1      29.893  37.104  17.017  1.00  0.00     0.167 HD
ENDROOT
BRANCH   1   5
ATOM      5  C   UNL     1      29.419  36.975  14.874  1.00  0.00     0.154 C 
BRANCH   5   6
ATOM      6  C   UNL     1      30.554  36.182  14.265  1.00  0.00     0.165 C 
BRANCH   6   7
ATOM      7  C   UNL     1      30.300  34.691  14.331  1.00  0.00     0.176 C 
BRANCH   7   8
ATOM      8  C   UNL     1      29.526  34.280  15.548  1.00  0.00     0.178 C 
ATOM      9  C   UNL     1      31.112  33.964  17.231  1.00  0.00     0.269 C 
ATOM     10  C   UNL     1      30.907  32.469  17.231  1.00  0.00     0.112 C 
ATOM     11  O   UNL     1      30.082  34.699  16.727  1.00  0.00    -0.332 OA
ATOM     12  C   UNL     1      30.391  31.948  15.924  1.00  0.00     0.145 C 
ATOM     13  C   UNL     1      29.200  32.798  15.543  1.00  0.00     0.142 C 
BRANCH   9  14
ATOM     14  O   UNL     1      32.364  34.261  16.647  1.00  0.00    -0.357 OA
ATOM     15  H   UNL     1      32.437  35.200  16.387  1.00  0.00     0.214 HD
ENDBRANCH   9  14
BRANCH   9  16
ATOM     16  C   UNL     1      31.250  34.351  18.683  1.00  0.00     0.364 C 
ATOM     17  O   UNL     1      30.309  34.336  19.488  1.00  0.00    -0.246 OA
BRANCH  16  18
ATOM     18  O   UNL     1      32.545  34.737  19.067  1.00  0.00    -0.477 OA
ATOM     19  H   UNL     1      33.187  34.068  19.463  1.00  0.00     0.296 HD
ENDBRANCH  16  18
ENDBRANCH   9  16
BRANCH  12  20
ATOM     20  O   UNL     1      31.351  31.901  14.942  1.00  0.00    -0.391 OA
ATOM     21  H   UNL     1      32.102  32.497  15.177  1.00  0.00     0.211 HD
ENDBRANCH  12  20
BRANCH  13  22
ATOM     22  N   UNL     1      28.220  32.605  16.624  1.00  0.00    -0.348 N 
ATOM     23  C   UNL     1      27.233  31.590  16.489  1.00  0.00     0.217 C 
ATOM     24  H   UNL     1      28.224  33.187  17.483  1.00  0.00     0.163 HD
ATOM     25  C   UNL     1      26.253  31.408  17.590  1.00  0.00     0.114 C 
ATOM     26  O   UNL     1      27.227  30.888  15.454  1.00  0.00    -0.275 OA
ENDBRANCH  13  22
ENDBRANCH   7   8
BRANCH   7  27
ATOM     27  O   UNL     1      29.623  34.347  13.158  1.00  0.00    -0.388 OA
ATOM     28  H   UNL     1      28.910  33.678  13.381  1.00  0.00     0.211 HD
ENDBRANCH   7  27
ENDBRANCH   6   7
BRANCH   6  29
ATOM     29  O   UNL     1      31.746  36.501  14.947  1.00  0.00    -0.388 OA
ATOM     30  H   UNL     1      31.603  36.572  15.923  1.00  0.00     0.211 HD
ENDBRANCH   6  29
ENDBRANCH   5   6
ENDBRANCH   1   5
BRANCH   2  31
ATOM     31  O   UNL     1      30.517  39.614  17.380  1.00  0.00    -0.443 OA
BRANCH  31  32
ATOM     32  C   UNL     1      31.842  39.873  17.784  1.00  0.00     0.294 C 
BRANCH  32  33
ATOM     33  C   UNL     1      32.777  38.766  17.564  1.00  0.00     0.120 A 
ATOM     34  C   UNL     1      34.138  38.892  17.258  1.00  0.00     0.138 A 
ATOM     35  N   UNL     1      32.550  37.428  17.604  1.00  0.00    -0.132 NA
ATOM     36  N   UNL     1      34.649  37.682  17.135  1.00  0.00    -0.249 N 
ATOM     37  N   UNL     1      33.693  36.823  17.342  1.00  0.00    -0.067 NA
BRANCH  36  38
ATOM     38  C   UNL     1      36.080  37.382  16.813  1.00  0.00     0.114 C 
ATOM     39  C   UNL     1      36.854  38.045  17.922  1.00  0.00     0.034 C 
BRANCH  38  40
ATOM     40  C   UNL     1      36.213  35.931  16.804  1.00  0.00     0.108 C 
BRANCH  40  41
ATOM     41  C   UNL     1      37.433  35.311  16.392  1.00  0.00     0.164 C 
ATOM     42  O   UNL     1      38.081  34.739  17.411  1.00  0.00    -0.294 OA
BRANCH  41  43
ATOM     43  C   UNL     1      38.109  35.170  15.140  1.00  0.00     0.018 A 
ATOM     44  C   UNL     1      37.713  34.123  14.273  1.00  0.00     0.012 A 
ATOM     45  C   UNL     1      39.116  35.983  14.680  1.00  0.00     0.012 A 
ATOM     46  C   UNL     1      38.308  33.940  13.050  1.00  0.00     0.001 A 
ATOM     47  C   UNL     1      39.695  35.769  13.437  1.00  0.00     0.001 A 
ATOM     48  C   UNL     1      39.314  34.764  12.610  1.00  0.00     0.000 A 
ENDBRANCH  41  43
ENDBRANCH  40  41
ENDBRANCH  38  40
ENDBRANCH  36  38
ENDBRANCH  32  33
ENDBRANCH  31  32
ENDBRANCH   2  31
TORSDOF 18
BEGIN_RES LYS A 131
REMARK  4 active torsions:
REMARK  status: ('A' for Active; 'I' for Inactive)
REMARK    1  A    between atoms: CA   and  CB  
REMARK    2  A    between atoms: CB   and  CG  
REMARK    3  A    between atoms: CG   and  CD  
REMARK    4  A    between atoms: CD   and  CE  
ROOT
ATOM      1  CA  LYS A 131      29.867  25.555  16.977  1.00 20.52     0.186 C 
ENDROOT
BRANCH   1   2
ATOM      2  CB  LYS A 131      28.345  25.722  17.026  1.00 20.94     0.034 C 
BRANCH   2   3
ATOM      3  CG  LYS A 131      27.599  24.420  16.778  1.00 22.96     0.005 C 
BRANCH   3   4
ATOM      4  CD  LYS A 131      26.609  24.117  17.868  1.00 24.33     0.041 C 
BRANCH   4   5
ATOM      5  CE  LYS A 131      25.246  24.690  17.491  1.00 26.91     0.338 C 
ATOM      6  NZ  LYS A 131      24.349  23.615  17.006  1.00 27.40     0.618 N 
ENDBRANCH   4   5
ENDBRANCH   3   4
ENDBRANCH   2   3
ENDBRANCH   1   2
END_RES LYS A 131
BEGIN_RES LYS A 135
REMARK  4 active torsions:
REMARK  status: ('A' for Active; 'I' for Inactive)
REMARK    5  A    between atoms: CA   and  CB  
REMARK    6  A    between atoms: CB   and  CG  
REMARK    7  A    between atoms: CG   and  CD  
REMARK    8  A    between atoms: CD   and  CE  
ROOT
ATOM      7  CA  LYS A 135      33.193  34.663   9.290  1.00 25.02     0.186 C 
ENDROOT
BRANCH   7   8
ATOM      8  CB  LYS A 135      32.060  35.360  10.034  1.00 26.63     0.034 C 
BRANCH   8   9
ATOM      9  CG  LYS A 135      30.725  34.681   9.871  1.00 29.45     0.005 C 
BRANCH   9  10
ATOM     10  CD  LYS A 135      30.418  34.447   8.400  1.00 32.00     0.041 C 
BRANCH  10  11
ATOM     11  CE  LYS A 135      29.006  34.894   8.072  1.00 34.25     0.338 C 
ATOM     12  NZ  LYS A 135      28.005  34.147   8.884  1.00 35.99     0.618 N 
ENDBRANCH  10  11
ENDBRANCH   9  10
ENDBRANCH   8   9
ENDBRANCH   7   8
END_RES LYS A 135
