REMARK VINA RESULT:    -5.009      4.092      7.948
REMARK INTER + INTRA:         -14.266
REMARK INTER:                  -9.255
REMARK INTRA:                  -5.011
REMARK UNBOUND:                -5.011
REMARK SMILES CC(=O)N[C@@H]1[C@@H](O)C[C@](O)(C(=O)O)O[C@H]1C(O)[C@H](O)CNC(=O)OCc1cn(CS(=O)(=O)c2ccccc2)nn1
REMARK SMILES IDX 21 1 22 2 23 3 20 5 18 6 16 7 15 8 9 9 8 10 14 11 6 12 5 13
REMARK SMILES IDX 10 14 11 16 12 17 13 18 7 20 4 22 2 23 1 25 3 26 17 27 19 29
REMARK SMILES IDX 24 31 25 32 26 33 27 34 40 35 28 36 39 37 29 38 30 39 31 40
REMARK SMILES IDX 32 41 33 42 34 43 38 44 35 45 37 46 36 47
REMARK H PARENT 21 4 10 15 13 19 7 21 4 24 17 28 19 30
REMARK Flexibility Score: inf
ROOT
ATOM      1  N   UNL     1      25.725  34.630  16.640  1.00  0.00    -0.319 N 
ATOM      2  C   UNL     1      24.409  34.206  16.232  1.00  0.00     0.407 C 
ATOM      3  O   UNL     1      24.218  33.008  15.978  1.00  0.00    -0.225 OA
ATOM      4  H   UNL     1      25.801  35.645  16.840  1.00  0.00     0.167 HD
ENDROOT
BRANCH   1   5
ATOM      5  C   UNL     1      26.807  33.668  16.750  1.00  0.00     0.154 C 
BRANCH   5   6
ATOM      6  C   UNL     1      27.588  33.533  15.487  1.00  0.00     0.165 C 
BRANCH   6   7
ATOM      7  C   UNL     1      28.743  34.468  15.372  1.00  0.00     0.176 C 
BRANCH   7   8
ATOM      8  C   UNL     1      29.694  34.510  16.514  1.00  0.00     0.178 C 
ATOM      9  C   UNL     1      31.437  35.476  15.290  1.00  0.00     0.269 C 
ATOM     10  C   UNL     1      31.886  34.109  14.891  1.00  0.00     0.112 C 
ATOM     11  O   UNL     1      30.593  35.564  16.368  1.00  0.00    -0.332 OA
ATOM     12  C   UNL     1      31.549  32.999  15.807  1.00  0.00     0.145 C 
ATOM     13  C   UNL     1      30.502  33.318  16.838  1.00  0.00     0.142 C 
BRANCH   9  14
ATOM     14  O   UNL     1      30.808  36.135  14.232  1.00  0.00    -0.357 OA
ATOM     15  H   UNL     1      30.072  36.708  14.500  1.00  0.00     0.214 HD
ENDBRANCH   9  14
BRANCH   9  16
ATOM     16  C   UNL     1      32.634  36.285  15.641  1.00  0.00     0.364 C 
ATOM     17  O   UNL     1      33.665  35.707  16.044  1.00  0.00    -0.246 OA
BRANCH  16  18
ATOM     18  O   UNL     1      32.669  37.671  15.543  1.00  0.00    -0.477 OA
ATOM     19  H   UNL     1      33.463  38.207  15.920  1.00  0.00     0.296 HD
ENDBRANCH  16  18
ENDBRANCH   9  16
BRANCH  12  20
ATOM     20  O   UNL     1      31.193  31.878  15.060  1.00  0.00    -0.391 OA
ATOM     21  H   UNL     1      31.369  31.039  15.523  1.00  0.00     0.211 HD
ENDBRANCH  12  20
BRANCH  13  22
ATOM     22  N   UNL     1      31.101  33.519  18.161  1.00  0.00    -0.348 N 
ATOM     23  C   UNL     1      30.912  32.596  19.213  1.00  0.00     0.217 C 
ATOM     24  H   UNL     1      31.682  34.359  18.343  1.00  0.00     0.163 HD
ATOM     25  C   UNL     1      31.515  32.786  20.567  1.00  0.00     0.114 C 
ATOM     26  O   UNL     1      30.206  31.586  18.972  1.00  0.00    -0.275 OA
ENDBRANCH  13  22
ENDBRANCH   7   8
BRANCH   7  27
ATOM     27  O   UNL     1      28.092  35.775  15.477  1.00  0.00    -0.388 OA
ATOM     28  H   UNL     1      28.817  36.421  15.548  1.00  0.00     0.211 HD
ENDBRANCH   7  27
ENDBRANCH   6   7
BRANCH   6  29
ATOM     29  O   UNL     1      26.845  33.433  14.328  1.00  0.00    -0.388 OA
ATOM     30  H   UNL     1      27.338  32.985  13.598  1.00  0.00     0.211 HD
ENDBRANCH   6  29
ENDBRANCH   5   6
ENDBRANCH   1   5
BRANCH   2  31
ATOM     31  O   UNL     1      23.368  35.107  16.122  1.00  0.00    -0.443 OA
BRANCH  31  32
ATOM     32  C   UNL     1      22.987  35.689  14.888  1.00  0.00     0.294 C 
BRANCH  32  33
ATOM     33  C   UNL     1      24.095  35.693  13.921  1.00  0.00     0.120 A 
ATOM     34  C   UNL     1      24.188  35.143  12.674  1.00  0.00     0.139 A 
ATOM     35  N   UNL     1      25.286  36.290  14.138  1.00  0.00    -0.132 NA
ATOM     36  N   UNL     1      25.420  35.418  12.176  1.00  0.00    -0.237 N 
ATOM     37  N   UNL     1      26.066  36.119  13.093  1.00  0.00    -0.066 NA
BRANCH  36  38
ATOM     38  C   UNL     1      25.891  35.003  10.881  1.00  0.00     0.287 C 
BRANCH  38  39
ATOM     39  S   UNL     1      25.146  35.999   9.598  1.00  0.00     0.198 S 
ATOM     40  O   UNL     1      24.874  37.366  10.175  1.00  0.00    -0.222 OA
ATOM     41  O   UNL     1      23.871  35.351   9.206  1.00  0.00    -0.222 OA
BRANCH  39  42
ATOM     42  C   UNL     1      26.266  36.106   8.253  1.00  0.00     0.069 A 
ATOM     43  C   UNL     1      26.312  37.297   7.537  1.00  0.00     0.020 A 
ATOM     44  C   UNL     1      27.067  35.037   7.929  1.00  0.00     0.020 A 
ATOM     45  C   UNL     1      27.191  37.379   6.483  1.00  0.00     0.001 A 
ATOM     46  C   UNL     1      27.930  35.170   6.864  1.00  0.00     0.001 A 
ATOM     47  C   UNL     1      28.020  36.322   6.120  1.00  0.00     0.000 A 
ENDBRANCH  39  42
ENDBRANCH  38  39
ENDBRANCH  36  38
ENDBRANCH  32  33
ENDBRANCH  31  32
ENDBRANCH   2  31
TORSDOF 17
BEGIN_RES LYS A 131
REMARK  4 active torsions:
REMARK  status: ('A' for Active; 'I' for Inactive)
REMARK    1  A    between atoms: CA   and  CB  
REMARK    2  A    between atoms: CB   and  CG  
REMARK    3  A    between atoms: CG   and  CD  
REMARK    4  A    between atoms: CD   and  CE  
ROOT
ATOM      1  CA  LYS A 131      29.867  25.555  16.977  1.00 20.52     0.186 C 
ENDROOT
BRANCH   1   2
ATOM      2  CB  LYS A 131      28.345  25.722  17.026  1.00 20.94     0.034 C 
BRANCH   2   3
ATOM      3  CG  LYS A 131      27.602  24.399  16.927  1.00 22.96     0.005 C 
BRANCH   3   4
ATOM      4  CD  LYS A 131      26.152  24.534  17.299  1.00 24.33     0.041 C 
BRANCH   4   5
ATOM      5  CE  LYS A 131      25.963  24.143  18.761  1.00 26.91     0.338 C 
ATOM      6  NZ  LYS A 131      25.194  22.880  18.865  1.00 27.40     0.618 N 
ENDBRANCH   4   5
ENDBRANCH   3   4
ENDBRANCH   2   3
ENDBRANCH   1   2
END_RES LYS A 131
BEGIN_RES LYS A 135
REMARK  4 active torsions:
REMARK  status: ('A' for Active; 'I' for Inactive)
REMARK    5  A    between atoms: CA   and  CB  
REMARK    6  A    between atoms: CB   and  CG  
REMARK    7  A    between atoms: CG   and  CD  
REMARK    8  A    between atoms: CD   and  CE  
ROOT
ATOM      7  CA  LYS A 135      33.193  34.663   9.290  1.00 25.02     0.186 C 
ENDROOT
BRANCH   7   8
ATOM      8  CB  LYS A 135      32.060  35.360  10.034  1.00 26.63     0.034 C 
BRANCH   8   9
ATOM      9  CG  LYS A 135      30.746  35.329   9.297  1.00 29.45     0.005 C 
BRANCH   9  10
ATOM     10  CD  LYS A 135      29.696  36.142  10.037  1.00 32.00     0.041 C 
BRANCH  10  11
ATOM     11  CE  LYS A 135      29.921  37.626   9.821  1.00 34.25     0.338 C 
ATOM     12  NZ  LYS A 135      30.225  37.920   8.393  1.00 35.99     0.618 N 
ENDBRANCH  10  11
ENDBRANCH   9  10
ENDBRANCH   8   9
ENDBRANCH   7   8
END_RES LYS A 135
