REMARK VINA RESULT:    -3.924      2.492      3.857
REMARK INTER + INTRA:         -14.447
REMARK INTER:                  -8.365
REMARK INTRA:                  -6.083
REMARK UNBOUND:                -7.426
REMARK SMILES CC(=O)N[C@@H]1[C@@H](O)C[C@](O)(C(=O)O)O[C@H]1C(O)[C@H](O)CNC(=O)OCc1cn(Cc2ccccc2Br)nn1
REMARK SMILES IDX 21 1 22 2 23 3 20 5 18 6 16 7 15 8 9 9 8 10 14 11 6 12 5 13
REMARK SMILES IDX 10 14 11 16 12 17 13 18 7 20 4 22 2 23 1 25 3 26 17 27 19 29
REMARK SMILES IDX 24 31 25 32 26 33 27 34 38 35 28 36 37 37 29 38 30 39 31 40
REMARK SMILES IDX 35 41 32 42 34 43 36 44 33 45
REMARK H PARENT 21 4 10 15 13 19 7 21 4 24 17 28 19 30
REMARK Flexibility Score: inf
ROOT
ATOM      1  N   UNL     1      27.774  28.212  18.420  1.00  0.00    -0.319 N 
ATOM      2  C   UNL     1      26.817  28.457  17.429  1.00  0.00     0.407 C 
ATOM      3  O   UNL     1      25.743  27.793  17.433  1.00  0.00    -0.225 OA
ATOM      4  H   UNL     1      28.659  28.789  18.383  1.00  0.00     0.167 HD
ENDROOT
BRANCH   1   5
ATOM      5  C   UNL     1      27.640  27.234  19.478  1.00  0.00     0.154 C 
BRANCH   5   6
ATOM      6  C   UNL     1      28.575  27.590  20.613  1.00  0.00     0.165 C 
BRANCH   6   7
ATOM      7  C   UNL     1      28.787  29.086  20.704  1.00  0.00     0.176 C 
BRANCH   7   8
ATOM      8  C   UNL     1      29.825  29.452  21.746  1.00  0.00     0.178 C 
ATOM      9  C   UNL     1      32.142  29.556  21.989  1.00  0.00     0.269 C 
ATOM     10  C   UNL     1      32.116  28.721  23.212  1.00  0.00     0.112 C 
ATOM     11  O   UNL     1      31.051  29.262  21.186  1.00  0.00    -0.332 OA
ATOM     12  C   UNL     1      30.845  28.046  23.556  1.00  0.00     0.145 C 
ATOM     13  C   UNL     1      29.601  28.701  23.028  1.00  0.00     0.142 C 
BRANCH   9  14
ATOM     14  O   UNL     1      33.273  29.187  21.215  1.00  0.00    -0.357 OA
ATOM     15  H   UNL     1      33.482  29.882  20.536  1.00  0.00     0.214 HD
ENDBRANCH   9  14
BRANCH   9  16
ATOM     16  C   UNL     1      32.270  30.980  22.303  1.00  0.00     0.364 C 
ATOM     17  O   UNL     1      32.478  31.866  21.429  1.00  0.00    -0.246 OA
BRANCH  16  18
ATOM     18  O   UNL     1      32.163  31.397  23.622  1.00  0.00    -0.477 OA
ATOM     19  H   UNL     1      31.578  32.173  23.910  1.00  0.00     0.296 HD
ENDBRANCH  16  18
ENDBRANCH   9  16
BRANCH  12  20
ATOM     20  O   UNL     1      30.893  26.691  23.180  1.00  0.00    -0.391 OA
ATOM     21  H   UNL     1      31.566  26.665  22.428  1.00  0.00     0.211 HD
ENDBRANCH  12  20
BRANCH  13  22
ATOM     22  N   UNL     1      28.960  29.512  24.039  1.00  0.00    -0.348 N 
ATOM     23  C   UNL     1      27.579  29.408  24.343  1.00  0.00     0.217 C 
ATOM     24  H   UNL     1      29.522  30.204  24.572  1.00  0.00     0.163 HD
ATOM     25  C   UNL     1      26.902  30.236  25.381  1.00  0.00     0.114 C 
ATOM     26  O   UNL     1      26.910  28.549  23.674  1.00  0.00    -0.275 OA
ENDBRANCH  13  22
ENDBRANCH   7   8
BRANCH   7  27
ATOM     27  O   UNL     1      27.570  29.722  20.930  1.00  0.00    -0.388 OA
ATOM     28  H   UNL     1      26.829  29.070  20.732  1.00  0.00     0.211 HD
ENDBRANCH   7  27
ENDBRANCH   6   7
BRANCH   6  29
ATOM     29  O   UNL     1      29.795  26.942  20.306  1.00  0.00    -0.388 OA
ATOM     30  H   UNL     1      30.495  27.161  20.942  1.00  0.00     0.211 HD
ENDBRANCH   6  29
ENDBRANCH   5   6
ENDBRANCH   1   5
BRANCH   2  31
ATOM     31  O   UNL     1      26.956  29.396  16.417  1.00  0.00    -0.443 OA
BRANCH  31  32
ATOM     32  C   UNL     1      28.224  29.622  15.825  1.00  0.00     0.294 C 
BRANCH  32  33
ATOM     33  C   UNL     1      28.864  30.841  16.361  1.00  0.00     0.120 A 
ATOM     34  C   UNL     1      28.912  32.104  15.754  1.00  0.00     0.138 A 
ATOM     35  N   UNL     1      29.527  31.015  17.511  1.00  0.00    -0.132 NA
ATOM     36  N   UNL     1      29.568  32.968  16.509  1.00  0.00    -0.248 N 
ATOM     37  N   UNL     1      29.942  32.260  17.602  1.00  0.00    -0.067 NA
BRANCH  36  38
ATOM     38  C   UNL     1      29.922  34.361  16.378  1.00  0.00     0.182 C 
BRANCH  38  39
ATOM     39  C   UNL     1      31.000  34.658  15.444  1.00  0.00    -0.012 A 
ATOM     40  C   UNL     1      32.337  34.587  15.843  1.00  0.00     0.007 A 
ATOM     41  C   UNL     1      30.764  34.985  14.140  1.00  0.00     0.023 A 
ATOM     42  C   UNL     1      33.337  34.837  14.944  1.00  0.00     0.000 A 
ATOM     43  C   UNL     1      31.778  35.238  13.235  1.00  0.00     0.016 A 
ATOM     44  Br  UNL     1      28.964  35.168  13.470  1.00  0.00    -0.050 Br
ATOM     45  C   UNL     1      33.089  35.164  13.634  1.00  0.00     0.001 A 
ENDBRANCH  38  39
ENDBRANCH  36  38
ENDBRANCH  32  33
ENDBRANCH  31  32
ENDBRANCH   2  31
TORSDOF 16
BEGIN_RES LYS A 131
REMARK  4 active torsions:
REMARK  status: ('A' for Active; 'I' for Inactive)
REMARK    1  A    between atoms: CA   and  CB  
REMARK    2  A    between atoms: CB   and  CG  
REMARK    3  A    between atoms: CG   and  CD  
REMARK    4  A    between atoms: CD   and  CE  
ROOT
ATOM      1  CA  LYS A 131      29.867  25.555  16.977  1.00 20.52     0.186 C 
ENDROOT
BRANCH   1   2
ATOM      2  CB  LYS A 131      28.345  25.722  17.026  1.00 20.94     0.034 C 
BRANCH   2   3
ATOM      3  CG  LYS A 131      27.599  24.433  16.716  1.00 22.96     0.005 C 
BRANCH   3   4
ATOM      4  CD  LYS A 131      27.002  23.813  17.949  1.00 24.33     0.041 C 
BRANCH   4   5
ATOM      5  CE  LYS A 131      25.573  23.369  17.655  1.00 26.91     0.338 C 
ATOM      6  NZ  LYS A 131      24.838  24.432  16.929  1.00 27.40     0.618 N 
ENDBRANCH   4   5
ENDBRANCH   3   4
ENDBRANCH   2   3
ENDBRANCH   1   2
END_RES LYS A 131
BEGIN_RES LYS A 135
REMARK  4 active torsions:
REMARK  status: ('A' for Active; 'I' for Inactive)
REMARK    5  A    between atoms: CA   and  CB  
REMARK    6  A    between atoms: CB   and  CG  
REMARK    7  A    between atoms: CG   and  CD  
REMARK    8  A    between atoms: CD   and  CE  
ROOT
ATOM      7  CA  LYS A 135      33.193  34.663   9.290  1.00 25.02     0.186 C 
ENDROOT
BRANCH   7   8
ATOM      8  CB  LYS A 135      32.060  35.360  10.034  1.00 26.63     0.034 C 
BRANCH   8   9
ATOM      9  CG  LYS A 135      30.704  34.762   9.763  1.00 29.45     0.005 C 
BRANCH   9  10
ATOM     10  CD  LYS A 135      30.527  34.484   8.278  1.00 32.00     0.041 C 
BRANCH  10  11
ATOM     11  CE  LYS A 135      29.134  34.876   7.825  1.00 34.25     0.338 C 
ATOM     12  NZ  LYS A 135      28.982  36.357   7.776  1.00 35.99     0.618 N 
ENDBRANCH  10  11
ENDBRANCH   9  10
ENDBRANCH   8   9
ENDBRANCH   7   8
END_RES LYS A 135
