REMARK VINA RESULT:    -5.134      6.555     13.975
REMARK INTER + INTRA:         -13.935
REMARK INTER:                  -8.496
REMARK INTRA:                  -5.439
REMARK UNBOUND:                -4.749
REMARK SMILES CC(=O)N[C@@H]1[C@@H](O)C[C@](O)(C(=O)O)O[C@H]1C(O)[C@H](O)CNC(=O)OCc1cn(-c2ccc([N+](=O)[O-])cc2)nn1
REMARK SMILES IDX 21 1 22 2 23 3 20 5 18 6 16 7 15 8 9 9 8 10 14 11 6 12 5 13
REMARK SMILES IDX 10 14 11 16 12 17 13 18 7 20 4 22 2 23 1 25 3 26 17 27 19 29
REMARK SMILES IDX 24 31 25 32 26 33 27 34 39 35 28 36 38 37 29 38 30 39 37 40
REMARK SMILES IDX 31 41 36 42 32 43 33 44 34 45 35 46
REMARK H PARENT 21 4 10 15 13 19 7 21 4 24 17 28 19 30
REMARK Flexibility Score: inf
ROOT
ATOM      1  N   UNL     1      28.113  40.471   7.931  1.00  0.00    -0.319 N 
ATOM      2  C   UNL     1      29.500  40.534   7.698  1.00  0.00     0.407 C 
ATOM      3  O   UNL     1      30.026  40.209   6.618  1.00  0.00    -0.225 OA
ATOM      4  H   UNL     1      27.781  40.808   8.899  1.00  0.00     0.167 HD
ENDROOT
BRANCH   1   5
ATOM      5  C   UNL     1      27.157  40.004   7.005  1.00  0.00     0.154 C 
BRANCH   5   6
ATOM      6  C   UNL     1      25.906  39.377   7.473  1.00  0.00     0.165 C 
BRANCH   6   7
ATOM      7  C   UNL     1      25.869  38.078   8.137  1.00  0.00     0.176 C 
BRANCH   7   8
ATOM      8  C   UNL     1      24.443  37.536   8.286  1.00  0.00     0.178 C 
ATOM      9  C   UNL     1      22.429  38.185   9.253  1.00  0.00     0.269 C 
ATOM     10  C   UNL     1      21.978  36.841   8.728  1.00  0.00     0.112 C 
ATOM     11  O   UNL     1      23.639  38.600   8.746  1.00  0.00    -0.332 OA
ATOM     12  C   UNL     1      22.968  35.751   8.994  1.00  0.00     0.145 C 
ATOM     13  C   UNL     1      24.317  36.437   9.277  1.00  0.00     0.142 C 
BRANCH   9  14
ATOM     14  O   UNL     1      22.410  38.116  10.635  1.00  0.00    -0.357 OA
ATOM     15  H   UNL     1      21.768  38.768  10.980  1.00  0.00     0.214 HD
ENDBRANCH   9  14
BRANCH   9  16
ATOM     16  C   UNL     1      21.407  39.173   8.820  1.00  0.00     0.364 C 
ATOM     17  O   UNL     1      21.515  40.388   9.130  1.00  0.00    -0.246 OA
BRANCH  16  18
ATOM     18  O   UNL     1      20.312  38.786   8.066  1.00  0.00    -0.477 OA
ATOM     19  H   UNL     1      19.963  37.824   8.067  1.00  0.00     0.296 HD
ENDBRANCH  16  18
ENDBRANCH   9  16
BRANCH  12  20
ATOM     20  O   UNL     1      22.618  34.897  10.015  1.00  0.00    -0.391 OA
ATOM     21  H   UNL     1      23.025  35.234  10.852  1.00  0.00     0.211 HD
ENDBRANCH  12  20
BRANCH  13  22
ATOM     22  N   UNL     1      25.307  35.387   9.162  1.00  0.00    -0.348 N 
ATOM     23  C   UNL     1      26.159  35.064  10.270  1.00  0.00     0.217 C 
ATOM     24  H   UNL     1      25.444  34.831   8.297  1.00  0.00     0.163 HD
ATOM     25  C   UNL     1      27.190  34.004  10.223  1.00  0.00     0.114 C 
ATOM     26  O   UNL     1      26.008  35.722  11.321  1.00  0.00    -0.275 OA
ENDBRANCH  13  22
ENDBRANCH   7   8
BRANCH   7  27
ATOM     27  O   UNL     1      26.523  38.097   9.341  1.00  0.00    -0.388 OA
ATOM     28  H   UNL     1      26.227  37.441  10.010  1.00  0.00     0.211 HD
ENDBRANCH   7  27
ENDBRANCH   6   7
BRANCH   6  29
ATOM     29  O   UNL     1      25.013  39.459   6.366  1.00  0.00    -0.388 OA
ATOM     30  H   UNL     1      24.770  38.545   6.064  1.00  0.00     0.211 HD
ENDBRANCH   6  29
ENDBRANCH   5   6
ENDBRANCH   1   5
BRANCH   2  31
ATOM     31  O   UNL     1      30.314  40.994   8.757  1.00  0.00    -0.443 OA
BRANCH  31  32
ATOM     32  C   UNL     1      31.308  40.097   9.213  1.00  0.00     0.294 C 
BRANCH  32  33
ATOM     33  C   UNL     1      30.705  39.104  10.165  1.00  0.00     0.121 A 
ATOM     34  C   UNL     1      31.370  38.269  11.038  1.00  0.00     0.144 A 
ATOM     35  N   UNL     1      29.393  38.826  10.359  1.00  0.00    -0.131 NA
ATOM     36  N   UNL     1      30.478  37.519  11.728  1.00  0.00    -0.220 N 
ATOM     37  N   UNL     1      29.299  37.896  11.278  1.00  0.00    -0.062 NA
BRANCH  36  38
ATOM     38  C   UNL     1      30.770  36.538  12.721  1.00  0.00     0.067 A 
ATOM     39  C   UNL     1      32.026  36.402  13.271  1.00  0.00     0.035 A 
ATOM     40  C   UNL     1      29.792  35.674  13.178  1.00  0.00     0.035 A 
ATOM     41  C   UNL     1      32.286  35.445  14.231  1.00  0.00     0.088 A 
ATOM     42  C   UNL     1      30.051  34.716  14.139  1.00  0.00     0.088 A 
ATOM     43  C   UNL     1      31.307  34.578  14.691  1.00  0.00     0.269 A 
BRANCH  43  44
ATOM     44  N   UNL     1      31.564  33.596  15.676  1.00  0.00     0.062 N 
ATOM     45  O   UNL     1      31.868  33.967  16.822  1.00  0.00    -0.258 OA
ATOM     46  O   UNL     1      31.497  32.251  15.443  1.00  0.00    -0.258 OA
ENDBRANCH  43  44
ENDBRANCH  36  38
ENDBRANCH  32  33
ENDBRANCH  31  32
ENDBRANCH   2  31
TORSDOF 16
BEGIN_RES LYS A 131
REMARK  4 active torsions:
REMARK  status: ('A' for Active; 'I' for Inactive)
REMARK    1  A    between atoms: CA   and  CB  
REMARK    2  A    between atoms: CB   and  CG  
REMARK    3  A    between atoms: CG   and  CD  
REMARK    4  A    between atoms: CD   and  CE  
ROOT
ATOM      1  CA  LYS A 131      29.867  25.555  16.977  1.00 20.52     0.186 C 
ENDROOT
BRANCH   1   2
ATOM      2  CB  LYS A 131      28.345  25.722  17.026  1.00 20.94     0.034 C 
BRANCH   2   3
ATOM      3  CG  LYS A 131      27.601  24.402  16.890  1.00 22.96     0.005 C 
BRANCH   3   4
ATOM      4  CD  LYS A 131      26.250  24.443  17.548  1.00 24.33     0.041 C 
BRANCH   4   5
ATOM      5  CE  LYS A 131      25.661  23.037  17.591  1.00 26.91     0.338 C 
ATOM      6  NZ  LYS A 131      25.030  22.778  18.907  1.00 27.40     0.618 N 
ENDBRANCH   4   5
ENDBRANCH   3   4
ENDBRANCH   2   3
ENDBRANCH   1   2
END_RES LYS A 131
BEGIN_RES LYS A 135
REMARK  4 active torsions:
REMARK  status: ('A' for Active; 'I' for Inactive)
REMARK    5  A    between atoms: CA   and  CB  
REMARK    6  A    between atoms: CB   and  CG  
REMARK    7  A    between atoms: CG   and  CD  
REMARK    8  A    between atoms: CD   and  CE  
ROOT
ATOM      7  CA  LYS A 135      33.193  34.663   9.290  1.00 25.02     0.186 C 
ENDROOT
BRANCH   7   8
ATOM      8  CB  LYS A 135      32.060  35.360  10.034  1.00 26.63     0.034 C 
BRANCH   8   9
ATOM      9  CG  LYS A 135      30.707  34.745   9.784  1.00 29.45     0.005 C 
BRANCH   9  10
ATOM     10  CD  LYS A 135      30.364  34.787   8.302  1.00 32.00     0.041 C 
BRANCH  10  11
ATOM     11  CE  LYS A 135      29.433  35.946   8.004  1.00 34.25     0.338 C 
ATOM     12  NZ  LYS A 135      28.293  35.512   7.149  1.00 35.99     0.618 N 
ENDBRANCH  10  11
ENDBRANCH   9  10
ENDBRANCH   8   9
ENDBRANCH   7   8
END_RES LYS A 135
