REMARK VINA RESULT:    -4.200      1.796      3.511
REMARK INTER + INTRA:         -14.556
REMARK INTER:                  -9.683
REMARK INTRA:                  -4.873
REMARK UNBOUND:                -7.042
REMARK SMILES CC(=O)N[C@@H]1[C@@H](O)C[C@](O)(C(=O)O)O[C@H]1C(O)[C@H](O)CNC(=O)OCc1cn(-c2ncccc2C#N)nn1
REMARK SMILES IDX 21 1 22 2 23 3 20 5 18 6 16 7 15 8 9 9 8 10 14 11 6 12 5 13
REMARK SMILES IDX 10 14 11 16 12 17 13 18 7 20 4 22 2 23 1 25 3 26 17 27 19 29
REMARK SMILES IDX 24 31 25 32 26 33 27 34 38 35 28 36 37 37 29 38 30 39 34 40
REMARK SMILES IDX 31 41 33 42 32 43 35 44 36 45
REMARK H PARENT 21 4 10 15 13 19 7 21 4 24 17 28 19 30
REMARK Flexibility Score: inf
ROOT
ATOM      1  N   UNL     1      24.243  37.294  10.293  1.00  0.00    -0.319 N 
ATOM      2  C   UNL     1      22.853  37.046  10.553  1.00  0.00     0.407 C 
ATOM      3  O   UNL     1      21.967  37.493   9.817  1.00  0.00    -0.225 OA
ATOM      4  H   UNL     1      24.889  36.819  11.008  1.00  0.00     0.167 HD
ENDROOT
BRANCH   1   5
ATOM      5  C   UNL     1      24.739  38.017   9.223  1.00  0.00     0.154 C 
BRANCH   5   6
ATOM      6  C   UNL     1      24.779  37.331   7.835  1.00  0.00     0.165 C 
BRANCH   6   7
ATOM      7  C   UNL     1      26.191  36.913   7.682  1.00  0.00     0.176 C 
BRANCH   7   8
ATOM      8  C   UNL     1      27.251  37.940   7.506  1.00  0.00     0.178 C 
ATOM      9  C   UNL     1      27.510  38.941   5.393  1.00  0.00     0.269 C 
ATOM     10  C   UNL     1      28.933  39.375   5.647  1.00  0.00     0.112 C 
ATOM     11  O   UNL     1      26.759  38.891   6.570  1.00  0.00    -0.332 OA
ATOM     12  C   UNL     1      29.419  38.834   7.007  1.00  0.00     0.145 C 
ATOM     13  C   UNL     1      28.610  37.524   7.172  1.00  0.00     0.142 C 
BRANCH   9  14
ATOM     14  O   UNL     1      27.484  37.768   4.656  1.00  0.00    -0.357 OA
ATOM     15  H   UNL     1      28.095  37.080   4.961  1.00  0.00     0.214 HD
ENDBRANCH   9  14
BRANCH   9  16
ATOM     16  C   UNL     1      26.888  40.035   4.619  1.00  0.00     0.364 C 
ATOM     17  O   UNL     1      27.219  40.596   3.647  1.00  0.00    -0.246 OA
BRANCH  16  18
ATOM     18  O   UNL     1      25.606  40.469   5.216  1.00  0.00    -0.477 OA
ATOM     19  H   UNL     1      25.676  40.874   6.152  1.00  0.00     0.296 HD
ENDBRANCH  16  18
ENDBRANCH   9  16
BRANCH  12  20
ATOM     20  O   UNL     1      30.769  38.597   6.993  1.00  0.00    -0.391 OA
ATOM     21  H   UNL     1      31.155  38.743   6.112  1.00  0.00     0.211 HD
ENDBRANCH  12  20
BRANCH  13  22
ATOM     22  N   UNL     1      29.277  36.751   8.231  1.00  0.00    -0.348 N 
ATOM     23  C   UNL     1      29.627  35.418   7.968  1.00  0.00     0.217 C 
ATOM     24  H   UNL     1      29.486  37.187   9.109  1.00  0.00     0.163 HD
ATOM     25  C   UNL     1      30.284  34.384   8.677  1.00  0.00     0.114 C 
ATOM     26  O   UNL     1      29.225  35.103   6.703  1.00  0.00    -0.275 OA
ENDBRANCH  13  22
ENDBRANCH   7   8
BRANCH   7  27
ATOM     27  O   UNL     1      26.484  35.832   8.462  1.00  0.00    -0.388 OA
ATOM     28  H   UNL     1      25.688  35.271   8.657  1.00  0.00     0.211 HD
ENDBRANCH   7  27
ENDBRANCH   6   7
BRANCH   6  29
ATOM     29  O   UNL     1      24.271  38.253   6.965  1.00  0.00    -0.388 OA
ATOM     30  H   UNL     1      24.767  39.105   7.057  1.00  0.00     0.211 HD
ENDBRANCH   6  29
ENDBRANCH   5   6
ENDBRANCH   1   5
BRANCH   2  31
ATOM     31  O   UNL     1      22.507  36.274  11.664  1.00  0.00    -0.443 OA
BRANCH  31  32
ATOM     32  C   UNL     1      22.928  34.897  11.772  1.00  0.00     0.294 C 
BRANCH  32  33
ATOM     33  C   UNL     1      24.151  34.993  12.651  1.00  0.00     0.121 A 
ATOM     34  C   UNL     1      25.324  34.317  12.487  1.00  0.00     0.146 A 
ATOM     35  N   UNL     1      24.286  35.832  13.677  1.00  0.00    -0.131 NA
ATOM     36  N   UNL     1      26.163  34.797  13.456  1.00  0.00    -0.201 N 
ATOM     37  N   UNL     1      25.490  35.719  14.159  1.00  0.00    -0.060 NA
BRANCH  36  38
ATOM     38  C   UNL     1      27.487  34.433  13.677  1.00  0.00     0.173 A 
ATOM     39  N   UNL     1      27.828  33.641  14.778  1.00  0.00    -0.236 NA
ATOM     40  C   UNL     1      28.576  34.864  12.949  1.00  0.00     0.097 A 
ATOM     41  C   UNL     1      29.043  33.385  15.029  1.00  0.00     0.113 A 
ATOM     42  C   UNL     1      29.840  34.590  13.225  1.00  0.00     0.025 A 
ATOM     43  C   UNL     1      30.215  33.787  14.341  1.00  0.00     0.022 A 
BRANCH  40  44
ATOM     44  C   UNL     1      28.312  35.788  11.778  1.00  0.00     0.103 C 
ATOM     45  N   UNL     1      28.141  36.418  11.008  1.00  0.00    -0.192 NA
ENDBRANCH  40  44
ENDBRANCH  36  38
ENDBRANCH  32  33
ENDBRANCH  31  32
ENDBRANCH   2  31
TORSDOF 16
BEGIN_RES LYS A 131
REMARK  4 active torsions:
REMARK  status: ('A' for Active; 'I' for Inactive)
REMARK    1  A    between atoms: CA   and  CB  
REMARK    2  A    between atoms: CB   and  CG  
REMARK    3  A    between atoms: CG   and  CD  
REMARK    4  A    between atoms: CD   and  CE  
ROOT
ATOM      1  CA  LYS A 131      29.867  25.555  16.977  1.00 20.52     0.186 C 
ENDROOT
BRANCH   1   2
ATOM      2  CB  LYS A 131      28.345  25.722  17.026  1.00 20.94     0.034 C 
BRANCH   2   3
ATOM      3  CG  LYS A 131      27.601  24.403  16.887  1.00 22.96     0.005 C 
BRANCH   3   4
ATOM      4  CD  LYS A 131      26.645  24.169  18.024  1.00 24.33     0.041 C 
BRANCH   4   5
ATOM      5  CE  LYS A 131      25.577  23.170  17.593  1.00 26.91     0.338 C 
ATOM      6  NZ  LYS A 131      24.460  23.865  16.912  1.00 27.40     0.618 N 
ENDBRANCH   4   5
ENDBRANCH   3   4
ENDBRANCH   2   3
ENDBRANCH   1   2
END_RES LYS A 131
BEGIN_RES LYS A 135
REMARK  4 active torsions:
REMARK  status: ('A' for Active; 'I' for Inactive)
REMARK    5  A    between atoms: CA   and  CB  
REMARK    6  A    between atoms: CB   and  CG  
REMARK    7  A    between atoms: CG   and  CD  
REMARK    8  A    between atoms: CD   and  CE  
ROOT
ATOM      7  CA  LYS A 135      33.193  34.663   9.290  1.00 25.02     0.186 C 
ENDROOT
BRANCH   7   8
ATOM      8  CB  LYS A 135      32.060  35.360  10.034  1.00 26.63     0.034 C 
BRANCH   8   9
ATOM      9  CG  LYS A 135      32.479  35.947  11.357  1.00 29.45     0.005 C 
BRANCH   9  10
ATOM     10  CD  LYS A 135      31.783  37.277  11.599  1.00 32.00     0.041 C 
BRANCH  10  11
ATOM     11  CE  LYS A 135      31.673  38.064  10.306  1.00 34.25     0.338 C 
ATOM     12  NZ  LYS A 135      31.738  39.529  10.563  1.00 35.99     0.618 N 
ENDBRANCH  10  11
ENDBRANCH   9  10
ENDBRANCH   8   9
ENDBRANCH   7   8
END_RES LYS A 135
