REMARK VINA RESULT:    -4.997      4.935     10.334
REMARK INTER + INTRA:         -15.197
REMARK INTER:                  -8.690
REMARK INTRA:                  -6.507
REMARK UNBOUND:                -5.671
REMARK SMILES CCOC(=O)c1cccc(-n2cc(COC(=O)NC[C@@H](O)C(O)[C@@H]3O[C@@](O)(C(=O)O)C[C@H](O)[C@H]3NC(C)=O)nn2)c1
REMARK SMILES IDX 18 1 16 2 17 3 19 5 20 6 22 7 24 8 26 9 31 10 25 11 32 12
REMARK SMILES IDX 34 13 27 14 28 16 29 17 30 18 33 20 35 22 36 23 37 25 38 26
REMARK SMILES IDX 23 27 21 29 15 31 14 32 13 33 12 34 39 35 11 36 40 37 10 38
REMARK SMILES IDX 41 39 9 40 6 41 8 42 7 43 4 44 5 45 3 46 2 47 1 48
REMARK H PARENT 18 4 27 15 30 19 33 21 35 24 23 28 21 30
REMARK Flexibility Score: inf
ROOT
ATOM      1  N   UNL     1      26.020  37.256   9.483  1.00  0.00    -0.319 N 
ATOM      2  C   UNL     1      26.531  38.502   9.935  1.00  0.00     0.407 C 
ATOM      3  O   UNL     1      26.344  39.519   9.222  1.00  0.00    -0.225 OA
ATOM      4  H   UNL     1      26.186  36.427  10.089  1.00  0.00     0.167 HD
ENDROOT
BRANCH   1   5
ATOM      5  C   UNL     1      25.299  37.142   8.232  1.00  0.00     0.154 C 
BRANCH   5   6
ATOM      6  C   UNL     1      23.824  37.015   8.419  1.00  0.00     0.165 C 
BRANCH   6   7
ATOM      7  C   UNL     1      23.386  35.650   8.841  1.00  0.00     0.176 C 
BRANCH   7   8
ATOM      8  C   UNL     1      23.307  35.561  10.387  1.00  0.00     0.178 C 
ATOM      9  C   UNL     1      24.380  34.704  12.185  1.00  0.00     0.269 C 
ATOM     10  C   UNL     1      23.233  33.797  12.569  1.00  0.00     0.112 C 
ATOM     11  O   UNL     1      24.395  34.860  10.835  1.00  0.00    -0.332 OA
ATOM     12  C   UNL     1      21.908  34.310  12.093  1.00  0.00     0.145 C 
ATOM     13  C   UNL     1      21.975  35.038  10.782  1.00  0.00     0.142 C 
BRANCH   9  14
ATOM     14  O   UNL     1      25.552  33.969  12.520  1.00  0.00    -0.357 OA
ATOM     15  H   UNL     1      26.339  34.300  12.052  1.00  0.00     0.214 HD
ENDBRANCH   9  14
BRANCH   9  16
ATOM     16  C   UNL     1      24.376  35.930  12.995  1.00  0.00     0.364 C 
ATOM     17  O   UNL     1      23.672  36.070  14.051  1.00  0.00    -0.246 OA
BRANCH  16  18
ATOM     18  O   UNL     1      25.192  37.002  12.582  1.00  0.00    -0.477 OA
ATOM     19  H   UNL     1      26.198  36.926  12.776  1.00  0.00     0.296 HD
ENDBRANCH  16  18
ENDBRANCH   9  16
BRANCH  12  20
ATOM     20  O   UNL     1      21.009  33.246  12.043  1.00  0.00    -0.391 OA
ATOM     21  H   UNL     1      21.460  32.368  11.970  1.00  0.00     0.211 HD
ENDBRANCH  12  20
BRANCH  13  22
ATOM     22  N   UNL     1      20.994  36.107  10.713  1.00  0.00    -0.348 N 
ATOM     23  C   UNL     1      19.691  35.897  10.189  1.00  0.00     0.217 C 
ATOM     24  H   UNL     1      21.279  37.066  11.070  1.00  0.00     0.163 HD
ATOM     25  C   UNL     1      18.742  37.040  10.150  1.00  0.00     0.114 C 
ATOM     26  O   UNL     1      19.329  34.750   9.757  1.00  0.00    -0.275 OA
ENDBRANCH  13  22
ENDBRANCH   7   8
BRANCH   7  27
ATOM     27  O   UNL     1      22.176  35.243   8.338  1.00  0.00    -0.388 OA
ATOM     28  H   UNL     1      22.174  34.375   7.895  1.00  0.00     0.211 HD
ENDBRANCH   7  27
ENDBRANCH   6   7
BRANCH   6  29
ATOM     29  O   UNL     1      23.137  37.496   7.308  1.00  0.00    -0.388 OA
ATOM     30  H   UNL     1      23.666  37.243   6.504  1.00  0.00     0.211 HD
ENDBRANCH   6  29
ENDBRANCH   5   6
ENDBRANCH   1   5
BRANCH   2  31
ATOM     31  O   UNL     1      27.226  38.664  11.121  1.00  0.00    -0.443 OA
BRANCH  31  32
ATOM     32  C   UNL     1      28.576  38.262  11.260  1.00  0.00     0.294 C 
BRANCH  32  33
ATOM     33  C   UNL     1      28.659  36.933  11.895  1.00  0.00     0.121 A 
ATOM     34  C   UNL     1      29.580  36.470  12.820  1.00  0.00     0.144 A 
ATOM     35  N   UNL     1      27.831  35.886  11.689  1.00  0.00    -0.131 NA
ATOM     36  N   UNL     1      29.288  35.192  13.137  1.00  0.00    -0.220 N 
ATOM     37  N   UNL     1      28.207  34.872  12.420  1.00  0.00    -0.062 NA
BRANCH  36  38
ATOM     38  C   UNL     1      29.951  34.323  14.030  1.00  0.00     0.067 A 
ATOM     39  C   UNL     1      29.282  33.299  14.673  1.00  0.00     0.044 A 
ATOM     40  C   UNL     1      31.296  34.463  14.296  1.00  0.00     0.028 A 
ATOM     41  C   UNL     1      29.893  32.427  15.554  1.00  0.00     0.062 A 
ATOM     42  C   UNL     1      31.940  33.600  15.178  1.00  0.00     0.003 A 
ATOM     43  C   UNL     1      31.237  32.597  15.795  1.00  0.00     0.016 A 
BRANCH  41  44
ATOM     44  C   UNL     1      29.161  31.355  16.217  1.00  0.00     0.338 C 
ATOM     45  O   UNL     1      28.991  30.264  15.619  1.00  0.00    -0.246 OA
BRANCH  44  46
ATOM     46  O   UNL     1      28.641  31.485  17.494  1.00  0.00    -0.462 OA
BRANCH  46  47
ATOM     47  C   UNL     1      29.027  30.647  18.565  1.00  0.00     0.230 C 
ATOM     48  C   UNL     1      30.386  31.070  19.041  1.00  0.00     0.049 C 
ENDBRANCH  46  47
ENDBRANCH  44  46
ENDBRANCH  41  44
ENDBRANCH  36  38
ENDBRANCH  32  33
ENDBRANCH  31  32
ENDBRANCH   2  31
TORSDOF 18
BEGIN_RES LYS A 131
REMARK  4 active torsions:
REMARK  status: ('A' for Active; 'I' for Inactive)
REMARK    1  A    between atoms: CA   and  CB  
REMARK    2  A    between atoms: CB   and  CG  
REMARK    3  A    between atoms: CG   and  CD  
REMARK    4  A    between atoms: CD   and  CE  
ROOT
ATOM      1  CA  LYS A 131      29.867  25.555  16.977  1.00 20.52     0.186 C 
ENDROOT
BRANCH   1   2
ATOM      2  CB  LYS A 131      28.345  25.722  17.026  1.00 20.94     0.034 C 
BRANCH   2   3
ATOM      3  CG  LYS A 131      27.602  24.399  16.920  1.00 22.96     0.005 C 
BRANCH   3   4
ATOM      4  CD  LYS A 131      26.150  24.534  17.288  1.00 24.33     0.041 C 
BRANCH   4   5
ATOM      5  CE  LYS A 131      26.005  25.540  18.425  1.00 26.91     0.338 C 
ATOM      6  NZ  LYS A 131      24.998  26.571  18.081  1.00 27.40     0.618 N 
ENDBRANCH   4   5
ENDBRANCH   3   4
ENDBRANCH   2   3
ENDBRANCH   1   2
END_RES LYS A 131
BEGIN_RES LYS A 135
REMARK  4 active torsions:
REMARK  status: ('A' for Active; 'I' for Inactive)
REMARK    5  A    between atoms: CA   and  CB  
REMARK    6  A    between atoms: CB   and  CG  
REMARK    7  A    between atoms: CG   and  CD  
REMARK    8  A    between atoms: CD   and  CE  
ROOT
ATOM      7  CA  LYS A 135      33.193  34.663   9.290  1.00 25.02     0.186 C 
ENDROOT
BRANCH   7   8
ATOM      8  CB  LYS A 135      32.060  35.360  10.034  1.00 26.63     0.034 C 
BRANCH   8   9
ATOM      9  CG  LYS A 135      30.713  34.719   9.819  1.00 29.45     0.005 C 
BRANCH   9  10
ATOM     10  CD  LYS A 135      30.411  34.590   8.334  1.00 32.00     0.041 C 
BRANCH  10  11
ATOM     11  CE  LYS A 135      28.985  35.015   8.042  1.00 34.25     0.338 C 
ATOM     12  NZ  LYS A 135      28.858  35.552   6.658  1.00 35.99     0.618 N 
ENDBRANCH  10  11
ENDBRANCH   9  10
ENDBRANCH   8   9
ENDBRANCH   7   8
END_RES LYS A 135
