REMARK VINA RESULT:    -5.234      4.051      8.452
REMARK INTER + INTRA:         -14.114
REMARK INTER:                  -8.410
REMARK INTRA:                  -5.704
REMARK UNBOUND:                -4.749
REMARK SMILES CC(=O)N[C@@H]1[C@@H](O)C[C@](O)(C(=O)O)O[C@H]1C(O)[C@H](O)CNC(=O)OCc1cn(-c2ccc([N+](=O)[O-])cc2)nn1
REMARK SMILES IDX 21 1 22 2 23 3 20 5 18 6 16 7 15 8 9 9 8 10 14 11 6 12 5 13
REMARK SMILES IDX 10 14 11 16 12 17 13 18 7 20 4 22 2 23 1 25 3 26 17 27 19 29
REMARK SMILES IDX 24 31 25 32 26 33 27 34 39 35 28 36 38 37 29 38 30 39 37 40
REMARK SMILES IDX 31 41 36 42 32 43 33 44 34 45 35 46
REMARK H PARENT 21 4 10 15 13 19 7 21 4 24 17 28 19 30
REMARK Flexibility Score: inf
ROOT
ATOM      1  N   UNL     1      31.011  34.135  17.117  1.00  0.00    -0.319 N 
ATOM      2  C   UNL     1      31.947  34.001  16.075  1.00  0.00     0.407 C 
ATOM      3  O   UNL     1      32.090  32.955  15.416  1.00  0.00    -0.225 OA
ATOM      4  H   UNL     1      30.967  35.102  17.591  1.00  0.00     0.167 HD
ENDROOT
BRANCH   1   5
ATOM      5  C   UNL     1      30.153  33.112  17.571  1.00  0.00     0.154 C 
BRANCH   5   6
ATOM      6  C   UNL     1      29.013  32.668  16.744  1.00  0.00     0.165 C 
BRANCH   6   7
ATOM      7  C   UNL     1      29.074  31.504  15.868  1.00  0.00     0.176 C 
BRANCH   7   8
ATOM      8  C   UNL     1      27.777  30.687  15.887  1.00  0.00     0.178 C 
ATOM      9  C   UNL     1      25.490  31.051  15.670  1.00  0.00     0.269 C 
ATOM     10  C   UNL     1      25.435  29.561  15.919  1.00  0.00     0.112 C 
ATOM     11  O   UNL     1      26.753  31.521  15.391  1.00  0.00    -0.332 OA
ATOM     12  C   UNL     1      26.328  29.125  17.038  1.00  0.00     0.145 C 
ATOM     13  C   UNL     1      27.361  30.249  17.244  1.00  0.00     0.142 C 
BRANCH   9  14
ATOM     14  O   UNL     1      24.904  31.673  16.760  1.00  0.00    -0.357 OA
ATOM     15  H   UNL     1      24.553  32.543  16.481  1.00  0.00     0.214 HD
ENDBRANCH   9  14
BRANCH   9  16
ATOM     16  C   UNL     1      24.647  31.312  14.474  1.00  0.00     0.364 C 
ATOM     17  O   UNL     1      24.137  32.446  14.281  1.00  0.00    -0.246 OA
BRANCH  16  18
ATOM     18  O   UNL     1      24.402  30.318  13.542  1.00  0.00    -0.477 OA
ATOM     19  H   UNL     1      24.288  30.522  12.546  1.00  0.00     0.296 HD
ENDBRANCH  16  18
ENDBRANCH   9  16
BRANCH  12  20
ATOM     20  O   UNL     1      25.672  28.829  18.211  1.00  0.00    -0.391 OA
ATOM     21  H   UNL     1      25.703  29.630  18.793  1.00  0.00     0.211 HD
ENDBRANCH  12  20
BRANCH  13  22
ATOM     22  N   UNL     1      28.408  29.656  18.049  1.00  0.00    -0.348 N 
ATOM     23  C   UNL     1      28.519  29.968  19.445  1.00  0.00     0.217 C 
ATOM     24  H   UNL     1      29.110  28.995  17.666  1.00  0.00     0.163 HD
ATOM     25  C   UNL     1      29.562  29.400  20.326  1.00  0.00     0.114 C 
ATOM     26  O   UNL     1      27.683  30.762  19.923  1.00  0.00    -0.275 OA
ENDBRANCH  13  22
ENDBRANCH   7   8
BRANCH   7  27
ATOM     27  O   UNL     1      30.162  30.715  16.136  1.00  0.00    -0.388 OA
ATOM     28  H   UNL     1      30.525  30.199  15.382  1.00  0.00     0.211 HD
ENDBRANCH   7  27
ENDBRANCH   6   7
BRANCH   6  29
ATOM     29  O   UNL     1      28.561  33.842  16.075  1.00  0.00    -0.388 OA
ATOM     30  H   UNL     1      28.165  33.596  15.199  1.00  0.00     0.211 HD
ENDBRANCH   6  29
ENDBRANCH   5   6
ENDBRANCH   1   5
BRANCH   2  31
ATOM     31  O   UNL     1      32.753  35.123  15.781  1.00  0.00    -0.443 OA
BRANCH  31  32
ATOM     32  C   UNL     1      32.613  35.668  14.484  1.00  0.00     0.294 C 
BRANCH  32  33
ATOM     33  C   UNL     1      31.161  35.920  14.187  1.00  0.00     0.121 A 
ATOM     34  C   UNL     1      30.518  35.785  12.976  1.00  0.00     0.144 A 
ATOM     35  N   UNL     1      30.195  36.330  15.044  1.00  0.00    -0.131 NA
ATOM     36  N   UNL     1      29.208  36.105  13.111  1.00  0.00    -0.220 N 
ATOM     37  N   UNL     1      29.069  36.427  14.380  1.00  0.00    -0.062 NA
BRANCH  36  38
ATOM     38  C   UNL     1      28.213  36.093  12.091  1.00  0.00     0.067 A 
ATOM     39  C   UNL     1      28.055  37.139  11.207  1.00  0.00     0.035 A 
ATOM     40  C   UNL     1      27.356  35.017  11.943  1.00  0.00     0.035 A 
ATOM     41  C   UNL     1      27.085  37.105  10.225  1.00  0.00     0.088 A 
ATOM     42  C   UNL     1      26.385  34.983  10.961  1.00  0.00     0.088 A 
ATOM     43  C   UNL     1      26.225  36.027  10.076  1.00  0.00     0.269 A 
BRANCH  43  44
ATOM     44  N   UNL     1      25.229  35.984   9.073  1.00  0.00     0.062 N 
ATOM     45  O   UNL     1      25.471  36.507   7.971  1.00  0.00    -0.258 OA
ATOM     46  O   UNL     1      24.007  35.397   9.241  1.00  0.00    -0.258 OA
ENDBRANCH  43  44
ENDBRANCH  36  38
ENDBRANCH  32  33
ENDBRANCH  31  32
ENDBRANCH   2  31
TORSDOF 16
BEGIN_RES LYS A 131
REMARK  4 active torsions:
REMARK  status: ('A' for Active; 'I' for Inactive)
REMARK    1  A    between atoms: CA   and  CB  
REMARK    2  A    between atoms: CB   and  CG  
REMARK    3  A    between atoms: CG   and  CD  
REMARK    4  A    between atoms: CD   and  CE  
ROOT
ATOM      1  CA  LYS A 131      29.867  25.555  16.977  1.00 20.52     0.186 C 
ENDROOT
BRANCH   1   2
ATOM      2  CB  LYS A 131      28.345  25.722  17.026  1.00 20.94     0.034 C 
BRANCH   2   3
ATOM      3  CG  LYS A 131      27.599  24.420  16.775  1.00 22.96     0.005 C 
BRANCH   3   4
ATOM      4  CD  LYS A 131      26.171  24.487  17.241  1.00 24.33     0.041 C 
BRANCH   4   5
ATOM      5  CE  LYS A 131      26.127  24.382  18.762  1.00 26.91     0.338 C 
ATOM      6  NZ  LYS A 131      25.463  25.573  19.345  1.00 27.40     0.618 N 
ENDBRANCH   4   5
ENDBRANCH   3   4
ENDBRANCH   2   3
ENDBRANCH   1   2
END_RES LYS A 131
BEGIN_RES LYS A 135
REMARK  4 active torsions:
REMARK  status: ('A' for Active; 'I' for Inactive)
REMARK    5  A    between atoms: CA   and  CB  
REMARK    6  A    between atoms: CB   and  CG  
REMARK    7  A    between atoms: CG   and  CD  
REMARK    8  A    between atoms: CD   and  CE  
ROOT
ATOM      7  CA  LYS A 135      33.193  34.663   9.290  1.00 25.02     0.186 C 
ENDROOT
BRANCH   7   8
ATOM      8  CB  LYS A 135      32.060  35.360  10.034  1.00 26.63     0.034 C 
BRANCH   8   9
ATOM      9  CG  LYS A 135      30.822  35.558   9.198  1.00 29.45     0.005 C 
BRANCH   9  10
ATOM     10  CD  LYS A 135      30.119  34.231   8.957  1.00 32.00     0.041 C 
BRANCH  10  11
ATOM     11  CE  LYS A 135      28.793  34.451   8.255  1.00 34.25     0.338 C 
ATOM     12  NZ  LYS A 135      28.944  35.377   7.099  1.00 35.99     0.618 N 
ENDBRANCH  10  11
ENDBRANCH   9  10
ENDBRANCH   8   9
ENDBRANCH   7   8
END_RES LYS A 135
