REMARK VINA RESULT:    -4.698      6.302     10.758
REMARK INTER + INTRA:         -14.701
REMARK INTER:                  -7.657
REMARK INTRA:                  -7.044
REMARK UNBOUND:                -6.295
REMARK SMILES CC(=O)N[C@@H]1[C@@H](O)C[C@](O)(C(=O)O)O[C@H]1C(O)[C@H](O)CNC(=O)OCc1cn(Cc2cccc(Br)c2)nn1
REMARK SMILES IDX 21 1 22 2 23 3 20 5 18 6 16 7 15 8 9 9 8 10 14 11 6 12 5 13
REMARK SMILES IDX 10 14 11 16 12 17 13 18 7 20 4 22 2 23 1 25 3 26 17 27 19 29
REMARK SMILES IDX 24 31 25 32 26 33 27 34 38 35 28 36 37 37 29 38 30 39 31 40
REMARK SMILES IDX 36 41 32 42 34 43 33 44 35 45
REMARK H PARENT 21 4 10 15 13 19 7 21 4 24 17 28 19 30
REMARK Flexibility Score: inf
ROOT
ATOM      1  N   UNL     1      21.391  35.846   8.628  1.00  0.00    -0.319 N 
ATOM      2  C   UNL     1      22.517  36.658   8.356  1.00  0.00     0.407 C 
ATOM      3  O   UNL     1      22.659  37.212   7.218  1.00  0.00    -0.225 OA
ATOM      4  H   UNL     1      21.315  35.412   9.573  1.00  0.00     0.167 HD
ENDROOT
BRANCH   1   5
ATOM      5  C   UNL     1      20.428  35.680   7.573  1.00  0.00     0.154 C 
BRANCH   5   6
ATOM      6  C   UNL     1      19.087  36.333   7.936  1.00  0.00     0.165 C 
BRANCH   6   7
ATOM      7  C   UNL     1      18.144  35.208   8.177  1.00  0.00     0.176 C 
BRANCH   7   8
ATOM      8  C   UNL     1      17.940  34.809   9.610  1.00  0.00     0.178 C 
ATOM      9  C   UNL     1      18.223  35.821  11.696  1.00  0.00     0.269 C 
ATOM     10  C   UNL     1      18.512  34.439  12.251  1.00  0.00     0.112 C 
ATOM     11  O   UNL     1      18.508  35.850  10.353  1.00  0.00    -0.332 OA
ATOM     12  C   UNL     1      19.294  33.605  11.249  1.00  0.00     0.145 C 
ATOM     13  C   UNL     1      18.413  33.461   9.994  1.00  0.00     0.142 C 
BRANCH   9  14
ATOM     14  O   UNL     1      19.177  36.669  12.299  1.00  0.00    -0.357 OA
ATOM     15  H   UNL     1      18.812  37.137  13.075  1.00  0.00     0.214 HD
ENDBRANCH   9  14
BRANCH   9  16
ATOM     16  C   UNL     1      16.896  36.314  12.070  1.00  0.00     0.364 C 
ATOM     17  O   UNL     1      16.654  37.543  12.065  1.00  0.00    -0.246 OA
BRANCH  16  18
ATOM     18  O   UNL     1      15.855  35.474  12.442  1.00  0.00    -0.477 OA
ATOM     19  H   UNL     1      14.911  35.756  12.267  1.00  0.00     0.296 HD
ENDBRANCH  16  18
ENDBRANCH   9  16
BRANCH  12  20
ATOM     20  O   UNL     1      20.513  34.164  10.966  1.00  0.00    -0.391 OA
ATOM     21  H   UNL     1      20.714  34.868  11.661  1.00  0.00     0.211 HD
ENDBRANCH  12  20
BRANCH  13  22
ATOM     22  N   UNL     1      17.306  32.605  10.439  1.00  0.00    -0.348 N 
ATOM     23  C   UNL     1      16.717  31.644   9.575  1.00  0.00     0.217 C 
ATOM     24  H   UNL     1      16.904  32.663  11.400  1.00  0.00     0.163 HD
ATOM     25  C   UNL     1      15.579  30.778  10.053  1.00  0.00     0.114 C 
ATOM     26  O   UNL     1      17.110  31.484   8.408  1.00  0.00    -0.275 OA
ENDBRANCH  13  22
ENDBRANCH   7   8
BRANCH   7  27
ATOM     27  O   UNL     1      18.737  34.071   7.567  1.00  0.00    -0.388 OA
ATOM     28  H   UNL     1      19.247  34.442   6.793  1.00  0.00     0.211 HD
ENDBRANCH   7  27
ENDBRANCH   6   7
BRANCH   6  29
ATOM     29  O   UNL     1      18.756  37.140   6.850  1.00  0.00    -0.388 OA
ATOM     30  H   UNL     1      17.900  37.581   7.041  1.00  0.00     0.211 HD
ENDBRANCH   6  29
ENDBRANCH   5   6
ENDBRANCH   1   5
BRANCH   2  31
ATOM     31  O   UNL     1      23.519  36.901   9.284  1.00  0.00    -0.443 OA
BRANCH  31  32
ATOM     32  C   UNL     1      24.343  35.887   9.832  1.00  0.00     0.294 C 
BRANCH  32  33
ATOM     33  C   UNL     1      23.770  35.345  11.092  1.00  0.00     0.120 A 
ATOM     34  C   UNL     1      24.246  34.240  11.808  1.00  0.00     0.138 A 
ATOM     35  N   UNL     1      22.710  35.780  11.797  1.00  0.00    -0.132 NA
ATOM     36  N   UNL     1      23.469  34.066  12.882  1.00  0.00    -0.248 N 
ATOM     37  N   UNL     1      22.548  35.010  12.854  1.00  0.00    -0.067 NA
BRANCH  36  38
ATOM     38  C   UNL     1      23.569  33.056  13.913  1.00  0.00     0.181 C 
BRANCH  38  39
ATOM     39  C   UNL     1      23.173  31.730  13.370  1.00  0.00    -0.025 A 
ATOM     40  C   UNL     1      24.099  30.724  13.202  1.00  0.00     0.006 A 
ATOM     41  C   UNL     1      21.871  31.490  13.029  1.00  0.00     0.021 A 
ATOM     42  C   UNL     1      23.729  29.477  12.691  1.00  0.00     0.002 A 
ATOM     43  C   UNL     1      21.490  30.249  12.519  1.00  0.00     0.018 A 
ATOM     44  C   UNL     1      22.425  29.241  12.351  1.00  0.00     0.016 A 
ATOM     45  Br  UNL     1      19.673  29.953  12.055  1.00  0.00    -0.051 Br
ENDBRANCH  38  39
ENDBRANCH  36  38
ENDBRANCH  32  33
ENDBRANCH  31  32
ENDBRANCH   2  31
TORSDOF 16
BEGIN_RES LYS A 131
REMARK  4 active torsions:
REMARK  status: ('A' for Active; 'I' for Inactive)
REMARK    1  A    between atoms: CA   and  CB  
REMARK    2  A    between atoms: CB   and  CG  
REMARK    3  A    between atoms: CG   and  CD  
REMARK    4  A    between atoms: CD   and  CE  
ROOT
ATOM      1  CA  LYS A 131      29.867  25.555  16.977  1.00 20.52     0.186 C 
ENDROOT
BRANCH   1   2
ATOM      2  CB  LYS A 131      28.345  25.722  17.026  1.00 20.94     0.034 C 
BRANCH   2   3
ATOM      3  CG  LYS A 131      27.603  24.395  16.976  1.00 22.96     0.005 C 
BRANCH   3   4
ATOM      4  CD  LYS A 131      26.629  24.247  18.112  1.00 24.33     0.041 C 
BRANCH   4   5
ATOM      5  CE  LYS A 131      25.256  23.876  17.560  1.00 26.91     0.338 C 
ATOM      6  NZ  LYS A 131      25.106  22.403  17.492  1.00 27.40     0.618 N 
ENDBRANCH   4   5
ENDBRANCH   3   4
ENDBRANCH   2   3
ENDBRANCH   1   2
END_RES LYS A 131
BEGIN_RES LYS A 135
REMARK  4 active torsions:
REMARK  status: ('A' for Active; 'I' for Inactive)
REMARK    5  A    between atoms: CA   and  CB  
REMARK    6  A    between atoms: CB   and  CG  
REMARK    7  A    between atoms: CG   and  CD  
REMARK    8  A    between atoms: CD   and  CE  
ROOT
ATOM      7  CA  LYS A 135      33.193  34.663   9.290  1.00 25.02     0.186 C 
ENDROOT
BRANCH   7   8
ATOM      8  CB  LYS A 135      32.060  35.360  10.034  1.00 26.63     0.034 C 
BRANCH   8   9
ATOM      9  CG  LYS A 135      30.708  34.742   9.788  1.00 29.45     0.005 C 
BRANCH   9  10
ATOM     10  CD  LYS A 135      30.488  34.506   8.302  1.00 32.00     0.041 C 
BRANCH  10  11
ATOM     11  CE  LYS A 135      29.072  34.880   7.907  1.00 34.25     0.338 C 
ATOM     12  NZ  LYS A 135      28.077  34.265   8.830  1.00 35.99     0.618 N 
ENDBRANCH  10  11
ENDBRANCH   9  10
ENDBRANCH   8   9
ENDBRANCH   7   8
END_RES LYS A 135
