REMARK VINA RESULT:    -4.231      2.849      7.445
REMARK INTER + INTRA:         -14.746
REMARK INTER:                  -8.489
REMARK INTRA:                  -6.257
REMARK UNBOUND:                -5.938
REMARK SMILES CCOC(CCn1cc(COC(=O)NC[C@@H](O)C(O)[C@@H]2O[C@@](O)(C(=O)O)C[C@H](O)[C@H]2NC(C)=O)nn1)OCC
REMARK SMILES IDX 11 1 12 2 14 3 13 5 15 6 16 7 18 8 20 9 22 10 27 11 21 12
REMARK SMILES IDX 28 13 30 14 23 15 24 17 25 18 26 19 29 21 31 23 32 24 33 26
REMARK SMILES IDX 34 27 19 28 17 30 10 32 9 33 8 34 35 35 7 36 36 37 6 38 5 39
REMARK SMILES IDX 4 40 3 41 2 42 1 43 37 44 38 45 39 46
REMARK H PARENT 14 4 23 16 26 20 29 22 31 25 19 29 17 31
REMARK Flexibility Score: inf
ROOT
ATOM      1  O   UNL     1      27.578  28.770  19.496  1.00  0.00    -0.443 OA
ENDROOT
BRANCH   1   2
ATOM      2  C   UNL     1      28.511  29.805  19.330  1.00  0.00     0.407 C 
ATOM      3  N   UNL     1      28.792  30.357  18.062  1.00  0.00    -0.319 N 
ATOM      4  H   UNL     1      28.234  29.938  17.251  1.00  0.00     0.167 HD
ATOM      5  O   UNL     1      29.086  30.221  20.338  1.00  0.00    -0.225 OA
BRANCH   3   6
ATOM      6  C   UNL     1      29.721  31.396  17.750  1.00  0.00     0.154 C 
BRANCH   6   7
ATOM      7  C   UNL     1      30.449  31.115  16.466  1.00  0.00     0.165 C 
BRANCH   7   8
ATOM      8  C   UNL     1      31.003  32.457  15.995  1.00  0.00     0.176 C 
BRANCH   8   9
ATOM      9  C   UNL     1      29.952  33.522  15.980  1.00  0.00     0.178 C 
ATOM     10  C   UNL     1      28.301  34.341  14.572  1.00  0.00     0.269 C 
ATOM     11  C   UNL     1      28.286  35.586  15.396  1.00  0.00     0.112 C 
ATOM     12  O   UNL     1      28.876  33.241  15.190  1.00  0.00    -0.332 OA
ATOM     13  C   UNL     1      29.585  35.910  16.077  1.00  0.00     0.145 C 
ATOM     14  C   UNL     1      30.593  34.865  15.650  1.00  0.00     0.142 C 
BRANCH  10  15
ATOM     15  O   UNL     1      28.868  34.588  13.319  1.00  0.00    -0.357 OA
ATOM     16  H   UNL     1      28.312  35.305  12.890  1.00  0.00     0.214 HD
ENDBRANCH  10  15
BRANCH  10  17
ATOM     17  C   UNL     1      26.875  33.973  14.337  1.00  0.00     0.364 C 
ATOM     18  O   UNL     1      26.168  34.613  13.530  1.00  0.00    -0.246 OA
BRANCH  17  19
ATOM     19  O   UNL     1      26.332  32.885  15.046  1.00  0.00    -0.477 OA
ATOM     20  H   UNL     1      26.009  33.096  15.990  1.00  0.00     0.296 HD
ENDBRANCH  17  19
ENDBRANCH  10  17
BRANCH  13  21
ATOM     21  O   UNL     1      30.025  37.206  15.838  1.00  0.00    -0.391 OA
ATOM     22  H   UNL     1      29.366  37.808  16.269  1.00  0.00     0.211 HD
ENDBRANCH  13  21
BRANCH  14  23
ATOM     23  N   UNL     1      31.826  34.957  16.404  1.00  0.00    -0.348 N 
ATOM     24  C   UNL     1      32.913  35.701  15.872  1.00  0.00     0.217 C 
ATOM     25  H   UNL     1      31.975  34.508  17.324  1.00  0.00     0.163 HD
ATOM     26  C   UNL     1      34.206  35.849  16.570  1.00  0.00     0.114 C 
ATOM     27  O   UNL     1      32.767  36.264  14.752  1.00  0.00    -0.275 OA
ENDBRANCH  14  23
ENDBRANCH   8   9
BRANCH   8  28
ATOM     28  O   UNL     1      31.592  32.277  14.753  1.00  0.00    -0.388 OA
ATOM     29  H   UNL     1      31.213  31.503  14.256  1.00  0.00     0.211 HD
ENDBRANCH   8  28
ENDBRANCH   7   8
BRANCH   7  30
ATOM     30  O   UNL     1      29.582  30.679  15.497  1.00  0.00    -0.388 OA
ATOM     31  H   UNL     1      28.674  31.069  15.580  1.00  0.00     0.211 HD
ENDBRANCH   7  30
ENDBRANCH   6   7
ENDBRANCH   3   6
ENDBRANCH   1   2
BRANCH   1  32
ATOM     32  C   UNL     1      27.355  27.830  18.449  1.00  0.00     0.294 C 
BRANCH  32  33
ATOM     33  C   UNL     1      25.950  27.910  18.013  1.00  0.00     0.120 A 
ATOM     34  C   UNL     1      25.287  29.132  17.863  1.00  0.00     0.138 A 
ATOM     35  N   UNL     1      25.053  26.989  17.688  1.00  0.00    -0.132 NA
ATOM     36  N   UNL     1      24.024  28.888  17.457  1.00  0.00    -0.252 N 
ATOM     37  N   UNL     1      23.906  27.595  17.357  1.00  0.00    -0.067 NA
BRANCH  36  38
ATOM     38  C   UNL     1      23.052  29.914  17.206  1.00  0.00     0.151 C 
BRANCH  38  39
ATOM     39  C   UNL     1      23.646  31.152  16.575  1.00  0.00     0.086 C 
BRANCH  39  40
ATOM     40  C   UNL     1      23.401  31.233  15.101  1.00  0.00     0.251 C 
BRANCH  40  41
ATOM     41  O   UNL     1      24.400  30.516  14.453  1.00  0.00    -0.353 OA
BRANCH  41  42
ATOM     42  C   UNL     1      24.129  30.439  13.081  1.00  0.00     0.160 C 
ATOM     43  C   UNL     1      23.549  29.101  12.705  1.00  0.00     0.035 C 
ENDBRANCH  41  42
ENDBRANCH  40  41
BRANCH  40  44
ATOM     44  O   UNL     1      23.400  32.521  14.631  1.00  0.00    -0.353 OA
BRANCH  44  45
ATOM     45  C   UNL     1      22.178  33.161  14.840  1.00  0.00     0.160 C 
ATOM     46  C   UNL     1      21.087  32.375  14.122  1.00  0.00     0.035 C 
ENDBRANCH  44  45
ENDBRANCH  40  44
ENDBRANCH  39  40
ENDBRANCH  38  39
ENDBRANCH  36  38
ENDBRANCH  32  33
ENDBRANCH   1  32
TORSDOF 21
BEGIN_RES LYS A 131
REMARK  4 active torsions:
REMARK  status: ('A' for Active; 'I' for Inactive)
REMARK    1  A    between atoms: CA   and  CB  
REMARK    2  A    between atoms: CB   and  CG  
REMARK    3  A    between atoms: CG   and  CD  
REMARK    4  A    between atoms: CD   and  CE  
ROOT
ATOM      1  CA  LYS A 131      29.867  25.555  16.977  1.00 20.52     0.186 C 
ENDROOT
BRANCH   1   2
ATOM      2  CB  LYS A 131      28.345  25.722  17.026  1.00 20.94     0.034 C 
BRANCH   2   3
ATOM      3  CG  LYS A 131      27.599  24.419  16.781  1.00 22.96     0.005 C 
BRANCH   3   4
ATOM      4  CD  LYS A 131      26.873  23.943  18.009  1.00 24.33     0.041 C 
BRANCH   4   5
ATOM      5  CE  LYS A 131      25.770  22.971  17.602  1.00 26.91     0.338 C 
ATOM      6  NZ  LYS A 131      24.626  23.703  17.010  1.00 27.40     0.618 N 
ENDBRANCH   4   5
ENDBRANCH   3   4
ENDBRANCH   2   3
ENDBRANCH   1   2
END_RES LYS A 131
BEGIN_RES LYS A 135
REMARK  4 active torsions:
REMARK  status: ('A' for Active; 'I' for Inactive)
REMARK    5  A    between atoms: CA   and  CB  
REMARK    6  A    between atoms: CB   and  CG  
REMARK    7  A    between atoms: CG   and  CD  
REMARK    8  A    between atoms: CD   and  CE  
ROOT
ATOM      7  CA  LYS A 135      33.193  34.663   9.290  1.00 25.02     0.186 C 
ENDROOT
BRANCH   7   8
ATOM      8  CB  LYS A 135      32.060  35.360  10.034  1.00 26.63     0.034 C 
BRANCH   8   9
ATOM      9  CG  LYS A 135      30.720  34.697   9.849  1.00 29.45     0.005 C 
BRANCH   9  10
ATOM     10  CD  LYS A 135      30.426  34.483   8.372  1.00 32.00     0.041 C 
BRANCH  10  11
ATOM     11  CE  LYS A 135      29.378  35.468   7.889  1.00 34.25     0.338 C 
ATOM     12  NZ  LYS A 135      28.019  34.860   7.916  1.00 35.99     0.618 N 
ENDBRANCH  10  11
ENDBRANCH   9  10
ENDBRANCH   8   9
ENDBRANCH   7   8
END_RES LYS A 135
