REMARK VINA RESULT:    -4.906      5.752     10.080
REMARK INTER + INTRA:         -14.340
REMARK INTER:                  -9.131
REMARK INTRA:                  -5.209
REMARK UNBOUND:                -5.276
REMARK SMILES COc1ccc(Cn2cc(COC(=O)NC[C@@H](O)C(O)[C@@H]3O[C@@](O)(C(=O)O)C[C@H](O)[C@H]3NC(C)=O)nn2)cc1
REMARK SMILES IDX 15 1 13 2 14 3 16 5 17 6 19 7 21 8 23 9 28 10 22 11 29 12
REMARK SMILES IDX 31 13 24 14 25 16 26 17 27 18 30 20 32 22 33 23 34 25 35 26
REMARK SMILES IDX 20 27 18 29 12 31 11 32 10 33 9 34 36 35 8 36 37 37 7 38
REMARK SMILES IDX 6 39 5 40 38 41 4 42 39 43 3 44 2 45 1 46
REMARK H PARENT 15 4 24 15 27 19 30 21 32 24 20 28 18 30
REMARK Flexibility Score: inf
ROOT
ATOM      1  N   UNL     1      23.951  34.158  14.496  1.00  0.00    -0.319 N 
ATOM      2  C   UNL     1      23.950  32.760  14.299  1.00  0.00     0.407 C 
ATOM      3  O   UNL     1      23.078  32.162  13.625  1.00  0.00    -0.225 OA
ATOM      4  H   UNL     1      24.724  34.551  15.082  1.00  0.00     0.167 HD
ENDROOT
BRANCH   1   5
ATOM      5  C   UNL     1      22.978  35.050  13.952  1.00  0.00     0.154 C 
BRANCH   5   6
ATOM      6  C   UNL     1      23.351  35.669  12.649  1.00  0.00     0.165 C 
BRANCH   6   7
ATOM      7  C   UNL     1      22.426  35.264  11.523  1.00  0.00     0.176 C 
BRANCH   7   8
ATOM      8  C   UNL     1      22.823  35.780  10.186  1.00  0.00     0.178 C 
ATOM      9  C   UNL     1      23.823  37.547   9.076  1.00  0.00     0.269 C 
ATOM     10  C   UNL     1      22.798  37.521   7.978  1.00  0.00     0.112 C 
ATOM     11  O   UNL     1      23.427  37.032  10.269  1.00  0.00    -0.332 OA
ATOM     12  C   UNL     1      21.972  36.252   7.980  1.00  0.00     0.145 C 
ATOM     13  C   UNL     1      21.537  36.015   9.386  1.00  0.00     0.142 C 
BRANCH   9  14
ATOM     14  O   UNL     1      24.075  38.925   9.307  1.00  0.00    -0.357 OA
ATOM     15  H   UNL     1      23.437  39.406   8.726  1.00  0.00     0.214 HD
ENDBRANCH   9  14
BRANCH   9  16
ATOM     16  C   UNL     1      25.082  36.985   8.533  1.00  0.00     0.364 C 
ATOM     17  O   UNL     1      25.904  36.343   9.252  1.00  0.00    -0.246 OA
BRANCH  16  18
ATOM     18  O   UNL     1      25.434  37.133   7.193  1.00  0.00    -0.477 OA
ATOM     19  H   UNL     1      26.385  37.305   6.926  1.00  0.00     0.296 HD
ENDBRANCH  16  18
ENDBRANCH   9  16
BRANCH  12  20
ATOM     20  O   UNL     1      20.925  36.374   7.088  1.00  0.00    -0.391 OA
ATOM     21  H   UNL     1      20.750  37.312   6.916  1.00  0.00     0.211 HD
ENDBRANCH  12  20
BRANCH  13  22
ATOM     22  N   UNL     1      20.566  34.980   9.547  1.00  0.00    -0.348 N 
ATOM     23  C   UNL     1      19.176  35.160   9.517  1.00  0.00     0.217 C 
ATOM     24  H   UNL     1      20.921  33.997   9.697  1.00  0.00     0.163 HD
ATOM     25  C   UNL     1      18.272  34.000   9.697  1.00  0.00     0.114 C 
ATOM     26  O   UNL     1      18.698  36.285   9.341  1.00  0.00    -0.275 OA
ENDBRANCH  13  22
ENDBRANCH   7   8
BRANCH   7  27
ATOM     27  O   UNL     1      22.300  33.892  11.507  1.00  0.00    -0.388 OA
ATOM     28  H   UNL     1      22.882  33.406  12.133  1.00  0.00     0.211 HD
ENDBRANCH   7  27
ENDBRANCH   6   7
BRANCH   6  29
ATOM     29  O   UNL     1      24.664  35.509  12.319  1.00  0.00    -0.388 OA
ATOM     30  H   UNL     1      25.145  36.360  12.553  1.00  0.00     0.211 HD
ENDBRANCH   6  29
ENDBRANCH   5   6
ENDBRANCH   1   5
BRANCH   2  31
ATOM     31  O   UNL     1      24.968  31.979  14.879  1.00  0.00    -0.443 OA
BRANCH  31  32
ATOM     32  C   UNL     1      25.209  32.116  16.260  1.00  0.00     0.294 C 
BRANCH  32  33
ATOM     33  C   UNL     1      26.501  31.535  16.666  1.00  0.00     0.120 A 
ATOM     34  C   UNL     1      27.725  31.648  15.999  1.00  0.00     0.138 A 
ATOM     35  N   UNL     1      26.765  30.781  17.747  1.00  0.00    -0.132 NA
ATOM     36  N   UNL     1      28.656  30.975  16.689  1.00  0.00    -0.248 N 
ATOM     37  N   UNL     1      28.050  30.460  17.742  1.00  0.00    -0.067 NA
BRANCH  36  38
ATOM     38  C   UNL     1      30.052  30.823  16.372  1.00  0.00     0.181 C 
BRANCH  38  39
ATOM     39  C   UNL     1      30.770  32.113  16.453  1.00  0.00    -0.026 A 
ATOM     40  C   UNL     1      31.397  32.634  15.345  1.00  0.00     0.009 A 
ATOM     41  C   UNL     1      30.812  32.794  17.642  1.00  0.00     0.009 A 
ATOM     42  C   UNL     1      32.071  33.849  15.430  1.00  0.00     0.047 A 
ATOM     43  C   UNL     1      31.483  34.012  17.741  1.00  0.00     0.047 A 
ATOM     44  C   UNL     1      32.107  34.531  16.636  1.00  0.00     0.118 A 
BRANCH  44  45
ATOM     45  O   UNL     1      32.788  35.748  16.702  1.00  0.00    -0.497 OA
ATOM     46  C   UNL     1      34.058  35.871  16.085  1.00  0.00     0.278 C 
ENDBRANCH  44  45
ENDBRANCH  38  39
ENDBRANCH  36  38
ENDBRANCH  32  33
ENDBRANCH  31  32
ENDBRANCH   2  31
TORSDOF 17
BEGIN_RES LYS A 131
REMARK  4 active torsions:
REMARK  status: ('A' for Active; 'I' for Inactive)
REMARK    1  A    between atoms: CA   and  CB  
REMARK    2  A    between atoms: CB   and  CG  
REMARK    3  A    between atoms: CG   and  CD  
REMARK    4  A    between atoms: CD   and  CE  
ROOT
ATOM      1  CA  LYS A 131      29.867  25.555  16.977  1.00 20.52     0.186 C 
ENDROOT
BRANCH   1   2
ATOM      2  CB  LYS A 131      28.345  25.722  17.026  1.00 20.94     0.034 C 
BRANCH   2   3
ATOM      3  CG  LYS A 131      27.599  24.437  16.702  1.00 22.96     0.005 C 
BRANCH   3   4
ATOM      4  CD  LYS A 131      26.999  23.806  17.928  1.00 24.33     0.041 C 
BRANCH   4   5
ATOM      5  CE  LYS A 131      25.591  23.314  17.610  1.00 26.91     0.338 C 
ATOM      6  NZ  LYS A 131      24.813  24.373  16.925  1.00 27.40     0.618 N 
ENDBRANCH   4   5
ENDBRANCH   3   4
ENDBRANCH   2   3
ENDBRANCH   1   2
END_RES LYS A 131
BEGIN_RES LYS A 135
REMARK  4 active torsions:
REMARK  status: ('A' for Active; 'I' for Inactive)
REMARK    5  A    between atoms: CA   and  CB  
REMARK    6  A    between atoms: CB   and  CG  
REMARK    7  A    between atoms: CG   and  CD  
REMARK    8  A    between atoms: CD   and  CE  
ROOT
ATOM      7  CA  LYS A 135      33.193  34.663   9.290  1.00 25.02     0.186 C 
ENDROOT
BRANCH   7   8
ATOM      8  CB  LYS A 135      32.060  35.360  10.034  1.00 26.63     0.034 C 
BRANCH   8   9
ATOM      9  CG  LYS A 135      30.773  34.577  10.042  1.00 29.45     0.005 C 
BRANCH   9  10
ATOM     10  CD  LYS A 135      30.355  34.216   8.625  1.00 32.00     0.041 C 
BRANCH  10  11
ATOM     11  CE  LYS A 135      28.903  34.584   8.387  1.00 34.25     0.338 C 
ATOM     12  NZ  LYS A 135      28.754  35.418   7.163  1.00 35.99     0.618 N 
ENDBRANCH  10  11
ENDBRANCH   9  10
ENDBRANCH   8   9
ENDBRANCH   7   8
END_RES LYS A 135
