REMARK VINA RESULT:    -5.347      3.400      7.089
REMARK INTER + INTRA:         -15.614
REMARK INTER:                  -9.430
REMARK INTRA:                  -6.184
REMARK UNBOUND:                -5.110
REMARK SMILES CC(=O)N[C@@H]1[C@@H](O)C[C@](O)(C(=O)O)O[C@H]1C(O)[C@H](O)CNC(=O)OCc1cn([C@@H](C)C(=O)OCc2ccccc2)nn1
REMARK SMILES IDX 24 1 22 2 21 3 23 5 20 6 18 7 16 8 15 9 9 10 8 11 14 12 6 13
REMARK SMILES IDX 5 14 10 15 11 17 12 18 13 19 7 21 4 23 2 24 1 26 3 27 17 28
REMARK SMILES IDX 19 30 25 32 26 33 27 34 42 35 28 36 41 37 29 38 30 39 31 40
REMARK SMILES IDX 32 41 33 42 34 43 35 44 36 45 40 46 37 47 39 48 38 49
REMARK H PARENT 21 4 10 16 13 20 7 22 4 25 17 29 19 31
REMARK Flexibility Score: inf
ROOT
ATOM      1  O   UNL     1      29.345  40.147  12.389  1.00  0.00    -0.443 OA
ENDROOT
BRANCH   1   2
ATOM      2  C   UNL     1      30.074  40.560  11.249  1.00  0.00     0.407 C 
ATOM      3  N   UNL     1      30.370  39.642  10.220  1.00  0.00    -0.319 N 
ATOM      4  H   UNL     1      30.021  38.645  10.381  1.00  0.00     0.167 HD
ATOM      5  O   UNL     1      30.418  41.757  11.235  1.00  0.00    -0.225 OA
BRANCH   3   6
ATOM      6  C   UNL     1      31.085  39.991   9.034  1.00  0.00     0.154 C 
BRANCH   6   7
ATOM      7  C   UNL     1      30.913  38.978   7.951  1.00  0.00     0.165 C 
BRANCH   7   8
ATOM      8  C   UNL     1      29.496  39.052   7.387  1.00  0.00     0.176 C 
BRANCH   8   9
ATOM      9  C   UNL     1      29.068  40.440   7.029  1.00  0.00     0.178 C 
ATOM     10  C   UNL     1      27.150  39.898   5.797  1.00  0.00     0.269 C 
ATOM     11  C   UNL     1      27.923  40.138   4.540  1.00  0.00     0.112 C 
ATOM     12  O   UNL     1      27.670  40.519   6.906  1.00  0.00    -0.332 OA
ATOM     13  C   UNL     1      28.788  41.368   4.721  1.00  0.00     0.145 C 
ATOM     14  C   UNL     1      29.754  41.053   5.853  1.00  0.00     0.142 C 
BRANCH  10  15
ATOM     15  O   UNL     1      26.983  38.549   6.007  1.00  0.00    -0.357 OA
ATOM     16  H   UNL     1      27.812  38.099   6.332  1.00  0.00     0.214 HD
ENDBRANCH  10  15
BRANCH  10  17
ATOM     17  C   UNL     1      25.774  40.488   5.614  1.00  0.00     0.364 C 
ATOM     18  O   UNL     1      25.462  41.067   4.543  1.00  0.00    -0.246 OA
BRANCH  17  19
ATOM     19  O   UNL     1      24.806  40.418   6.606  1.00  0.00    -0.477 OA
ATOM     20  H   UNL     1      24.509  39.517   7.011  1.00  0.00     0.296 HD
ENDBRANCH  17  19
ENDBRANCH  10  17
BRANCH  13  21
ATOM     21  O   UNL     1      29.449  41.681   3.550  1.00  0.00    -0.391 OA
ATOM     22  H   UNL     1      30.081  42.437   3.650  1.00  0.00     0.211 HD
ENDBRANCH  13  21
BRANCH  14  23
ATOM     23  N   UNL     1      30.498  42.269   6.198  1.00  0.00    -0.348 N 
ATOM     24  C   UNL     1      31.923  42.329   6.179  1.00  0.00     0.217 C 
ATOM     25  H   UNL     1      29.993  43.151   6.477  1.00  0.00     0.163 HD
ATOM     26  C   UNL     1      32.625  43.599   6.541  1.00  0.00     0.114 C 
ATOM     27  O   UNL     1      32.581  41.313   5.855  1.00  0.00    -0.275 OA
ENDBRANCH  14  23
ENDBRANCH   8   9
BRANCH   8  28
ATOM     28  O   UNL     1      28.607  38.549   8.345  1.00  0.00    -0.388 OA
ATOM     29  H   UNL     1      28.487  39.230   9.062  1.00  0.00     0.211 HD
ENDBRANCH   8  28
ENDBRANCH   7   8
BRANCH   7  30
ATOM     30  O   UNL     1      31.145  37.701   8.460  1.00  0.00    -0.388 OA
ATOM     31  H   UNL     1      31.267  37.704   9.454  1.00  0.00     0.211 HD
ENDBRANCH   7  30
ENDBRANCH   6   7
ENDBRANCH   3   6
ENDBRANCH   1   2
BRANCH   1  32
ATOM     32  C   UNL     1      28.004  40.569  12.523  1.00  0.00     0.294 C 
BRANCH  32  33
ATOM     33  C   UNL     1      27.145  40.037  11.448  1.00  0.00     0.120 A 
ATOM     34  C   UNL     1      26.339  38.923  11.457  1.00  0.00     0.139 A 
ATOM     35  N   UNL     1      26.997  40.580  10.228  1.00  0.00    -0.132 NA
ATOM     36  N   UNL     1      25.727  38.813  10.254  1.00  0.00    -0.238 N 
ATOM     37  N   UNL     1      26.141  39.821   9.536  1.00  0.00    -0.066 NA
BRANCH  36  38
ATOM     38  C   UNL     1      24.806  37.776   9.871  1.00  0.00     0.215 C 
ATOM     39  C   UNL     1      23.382  38.242  10.078  1.00  0.00     0.046 C 
BRANCH  38  40
ATOM     40  C   UNL     1      25.077  37.368   8.487  1.00  0.00     0.331 C 
ATOM     41  O   UNL     1      24.289  37.731   7.563  1.00  0.00    -0.250 OA
BRANCH  40  42
ATOM     42  O   UNL     1      26.164  36.595   8.138  1.00  0.00    -0.459 OA
BRANCH  42  43
ATOM     43  C   UNL     1      26.285  35.215   8.282  1.00  0.00     0.268 C 
BRANCH  43  44
ATOM     44  C   UNL     1      27.728  34.859   8.378  1.00  0.00    -0.011 A 
ATOM     45  C   UNL     1      28.609  35.250   7.394  1.00  0.00     0.007 A 
ATOM     46  C   UNL     1      28.187  34.144   9.451  1.00  0.00     0.007 A 
ATOM     47  C   UNL     1      29.941  34.927   7.481  1.00  0.00     0.000 A 
ATOM     48  C   UNL     1      29.508  33.808   9.564  1.00  0.00     0.000 A 
ATOM     49  C   UNL     1      30.382  34.200   8.579  1.00  0.00     0.000 A 
ENDBRANCH  43  44
ENDBRANCH  42  43
ENDBRANCH  40  42
ENDBRANCH  38  40
ENDBRANCH  36  38
ENDBRANCH  32  33
ENDBRANCH   1  32
TORSDOF 19
BEGIN_RES LYS A 131
REMARK  4 active torsions:
REMARK  status: ('A' for Active; 'I' for Inactive)
REMARK    1  A    between atoms: CA   and  CB  
REMARK    2  A    between atoms: CB   and  CG  
REMARK    3  A    between atoms: CG   and  CD  
REMARK    4  A    between atoms: CD   and  CE  
ROOT
ATOM      1  CA  LYS A 131      29.867  25.555  16.977  1.00 20.52     0.186 C 
ENDROOT
BRANCH   1   2
ATOM      2  CB  LYS A 131      28.345  25.722  17.026  1.00 20.94     0.034 C 
BRANCH   2   3
ATOM      3  CG  LYS A 131      27.601  24.400  16.908  1.00 22.96     0.005 C 
BRANCH   3   4
ATOM      4  CD  LYS A 131      26.637  24.190  18.042  1.00 24.33     0.041 C 
BRANCH   4   5
ATOM      5  CE  LYS A 131      25.587  23.162  17.633  1.00 26.91     0.338 C 
ATOM      6  NZ  LYS A 131      24.464  23.822  16.925  1.00 27.40     0.618 N 
ENDBRANCH   4   5
ENDBRANCH   3   4
ENDBRANCH   2   3
ENDBRANCH   1   2
END_RES LYS A 131
BEGIN_RES LYS A 135
REMARK  4 active torsions:
REMARK  status: ('A' for Active; 'I' for Inactive)
REMARK    5  A    between atoms: CA   and  CB  
REMARK    6  A    between atoms: CB   and  CG  
REMARK    7  A    between atoms: CG   and  CD  
REMARK    8  A    between atoms: CD   and  CE  
ROOT
ATOM      7  CA  LYS A 135      33.193  34.663   9.290  1.00 25.02     0.186 C 
ENDROOT
BRANCH   7   8
ATOM      8  CB  LYS A 135      32.060  35.360  10.034  1.00 26.63     0.034 C 
BRANCH   8   9
ATOM      9  CG  LYS A 135      32.263  35.415  11.526  1.00 29.45     0.005 C 
BRANCH   9  10
ATOM     10  CD  LYS A 135      31.074  36.077  12.206  1.00 32.00     0.041 C 
BRANCH  10  11
ATOM     11  CE  LYS A 135      31.510  37.330  12.940  1.00 34.25     0.338 C 
ATOM     12  NZ  LYS A 135      30.666  37.568  14.143  1.00 35.99     0.618 N 
ENDBRANCH  10  11
ENDBRANCH   9  10
ENDBRANCH   8   9
ENDBRANCH   7   8
END_RES LYS A 135
