REMARK VINA RESULT:    -4.210      6.653     12.534
REMARK INTER + INTRA:         -14.760
REMARK INTER:                 -10.774
REMARK INTRA:                  -3.986
REMARK UNBOUND:                -6.980
REMARK SMILES CC(=O)N[C@@H]1[C@@H](O)C[C@](O)(C(=O)O)O[C@H]1C(O)[C@H](O)CNC(=O)OCc1cn(Cc2ccc(C#N)cc2)nn1
REMARK SMILES IDX 21 1 22 2 23 3 20 5 18 6 16 7 15 8 9 9 8 10 14 11 6 12 5 13
REMARK SMILES IDX 10 14 11 16 12 17 13 18 7 20 4 22 2 23 1 25 3 26 17 27 19 29
REMARK SMILES IDX 24 31 25 32 26 33 27 34 39 35 28 36 38 37 29 38 30 39 31 40
REMARK SMILES IDX 37 41 32 42 36 43 33 44 34 45 35 46
REMARK H PARENT 21 4 10 15 13 19 7 21 4 24 17 28 19 30
REMARK Flexibility Score: inf
ROOT
ATOM      1  N   UNL     1      26.918  35.274   8.782  1.00  0.00    -0.319 N 
ATOM      2  C   UNL     1      27.545  34.492   9.796  1.00  0.00     0.407 C 
ATOM      3  O   UNL     1      28.566  33.782   9.491  1.00  0.00    -0.225 OA
ATOM      4  H   UNL     1      26.096  35.843   9.055  1.00  0.00     0.167 HD
ENDROOT
BRANCH   1   5
ATOM      5  C   UNL     1      27.432  35.248   7.462  1.00  0.00     0.154 C 
BRANCH   5   6
ATOM      6  C   UNL     1      28.493  36.272   7.135  1.00  0.00     0.165 C 
BRANCH   6   7
ATOM      7  C   UNL     1      28.286  36.938   5.789  1.00  0.00     0.176 C 
BRANCH   7   8
ATOM      8  C   UNL     1      28.586  38.398   5.814  1.00  0.00     0.178 C 
ATOM      9  C   UNL     1      30.173  39.920   6.578  1.00  0.00     0.269 C 
ATOM     10  C   UNL     1      29.286  40.905   5.851  1.00  0.00     0.112 C 
ATOM     11  O   UNL     1      29.879  38.618   6.305  1.00  0.00    -0.332 OA
ATOM     12  C   UNL     1      27.837  40.690   6.110  1.00  0.00     0.145 C 
ATOM     13  C   UNL     1      27.664  39.251   6.626  1.00  0.00     0.142 C 
BRANCH   9  14
ATOM     14  O   UNL     1      30.112  40.206   7.960  1.00  0.00    -0.357 OA
ATOM     15  H   UNL     1      29.478  40.973   8.077  1.00  0.00     0.214 HD
ENDBRANCH   9  14
BRANCH   9  16
ATOM     16  C   UNL     1      31.558  40.188   6.139  1.00  0.00     0.364 C 
ATOM     17  O   UNL     1      31.808  41.230   5.492  1.00  0.00    -0.246 OA
BRANCH  16  18
ATOM     18  O   UNL     1      32.568  39.304   6.437  1.00  0.00    -0.477 OA
ATOM     19  H   UNL     1      32.480  38.506   7.040  1.00  0.00     0.296 HD
ENDBRANCH  16  18
ENDBRANCH   9  16
BRANCH  12  20
ATOM     20  O   UNL     1      27.273  41.600   6.982  1.00  0.00    -0.391 OA
ATOM     21  H   UNL     1      26.532  41.120   7.465  1.00  0.00     0.211 HD
ENDBRANCH  12  20
BRANCH  13  22
ATOM     22  N   UNL     1      26.284  38.877   6.616  1.00  0.00    -0.348 N 
ATOM     23  C   UNL     1      25.617  38.458   7.819  1.00  0.00     0.217 C 
ATOM     24  H   UNL     1      25.694  38.899   5.736  1.00  0.00     0.163 HD
ATOM     25  C   UNL     1      24.176  38.069   7.797  1.00  0.00     0.114 C 
ATOM     26  O   UNL     1      26.232  38.408   8.911  1.00  0.00    -0.275 OA
ENDBRANCH  13  22
ENDBRANCH   7   8
BRANCH   7  27
ATOM     27  O   UNL     1      27.084  36.592   5.263  1.00  0.00    -0.388 OA
ATOM     28  H   UNL     1      26.984  36.689   4.315  1.00  0.00     0.211 HD
ENDBRANCH   7  27
ENDBRANCH   6   7
BRANCH   6  29
ATOM     29  O   UNL     1      29.696  35.522   7.097  1.00  0.00    -0.388 OA
ATOM     30  H   UNL     1      30.467  36.054   7.367  1.00  0.00     0.211 HD
ENDBRANCH   6  29
ENDBRANCH   5   6
ENDBRANCH   1   5
BRANCH   2  31
ATOM     31  O   UNL     1      27.131  34.437  11.114  1.00  0.00    -0.443 OA
BRANCH  31  32
ATOM     32  C   UNL     1      27.696  35.334  12.044  1.00  0.00     0.294 C 
BRANCH  32  33
ATOM     33  C   UNL     1      28.333  34.629  13.181  1.00  0.00     0.120 A 
ATOM     34  C   UNL     1      29.650  34.214  13.302  1.00  0.00     0.138 A 
ATOM     35  N   UNL     1      27.722  34.267  14.316  1.00  0.00    -0.132 NA
ATOM     36  N   UNL     1      29.792  33.623  14.492  1.00  0.00    -0.248 N 
ATOM     37  N   UNL     1      28.615  33.671  15.078  1.00  0.00    -0.067 NA
BRANCH  36  38
ATOM     38  C   UNL     1      30.997  33.046  15.049  1.00  0.00     0.181 C 
BRANCH  38  39
ATOM     39  C   UNL     1      31.923  34.029  15.611  1.00  0.00    -0.026 A 
ATOM     40  C   UNL     1      32.898  34.584  14.822  1.00  0.00     0.007 A 
ATOM     41  C   UNL     1      31.818  34.395  16.944  1.00  0.00     0.007 A 
ATOM     42  C   UNL     1      33.783  35.510  15.340  1.00  0.00     0.020 A 
ATOM     43  C   UNL     1      32.695  35.323  17.489  1.00  0.00     0.020 A 
ATOM     44  C   UNL     1      33.679  35.874  16.666  1.00  0.00     0.052 A 
BRANCH  44  45
ATOM     45  C   UNL     1      34.594  36.832  17.215  1.00  0.00     0.099 C 
ATOM     46  N   UNL     1      35.334  37.612  17.679  1.00  0.00    -0.192 NA
ENDBRANCH  44  45
ENDBRANCH  38  39
ENDBRANCH  36  38
ENDBRANCH  32  33
ENDBRANCH  31  32
ENDBRANCH   2  31
TORSDOF 17
BEGIN_RES LYS A 131
REMARK  4 active torsions:
REMARK  status: ('A' for Active; 'I' for Inactive)
REMARK    1  A    between atoms: CA   and  CB  
REMARK    2  A    between atoms: CB   and  CG  
REMARK    3  A    between atoms: CG   and  CD  
REMARK    4  A    between atoms: CD   and  CE  
ROOT
ATOM      1  CA  LYS A 131      29.867  25.555  16.977  1.00 20.52     0.186 C 
ENDROOT
BRANCH   1   2
ATOM      2  CB  LYS A 131      28.345  25.722  17.026  1.00 20.94     0.034 C 
BRANCH   2   3
ATOM      3  CG  LYS A 131      27.599  24.439  16.695  1.00 22.96     0.005 C 
BRANCH   3   4
ATOM      4  CD  LYS A 131      27.012  23.792  17.919  1.00 24.33     0.041 C 
BRANCH   4   5
ATOM      5  CE  LYS A 131      25.608  23.287  17.604  1.00 26.91     0.338 C 
ATOM      6  NZ  LYS A 131      24.810  24.347  16.944  1.00 27.40     0.618 N 
ENDBRANCH   4   5
ENDBRANCH   3   4
ENDBRANCH   2   3
ENDBRANCH   1   2
END_RES LYS A 131
BEGIN_RES LYS A 135
REMARK  4 active torsions:
REMARK  status: ('A' for Active; 'I' for Inactive)
REMARK    5  A    between atoms: CA   and  CB  
REMARK    6  A    between atoms: CB   and  CG  
REMARK    7  A    between atoms: CG   and  CD  
REMARK    8  A    between atoms: CD   and  CE  
ROOT
ATOM      7  CA  LYS A 135      33.193  34.663   9.290  1.00 25.02     0.186 C 
ENDROOT
BRANCH   7   8
ATOM      8  CB  LYS A 135      32.060  35.360  10.034  1.00 26.63     0.034 C 
BRANCH   8   9
ATOM      9  CG  LYS A 135      32.499  36.029  11.311  1.00 29.45     0.005 C 
BRANCH   9  10
ATOM     10  CD  LYS A 135      31.758  37.342  11.512  1.00 32.00     0.041 C 
BRANCH  10  11
ATOM     11  CE  LYS A 135      30.983  37.712  10.262  1.00 34.25     0.338 C 
ATOM     12  NZ  LYS A 135      29.551  37.974  10.576  1.00 35.99     0.618 N 
ENDBRANCH  10  11
ENDBRANCH   9  10
ENDBRANCH   8   9
ENDBRANCH   7   8
END_RES LYS A 135
