REMARK VINA RESULT:    -5.000      3.960      7.457
REMARK INTER + INTRA:         -15.913
REMARK INTER:                  -9.385
REMARK INTRA:                  -6.527
REMARK UNBOUND:                -6.527
REMARK SMILES CC(=O)N[C@@H]1[C@@H](O)C[C@](O)(C(=O)O)O[C@H]1C(O)[C@H](O)CNC(=O)OCc1cn(-c2ccc(S(=O)(=O)c3ccc(N)cc3)cc2)nn1
REMARK SMILES IDX 21 1 22 2 23 3 20 5 18 6 16 7 15 8 9 9 8 10 14 11 6 12 5 13
REMARK SMILES IDX 10 14 11 16 12 17 13 18 7 20 4 22 2 23 1 25 3 26 17 27 19 29
REMARK SMILES IDX 24 31 25 32 26 33 27 34 46 35 28 36 45 37 29 38 30 39 44 40
REMARK SMILES IDX 31 41 43 42 32 43 33 44 34 45 35 46 36 47 37 48 42 49 38 50
REMARK SMILES IDX 41 51 39 52 40 53
REMARK H PARENT 21 4 10 15 13 19 7 21 4 24 17 28 19 30 40 54 40 55
REMARK Flexibility Score: inf
ROOT
ATOM      1  N   UNL     1      29.625  36.388  20.442  1.00  0.00    -0.319 N 
ATOM      2  C   UNL     1      30.464  35.538  21.201  1.00  0.00     0.407 C 
ATOM      3  O   UNL     1      30.517  34.330  20.944  1.00  0.00    -0.225 OA
ATOM      4  H   UNL     1      29.645  37.415  20.732  1.00  0.00     0.167 HD
ENDROOT
BRANCH   1   5
ATOM      5  C   UNL     1      28.780  35.967  19.348  1.00  0.00     0.154 C 
BRANCH   5   6
ATOM      6  C   UNL     1      29.520  36.125  18.064  1.00  0.00     0.165 C 
BRANCH   6   7
ATOM      7  C   UNL     1      28.809  35.486  16.890  1.00  0.00     0.176 C 
BRANCH   7   8
ATOM      8  C   UNL     1      29.188  34.067  16.631  1.00  0.00     0.178 C 
ATOM      9  C   UNL     1      29.851  32.209  17.845  1.00  0.00     0.269 C 
ATOM     10  C   UNL     1      30.252  31.542  16.567  1.00  0.00     0.112 C 
ATOM     11  O   UNL     1      28.915  33.213  17.674  1.00  0.00    -0.332 OA
ATOM     12  C   UNL     1      30.573  32.474  15.454  1.00  0.00     0.145 C 
ATOM     13  C   UNL     1      30.559  33.902  16.024  1.00  0.00     0.142 C 
BRANCH   9  14
ATOM     14  O   UNL     1      30.980  32.669  18.562  1.00  0.00    -0.357 OA
ATOM     15  H   UNL     1      31.771  32.232  18.203  1.00  0.00     0.214 HD
ENDBRANCH   9  14
BRANCH   9  16
ATOM     16  C   UNL     1      29.223  31.172  18.715  1.00  0.00     0.364 C 
ATOM     17  O   UNL     1      29.145  31.393  19.963  1.00  0.00    -0.246 OA
BRANCH  16  18
ATOM     18  O   UNL     1      28.718  29.983  18.252  1.00  0.00    -0.477 OA
ATOM     19  H   UNL     1      28.233  29.347  18.881  1.00  0.00     0.296 HD
ENDBRANCH  16  18
ENDBRANCH   9  16
BRANCH  12  20
ATOM     20  O   UNL     1      31.783  32.207  14.832  1.00  0.00    -0.391 OA
ATOM     21  H   UNL     1      31.646  32.203  13.832  1.00  0.00     0.211 HD
ENDBRANCH  12  20
BRANCH  13  22
ATOM     22  N   UNL     1      30.664  34.837  14.910  1.00  0.00    -0.348 N 
ATOM     23  C   UNL     1      31.755  35.737  14.838  1.00  0.00     0.217 C 
ATOM     24  H   UNL     1      29.956  34.875  14.146  1.00  0.00     0.163 HD
ATOM     25  C   UNL     1      31.891  36.717  13.703  1.00  0.00     0.114 C 
ATOM     26  O   UNL     1      32.659  35.774  15.700  1.00  0.00    -0.275 OA
ENDBRANCH  13  22
ENDBRANCH   7   8
BRANCH   7  27
ATOM     27  O   UNL     1      27.441  35.627  17.155  1.00  0.00    -0.388 OA
ATOM     28  H   UNL     1      27.000  35.895  16.321  1.00  0.00     0.211 HD
ENDBRANCH   7  27
ENDBRANCH   6   7
BRANCH   6  29
ATOM     29  O   UNL     1      30.839  35.713  18.192  1.00  0.00    -0.388 OA
ATOM     30  H   UNL     1      31.422  36.383  17.752  1.00  0.00     0.211 HD
ENDBRANCH   6  29
ENDBRANCH   5   6
ENDBRANCH   1   5
BRANCH   2  31
ATOM     31  O   UNL     1      31.255  35.999  22.248  1.00  0.00    -0.443 OA
BRANCH  31  32
ATOM     32  C   UNL     1      32.065  37.158  22.126  1.00  0.00     0.294 C 
BRANCH  32  33
ATOM     33  C   UNL     1      32.740  37.224  20.798  1.00  0.00     0.121 A 
ATOM     34  C   UNL     1      33.926  36.607  20.508  1.00  0.00     0.144 A 
ATOM     35  N   UNL     1      32.342  37.863  19.689  1.00  0.00    -0.131 NA
ATOM     36  N   UNL     1      34.229  36.885  19.219  1.00  0.00    -0.220 N 
ATOM     37  N   UNL     1      33.260  37.634  18.772  1.00  0.00    -0.062 NA
BRANCH  36  38
ATOM     38  C   UNL     1      35.398  36.407  18.572  1.00  0.00     0.066 A 
ATOM     39  C   UNL     1      35.695  36.809  17.289  1.00  0.00     0.030 A 
ATOM     40  C   UNL     1      36.274  35.535  19.181  1.00  0.00     0.030 A 
ATOM     41  C   UNL     1      36.825  36.367  16.621  1.00  0.00     0.023 A 
ATOM     42  C   UNL     1      37.418  35.082  18.516  1.00  0.00     0.023 A 
ATOM     43  C   UNL     1      37.692  35.499  17.236  1.00  0.00     0.072 A 
BRANCH  43  44
ATOM     44  S   UNL     1      39.102  34.947  16.402  1.00  0.00     0.206 S 
ATOM     45  O   UNL     1      39.703  33.792  17.128  1.00  0.00    -0.219 OA
ATOM     46  O   UNL     1      40.153  36.012  16.280  1.00  0.00    -0.219 OA
BRANCH  44  47
ATOM     47  C   UNL     1      38.617  34.497  14.771  1.00  0.00     0.072 A 
ATOM     48  C   UNL     1      37.479  33.754  14.603  1.00  0.00     0.023 A 
ATOM     49  C   UNL     1      39.360  34.880  13.660  1.00  0.00     0.023 A 
ATOM     50  C   UNL     1      37.058  33.376  13.334  1.00  0.00     0.027 A 
ATOM     51  C   UNL     1      38.969  34.520  12.380  1.00  0.00     0.027 A 
ATOM     52  C   UNL     1      37.822  33.773  12.253  1.00  0.00     0.031 A 
BRANCH  52  53
ATOM     53  N   UNL     1      37.405  33.396  10.957  1.00  0.00    -0.399 N 
ATOM     54  H   UNL     1      38.071  32.959  10.299  1.00  0.00     0.156 HD
ATOM     55  H   UNL     1      36.424  33.562  10.670  1.00  0.00     0.156 HD
ENDBRANCH  52  53
ENDBRANCH  44  47
ENDBRANCH  43  44
ENDBRANCH  36  38
ENDBRANCH  32  33
ENDBRANCH  31  32
ENDBRANCH   2  31
TORSDOF 18
BEGIN_RES LYS A 131
REMARK  4 active torsions:
REMARK  status: ('A' for Active; 'I' for Inactive)
REMARK    1  A    between atoms: CA   and  CB  
REMARK    2  A    between atoms: CB   and  CG  
REMARK    3  A    between atoms: CG   and  CD  
REMARK    4  A    between atoms: CD   and  CE  
ROOT
ATOM      1  CA  LYS A 131      29.867  25.555  16.977  1.00 20.52     0.186 C 
ENDROOT
BRANCH   1   2
ATOM      2  CB  LYS A 131      28.345  25.722  17.026  1.00 20.94     0.034 C 
BRANCH   2   3
ATOM      3  CG  LYS A 131      27.604  24.394  16.993  1.00 22.96     0.005 C 
BRANCH   3   4
ATOM      4  CD  LYS A 131      26.347  24.427  17.818  1.00 24.33     0.041 C 
BRANCH   4   5
ATOM      5  CE  LYS A 131      25.477  23.224  17.468  1.00 26.91     0.338 C 
ATOM      6  NZ  LYS A 131      24.106  23.661  17.112  1.00 27.40     0.618 N 
ENDBRANCH   4   5
ENDBRANCH   3   4
ENDBRANCH   2   3
ENDBRANCH   1   2
END_RES LYS A 131
BEGIN_RES LYS A 135
REMARK  4 active torsions:
REMARK  status: ('A' for Active; 'I' for Inactive)
REMARK    5  A    between atoms: CA   and  CB  
REMARK    6  A    between atoms: CB   and  CG  
REMARK    7  A    between atoms: CG   and  CD  
REMARK    8  A    between atoms: CD   and  CE  
ROOT
ATOM      7  CA  LYS A 135      33.193  34.663   9.290  1.00 25.02     0.186 C 
ENDROOT
BRANCH   7   8
ATOM      8  CB  LYS A 135      32.060  35.360  10.034  1.00 26.63     0.034 C 
BRANCH   8   9
ATOM      9  CG  LYS A 135      30.792  35.478   9.228  1.00 29.45     0.005 C 
BRANCH   9  10
ATOM     10  CD  LYS A 135      30.223  34.102   8.919  1.00 32.00     0.041 C 
BRANCH  10  11
ATOM     11  CE  LYS A 135      28.717  34.096   9.100  1.00 34.25     0.338 C 
ATOM     12  NZ  LYS A 135      28.345  34.397  10.510  1.00 35.99     0.618 N 
ENDBRANCH  10  11
ENDBRANCH   9  10
ENDBRANCH   8   9
ENDBRANCH   7   8
END_RES LYS A 135
