REMARK VINA RESULT:    -6.878      4.038      7.246
REMARK INTER + INTRA:         -16.482
REMARK INTER:                 -10.938
REMARK INTRA:                  -5.543
REMARK UNBOUND:                -4.578
REMARK SMILES CC(=O)N[C@@H]1[C@@H](O)C[C@](O)(C(=O)O)O[C@H]1C(O)[C@H](O)CNC(=O)OCc1cn(C2c3ccccc3-c3ccccc32)nn1
REMARK SMILES IDX 20 1 18 2 16 3 15 4 9 5 8 6 14 7 6 8 5 9 10 10 11 12 12 13
REMARK SMILES IDX 13 14 7 16 4 18 2 19 1 21 3 22 17 23 19 25 21 27 22 28 23 30
REMARK SMILES IDX 24 31 25 32 26 33 27 34 43 35 28 36 42 37 29 38 30 39 41 40
REMARK SMILES IDX 31 41 35 42 36 43 40 44 32 45 34 46 37 47 39 48 33 49 38 50
REMARK H PARENT 10 11 13 15 7 17 4 20 17 24 19 26 21 29
REMARK Flexibility Score: inf
ROOT
ATOM      1  C   UNL     1      27.395  41.455  11.214  1.00  0.00     0.154 C 
ENDROOT
BRANCH   1   2
ATOM      2  C   UNL     1      26.700  40.905  10.024  1.00  0.00     0.165 C 
BRANCH   2   3
ATOM      3  C   UNL     1      27.496  41.011   8.763  1.00  0.00     0.176 C 
BRANCH   3   4
ATOM      4  C   UNL     1      27.868  39.710   8.107  1.00  0.00     0.178 C 
ATOM      5  C   UNL     1      29.670  39.975   6.635  1.00  0.00     0.269 C 
ATOM      6  C   UNL     1      29.345  38.755   5.800  1.00  0.00     0.112 C 
ATOM      7  O   UNL     1      29.249  39.767   7.910  1.00  0.00    -0.332 OA
ATOM      8  C   UNL     1      27.918  38.395   5.998  1.00  0.00     0.145 C 
ATOM      9  C   UNL     1      27.136  39.430   6.823  1.00  0.00     0.142 C 
BRANCH   5  10
ATOM     10  O   UNL     1      29.168  41.065   5.975  1.00  0.00    -0.357 OA
ATOM     11  H   UNL     1      29.405  41.066   5.021  1.00  0.00     0.214 HD
ENDBRANCH   5  10
BRANCH   5  12
ATOM     12  C   UNL     1      31.162  40.067   6.666  1.00  0.00     0.364 C 
ATOM     13  O   UNL     1      31.714  40.799   7.519  1.00  0.00    -0.246 OA
BRANCH  12  14
ATOM     14  O   UNL     1      31.972  39.370   5.782  1.00  0.00    -0.477 OA
ATOM     15  H   UNL     1      32.991  39.338   5.923  1.00  0.00     0.296 HD
ENDBRANCH  12  14
ENDBRANCH   5  12
BRANCH   8  16
ATOM     16  O   UNL     1      27.216  38.202   4.819  1.00  0.00    -0.391 OA
ATOM     17  H   UNL     1      26.734  37.345   4.784  1.00  0.00     0.211 HD
ENDBRANCH   8  16
BRANCH   9  18
ATOM     18  N   UNL     1      25.882  38.771   7.108  1.00  0.00    -0.348 N 
ATOM     19  C   UNL     1      24.620  39.419   7.166  1.00  0.00     0.217 C 
ATOM     20  H   UNL     1      25.903  37.745   7.280  1.00  0.00     0.163 HD
ATOM     21  C   UNL     1      23.361  38.665   7.469  1.00  0.00     0.114 C 
ATOM     22  O   UNL     1      24.593  40.658   6.954  1.00  0.00    -0.275 OA
ENDBRANCH   9  18
ENDBRANCH   3   4
BRANCH   3  23
ATOM     23  O   UNL     1      26.986  41.904   7.828  1.00  0.00    -0.388 OA
ATOM     24  H   UNL     1      26.506  41.498   7.089  1.00  0.00     0.211 HD
ENDBRANCH   3  23
ENDBRANCH   2   3
BRANCH   2  25
ATOM     25  O   UNL     1      25.514  41.605   9.812  1.00  0.00    -0.388 OA
ATOM     26  H   UNL     1      25.588  42.558  10.014  1.00  0.00     0.211 HD
ENDBRANCH   2  25
ENDBRANCH   1   2
BRANCH   1  27
ATOM     27  N   UNL     1      28.423  40.652  11.762  1.00  0.00    -0.319 N 
ATOM     28  C   UNL     1      28.244  39.765  12.839  1.00  0.00     0.407 C 
ATOM     29  H   UNL     1      29.409  40.706  11.345  1.00  0.00     0.167 HD
ATOM     30  O   UNL     1      27.159  39.609  13.390  1.00  0.00    -0.225 OA
BRANCH  28  31
ATOM     31  O   UNL     1      29.316  39.005  13.341  1.00  0.00    -0.443 OA
BRANCH  31  32
ATOM     32  C   UNL     1      29.148  37.890  14.162  1.00  0.00     0.294 C 
BRANCH  32  33
ATOM     33  C   UNL     1      28.988  36.617  13.417  1.00  0.00     0.120 A 
ATOM     34  C   UNL     1      28.240  36.350  12.297  1.00  0.00     0.139 A 
ATOM     35  N   UNL     1      29.597  35.482  13.765  1.00  0.00    -0.132 NA
ATOM     36  N   UNL     1      28.420  35.067  12.007  1.00  0.00    -0.240 N 
ATOM     37  N   UNL     1      29.241  34.558  12.902  1.00  0.00    -0.066 NA
BRANCH  36  38
ATOM     38  C   UNL     1      27.833  34.320  10.904  1.00  0.00     0.170 C 
ATOM     39  C   UNL     1      28.580  34.520   9.650  1.00  0.00    -0.011 A 
ATOM     40  C   UNL     1      26.462  34.716  10.622  1.00  0.00    -0.011 A 
ATOM     41  C   UNL     1      29.937  34.296   9.357  1.00  0.00     0.007 A 
ATOM     42  C   UNL     1      27.705  34.995   8.715  1.00  0.00    -0.012 A 
ATOM     43  C   UNL     1      26.378  35.121   9.316  1.00  0.00    -0.012 A 
ATOM     44  C   UNL     1      25.290  34.751  11.405  1.00  0.00     0.007 A 
ATOM     45  C   UNL     1      30.380  34.570   8.088  1.00  0.00     0.000 A 
ATOM     46  C   UNL     1      28.193  35.262   7.437  1.00  0.00     0.009 A 
ATOM     47  C   UNL     1      25.190  35.565   8.727  1.00  0.00     0.009 A 
ATOM     48  C   UNL     1      24.115  35.183  10.849  1.00  0.00     0.000 A 
ATOM     49  C   UNL     1      29.518  35.052   7.123  1.00  0.00     0.001 A 
ATOM     50  C   UNL     1      24.068  35.585   9.524  1.00  0.00     0.001 A 
ENDBRANCH  36  38
ENDBRANCH  32  33
ENDBRANCH  31  32
ENDBRANCH  28  31
ENDBRANCH   1  27
TORSDOF 15
BEGIN_RES LYS A 131
REMARK  4 active torsions:
REMARK  status: ('A' for Active; 'I' for Inactive)
REMARK    1  A    between atoms: CA   and  CB  
REMARK    2  A    between atoms: CB   and  CG  
REMARK    3  A    between atoms: CG   and  CD  
REMARK    4  A    between atoms: CD   and  CE  
ROOT
ATOM      1  CA  LYS A 131      29.867  25.555  16.977  1.00 20.52     0.186 C 
ENDROOT
BRANCH   1   2
ATOM      2  CB  LYS A 131      28.345  25.722  17.026  1.00 20.94     0.034 C 
BRANCH   2   3
ATOM      3  CG  LYS A 131      27.601  24.402  16.892  1.00 22.96     0.005 C 
BRANCH   3   4
ATOM      4  CD  LYS A 131      26.156  24.524  17.287  1.00 24.33     0.041 C 
BRANCH   4   5
ATOM      5  CE  LYS A 131      25.797  23.404  18.259  1.00 26.91     0.338 C 
ATOM      6  NZ  LYS A 131      24.992  22.363  17.577  1.00 27.40     0.618 N 
ENDBRANCH   4   5
ENDBRANCH   3   4
ENDBRANCH   2   3
ENDBRANCH   1   2
END_RES LYS A 131
BEGIN_RES LYS A 135
REMARK  4 active torsions:
REMARK  status: ('A' for Active; 'I' for Inactive)
REMARK    5  A    between atoms: CA   and  CB  
REMARK    6  A    between atoms: CB   and  CG  
REMARK    7  A    between atoms: CG   and  CD  
REMARK    8  A    between atoms: CD   and  CE  
ROOT
ATOM      7  CA  LYS A 135      33.193  34.663   9.290  1.00 25.02     0.186 C 
ENDROOT
BRANCH   7   8
ATOM      8  CB  LYS A 135      32.060  35.360  10.034  1.00 26.63     0.034 C 
BRANCH   8   9
ATOM      9  CG  LYS A 135      32.440  35.816  11.419  1.00 29.45     0.005 C 
BRANCH   9  10
ATOM     10  CD  LYS A 135      31.947  37.233  11.672  1.00 32.00     0.041 C 
BRANCH  10  11
ATOM     11  CE  LYS A 135      31.598  37.916  10.364  1.00 34.25     0.338 C 
ATOM     12  NZ  LYS A 135      31.574  39.397  10.522  1.00 35.99     0.618 N 
ENDBRANCH  10  11
ENDBRANCH   9  10
ENDBRANCH   8   9
ENDBRANCH   7   8
END_RES LYS A 135
