REMARK VINA RESULT:    -4.278      7.117     12.457
REMARK INTER + INTRA:         -13.897
REMARK INTER:                  -8.391
REMARK INTRA:                  -5.506
REMARK UNBOUND:                -5.994
REMARK SMILES CC(=O)N[C@@H]1[C@@H](O)C[C@](O)(C(=O)O)O[C@H]1C(O)[C@H](O)CNC(=O)OCc1cn(CCN2CCCC2)nn1
REMARK SMILES IDX 21 1 22 2 23 3 20 5 18 6 16 7 15 8 9 9 8 10 14 11 6 12 5 13
REMARK SMILES IDX 10 14 11 16 12 17 13 18 7 20 4 22 2 23 1 25 3 26 17 27 19 29
REMARK SMILES IDX 24 31 25 32 26 33 27 34 37 35 28 36 36 37 29 38 30 39 31 40
REMARK SMILES IDX 32 41 35 42 33 43 34 44
REMARK H PARENT 21 4 10 15 13 19 7 21 4 24 17 28 19 30
REMARK Flexibility Score: inf
ROOT
ATOM      1  N   UNL     1      26.041  27.918  18.748  1.00  0.00    -0.319 N 
ATOM      2  C   UNL     1      25.074  28.392  17.843  1.00  0.00     0.407 C 
ATOM      3  O   UNL     1      23.867  28.296  18.103  1.00  0.00    -0.225 OA
ATOM      4  H   UNL     1      27.056  28.043  18.414  1.00  0.00     0.167 HD
ENDROOT
BRANCH   1   5
ATOM      5  C   UNL     1      25.803  27.309  20.019  1.00  0.00     0.154 C 
BRANCH   5   6
ATOM      6  C   UNL     1      26.945  27.563  20.959  1.00  0.00     0.165 C 
BRANCH   6   7
ATOM      7  C   UNL     1      28.198  28.001  20.207  1.00  0.00     0.176 C 
BRANCH   7   8
ATOM      8  C   UNL     1      28.974  28.925  21.162  1.00  0.00     0.178 C 
ATOM      9  C   UNL     1      29.709  30.929  20.190  1.00  0.00     0.269 C 
ATOM     10  C   UNL     1      30.814  30.092  19.577  1.00  0.00     0.112 C 
ATOM     11  O   UNL     1      28.755  30.222  20.852  1.00  0.00    -0.332 OA
ATOM     12  C   UNL     1      31.423  29.203  20.604  1.00  0.00     0.145 C 
ATOM     13  C   UNL     1      30.371  28.468  21.370  1.00  0.00     0.142 C 
BRANCH   9  14
ATOM     14  O   UNL     1      29.057  31.521  19.080  1.00  0.00    -0.357 OA
ATOM     15  H   UNL     1      29.725  32.101  18.603  1.00  0.00     0.214 HD
ENDBRANCH   9  14
BRANCH   9  16
ATOM     16  C   UNL     1      30.260  32.043  20.998  1.00  0.00     0.364 C 
ATOM     17  O   UNL     1      29.879  32.198  22.178  1.00  0.00    -0.246 OA
BRANCH  16  18
ATOM     18  O   UNL     1      31.193  32.914  20.467  1.00  0.00    -0.477 OA
ATOM     19  H   UNL     1      32.132  32.580  20.302  1.00  0.00     0.296 HD
ENDBRANCH  16  18
ENDBRANCH   9  16
BRANCH  12  20
ATOM     20  O   UNL     1      32.283  28.322  19.957  1.00  0.00    -0.391 OA
ATOM     21  H   UNL     1      31.762  27.609  19.496  1.00  0.00     0.211 HD
ENDBRANCH  12  20
BRANCH  13  22
ATOM     22  N   UNL     1      30.698  28.377  22.792  1.00  0.00    -0.348 N 
ATOM     23  C   UNL     1      30.469  27.222  23.549  1.00  0.00     0.217 C 
ATOM     24  H   UNL     1      31.115  29.222  23.226  1.00  0.00     0.163 HD
ATOM     25  C   UNL     1      30.833  27.219  24.989  1.00  0.00     0.114 C 
ATOM     26  O   UNL     1      29.957  26.188  23.010  1.00  0.00    -0.275 OA
ENDBRANCH  13  22
ENDBRANCH   7   8
BRANCH   7  27
ATOM     27  O   UNL     1      28.944  26.860  19.936  1.00  0.00    -0.388 OA
ATOM     28  H   UNL     1      28.440  26.137  19.526  1.00  0.00     0.211 HD
ENDBRANCH   7  27
ENDBRANCH   6   7
BRANCH   6  29
ATOM     29  O   UNL     1      27.216  26.532  21.830  1.00  0.00    -0.388 OA
ATOM     30  H   UNL     1      27.153  26.764  22.786  1.00  0.00     0.211 HD
ENDBRANCH   6  29
ENDBRANCH   5   6
ENDBRANCH   1   5
BRANCH   2  31
ATOM     31  O   UNL     1      25.414  28.984  16.624  1.00  0.00    -0.443 OA
BRANCH  31  32
ATOM     32  C   UNL     1      25.684  30.369  16.548  1.00  0.00     0.294 C 
BRANCH  32  33
ATOM     33  C   UNL     1      27.118  30.652  16.288  1.00  0.00     0.120 A 
ATOM     34  C   UNL     1      27.654  31.779  15.662  1.00  0.00     0.138 A 
ATOM     35  N   UNL     1      28.192  29.901  16.590  1.00  0.00    -0.132 NA
ATOM     36  N   UNL     1      28.994  31.684  15.603  1.00  0.00    -0.251 N 
ATOM     37  N   UNL     1      29.280  30.510  16.187  1.00  0.00    -0.067 NA
BRANCH  36  38
ATOM     38  C   UNL     1      29.953  32.612  15.042  1.00  0.00     0.161 C 
BRANCH  38  39
ATOM     39  C   UNL     1      31.036  32.982  15.999  1.00  0.00     0.108 C 
BRANCH  39  40
ATOM     40  N   UNL     1      31.530  34.329  15.854  1.00  0.00    -0.301 NA
ATOM     41  C   UNL     1      31.983  34.783  17.157  1.00  0.00     0.084 C 
ATOM     42  C   UNL     1      32.691  34.395  14.988  1.00  0.00     0.084 C 
ATOM     43  C   UNL     1      33.287  35.488  16.969  1.00  0.00     0.017 C 
ATOM     44  C   UNL     1      33.355  35.670  15.467  1.00  0.00     0.017 C 
ENDBRANCH  39  40
ENDBRANCH  38  39
ENDBRANCH  36  38
ENDBRANCH  32  33
ENDBRANCH  31  32
ENDBRANCH   2  31
TORSDOF 17
BEGIN_RES LYS A 131
REMARK  4 active torsions:
REMARK  status: ('A' for Active; 'I' for Inactive)
REMARK    1  A    between atoms: CA   and  CB  
REMARK    2  A    between atoms: CB   and  CG  
REMARK    3  A    between atoms: CG   and  CD  
REMARK    4  A    between atoms: CD   and  CE  
ROOT
ATOM      1  CA  LYS A 131      29.867  25.555  16.977  1.00 20.52     0.186 C 
ENDROOT
BRANCH   1   2
ATOM      2  CB  LYS A 131      28.345  25.722  17.026  1.00 20.94     0.034 C 
BRANCH   2   3
ATOM      3  CG  LYS A 131      27.601  24.401  16.903  1.00 22.96     0.005 C 
BRANCH   3   4
ATOM      4  CD  LYS A 131      26.664  24.169  18.056  1.00 24.33     0.041 C 
BRANCH   4   5
ATOM      5  CE  LYS A 131      25.310  23.708  17.526  1.00 26.91     0.338 C 
ATOM      6  NZ  LYS A 131      24.514  24.868  17.060  1.00 27.40     0.618 N 
ENDBRANCH   4   5
ENDBRANCH   3   4
ENDBRANCH   2   3
ENDBRANCH   1   2
END_RES LYS A 131
BEGIN_RES LYS A 135
REMARK  4 active torsions:
REMARK  status: ('A' for Active; 'I' for Inactive)
REMARK    5  A    between atoms: CA   and  CB  
REMARK    6  A    between atoms: CB   and  CG  
REMARK    7  A    between atoms: CG   and  CD  
REMARK    8  A    between atoms: CD   and  CE  
ROOT
ATOM      7  CA  LYS A 135      33.193  34.663   9.290  1.00 25.02     0.186 C 
ENDROOT
BRANCH   7   8
ATOM      8  CB  LYS A 135      32.060  35.360  10.034  1.00 26.63     0.034 C 
BRANCH   8   9
ATOM      9  CG  LYS A 135      30.689  34.961   9.553  1.00 29.45     0.005 C 
BRANCH   9  10
ATOM     10  CD  LYS A 135      29.714  34.881  10.718  1.00 32.00     0.041 C 
BRANCH  10  11
ATOM     11  CE  LYS A 135      30.463  34.817  12.036  1.00 34.25     0.338 C 
ATOM     12  NZ  LYS A 135      29.897  35.779  13.022  1.00 35.99     0.618 N 
ENDBRANCH  10  11
ENDBRANCH   9  10
ENDBRANCH   8   9
ENDBRANCH   7   8
END_RES LYS A 135
