REMARK VINA RESULT:    -3.591      4.760     11.772
REMARK INTER + INTRA:         -15.606
REMARK INTER:                 -10.641
REMARK INTRA:                  -4.965
REMARK UNBOUND:                -8.446
REMARK SMILES CC(=O)N[C@@H]1[C@@H](O)C[C@](O)(C(=O)O)O[C@H]1C(O)[C@H](O)CNC(=O)OCc1cn(CC(O)Cn2ccnc2[N+](=O)[O-])nn1
REMARK SMILES IDX 24 1 22 2 21 3 23 5 20 6 18 7 16 8 15 9 9 10 8 11 14 12 6 13
REMARK SMILES IDX 5 14 10 15 11 17 12 18 13 19 7 21 4 23 2 24 1 26 3 27 17 28
REMARK SMILES IDX 19 30 25 32 26 33 27 34 42 35 28 36 41 37 29 38 30 39 31 40
REMARK SMILES IDX 32 42 33 43 34 44 37 45 35 46 36 47 38 48 39 49 40 50
REMARK H PARENT 21 4 10 16 13 20 7 22 4 25 17 29 19 31 31 41
REMARK Flexibility Score: inf
ROOT
ATOM      1  O   UNL     1      27.638  35.149  12.361  1.00  0.00    -0.443 OA
ENDROOT
BRANCH   1   2
ATOM      2  C   UNL     1      27.820  34.597  11.082  1.00  0.00     0.407 C 
ATOM      3  N   UNL     1      29.060  34.566  10.436  1.00  0.00    -0.319 N 
ATOM      4  H   UNL     1      29.890  34.987  10.953  1.00  0.00     0.167 HD
ATOM      5  O   UNL     1      26.809  34.128  10.541  1.00  0.00    -0.225 OA
BRANCH   3   6
ATOM      6  C   UNL     1      29.290  34.006   9.125  1.00  0.00     0.154 C 
BRANCH   6   7
ATOM      7  C   UNL     1      29.817  35.097   8.232  1.00  0.00     0.165 C 
BRANCH   7   8
ATOM      8  C   UNL     1      28.716  35.494   7.277  1.00  0.00     0.176 C 
BRANCH   8   9
ATOM      9  C   UNL     1      28.460  36.995   7.332  1.00  0.00     0.178 C 
ATOM     10  C   UNL     1      29.653  38.958   7.716  1.00  0.00     0.269 C 
ATOM     11  C   UNL     1      28.382  39.441   8.389  1.00  0.00     0.112 C 
ATOM     12  O   UNL     1      29.651  37.586   7.654  1.00  0.00    -0.332 OA
ATOM     13  C   UNL     1      27.838  38.345   9.279  1.00  0.00     0.145 C 
ATOM     14  C   UNL     1      27.358  37.238   8.348  1.00  0.00     0.142 C 
BRANCH  10  15
ATOM     15  O   UNL     1      30.779  39.329   8.477  1.00  0.00    -0.357 OA
ATOM     16  H   UNL     1      31.542  38.819   8.120  1.00  0.00     0.214 HD
ENDBRANCH  10  15
BRANCH  10  17
ATOM     17  C   UNL     1      29.811  39.506   6.363  1.00  0.00     0.364 C 
ATOM     18  O   UNL     1      28.874  40.104   5.809  1.00  0.00    -0.246 OA
BRANCH  17  19
ATOM     19  O   UNL     1      31.009  39.361   5.688  1.00  0.00    -0.477 OA
ATOM     20  H   UNL     1      31.116  39.703   4.750  1.00  0.00     0.296 HD
ENDBRANCH  17  19
ENDBRANCH  10  17
BRANCH  13  21
ATOM     21  O   UNL     1      28.800  37.778  10.099  1.00  0.00    -0.391 OA
ATOM     22  H   UNL     1      28.429  37.591  10.984  1.00  0.00     0.211 HD
ENDBRANCH  13  21
BRANCH  14  23
ATOM     23  N   UNL     1      26.133  37.652   7.726  1.00  0.00    -0.348 N 
ATOM     24  C   UNL     1      24.889  37.202   8.212  1.00  0.00     0.217 C 
ATOM     25  H   UNL     1      26.096  38.297   6.892  1.00  0.00     0.163 HD
ATOM     26  C   UNL     1      23.616  37.636   7.560  1.00  0.00     0.114 C 
ATOM     27  O   UNL     1      24.824  36.428   9.203  1.00  0.00    -0.275 OA
ENDBRANCH  14  23
ENDBRANCH   8   9
BRANCH   8  28
ATOM     28  O   UNL     1      27.548  34.878   7.679  1.00  0.00    -0.388 OA
ATOM     29  H   UNL     1      26.742  35.278   7.276  1.00  0.00     0.211 HD
ENDBRANCH   8  28
ENDBRANCH   7   8
BRANCH   7  30
ATOM     30  O   UNL     1      30.976  34.717   7.562  1.00  0.00    -0.388 OA
ATOM     31  H   UNL     1      31.150  33.774   7.810  1.00  0.00     0.211 HD
ENDBRANCH   7  30
ENDBRANCH   6   7
ENDBRANCH   3   6
ENDBRANCH   1   2
BRANCH   1  32
ATOM     32  C   UNL     1      28.722  35.855  12.985  1.00  0.00     0.294 C 
BRANCH  32  33
ATOM     33  C   UNL     1      29.265  35.113  14.119  1.00  0.00     0.120 A 
ATOM     34  C   UNL     1      29.690  33.808  14.101  1.00  0.00     0.138 A 
ATOM     35  N   UNL     1      29.433  35.591  15.361  1.00  0.00    -0.132 NA
ATOM     36  N   UNL     1      30.107  33.530  15.344  1.00  0.00    -0.249 N 
ATOM     37  N   UNL     1      29.946  34.605  16.078  1.00  0.00    -0.067 NA
BRANCH  36  38
ATOM     38  C   UNL     1      30.647  32.224  15.761  1.00  0.00     0.181 C 
BRANCH  38  39
ATOM     39  C   UNL     1      29.639  31.504  16.629  1.00  0.00     0.170 C 
BRANCH  39  40
ATOM     40  O   UNL     1      30.407  30.750  17.544  1.00  0.00    -0.388 OA
ATOM     41  H   UNL     1      30.014  30.734  18.436  1.00  0.00     0.211 HD
ENDBRANCH  39  40
BRANCH  39  42
ATOM     42  C   UNL     1      28.794  30.616  15.773  1.00  0.00     0.239 C 
BRANCH  42  43
ATOM     43  N   UNL     1      27.389  30.859  16.112  1.00  0.00    -0.227 N 
ATOM     44  C   UNL     1      26.599  31.832  15.602  1.00  0.00     0.204 A 
ATOM     45  C   UNL     1      26.693  30.134  16.971  1.00  0.00     0.434 A 
ATOM     46  C   UNL     1      25.373  31.700  16.169  1.00  0.00     0.245 A 
ATOM     47  N   UNL     1      25.438  30.662  17.002  1.00  0.00    -0.074 NA
BRANCH  45  48
ATOM     48  N   UNL     1      27.129  29.004  17.745  1.00  0.00    -0.047 N 
ATOM     49  O   UNL     1      26.994  27.829  17.367  1.00  0.00    -0.390 OA
ATOM     50  O   UNL     1      27.729  29.225  18.968  1.00  0.00    -0.390 OA
ENDBRANCH  45  48
ENDBRANCH  42  43
ENDBRANCH  39  42
ENDBRANCH  38  39
ENDBRANCH  36  38
ENDBRANCH  32  33
ENDBRANCH   1  32
TORSDOF 20
BEGIN_RES LYS A 131
REMARK  4 active torsions:
REMARK  status: ('A' for Active; 'I' for Inactive)
REMARK    1  A    between atoms: CA   and  CB  
REMARK    2  A    between atoms: CB   and  CG  
REMARK    3  A    between atoms: CG   and  CD  
REMARK    4  A    between atoms: CD   and  CE  
ROOT
ATOM      1  CA  LYS A 131      29.867  25.555  16.977  1.00 20.52     0.186 C 
ENDROOT
BRANCH   1   2
ATOM      2  CB  LYS A 131      28.345  25.722  17.026  1.00 20.94     0.034 C 
BRANCH   2   3
ATOM      3  CG  LYS A 131      27.602  24.398  16.939  1.00 22.96     0.005 C 
BRANCH   3   4
ATOM      4  CD  LYS A 131      26.153  24.535  17.316  1.00 24.33     0.041 C 
BRANCH   4   5
ATOM      5  CE  LYS A 131      25.982  24.227  18.800  1.00 26.91     0.338 C 
ATOM      6  NZ  LYS A 131      25.756  25.475  19.566  1.00 27.40     0.618 N 
ENDBRANCH   4   5
ENDBRANCH   3   4
ENDBRANCH   2   3
ENDBRANCH   1   2
END_RES LYS A 131
BEGIN_RES LYS A 135
REMARK  4 active torsions:
REMARK  status: ('A' for Active; 'I' for Inactive)
REMARK    5  A    between atoms: CA   and  CB  
REMARK    6  A    between atoms: CB   and  CG  
REMARK    7  A    between atoms: CG   and  CD  
REMARK    8  A    between atoms: CD   and  CE  
ROOT
ATOM      7  CA  LYS A 135      33.193  34.663   9.290  1.00 25.02     0.186 C 
ENDROOT
BRANCH   7   8
ATOM      8  CB  LYS A 135      32.060  35.360  10.034  1.00 26.63     0.034 C 
BRANCH   8   9
ATOM      9  CG  LYS A 135      32.497  36.020  11.316  1.00 29.45     0.005 C 
BRANCH   9  10
ATOM     10  CD  LYS A 135      32.245  37.519  11.261  1.00 32.00     0.041 C 
BRANCH  10  11
ATOM     11  CE  LYS A 135      31.502  37.980  12.500  1.00 34.25     0.338 C 
ATOM     12  NZ  LYS A 135      31.075  39.401  12.372  1.00 35.99     0.618 N 
ENDBRANCH  10  11
ENDBRANCH   9  10
ENDBRANCH   8   9
ENDBRANCH   7   8
END_RES LYS A 135
