REMARK VINA RESULT:    -4.193      6.900     12.440
REMARK INTER + INTRA:         -13.638
REMARK INTER:                  -7.721
REMARK INTRA:                  -5.917
REMARK UNBOUND:                -6.136
REMARK SMILES CC(=O)N[C@@H]1[C@@H](O)C[C@](O)(C(=O)O)O[C@H]1C(O)[C@H](O)CNC(=O)OCc1cn(Cc2ccsc2)nn1
REMARK SMILES IDX 21 1 22 2 23 3 20 5 18 6 16 7 15 8 9 9 8 10 14 11 6 12 5 13
REMARK SMILES IDX 10 14 11 16 12 17 13 18 7 20 4 22 2 23 1 25 3 26 17 27 19 29
REMARK SMILES IDX 24 31 25 32 26 33 27 34 36 35 28 36 35 37 29 38 30 39 31 40
REMARK SMILES IDX 34 41 32 42 33 43
REMARK H PARENT 21 4 10 15 13 19 7 21 4 24 17 28 19 30
REMARK Flexibility Score: inf
ROOT
ATOM      1  N   UNL     1      26.390  28.531  17.439  1.00  0.00    -0.319 N 
ATOM      2  C   UNL     1      25.603  29.391  16.641  1.00  0.00     0.407 C 
ATOM      3  O   UNL     1      24.356  29.355  16.752  1.00  0.00    -0.225 OA
ATOM      4  H   UNL     1      27.447  28.608  17.304  1.00  0.00     0.167 HD
ENDROOT
BRANCH   1   5
ATOM      5  C   UNL     1      25.861  27.584  18.396  1.00  0.00     0.154 C 
BRANCH   5   6
ATOM      6  C   UNL     1      26.321  27.967  19.765  1.00  0.00     0.165 C 
BRANCH   6   7
ATOM      7  C   UNL     1      27.454  27.115  20.297  1.00  0.00     0.176 C 
BRANCH   7   8
ATOM      8  C   UNL     1      28.349  27.965  21.136  1.00  0.00     0.178 C 
ATOM      9  C   UNL     1      30.540  28.622  21.469  1.00  0.00     0.269 C 
ATOM     10  C   UNL     1      29.944  29.338  22.657  1.00  0.00     0.112 C 
ATOM     11  O   UNL     1      29.586  28.197  20.566  1.00  0.00    -0.332 OA
ATOM     12  C   UNL     1      28.968  28.504  23.419  1.00  0.00     0.145 C 
ATOM     13  C   UNL     1      28.520  27.359  22.536  1.00  0.00     0.142 C 
BRANCH   9  14
ATOM     14  O   UNL     1      31.416  27.606  21.858  1.00  0.00    -0.357 OA
ATOM     15  H   UNL     1      30.934  26.749  21.895  1.00  0.00     0.214 HD
ENDBRANCH   9  14
BRANCH   9  16
ATOM     16  C   UNL     1      31.380  29.645  20.747  1.00  0.00     0.364 C 
ATOM     17  O   UNL     1      32.395  30.155  21.238  1.00  0.00    -0.246 OA
BRANCH  16  18
ATOM     18  O   UNL     1      31.002  30.041  19.466  1.00  0.00    -0.477 OA
ATOM     19  H   UNL     1      30.213  30.649  19.285  1.00  0.00     0.296 HD
ENDBRANCH  16  18
ENDBRANCH   9  16
BRANCH  12  20
ATOM     20  O   UNL     1      29.428  28.079  24.647  1.00  0.00    -0.391 OA
ATOM     21  H   UNL     1      28.720  27.577  25.157  1.00  0.00     0.211 HD
ENDBRANCH  12  20
BRANCH  13  22
ATOM     22  N   UNL     1      27.280  26.771  22.972  1.00  0.00    -0.348 N 
ATOM     23  C   UNL     1      27.272  25.646  23.858  1.00  0.00     0.217 C 
ATOM     24  H   UNL     1      26.352  27.135  22.664  1.00  0.00     0.163 HD
ATOM     25  C   UNL     1      26.055  24.993  24.346  1.00  0.00     0.114 C 
ATOM     26  O   UNL     1      28.395  25.184  24.249  1.00  0.00    -0.275 OA
ENDBRANCH  13  22
ENDBRANCH   7   8
BRANCH   7  27
ATOM     27  O   UNL     1      28.147  26.643  19.182  1.00  0.00    -0.388 OA
ATOM     28  H   UNL     1      28.481  25.730  19.364  1.00  0.00     0.211 HD
ENDBRANCH   7  27
ENDBRANCH   6   7
BRANCH   6  29
ATOM     29  O   UNL     1      25.239  27.775  20.640  1.00  0.00    -0.388 OA
ATOM     30  H   UNL     1      25.496  27.852  21.584  1.00  0.00     0.211 HD
ENDBRANCH   6  29
ENDBRANCH   5   6
ENDBRANCH   1   5
BRANCH   2  31
ATOM     31  O   UNL     1      26.231  30.273  15.738  1.00  0.00    -0.443 OA
BRANCH  31  32
ATOM     32  C   UNL     1      26.663  31.505  16.301  1.00  0.00     0.294 C 
BRANCH  32  33
ATOM     33  C   UNL     1      28.132  31.496  16.344  1.00  0.00     0.120 A 
ATOM     34  C   UNL     1      29.012  32.213  15.549  1.00  0.00     0.138 A 
ATOM     35  N   UNL     1      28.894  30.769  17.190  1.00  0.00    -0.132 NA
ATOM     36  N   UNL     1      30.245  31.881  15.954  1.00  0.00    -0.248 N 
ATOM     37  N   UNL     1      30.181  31.011  16.944  1.00  0.00    -0.067 NA
BRANCH  36  38
ATOM     38  C   UNL     1      31.464  32.396  15.395  1.00  0.00     0.182 C 
BRANCH  38  39
ATOM     39  C   UNL     1      31.658  33.860  15.790  1.00  0.00    -0.016 A 
ATOM     40  C   UNL     1      31.831  34.230  17.053  1.00  0.00     0.017 A 
ATOM     41  C   UNL     1      31.649  34.803  14.787  1.00  0.00     0.070 A 
ATOM     42  C   UNL     1      32.002  35.553  17.360  1.00  0.00     0.065 A 
ATOM     43  S   UNL     1      31.911  36.342  15.740  1.00  0.00    -0.152 S 
ENDBRANCH  38  39
ENDBRANCH  36  38
ENDBRANCH  32  33
ENDBRANCH  31  32
ENDBRANCH   2  31
TORSDOF 16
BEGIN_RES LYS A 131
REMARK  4 active torsions:
REMARK  status: ('A' for Active; 'I' for Inactive)
REMARK    1  A    between atoms: CA   and  CB  
REMARK    2  A    between atoms: CB   and  CG  
REMARK    3  A    between atoms: CG   and  CD  
REMARK    4  A    between atoms: CD   and  CE  
ROOT
ATOM      1  CA  LYS A 131      29.867  25.555  16.977  1.00 20.52     0.186 C 
ENDROOT
BRANCH   1   2
ATOM      2  CB  LYS A 131      28.345  25.722  17.026  1.00 20.94     0.034 C 
BRANCH   2   3
ATOM      3  CG  LYS A 131      27.599  24.449  16.658  1.00 22.96     0.005 C 
BRANCH   3   4
ATOM      4  CD  LYS A 131      27.031  23.756  17.865  1.00 24.33     0.041 C 
BRANCH   4   5
ATOM      5  CE  LYS A 131      25.627  23.251  17.549  1.00 26.91     0.338 C 
ATOM      6  NZ  LYS A 131      24.790  24.349  17.009  1.00 27.40     0.618 N 
ENDBRANCH   4   5
ENDBRANCH   3   4
ENDBRANCH   2   3
ENDBRANCH   1   2
END_RES LYS A 131
BEGIN_RES LYS A 135
REMARK  4 active torsions:
REMARK  status: ('A' for Active; 'I' for Inactive)
REMARK    5  A    between atoms: CA   and  CB  
REMARK    6  A    between atoms: CB   and  CG  
REMARK    7  A    between atoms: CG   and  CD  
REMARK    8  A    between atoms: CD   and  CE  
ROOT
ATOM      7  CA  LYS A 135      33.193  34.663   9.290  1.00 25.02     0.186 C 
ENDROOT
BRANCH   7   8
ATOM      8  CB  LYS A 135      32.060  35.360  10.034  1.00 26.63     0.034 C 
BRANCH   8   9
ATOM      9  CG  LYS A 135      30.849  35.625   9.177  1.00 29.45     0.005 C 
BRANCH   9  10
ATOM     10  CD  LYS A 135      30.239  34.319   8.692  1.00 32.00     0.041 C 
BRANCH  10  11
ATOM     11  CE  LYS A 135      28.755  34.490   8.431  1.00 34.25     0.338 C 
ATOM     12  NZ  LYS A 135      27.944  33.748   9.436  1.00 35.99     0.618 N 
ENDBRANCH  10  11
ENDBRANCH   9  10
ENDBRANCH   8   9
ENDBRANCH   7   8
END_RES LYS A 135
