REMARK VINA RESULT:    -4.766      4.565      9.639
REMARK INTER + INTRA:         -16.953
REMARK INTER:                 -10.014
REMARK INTRA:                  -6.939
REMARK UNBOUND:                -7.171
REMARK SMILES CCOCCc1c(-c2ccccc2)nc(N)nc1-n1cc(COC(=O)NC[C@@H](O)C(O)[C@@H]2O[C@@](O)(C(=O)O)C[C@H](O)[C@H]2NC(C)=O)nn1
REMARK SMILES IDX 23 1 24 2 26 3 25 5 27 6 28 7 30 8 32 9 34 10 39 11 33 12
REMARK SMILES IDX 40 13 42 14 35 15 36 17 37 18 38 19 41 21 43 23 44 24 45 26
REMARK SMILES IDX 46 27 31 28 29 30 22 32 21 33 20 34 47 35 19 36 48 37 18 38
REMARK SMILES IDX 17 39 6 40 15 41 7 42 14 43 5 44 4 45 3 46 2 47 1 48 16 49
REMARK SMILES IDX 8 52 9 53 13 54 10 55 12 56 11 57
REMARK H PARENT 26 4 35 16 38 20 41 22 43 25 31 29 29 31 16 50 16 51
REMARK Flexibility Score: inf
ROOT
ATOM      1  O   UNL     1      28.430  31.827  19.623  1.00  0.00    -0.443 OA
ENDROOT
BRANCH   1   2
ATOM      2  C   UNL     1      29.617  31.935  18.932  1.00  0.00     0.407 C 
ATOM      3  N   UNL     1      29.690  32.595  17.650  1.00  0.00    -0.319 N 
ATOM      4  H   UNL     1      28.783  32.968  17.305  1.00  0.00     0.167 HD
ATOM      5  O   UNL     1      30.650  31.441  19.448  1.00  0.00    -0.225 OA
BRANCH   3   6
ATOM      6  C   UNL     1      30.961  32.680  16.970  1.00  0.00     0.154 C 
BRANCH   6   7
ATOM      7  C   UNL     1      30.763  32.159  15.553  1.00  0.00     0.165 C 
BRANCH   7   8
ATOM      8  C   UNL     1      30.023  33.238  14.799  1.00  0.00     0.176 C 
BRANCH   8   9
ATOM      9  C   UNL     1      30.309  34.636  15.253  1.00  0.00     0.178 C 
ATOM     10  C   UNL     1      28.861  35.671  13.730  1.00  0.00     0.269 C 
ATOM     11  C   UNL     1      30.082  35.920  12.860  1.00  0.00     0.112 C 
ATOM     12  O   UNL     1      29.183  35.392  15.026  1.00  0.00    -0.332 OA
ATOM     13  C   UNL     1      31.216  36.372  13.756  1.00  0.00     0.145 C 
ATOM     14  C   UNL     1      31.565  35.253  14.757  1.00  0.00     0.142 C 
BRANCH  10  15
ATOM     15  O   UNL     1      28.156  34.634  13.104  1.00  0.00    -0.357 OA
ATOM     16  H   UNL     1      28.596  33.763  13.219  1.00  0.00     0.214 HD
ENDBRANCH  10  15
BRANCH  10  17
ATOM     17  C   UNL     1      27.980  36.857  13.736  1.00  0.00     0.364 C 
ATOM     18  O   UNL     1      27.123  36.988  12.841  1.00  0.00    -0.246 OA
BRANCH  17  19
ATOM     19  O   UNL     1      28.103  37.807  14.715  1.00  0.00    -0.477 OA
ATOM     20  H   UNL     1      28.932  38.363  14.881  1.00  0.00     0.296 HD
ENDBRANCH  17  19
ENDBRANCH  10  17
BRANCH  13  21
ATOM     21  O   UNL     1      32.316  36.743  13.018  1.00  0.00    -0.391 OA
ATOM     22  H   UNL     1      32.668  37.612  13.307  1.00  0.00     0.211 HD
ENDBRANCH  13  21
BRANCH  14  23
ATOM     23  N   UNL     1      32.315  35.936  15.820  1.00  0.00    -0.348 N 
ATOM     24  C   UNL     1      33.724  35.814  15.870  1.00  0.00     0.217 C 
ATOM     25  H   UNL     1      31.828  36.510  16.541  1.00  0.00     0.163 HD
ATOM     26  C   UNL     1      34.550  36.481  16.923  1.00  0.00     0.114 C 
ATOM     27  O   UNL     1      34.279  35.111  14.980  1.00  0.00    -0.275 OA
ENDBRANCH  14  23
ENDBRANCH   8   9
BRANCH   8  28
ATOM     28  O   UNL     1      28.660  33.015  15.184  1.00  0.00    -0.388 OA
ATOM     29  H   UNL     1      28.453  32.061  15.130  1.00  0.00     0.211 HD
ENDBRANCH   8  28
ENDBRANCH   7   8
BRANCH   7  30
ATOM     30  O   UNL     1      30.065  30.968  15.672  1.00  0.00    -0.388 OA
ATOM     31  H   UNL     1      30.041  30.468  14.828  1.00  0.00     0.211 HD
ENDBRANCH   7  30
ENDBRANCH   6   7
ENDBRANCH   3   6
ENDBRANCH   1   2
BRANCH   1  32
ATOM     32  C   UNL     1      27.424  30.868  19.382  1.00  0.00     0.294 C 
BRANCH  32  33
ATOM     33  C   UNL     1      27.135  30.800  17.914  1.00  0.00     0.121 A 
ATOM     34  C   UNL     1      26.217  31.526  17.197  1.00  0.00     0.146 A 
ATOM     35  N   UNL     1      27.735  29.993  17.013  1.00  0.00    -0.131 NA
ATOM     36  N   UNL     1      26.265  31.159  15.880  1.00  0.00    -0.202 N 
ATOM     37  N   UNL     1      27.206  30.225  15.826  1.00  0.00    -0.060 NA
BRANCH  36  38
ATOM     38  C   UNL     1      25.461  31.667  14.830  1.00  0.00     0.164 A 
ATOM     39  N   UNL     1      25.681  32.882  14.310  1.00  0.00    -0.193 NA
ATOM     40  C   UNL     1      24.392  30.918  14.324  1.00  0.00     0.026 A 
ATOM     41  C   UNL     1      24.896  33.383  13.322  1.00  0.00     0.222 A 
ATOM     42  C   UNL     1      23.599  31.421  13.332  1.00  0.00     0.081 A 
ATOM     43  N   UNL     1      23.870  32.680  12.831  1.00  0.00    -0.213 NA
BRANCH  40  44
ATOM     44  C   UNL     1      24.124  29.591  14.914  1.00  0.00     0.070 C 
BRANCH  44  45
ATOM     45  C   UNL     1      23.138  29.587  16.048  1.00  0.00     0.165 C 
BRANCH  45  46
ATOM     46  O   UNL     1      23.710  29.257  17.246  1.00  0.00    -0.381 OA
BRANCH  46  47
ATOM     47  C   UNL     1      24.313  28.021  17.264  1.00  0.00     0.156 C 
ATOM     48  C   UNL     1      23.298  26.900  17.330  1.00  0.00     0.035 C 
ENDBRANCH  46  47
ENDBRANCH  45  46
ENDBRANCH  44  45
ENDBRANCH  40  44
BRANCH  41  49
ATOM     49  N   UNL     1      25.165  34.670  12.803  1.00  0.00    -0.368 N 
ATOM     50  H   UNL     1      25.568  34.775  11.855  1.00  0.00     0.159 HD
ATOM     51  H   UNL     1      24.971  35.532  13.345  1.00  0.00     0.159 HD
ENDBRANCH  41  49
BRANCH  42  52
ATOM     52  C   UNL     1      22.412  30.744  12.847  1.00  0.00     0.001 A 
ATOM     53  C   UNL     1      22.279  29.470  12.433  1.00  0.00     0.010 A 
ATOM     54  C   UNL     1      21.239  31.532  12.832  1.00  0.00     0.010 A 
ATOM     55  C   UNL     1      21.033  28.967  12.014  1.00  0.00     0.001 A 
ATOM     56  C   UNL     1      20.023  31.057  12.427  1.00  0.00     0.001 A 
ATOM     57  C   UNL     1      19.900  29.745  12.005  1.00  0.00     0.000 A 
ENDBRANCH  42  52
ENDBRANCH  36  38
ENDBRANCH  32  33
ENDBRANCH   1  32
TORSDOF 21
BEGIN_RES LYS A 131
REMARK  4 active torsions:
REMARK  status: ('A' for Active; 'I' for Inactive)
REMARK    1  A    between atoms: CA   and  CB  
REMARK    2  A    between atoms: CB   and  CG  
REMARK    3  A    between atoms: CG   and  CD  
REMARK    4  A    between atoms: CD   and  CE  
ROOT
ATOM      1  CA  LYS A 131      29.867  25.555  16.977  1.00 20.52     0.186 C 
ENDROOT
BRANCH   1   2
ATOM      2  CB  LYS A 131      28.345  25.722  17.026  1.00 20.94     0.034 C 
BRANCH   2   3
ATOM      3  CG  LYS A 131      27.602  24.400  16.917  1.00 22.96     0.005 C 
BRANCH   3   4
ATOM      4  CD  LYS A 131      26.167  24.519  17.349  1.00 24.33     0.041 C 
BRANCH   4   5
ATOM      5  CE  LYS A 131      26.110  24.948  18.812  1.00 26.91     0.338 C 
ATOM      6  NZ  LYS A 131      25.087  24.163  19.543  1.00 27.40     0.618 N 
ENDBRANCH   4   5
ENDBRANCH   3   4
ENDBRANCH   2   3
ENDBRANCH   1   2
END_RES LYS A 131
BEGIN_RES LYS A 135
REMARK  4 active torsions:
REMARK  status: ('A' for Active; 'I' for Inactive)
REMARK    5  A    between atoms: CA   and  CB  
REMARK    6  A    between atoms: CB   and  CG  
REMARK    7  A    between atoms: CG   and  CD  
REMARK    8  A    between atoms: CD   and  CE  
ROOT
ATOM      7  CA  LYS A 135      33.193  34.663   9.290  1.00 25.02     0.186 C 
ENDROOT
BRANCH   7   8
ATOM      8  CB  LYS A 135      32.060  35.360  10.034  1.00 26.63     0.034 C 
BRANCH   8   9
ATOM      9  CG  LYS A 135      30.734  34.654   9.910  1.00 29.45     0.005 C 
BRANCH   9  10
ATOM     10  CD  LYS A 135      30.325  34.533   8.451  1.00 32.00     0.041 C 
BRANCH  10  11
ATOM     11  CE  LYS A 135      28.814  34.524   8.321  1.00 34.25     0.338 C 
ATOM     12  NZ  LYS A 135      28.182  33.793   9.454  1.00 35.99     0.618 N 
ENDBRANCH  10  11
ENDBRANCH   9  10
ENDBRANCH   8   9
ENDBRANCH   7   8
END_RES LYS A 135
