REMARK VINA RESULT:    -5.283      0.913      1.476
REMARK INTER + INTRA:         -14.433
REMARK INTER:                  -8.401
REMARK INTRA:                  -6.032
REMARK UNBOUND:                -5.134
REMARK SMILES CC(=O)N[C@@H]1[C@@H](O)C[C@](O)(C(=O)O)O[C@H]1C(O)[C@H](O)CNC(=O)OCc1cn(-c2nc(C)nc(N)n2)nn1
REMARK SMILES IDX 21 1 22 2 23 3 20 5 18 6 16 7 15 8 9 9 8 10 14 11 6 12 5 13
REMARK SMILES IDX 10 14 11 16 12 17 13 18 7 20 4 22 2 23 1 25 3 26 17 27 19 29
REMARK SMILES IDX 24 31 25 32 26 33 27 34 38 35 28 36 37 37 29 38 36 39 30 40
REMARK SMILES IDX 34 41 31 42 33 43 32 44 35 45
REMARK H PARENT 21 4 10 15 13 19 7 21 4 24 17 28 19 30 35 46 35 47
REMARK Flexibility Score: inf
ROOT
ATOM      1  N   UNL     1      27.737  28.929  18.392  1.00  0.00    -0.319 N 
ATOM      2  C   UNL     1      26.638  29.398  17.647  1.00  0.00     0.407 C 
ATOM      3  O   UNL     1      25.614  28.721  17.404  1.00  0.00    -0.225 OA
ATOM      4  H   UNL     1      28.590  29.535  18.585  1.00  0.00     0.167 HD
ENDROOT
BRANCH   1   5
ATOM      5  C   UNL     1      27.723  27.581  18.920  1.00  0.00     0.154 C 
BRANCH   5   6
ATOM      6  C   UNL     1      27.606  27.646  20.410  1.00  0.00     0.165 C 
BRANCH   6   7
ATOM      7  C   UNL     1      28.980  27.577  21.047  1.00  0.00     0.176 C 
BRANCH   7   8
ATOM      8  C   UNL     1      29.265  28.927  21.688  1.00  0.00     0.178 C 
ATOM      9  C   UNL     1      30.372  30.437  20.257  1.00  0.00     0.269 C 
ATOM     10  C   UNL     1      31.681  30.180  20.934  1.00  0.00     0.112 C 
ATOM     11  O   UNL     1      29.274  29.861  20.738  1.00  0.00    -0.332 OA
ATOM     12  C   UNL     1      31.400  30.009  22.421  1.00  0.00     0.145 C 
ATOM     13  C   UNL     1      30.531  28.753  22.483  1.00  0.00     0.142 C 
BRANCH   9  14
ATOM     14  O   UNL     1      30.538  30.021  18.915  1.00  0.00    -0.357 OA
ATOM     15  H   UNL     1      29.912  30.487  18.314  1.00  0.00     0.214 HD
ENDBRANCH   9  14
BRANCH   9  16
ATOM     16  C   UNL     1      30.181  31.910  20.214  1.00  0.00     0.364 C 
ATOM     17  O   UNL     1      30.863  32.622  19.434  1.00  0.00    -0.246 OA
BRANCH  16  18
ATOM     18  O   UNL     1      29.259  32.557  21.018  1.00  0.00    -0.477 OA
ATOM     19  H   UNL     1      28.811  32.106  21.819  1.00  0.00     0.296 HD
ENDBRANCH  16  18
ENDBRANCH   9  16
BRANCH  12  20
ATOM     20  O   UNL     1      32.556  29.768  23.138  1.00  0.00    -0.391 OA
ATOM     21  H   UNL     1      33.056  30.632  23.189  1.00  0.00     0.211 HD
ENDBRANCH  12  20
BRANCH  13  22
ATOM     22  N   UNL     1      30.243  28.390  23.853  1.00  0.00    -0.348 N 
ATOM     23  C   UNL     1      30.994  27.389  24.520  1.00  0.00     0.217 C 
ATOM     24  H   UNL     1      29.457  28.908  24.309  1.00  0.00     0.163 HD
ATOM     25  C   UNL     1      30.648  27.065  25.921  1.00  0.00     0.114 C 
ATOM     26  O   UNL     1      31.932  26.778  23.963  1.00  0.00    -0.275 OA
ENDBRANCH  13  22
ENDBRANCH   7   8
BRANCH   7  27
ATOM     27  O   UNL     1      29.934  27.349  20.019  1.00  0.00    -0.388 OA
ATOM     28  H   UNL     1      30.706  26.932  20.498  1.00  0.00     0.211 HD
ENDBRANCH   7  27
ENDBRANCH   6   7
BRANCH   6  29
ATOM     29  O   UNL     1      26.793  26.592  20.851  1.00  0.00    -0.388 OA
ATOM     30  H   UNL     1      26.162  26.322  20.160  1.00  0.00     0.211 HD
ENDBRANCH   6  29
ENDBRANCH   5   6
ENDBRANCH   1   5
BRANCH   2  31
ATOM     31  O   UNL     1      26.683  30.709  17.140  1.00  0.00    -0.443 OA
BRANCH  31  32
ATOM     32  C   UNL     1      27.156  30.882  15.822  1.00  0.00     0.294 C 
BRANCH  32  33
ATOM     33  C   UNL     1      28.579  31.350  15.881  1.00  0.00     0.121 A 
ATOM     34  C   UNL     1      29.075  32.580  15.492  1.00  0.00     0.148 A 
ATOM     35  N   UNL     1      29.663  30.673  16.324  1.00  0.00    -0.131 NA
ATOM     36  N   UNL     1      30.407  32.623  15.700  1.00  0.00    -0.185 N 
ATOM     37  N   UNL     1      30.732  31.453  16.204  1.00  0.00    -0.059 NA
BRANCH  36  38
ATOM     38  C   UNL     1      31.278  33.725  15.424  1.00  0.00     0.257 A 
ATOM     39  N   UNL     1      32.073  34.255  16.371  1.00  0.00    -0.175 NA
ATOM     40  N   UNL     1      31.330  34.273  14.194  1.00  0.00    -0.196 NA
ATOM     41  C   UNL     1      32.904  35.287  16.153  1.00  0.00     0.225 A 
ATOM     42  C   UNL     1      32.148  35.319  13.911  1.00  0.00     0.133 A 
ATOM     43  N   UNL     1      32.915  35.802  14.893  1.00  0.00    -0.198 NA
ATOM     44  C   UNL     1      32.213  35.932  12.558  1.00  0.00     0.090 C 
BRANCH  41  45
ATOM     45  N   UNL     1      33.738  35.845  17.143  1.00  0.00    -0.368 N 
ATOM     46  H   UNL     1      33.398  36.619  17.728  1.00  0.00     0.159 HD
ATOM     47  H   UNL     1      34.690  35.475  17.277  1.00  0.00     0.159 HD
ENDBRANCH  41  45
ENDBRANCH  36  38
ENDBRANCH  32  33
ENDBRANCH  31  32
ENDBRANCH   2  31
TORSDOF 16
BEGIN_RES LYS A 131
REMARK  4 active torsions:
REMARK  status: ('A' for Active; 'I' for Inactive)
REMARK    1  A    between atoms: CA   and  CB  
REMARK    2  A    between atoms: CB   and  CG  
REMARK    3  A    between atoms: CG   and  CD  
REMARK    4  A    between atoms: CD   and  CE  
ROOT
ATOM      1  CA  LYS A 131      29.867  25.555  16.977  1.00 20.52     0.186 C 
ENDROOT
BRANCH   1   2
ATOM      2  CB  LYS A 131      28.345  25.722  17.026  1.00 20.94     0.034 C 
BRANCH   2   3
ATOM      3  CG  LYS A 131      27.601  24.401  16.899  1.00 22.96     0.005 C 
BRANCH   3   4
ATOM      4  CD  LYS A 131      26.163  24.518  17.323  1.00 24.33     0.041 C 
BRANCH   4   5
ATOM      5  CE  LYS A 131      25.969  23.817  18.663  1.00 26.91     0.338 C 
ATOM      6  NZ  LYS A 131      24.568  23.355  18.809  1.00 27.40     0.618 N 
ENDBRANCH   4   5
ENDBRANCH   3   4
ENDBRANCH   2   3
ENDBRANCH   1   2
END_RES LYS A 131
BEGIN_RES LYS A 135
REMARK  4 active torsions:
REMARK  status: ('A' for Active; 'I' for Inactive)
REMARK    5  A    between atoms: CA   and  CB  
REMARK    6  A    between atoms: CB   and  CG  
REMARK    7  A    between atoms: CG   and  CD  
REMARK    8  A    between atoms: CD   and  CE  
ROOT
ATOM      7  CA  LYS A 135      33.193  34.663   9.290  1.00 25.02     0.186 C 
ENDROOT
BRANCH   7   8
ATOM      8  CB  LYS A 135      32.060  35.360  10.034  1.00 26.63     0.034 C 
BRANCH   8   9
ATOM      9  CG  LYS A 135      30.783  35.452   9.238  1.00 29.45     0.005 C 
BRANCH   9  10
ATOM     10  CD  LYS A 135      30.027  34.133   9.284  1.00 32.00     0.041 C 
BRANCH  10  11
ATOM     11  CE  LYS A 135      28.652  34.286   8.663  1.00 34.25     0.338 C 
ATOM     12  NZ  LYS A 135      28.683  35.238   7.518  1.00 35.99     0.618 N 
ENDBRANCH  10  11
ENDBRANCH   9  10
ENDBRANCH   8   9
ENDBRANCH   7   8
END_RES LYS A 135
