REMARK VINA RESULT:    -4.370      4.807      8.814
REMARK INTER + INTRA:         -14.053
REMARK INTER:                  -8.045
REMARK INTRA:                  -6.008
REMARK UNBOUND:                -6.490
REMARK SMILES CC(=O)N[C@@H]1[C@@H](O)C[C@](O)(C(=O)O)O[C@H]1C(O)[C@H](O)CNC(=O)OCc1cn(-c2ccc3[nH]ncc3c2)nn1
REMARK SMILES IDX 20 1 18 2 16 3 15 4 9 5 8 6 14 7 6 8 5 9 10 10 11 12 12 13
REMARK SMILES IDX 13 14 7 16 4 18 2 19 1 21 3 22 17 23 19 25 21 27 22 28 23 30
REMARK SMILES IDX 24 31 25 32 26 33 27 34 39 35 28 36 38 37 29 38 30 39 37 40
REMARK SMILES IDX 31 41 36 42 32 43 35 44 33 45 34 46
REMARK H PARENT 10 11 13 15 7 17 4 20 17 24 19 26 21 29 33 47
REMARK Flexibility Score: inf
ROOT
ATOM      1  C   UNL     1      19.081  35.229   7.944  1.00  0.00     0.154 C 
ENDROOT
BRANCH   1   2
ATOM      2  C   UNL     1      19.786  36.481   7.652  1.00  0.00     0.165 C 
BRANCH   2   3
ATOM      3  C   UNL     1      21.314  36.294   7.781  1.00  0.00     0.176 C 
BRANCH   3   4
ATOM      4  C   UNL     1      21.894  36.963   8.949  1.00  0.00     0.178 C 
ATOM      5  C   UNL     1      23.548  38.406   8.143  1.00  0.00     0.269 C 
ATOM      6  C   UNL     1      24.453  37.207   8.131  1.00  0.00     0.112 C 
ATOM      7  O   UNL     1      22.369  38.233   8.806  1.00  0.00    -0.332 OA
ATOM      8  C   UNL     1      24.308  36.330   9.325  1.00  0.00     0.145 C 
ATOM      9  C   UNL     1      22.884  36.059   9.694  1.00  0.00     0.142 C 
BRANCH   5  10
ATOM     10  O   UNL     1      23.298  38.806   6.830  1.00  0.00    -0.357 OA
ATOM     11  H   UNL     1      22.595  39.499   6.778  1.00  0.00     0.214 HD
ENDBRANCH   5  10
BRANCH   5  12
ATOM     12  C   UNL     1      24.288  39.498   8.817  1.00  0.00     0.364 C 
ATOM     13  O   UNL     1      23.802  40.055   9.815  1.00  0.00    -0.246 OA
BRANCH  12  14
ATOM     14  O   UNL     1      25.517  39.894   8.335  1.00  0.00    -0.477 OA
ATOM     15  H   UNL     1      26.410  39.577   8.739  1.00  0.00     0.296 HD
ENDBRANCH  12  14
ENDBRANCH   5  12
BRANCH   8  16
ATOM     16  O   UNL     1      25.008  35.136   9.071  1.00  0.00    -0.391 OA
ATOM     17  H   UNL     1      25.961  35.358   9.204  1.00  0.00     0.211 HD
ENDBRANCH   8  16
BRANCH   9  18
ATOM     18  N   UNL     1      22.656  36.064  11.114  1.00  0.00    -0.348 N 
ATOM     19  C   UNL     1      21.596  35.336  11.718  1.00  0.00     0.217 C 
ATOM     20  H   UNL     1      23.295  36.630  11.751  1.00  0.00     0.163 HD
ATOM     21  C   UNL     1      21.403  35.375  13.181  1.00  0.00     0.114 C 
ATOM     22  O   UNL     1      20.832  34.663  10.981  1.00  0.00    -0.275 OA
ENDBRANCH   9  18
ENDBRANCH   3   4
BRANCH   3  23
ATOM     23  O   UNL     1      21.379  34.882   8.064  1.00  0.00    -0.388 OA
ATOM     24  H   UNL     1      20.488  34.475   7.958  1.00  0.00     0.211 HD
ENDBRANCH   3  23
ENDBRANCH   2   3
BRANCH   2  25
ATOM     25  O   UNL     1      19.462  37.359   8.756  1.00  0.00    -0.388 OA
ATOM     26  H   UNL     1      20.117  37.202   9.492  1.00  0.00     0.211 HD
ENDBRANCH   2  25
ENDBRANCH   1   2
BRANCH   1  27
ATOM     27  N   UNL     1      18.620  35.049   9.292  1.00  0.00    -0.319 N 
ATOM     28  C   UNL     1      17.290  34.649   9.586  1.00  0.00     0.407 C 
ATOM     29  H   UNL     1      19.268  35.160  10.088  1.00  0.00     0.167 HD
ATOM     30  O   UNL     1      16.503  34.450   8.625  1.00  0.00    -0.225 OA
BRANCH  28  31
ATOM     31  O   UNL     1      16.812  34.468  10.864  1.00  0.00    -0.443 OA
BRANCH  31  32
ATOM     32  C   UNL     1      16.188  33.287  11.331  1.00  0.00     0.294 C 
BRANCH  32  33
ATOM     33  C   UNL     1      17.234  32.211  11.383  1.00  0.00     0.121 A 
ATOM     34  C   UNL     1      18.508  32.281  11.904  1.00  0.00     0.144 A 
ATOM     35  N   UNL     1      17.117  30.936  10.915  1.00  0.00    -0.131 NA
ATOM     36  N   UNL     1      19.082  31.056  11.723  1.00  0.00    -0.220 N 
ATOM     37  N   UNL     1      18.215  30.262  11.121  1.00  0.00    -0.062 NA
BRANCH  36  38
ATOM     38  C   UNL     1      20.400  30.719  12.125  1.00  0.00     0.067 A 
ATOM     39  C   UNL     1      20.802  29.398  12.092  1.00  0.00     0.030 A 
ATOM     40  C   UNL     1      21.323  31.649  12.555  1.00  0.00     0.040 A 
ATOM     41  C   UNL     1      22.070  29.010  12.471  1.00  0.00     0.030 A 
ATOM     42  C   UNL     1      22.583  31.288  12.935  1.00  0.00     0.022 A 
ATOM     43  C   UNL     1      22.987  29.954  12.900  1.00  0.00     0.065 A 
ATOM     44  C   UNL     1      23.678  31.983  13.393  1.00  0.00     0.143 A 
ATOM     45  N   UNL     1      24.260  29.886  13.322  1.00  0.00    -0.278 N 
ATOM     46  N   UNL     1      24.685  31.092  13.620  1.00  0.00    -0.183 NA
ATOM     47  H   UNL     1      24.813  29.012  13.396  1.00  0.00     0.190 HD
ENDBRANCH  36  38
ENDBRANCH  32  33
ENDBRANCH  31  32
ENDBRANCH  28  31
ENDBRANCH   1  27
TORSDOF 15
BEGIN_RES LYS A 131
REMARK  4 active torsions:
REMARK  status: ('A' for Active; 'I' for Inactive)
REMARK    1  A    between atoms: CA   and  CB  
REMARK    2  A    between atoms: CB   and  CG  
REMARK    3  A    between atoms: CG   and  CD  
REMARK    4  A    between atoms: CD   and  CE  
ROOT
ATOM      1  CA  LYS A 131      29.867  25.555  16.977  1.00 20.52     0.186 C 
ENDROOT
BRANCH   1   2
ATOM      2  CB  LYS A 131      28.345  25.722  17.026  1.00 20.94     0.034 C 
BRANCH   2   3
ATOM      3  CG  LYS A 131      27.601  24.403  16.887  1.00 22.96     0.005 C 
BRANCH   3   4
ATOM      4  CD  LYS A 131      26.275  24.423  17.596  1.00 24.33     0.041 C 
BRANCH   4   5
ATOM      5  CE  LYS A 131      26.312  25.458  18.715  1.00 26.91     0.338 C 
ATOM      6  NZ  LYS A 131      25.494  25.008  19.866  1.00 27.40     0.618 N 
ENDBRANCH   4   5
ENDBRANCH   3   4
ENDBRANCH   2   3
ENDBRANCH   1   2
END_RES LYS A 131
BEGIN_RES LYS A 135
REMARK  4 active torsions:
REMARK  status: ('A' for Active; 'I' for Inactive)
REMARK    5  A    between atoms: CA   and  CB  
REMARK    6  A    between atoms: CB   and  CG  
REMARK    7  A    between atoms: CG   and  CD  
REMARK    8  A    between atoms: CD   and  CE  
ROOT
ATOM      7  CA  LYS A 135      33.193  34.663   9.290  1.00 25.02     0.186 C 
ENDROOT
BRANCH   7   8
ATOM      8  CB  LYS A 135      32.060  35.360  10.034  1.00 26.63     0.034 C 
BRANCH   8   9
ATOM      9  CG  LYS A 135      30.716  34.710   9.831  1.00 29.45     0.005 C 
BRANCH   9  10
ATOM     10  CD  LYS A 135      30.212  34.949   8.416  1.00 32.00     0.041 C 
BRANCH  10  11
ATOM     11  CE  LYS A 135      28.764  34.516   8.286  1.00 34.25     0.338 C 
ATOM     12  NZ  LYS A 135      28.270  33.908   9.552  1.00 35.99     0.618 N 
ENDBRANCH  10  11
ENDBRANCH   9  10
ENDBRANCH   8   9
ENDBRANCH   7   8
END_RES LYS A 135
