REMARK VINA RESULT:    -5.077      6.024     10.115
REMARK INTER + INTRA:         -15.026
REMARK INTER:                  -9.874
REMARK INTRA:                  -5.151
REMARK UNBOUND:                -5.794
REMARK SMILES CC(=O)N[C@@H]1[C@@H](O)C[C@](O)(C(=O)O)O[C@H]1C(O)[C@H](O)CNC(=O)OCc1cn(Cc2cc(Br)cc(Br)c2O)nn1
REMARK SMILES IDX 21 1 22 2 23 3 20 5 18 6 16 7 15 8 9 9 8 10 14 11 6 12 5 13
REMARK SMILES IDX 10 14 11 16 12 17 13 18 7 20 4 22 2 23 1 25 3 26 17 27 19 29
REMARK SMILES IDX 24 31 25 32 26 33 27 34 40 35 28 36 39 37 29 38 30 39 31 40
REMARK SMILES IDX 37 41 32 42 35 43 33 44 34 45 36 46 38 47
REMARK H PARENT 21 4 10 15 13 19 7 21 4 24 17 28 19 30 38 48
REMARK Flexibility Score: inf
ROOT
ATOM      1  N   UNL     1      33.952  35.806  16.022  1.00  0.00    -0.319 N 
ATOM      2  C   UNL     1      32.789  34.996  15.887  1.00  0.00     0.407 C 
ATOM      3  O   UNL     1      32.101  34.748  16.904  1.00  0.00    -0.225 OA
ATOM      4  H   UNL     1      34.503  35.996  15.166  1.00  0.00     0.167 HD
ENDROOT
BRANCH   1   5
ATOM      5  C   UNL     1      34.363  36.347  17.289  1.00  0.00     0.154 C 
BRANCH   5   6
ATOM      6  C   UNL     1      35.806  36.761  17.257  1.00  0.00     0.165 C 
BRANCH   6   7
ATOM      7  C   UNL     1      36.729  35.597  16.973  1.00  0.00     0.176 C 
BRANCH   7   8
ATOM      8  C   UNL     1      37.329  35.755  15.563  1.00  0.00     0.178 C 
ATOM      9  C   UNL     1      37.559  34.014  13.997  1.00  0.00     0.269 C 
ATOM     10  C   UNL     1      38.803  34.772  13.510  1.00  0.00     0.112 C 
ATOM     11  O   UNL     1      36.796  34.798  14.796  1.00  0.00    -0.332 OA
ATOM     12  C   UNL     1      39.603  34.989  14.785  1.00  0.00     0.145 C 
ATOM     13  C   UNL     1      38.788  35.909  15.647  1.00  0.00     0.142 C 
BRANCH   9  14
ATOM     14  O   UNL     1      38.034  32.861  14.589  1.00  0.00    -0.357 OA
ATOM     15  H   UNL     1      37.487  32.060  14.400  1.00  0.00     0.214 HD
ENDBRANCH   9  14
BRANCH   9  16
ATOM     16  C   UNL     1      36.739  33.632  12.819  1.00  0.00     0.364 C 
ATOM     17  O   UNL     1      37.325  33.322  11.752  1.00  0.00    -0.246 OA
BRANCH  16  18
ATOM     18  O   UNL     1      35.349  33.604  12.857  1.00  0.00    -0.477 OA
ATOM     19  H   UNL     1      34.936  33.462  13.790  1.00  0.00     0.296 HD
ENDBRANCH  16  18
ENDBRANCH   9  16
BRANCH  12  20
ATOM     20  O   UNL     1      39.873  33.774  15.412  1.00  0.00    -0.391 OA
ATOM     21  H   UNL     1      40.428  33.244  14.804  1.00  0.00     0.211 HD
ENDBRANCH  12  20
BRANCH  13  22
ATOM     22  N   UNL     1      39.242  37.269  15.359  1.00  0.00    -0.348 N 
ATOM     23  C   UNL     1      39.387  38.267  16.354  1.00  0.00     0.217 C 
ATOM     24  H   UNL     1      39.483  37.563  14.372  1.00  0.00     0.163 HD
ATOM     25  C   UNL     1      39.853  39.645  16.014  1.00  0.00     0.114 C 
ATOM     26  O   UNL     1      39.119  37.992  17.552  1.00  0.00    -0.275 OA
ENDBRANCH  13  22
ENDBRANCH   7   8
BRANCH   7  27
ATOM     27  O   UNL     1      37.691  35.395  17.931  1.00  0.00    -0.388 OA
ATOM     28  H   UNL     1      37.745  34.461  18.224  1.00  0.00     0.211 HD
ENDBRANCH   7  27
ENDBRANCH   6   7
BRANCH   6  29
ATOM     29  O   UNL     1      36.126  37.468  18.395  1.00  0.00    -0.388 OA
ATOM     30  H   UNL     1      36.368  38.399  18.239  1.00  0.00     0.211 HD
ENDBRANCH   6  29
ENDBRANCH   5   6
ENDBRANCH   1   5
BRANCH   2  31
ATOM     31  O   UNL     1      32.421  34.492  14.664  1.00  0.00    -0.443 OA
BRANCH  31  32
ATOM     32  C   UNL     1      32.382  35.299  13.500  1.00  0.00     0.294 C 
BRANCH  32  33
ATOM     33  C   UNL     1      30.967  35.435  13.063  1.00  0.00     0.120 A 
ATOM     34  C   UNL     1      30.183  36.580  13.124  1.00  0.00     0.138 A 
ATOM     35  N   UNL     1      30.151  34.510  12.526  1.00  0.00    -0.132 NA
ATOM     36  N   UNL     1      28.963  36.309  12.637  1.00  0.00    -0.248 N 
ATOM     37  N   UNL     1      28.965  35.016  12.271  1.00  0.00    -0.067 NA
BRANCH  36  38
ATOM     38  C   UNL     1      27.844  37.200  12.511  1.00  0.00     0.185 C 
BRANCH  38  39
ATOM     39  C   UNL     1      27.298  37.256  11.131  1.00  0.00     0.018 A 
ATOM     40  C   UNL     1      26.121  36.585  10.868  1.00  0.00     0.025 A 
ATOM     41  C   UNL     1      27.906  37.942  10.106  1.00  0.00     0.134 A 
ATOM     42  C   UNL     1      25.527  36.569   9.624  1.00  0.00     0.019 A 
ATOM     43  C   UNL     1      27.325  37.942   8.834  1.00  0.00     0.061 A 
ATOM     44  Br  UNL     1      23.905  35.636   9.291  1.00  0.00    -0.051 Br
ATOM     45  C   UNL     1      26.153  37.265   8.599  1.00  0.00     0.035 A 
ATOM     46  Br  UNL     1      28.240  38.923   7.462  1.00  0.00    -0.047 Br
BRANCH  41  47
ATOM     47  O   UNL     1      29.085  38.625  10.337  1.00  0.00    -0.506 OA
ATOM     48  H   UNL     1      29.601  38.446  11.188  1.00  0.00     0.293 HD
ENDBRANCH  41  47
ENDBRANCH  38  39
ENDBRANCH  36  38
ENDBRANCH  32  33
ENDBRANCH  31  32
ENDBRANCH   2  31
TORSDOF 17
BEGIN_RES LYS A 131
REMARK  4 active torsions:
REMARK  status: ('A' for Active; 'I' for Inactive)
REMARK    1  A    between atoms: CA   and  CB  
REMARK    2  A    between atoms: CB   and  CG  
REMARK    3  A    between atoms: CG   and  CD  
REMARK    4  A    between atoms: CD   and  CE  
ROOT
ATOM      1  CA  LYS A 131      29.867  25.555  16.977  1.00 20.52     0.186 C 
ENDROOT
BRANCH   1   2
ATOM      2  CB  LYS A 131      28.345  25.722  17.026  1.00 20.94     0.034 C 
BRANCH   2   3
ATOM      3  CG  LYS A 131      27.601  24.402  16.891  1.00 22.96     0.005 C 
BRANCH   3   4
ATOM      4  CD  LYS A 131      26.619  24.188  18.009  1.00 24.33     0.041 C 
BRANCH   4   5
ATOM      5  CE  LYS A 131      25.295  24.860  17.659  1.00 26.91     0.338 C 
ATOM      6  NZ  LYS A 131      24.440  23.941  16.871  1.00 27.40     0.618 N 
ENDBRANCH   4   5
ENDBRANCH   3   4
ENDBRANCH   2   3
ENDBRANCH   1   2
END_RES LYS A 131
BEGIN_RES LYS A 135
REMARK  4 active torsions:
REMARK  status: ('A' for Active; 'I' for Inactive)
REMARK    5  A    between atoms: CA   and  CB  
REMARK    6  A    between atoms: CB   and  CG  
REMARK    7  A    between atoms: CG   and  CD  
REMARK    8  A    between atoms: CD   and  CE  
ROOT
ATOM      7  CA  LYS A 135      33.193  34.663   9.290  1.00 25.02     0.186 C 
ENDROOT
BRANCH   7   8
ATOM      8  CB  LYS A 135      32.060  35.360  10.034  1.00 26.63     0.034 C 
BRANCH   8   9
ATOM      9  CG  LYS A 135      30.842  35.606   9.182  1.00 29.45     0.005 C 
BRANCH   9  10
ATOM     10  CD  LYS A 135      30.151  34.295   8.842  1.00 32.00     0.041 C 
BRANCH  10  11
ATOM     11  CE  LYS A 135      28.749  34.550   8.322  1.00 34.25     0.338 C 
ATOM     12  NZ  LYS A 135      28.783  35.267   7.017  1.00 35.99     0.618 N 
ENDBRANCH  10  11
ENDBRANCH   9  10
ENDBRANCH   8   9
ENDBRANCH   7   8
END_RES LYS A 135
