REMARK VINA RESULT:    -5.656      3.097      6.888
REMARK INTER + INTRA:         -15.940
REMARK INTER:                  -8.712
REMARK INTRA:                  -7.228
REMARK UNBOUND:                -5.490
REMARK SMILES CC(=O)N[C@@H]1[C@@H](O)C[C@](O)(C(=O)O)O[C@H]1C(O)[C@H](O)CNC(=O)OCc1cn(C(c2ccccc2)c2ccccc2)nn1
REMARK SMILES IDX 21 1 22 2 23 3 20 5 18 6 16 7 15 8 9 9 8 10 14 11 6 12 5 13
REMARK SMILES IDX 10 14 11 16 12 17 13 18 7 20 4 22 2 23 1 25 3 26 17 27 19 29
REMARK SMILES IDX 24 31 25 32 26 33 27 34 43 35 28 36 42 37 29 38 30 39 31 40
REMARK SMILES IDX 35 41 32 42 34 43 33 44 36 45 37 46 41 47 38 48 40 49 39 50
REMARK H PARENT 21 4 10 15 13 19 7 21 4 24 17 28 19 30
REMARK Flexibility Score: inf
ROOT
ATOM      1  N   UNL     1      28.105  30.578  19.505  1.00  0.00    -0.319 N 
ATOM      2  C   UNL     1      26.694  30.586  19.508  1.00  0.00     0.407 C 
ATOM      3  O   UNL     1      26.069  31.672  19.564  1.00  0.00    -0.225 OA
ATOM      4  H   UNL     1      28.593  29.661  19.461  1.00  0.00     0.167 HD
ENDROOT
BRANCH   1   5
ATOM      5  C   UNL     1      28.862  31.789  19.559  1.00  0.00     0.154 C 
BRANCH   5   6
ATOM      6  C   UNL     1      30.001  31.704  18.542  1.00  0.00     0.165 C 
BRANCH   6   7
ATOM      7  C   UNL     1      29.516  32.474  17.324  1.00  0.00     0.176 C 
BRANCH   7   8
ATOM      8  C   UNL     1      30.172  33.811  17.122  1.00  0.00     0.178 C 
ATOM      9  C   UNL     1      29.518  34.272  14.907  1.00  0.00     0.269 C 
ATOM     10  C   UNL     1      30.930  34.050  14.412  1.00  0.00     0.112 C 
ATOM     11  O   UNL     1      29.384  34.514  16.232  1.00  0.00    -0.332 OA
ATOM     12  C   UNL     1      31.736  33.170  15.320  1.00  0.00     0.145 C 
ATOM     13  C   UNL     1      31.588  33.706  16.713  1.00  0.00     0.142 C 
BRANCH   9  14
ATOM     14  O   UNL     1      28.826  33.099  14.599  1.00  0.00    -0.357 OA
ATOM     15  H   UNL     1      29.321  32.352  15.040  1.00  0.00     0.214 HD
ENDBRANCH   9  14
BRANCH   9  16
ATOM     16  C   UNL     1      28.895  35.364  14.075  1.00  0.00     0.364 C 
ATOM     17  O   UNL     1      28.637  35.199  12.879  1.00  0.00    -0.246 OA
BRANCH  16  18
ATOM     18  O   UNL     1      28.614  36.565  14.684  1.00  0.00    -0.477 OA
ATOM     19  H   UNL     1      28.223  36.562  15.634  1.00  0.00     0.296 HD
ENDBRANCH  16  18
ENDBRANCH   9  16
BRANCH  12  20
ATOM     20  O   UNL     1      31.320  31.880  15.157  1.00  0.00    -0.391 OA
ATOM     21  H   UNL     1      30.732  31.587  15.906  1.00  0.00     0.211 HD
ENDBRANCH  12  20
BRANCH  13  22
ATOM     22  N   UNL     1      32.245  35.028  16.733  1.00  0.00    -0.348 N 
ATOM     23  C   UNL     1      32.834  35.554  17.895  1.00  0.00     0.217 C 
ATOM     24  H   UNL     1      32.262  35.577  15.847  1.00  0.00     0.163 HD
ATOM     25  C   UNL     1      33.485  36.890  17.872  1.00  0.00     0.114 C 
ATOM     26  O   UNL     1      32.818  34.900  18.973  1.00  0.00    -0.275 OA
ENDBRANCH  13  22
ENDBRANCH   7   8
BRANCH   7  27
ATOM     27  O   UNL     1      28.120  32.718  17.595  1.00  0.00    -0.388 OA
ATOM     28  H   UNL     1      27.725  31.971  18.071  1.00  0.00     0.211 HD
ENDBRANCH   7  27
ENDBRANCH   6   7
BRANCH   6  29
ATOM     29  O   UNL     1      30.159  30.351  18.284  1.00  0.00    -0.388 OA
ATOM     30  H   UNL     1      31.083  30.099  18.091  1.00  0.00     0.211 HD
ENDBRANCH   6  29
ENDBRANCH   5   6
ENDBRANCH   1   5
BRANCH   2  31
ATOM     31  O   UNL     1      25.954  29.411  19.451  1.00  0.00    -0.443 OA
BRANCH  31  32
ATOM     32  C   UNL     1      26.123  28.557  18.353  1.00  0.00     0.294 C 
BRANCH  32  33
ATOM     33  C   UNL     1      26.354  29.375  17.135  1.00  0.00     0.120 A 
ATOM     34  C   UNL     1      25.351  29.905  16.319  1.00  0.00     0.139 A 
ATOM     35  N   UNL     1      27.499  29.777  16.557  1.00  0.00    -0.132 NA
ATOM     36  N   UNL     1      25.920  30.580  15.317  1.00  0.00    -0.240 N 
ATOM     37  N   UNL     1      27.214  30.493  15.475  1.00  0.00    -0.066 NA
BRANCH  36  38
ATOM     38  C   UNL     1      25.262  31.292  14.231  1.00  0.00     0.169 C 
BRANCH  38  39
ATOM     39  C   UNL     1      23.987  30.670  13.872  1.00  0.00    -0.019 A 
ATOM     40  C   UNL     1      22.781  31.043  14.476  1.00  0.00     0.006 A 
ATOM     41  C   UNL     1      23.947  29.694  12.896  1.00  0.00     0.006 A 
ATOM     42  C   UNL     1      21.593  30.452  14.106  1.00  0.00     0.000 A 
ATOM     43  C   UNL     1      22.743  29.117  12.543  1.00  0.00     0.000 A 
ATOM     44  C   UNL     1      21.547  29.475  13.131  1.00  0.00     0.000 A 
ENDBRANCH  38  39
BRANCH  38  45
ATOM     45  C   UNL     1      25.248  32.746  14.409  1.00  0.00    -0.019 A 
ATOM     46  C   UNL     1      25.319  33.307  15.697  1.00  0.00     0.006 A 
ATOM     47  C   UNL     1      25.172  33.585  13.324  1.00  0.00     0.006 A 
ATOM     48  C   UNL     1      25.314  34.667  15.869  1.00  0.00     0.000 A 
ATOM     49  C   UNL     1      25.167  34.972  13.512  1.00  0.00     0.000 A 
ATOM     50  C   UNL     1      25.238  35.504  14.778  1.00  0.00     0.000 A 
ENDBRANCH  38  45
ENDBRANCH  36  38
ENDBRANCH  32  33
ENDBRANCH  31  32
ENDBRANCH   2  31
TORSDOF 17
BEGIN_RES LYS A 131
REMARK  4 active torsions:
REMARK  status: ('A' for Active; 'I' for Inactive)
REMARK    1  A    between atoms: CA   and  CB  
REMARK    2  A    between atoms: CB   and  CG  
REMARK    3  A    between atoms: CG   and  CD  
REMARK    4  A    between atoms: CD   and  CE  
ROOT
ATOM      1  CA  LYS A 131      29.867  25.555  16.977  1.00 20.52     0.186 C 
ENDROOT
BRANCH   1   2
ATOM      2  CB  LYS A 131      28.345  25.722  17.026  1.00 20.94     0.034 C 
BRANCH   2   3
ATOM      3  CG  LYS A 131      27.601  24.403  16.888  1.00 22.96     0.005 C 
BRANCH   3   4
ATOM      4  CD  LYS A 131      26.152  24.527  17.268  1.00 24.33     0.041 C 
BRANCH   4   5
ATOM      5  CE  LYS A 131      26.041  24.809  18.763  1.00 26.91     0.338 C 
ATOM      6  NZ  LYS A 131      24.656  25.204  19.115  1.00 27.40     0.618 N 
ENDBRANCH   4   5
ENDBRANCH   3   4
ENDBRANCH   2   3
ENDBRANCH   1   2
END_RES LYS A 131
BEGIN_RES LYS A 135
REMARK  4 active torsions:
REMARK  status: ('A' for Active; 'I' for Inactive)
REMARK    5  A    between atoms: CA   and  CB  
REMARK    6  A    between atoms: CB   and  CG  
REMARK    7  A    between atoms: CG   and  CD  
REMARK    8  A    between atoms: CD   and  CE  
ROOT
ATOM      7  CA  LYS A 135      33.193  34.663   9.290  1.00 25.02     0.186 C 
ENDROOT
BRANCH   7   8
ATOM      8  CB  LYS A 135      32.060  35.360  10.034  1.00 26.63     0.034 C 
BRANCH   8   9
ATOM      9  CG  LYS A 135      30.802  35.504   9.217  1.00 29.45     0.005 C 
BRANCH   9  10
ATOM     10  CD  LYS A 135      30.141  34.151   9.006  1.00 32.00     0.041 C 
BRANCH  10  11
ATOM     11  CE  LYS A 135      28.676  34.322   8.653  1.00 34.25     0.338 C 
ATOM     12  NZ  LYS A 135      27.800  33.688   9.676  1.00 35.99     0.618 N 
ENDBRANCH  10  11
ENDBRANCH   9  10
ENDBRANCH   8   9
ENDBRANCH   7   8
END_RES LYS A 135
