REMARK VINA RESULT:    -5.095      3.735      8.114
REMARK INTER + INTRA:         -16.929
REMARK INTER:                 -12.392
REMARK INTRA:                  -4.537
REMARK UNBOUND:                -6.771
REMARK SMILES CC(=O)N[C@@H]1[C@@H](O)C[C@](O)(C(=O)O)O[C@H]1C(O)[C@H](O)CNC(=O)OCc1cn(CC(O)CCc2ccccc2)nn1
REMARK SMILES IDX 24 1 22 2 21 3 23 5 20 6 18 7 16 8 15 9 9 10 8 11 14 12 6 13
REMARK SMILES IDX 5 14 10 15 11 17 12 18 13 19 7 21 4 23 2 24 1 26 3 27 17 28
REMARK SMILES IDX 19 30 25 32 26 33 27 34 41 35 28 36 40 37 29 38 30 39 31 40
REMARK SMILES IDX 32 42 33 43 34 44 35 45 39 46 36 47 38 48 37 49
REMARK H PARENT 21 4 10 16 13 20 7 22 4 25 17 29 19 31 31 41
REMARK Flexibility Score: inf
ROOT
ATOM      1  O   UNL     1      27.963  36.595  11.698  1.00  0.00    -0.443 OA
ENDROOT
BRANCH   1   2
ATOM      2  C   UNL     1      27.228  35.968  12.689  1.00  0.00     0.407 C 
ATOM      3  N   UNL     1      27.247  36.449  14.014  1.00  0.00    -0.319 N 
ATOM      4  H   UNL     1      27.820  37.283  14.241  1.00  0.00     0.167 HD
ATOM      5  O   UNL     1      26.537  34.961  12.413  1.00  0.00    -0.225 OA
BRANCH   3   6
ATOM      6  C   UNL     1      26.487  35.821  15.085  1.00  0.00     0.154 C 
BRANCH   6   7
ATOM      7  C   UNL     1      27.410  35.326  16.184  1.00  0.00     0.165 C 
BRANCH   7   8
ATOM      8  C   UNL     1      28.212  34.157  15.636  1.00  0.00     0.176 C 
BRANCH   8   9
ATOM      9  C   UNL     1      28.664  33.244  16.779  1.00  0.00     0.178 C 
ATOM     10  C   UNL     1      30.602  34.080  17.777  1.00  0.00     0.269 C 
ATOM     11  C   UNL     1      31.346  33.479  16.637  1.00  0.00     0.112 C 
ATOM     12  O   UNL     1      29.265  33.897  17.795  1.00  0.00    -0.332 OA
ATOM     13  C   UNL     1      30.863  32.129  16.243  1.00  0.00     0.145 C 
ATOM     14  C   UNL     1      29.361  32.045  16.215  1.00  0.00     0.142 C 
BRANCH  10  15
ATOM     15  O   UNL     1      30.851  35.474  17.743  1.00  0.00    -0.357 OA
ATOM     16  H   UNL     1      31.175  35.726  16.841  1.00  0.00     0.214 HD
ENDBRANCH  10  15
BRANCH  10  17
ATOM     17  C   UNL     1      31.243  33.589  19.049  1.00  0.00     0.364 C 
ATOM     18  O   UNL     1      32.284  34.098  19.527  1.00  0.00    -0.246 OA
BRANCH  17  19
ATOM     19  O   UNL     1      30.695  32.522  19.767  1.00  0.00    -0.477 OA
ATOM     20  H   UNL     1      31.311  31.850  20.245  1.00  0.00     0.296 HD
ENDBRANCH  17  19
ENDBRANCH  10  17
BRANCH  13  21
ATOM     21  O   UNL     1      31.427  31.802  14.987  1.00  0.00    -0.391 OA
ATOM     22  H   UNL     1      31.829  30.883  15.015  1.00  0.00     0.211 HD
ENDBRANCH  13  21
BRANCH  14  23
ATOM     23  N   UNL     1      28.883  30.822  16.864  1.00  0.00    -0.348 N 
ATOM     24  C   UNL     1      27.739  30.147  16.416  1.00  0.00     0.217 C 
ATOM     25  H   UNL     1      29.453  30.479  17.693  1.00  0.00     0.163 HD
ATOM     26  C   UNL     1      27.296  28.921  17.103  1.00  0.00     0.114 C 
ATOM     27  O   UNL     1      27.091  30.574  15.442  1.00  0.00    -0.275 OA
ENDBRANCH  14  23
ENDBRANCH   8   9
BRANCH   8  28
ATOM     28  O   UNL     1      27.291  33.386  14.905  1.00  0.00    -0.388 OA
ATOM     29  H   UNL     1      27.435  33.481  13.915  1.00  0.00     0.211 HD
ENDBRANCH   8  28
ENDBRANCH   7   8
BRANCH   7  30
ATOM     30  O   UNL     1      26.666  34.921  17.285  1.00  0.00    -0.388 OA
ATOM     31  H   UNL     1      25.937  34.346  16.951  1.00  0.00     0.211 HD
ENDBRANCH   7  30
ENDBRANCH   6   7
ENDBRANCH   3   6
ENDBRANCH   1   2
BRANCH   1  32
ATOM     32  C   UNL     1      27.666  37.984  11.476  1.00  0.00     0.294 C 
BRANCH  32  33
ATOM     33  C   UNL     1      27.863  38.324  10.050  1.00  0.00     0.120 A 
ATOM     34  C   UNL     1      26.928  38.494   9.056  1.00  0.00     0.138 A 
ATOM     35  N   UNL     1      29.062  38.532   9.478  1.00  0.00    -0.132 NA
ATOM     36  N   UNL     1      27.573  38.798   7.921  1.00  0.00    -0.250 N 
ATOM     37  N   UNL     1      28.840  38.817   8.188  1.00  0.00    -0.067 NA
BRANCH  36  38
ATOM     38  C   UNL     1      26.984  39.067   6.590  1.00  0.00     0.177 C 
BRANCH  38  39
ATOM     39  C   UNL     1      27.642  38.161   5.596  1.00  0.00     0.136 C 
BRANCH  39  40
ATOM     40  O   UNL     1      27.496  38.631   4.283  1.00  0.00    -0.391 OA
ATOM     41  H   UNL     1      27.896  39.547   4.253  1.00  0.00     0.211 HD
ENDBRANCH  39  40
BRANCH  39  42
ATOM     42  C   UNL     1      27.545  36.737   5.816  1.00  0.00     0.038 C 
BRANCH  42  43
ATOM     43  C   UNL     1      28.761  35.954   6.066  1.00  0.00     0.038 C 
BRANCH  43  44
ATOM     44  C   UNL     1      28.771  35.193   7.305  1.00  0.00    -0.048 A 
ATOM     45  C   UNL     1      27.544  34.919   7.921  1.00  0.00     0.004 A 
ATOM     46  C   UNL     1      29.881  34.772   7.969  1.00  0.00     0.004 A 
ATOM     47  C   UNL     1      27.485  34.263   9.128  1.00  0.00     0.000 A 
ATOM     48  C   UNL     1      29.843  34.110   9.184  1.00  0.00     0.000 A 
ATOM     49  C   UNL     1      28.625  33.849   9.777  1.00  0.00     0.000 A 
ENDBRANCH  43  44
ENDBRANCH  42  43
ENDBRANCH  39  42
ENDBRANCH  38  39
ENDBRANCH  36  38
ENDBRANCH  32  33
ENDBRANCH   1  32
TORSDOF 20
BEGIN_RES LYS A 131
REMARK  4 active torsions:
REMARK  status: ('A' for Active; 'I' for Inactive)
REMARK    1  A    between atoms: CA   and  CB  
REMARK    2  A    between atoms: CB   and  CG  
REMARK    3  A    between atoms: CG   and  CD  
REMARK    4  A    between atoms: CD   and  CE  
ROOT
ATOM      1  CA  LYS A 131      29.867  25.555  16.977  1.00 20.52     0.186 C 
ENDROOT
BRANCH   1   2
ATOM      2  CB  LYS A 131      28.345  25.722  17.026  1.00 20.94     0.034 C 
BRANCH   2   3
ATOM      3  CG  LYS A 131      27.601  24.401  16.904  1.00 22.96     0.005 C 
BRANCH   3   4
ATOM      4  CD  LYS A 131      26.153  24.528  17.288  1.00 24.33     0.041 C 
BRANCH   4   5
ATOM      5  CE  LYS A 131      25.967  24.068  18.730  1.00 26.91     0.338 C 
ATOM      6  NZ  LYS A 131      25.556  25.204  19.588  1.00 27.40     0.618 N 
ENDBRANCH   4   5
ENDBRANCH   3   4
ENDBRANCH   2   3
ENDBRANCH   1   2
END_RES LYS A 131
BEGIN_RES LYS A 135
REMARK  4 active torsions:
REMARK  status: ('A' for Active; 'I' for Inactive)
REMARK    5  A    between atoms: CA   and  CB  
REMARK    6  A    between atoms: CB   and  CG  
REMARK    7  A    between atoms: CG   and  CD  
REMARK    8  A    between atoms: CD   and  CE  
ROOT
ATOM      7  CA  LYS A 135      33.193  34.663   9.290  1.00 25.02     0.186 C 
ENDROOT
BRANCH   7   8
ATOM      8  CB  LYS A 135      32.060  35.360  10.034  1.00 26.63     0.034 C 
BRANCH   8   9
ATOM      9  CG  LYS A 135      32.466  35.898  11.382  1.00 29.45     0.005 C 
BRANCH   9  10
ATOM     10  CD  LYS A 135      31.316  35.790  12.371  1.00 32.00     0.041 C 
BRANCH  10  11
ATOM     11  CE  LYS A 135      31.221  37.045  13.217  1.00 34.25     0.338 C 
ATOM     12  NZ  LYS A 135      31.220  38.267  12.366  1.00 35.99     0.618 N 
ENDBRANCH  10  11
ENDBRANCH   9  10
ENDBRANCH   8   9
ENDBRANCH   7   8
END_RES LYS A 135
