REMARK VINA RESULT:    -4.287      4.913     10.758
REMARK INTER + INTRA:         -14.779
REMARK INTER:                  -9.391
REMARK INTRA:                  -5.388
REMARK UNBOUND:                -7.109
REMARK SMILES CC(=O)N[C@@H]1[C@@H](O)C[C@](O)(C(=O)O)O[C@H]1C(O)[C@H](O)CNC(=O)OCc1cn(-c2ncn3c2c(=O)n(C(C)C)c2ccccc23)nn1
REMARK SMILES IDX 21 1 22 2 23 3 20 5 18 6 16 7 15 8 9 9 8 10 14 11 6 12 5 13
REMARK SMILES IDX 10 14 11 16 12 17 13 18 7 20 4 22 2 23 1 25 3 26 17 27 19 29
REMARK SMILES IDX 24 31 25 32 26 33 27 34 47 35 28 36 46 37 29 38 30 39 33 40
REMARK SMILES IDX 31 41 32 42 34 43 45 44 36 45 35 46 44 47 40 48 43 49 41 50
REMARK SMILES IDX 42 51 37 52 38 53 39 54
REMARK H PARENT 21 4 10 15 13 19 7 21 4 24 17 28 19 30
REMARK Flexibility Score: inf
ROOT
ATOM      1  N   UNL     1      20.926  34.296  11.413  1.00  0.00    -0.319 N 
ATOM      2  C   UNL     1      20.603  33.231  12.255  1.00  0.00     0.407 C 
ATOM      3  O   UNL     1      19.537  32.616  12.209  1.00  0.00    -0.225 OA
ATOM      4  H   UNL     1      21.925  34.722  11.552  1.00  0.00     0.167 HD
ENDROOT
BRANCH   1   5
ATOM      5  C   UNL     1      20.103  34.867  10.417  1.00  0.00     0.154 C 
BRANCH   5   6
ATOM      6  C   UNL     1      20.626  36.041   9.716  1.00  0.00     0.165 C 
BRANCH   6   7
ATOM      7  C   UNL     1      21.931  36.057   9.032  1.00  0.00     0.176 C 
BRANCH   7   8
ATOM      8  C   UNL     1      22.751  37.190   9.716  1.00  0.00     0.178 C 
ATOM      9  C   UNL     1      23.676  38.402   7.929  1.00  0.00     0.269 C 
ATOM     10  C   UNL     1      25.049  38.123   8.442  1.00  0.00     0.112 C 
ATOM     11  O   UNL     1      22.744  38.261   8.905  1.00  0.00    -0.332 OA
ATOM     12  C   UNL     1      25.175  36.832   9.211  1.00  0.00     0.145 C 
ATOM     13  C   UNL     1      24.051  36.673  10.211  1.00  0.00     0.142 C 
BRANCH   9  14
ATOM     14  O   UNL     1      23.360  37.500   6.881  1.00  0.00    -0.357 OA
ATOM     15  H   UNL     1      23.710  37.934   6.057  1.00  0.00     0.214 HD
ENDBRANCH   9  14
BRANCH   9  16
ATOM     16  C   UNL     1      23.709  39.795   7.371  1.00  0.00     0.364 C 
ATOM     17  O   UNL     1      24.797  40.315   7.088  1.00  0.00    -0.246 OA
BRANCH  16  18
ATOM     18  O   UNL     1      22.537  40.485   7.175  1.00  0.00    -0.477 OA
ATOM     19  H   UNL     1      22.533  41.375   6.669  1.00  0.00     0.296 HD
ENDBRANCH  16  18
ENDBRANCH   9  16
BRANCH  12  20
ATOM     20  O   UNL     1      25.243  35.716   8.376  1.00  0.00    -0.391 OA
ATOM     21  H   UNL     1      25.599  35.987   7.495  1.00  0.00     0.211 HD
ENDBRANCH  12  20
BRANCH  13  22
ATOM     22  N   UNL     1      24.478  37.355  11.440  1.00  0.00    -0.348 N 
ATOM     23  C   UNL     1      23.814  37.186  12.672  1.00  0.00     0.217 C 
ATOM     24  H   UNL     1      25.312  38.007  11.432  1.00  0.00     0.163 HD
ATOM     25  C   UNL     1      24.250  37.878  13.913  1.00  0.00     0.114 C 
ATOM     26  O   UNL     1      22.807  36.419  12.748  1.00  0.00    -0.275 OA
ENDBRANCH  13  22
ENDBRANCH   7   8
BRANCH   7  27
ATOM     27  O   UNL     1      22.666  34.873   9.123  1.00  0.00    -0.388 OA
ATOM     28  H   UNL     1      22.688  34.407   8.230  1.00  0.00     0.211 HD
ENDBRANCH   7  27
ENDBRANCH   6   7
BRANCH   6  29
ATOM     29  O   UNL     1      20.601  37.112  10.689  1.00  0.00    -0.388 OA
ATOM     30  H   UNL     1      21.252  37.797  10.459  1.00  0.00     0.211 HD
ENDBRANCH   6  29
ENDBRANCH   5   6
ENDBRANCH   1   5
BRANCH   2  31
ATOM     31  O   UNL     1      21.514  32.789  13.240  1.00  0.00    -0.443 OA
BRANCH  31  32
ATOM     32  C   UNL     1      22.778  32.294  12.904  1.00  0.00     0.294 C 
BRANCH  32  33
ATOM     33  C   UNL     1      23.828  33.156  13.503  1.00  0.00     0.121 A 
ATOM     34  C   UNL     1      25.056  33.494  12.941  1.00  0.00     0.146 A 
ATOM     35  N   UNL     1      23.820  33.788  14.691  1.00  0.00    -0.131 NA
ATOM     36  N   UNL     1      25.748  34.307  13.788  1.00  0.00    -0.200 N 
ATOM     37  N   UNL     1      24.955  34.447  14.819  1.00  0.00    -0.060 NA
BRANCH  36  38
ATOM     38  C   UNL     1      27.041  34.830  13.497  1.00  0.00     0.186 A 
ATOM     39  N   UNL     1      27.315  35.816  12.593  1.00  0.00    -0.216 NA
ATOM     40  C   UNL     1      28.252  34.481  14.034  1.00  0.00     0.158 A 
ATOM     41  C   UNL     1      28.635  36.044  12.593  1.00  0.00     0.207 A 
ATOM     42  N   UNL     1      29.249  35.233  13.474  1.00  0.00    -0.291 N 
ATOM     43  C   UNL     1      28.611  33.568  14.975  1.00  0.00     0.279 A 
ATOM     44  C   UNL     1      30.540  35.090  13.828  1.00  0.00     0.071 A 
ATOM     45  N   UNL     1      29.874  33.392  15.355  1.00  0.00    -0.302 N 
ATOM     46  O   UNL     1      27.750  32.840  15.532  1.00  0.00    -0.267 OA
ATOM     47  C   UNL     1      31.518  35.866  13.242  1.00  0.00     0.029 A 
ATOM     48  C   UNL     1      30.840  34.146  14.789  1.00  0.00     0.068 A 
ATOM     49  C   UNL     1      32.854  35.740  13.586  1.00  0.00     0.002 A 
ATOM     50  C   UNL     1      32.184  34.038  15.115  1.00  0.00     0.028 A 
ATOM     51  C   UNL     1      33.173  34.809  14.537  1.00  0.00     0.002 A 
BRANCH  45  52
ATOM     52  C   UNL     1      30.321  32.443  16.349  1.00  0.00     0.085 C 
ATOM     53  C   UNL     1      29.780  31.087  15.946  1.00  0.00     0.031 C 
ATOM     54  C   UNL     1      29.849  32.726  17.740  1.00  0.00     0.031 C 
ENDBRANCH  45  52
ENDBRANCH  36  38
ENDBRANCH  32  33
ENDBRANCH  31  32
ENDBRANCH   2  31
TORSDOF 16
BEGIN_RES LYS A 131
REMARK  4 active torsions:
REMARK  status: ('A' for Active; 'I' for Inactive)
REMARK    1  A    between atoms: CA   and  CB  
REMARK    2  A    between atoms: CB   and  CG  
REMARK    3  A    between atoms: CG   and  CD  
REMARK    4  A    between atoms: CD   and  CE  
ROOT
ATOM      1  CA  LYS A 131      29.867  25.555  16.977  1.00 20.52     0.186 C 
ENDROOT
BRANCH   1   2
ATOM      2  CB  LYS A 131      28.345  25.722  17.026  1.00 20.94     0.034 C 
BRANCH   2   3
ATOM      3  CG  LYS A 131      27.602  24.400  16.914  1.00 22.96     0.005 C 
BRANCH   3   4
ATOM      4  CD  LYS A 131      26.435  24.324  17.859  1.00 24.33     0.041 C 
BRANCH   4   5
ATOM      5  CE  LYS A 131      26.044  25.732  18.299  1.00 26.91     0.338 C 
ATOM      6  NZ  LYS A 131      25.904  25.795  19.773  1.00 27.40     0.618 N 
ENDBRANCH   4   5
ENDBRANCH   3   4
ENDBRANCH   2   3
ENDBRANCH   1   2
END_RES LYS A 131
BEGIN_RES LYS A 135
REMARK  4 active torsions:
REMARK  status: ('A' for Active; 'I' for Inactive)
REMARK    5  A    between atoms: CA   and  CB  
REMARK    6  A    between atoms: CB   and  CG  
REMARK    7  A    between atoms: CG   and  CD  
REMARK    8  A    between atoms: CD   and  CE  
ROOT
ATOM      7  CA  LYS A 135      33.193  34.663   9.290  1.00 25.02     0.186 C 
ENDROOT
BRANCH   7   8
ATOM      8  CB  LYS A 135      32.060  35.360  10.034  1.00 26.63     0.034 C 
BRANCH   8   9
ATOM      9  CG  LYS A 135      30.734  34.654   9.911  1.00 29.45     0.005 C 
BRANCH   9  10
ATOM     10  CD  LYS A 135      29.756  35.488   9.098  1.00 32.00     0.041 C 
BRANCH  10  11
ATOM     11  CE  LYS A 135      29.657  34.961   7.679  1.00 34.25     0.338 C 
ATOM     12  NZ  LYS A 135      28.324  35.261   7.087  1.00 35.99     0.618 N 
ENDBRANCH  10  11
ENDBRANCH   9  10
ENDBRANCH   8   9
ENDBRANCH   7   8
END_RES LYS A 135
