REMARK VINA RESULT:    -4.891      2.740      4.643
REMARK INTER + INTRA:         -14.994
REMARK INTER:                  -9.017
REMARK INTRA:                  -5.977
REMARK UNBOUND:                -5.671
REMARK SMILES CCOC(=O)c1cccc(-n2cc(COC(=O)NC[C@@H](O)C(O)[C@@H]3O[C@@](O)(C(=O)O)C[C@H](O)[C@H]3NC(C)=O)nn2)c1
REMARK SMILES IDX 18 1 16 2 17 3 19 5 20 6 22 7 24 8 26 9 31 10 25 11 32 12
REMARK SMILES IDX 34 13 27 14 28 16 29 17 30 18 33 20 35 22 36 23 37 25 38 26
REMARK SMILES IDX 23 27 21 29 15 31 14 32 13 33 12 34 39 35 11 36 40 37 10 38
REMARK SMILES IDX 41 39 9 40 6 41 8 42 7 43 4 44 5 45 3 46 2 47 1 48
REMARK H PARENT 18 4 27 15 30 19 33 21 35 24 23 28 21 30
REMARK Flexibility Score: inf
ROOT
ATOM      1  N   UNL     1      29.690  27.014  20.299  1.00  0.00    -0.319 N 
ATOM      2  C   UNL     1      28.346  27.443  20.468  1.00  0.00     0.407 C 
ATOM      3  O   UNL     1      27.968  27.785  21.616  1.00  0.00    -0.225 OA
ATOM      4  H   UNL     1      29.982  26.735  19.341  1.00  0.00     0.167 HD
ENDROOT
BRANCH   1   5
ATOM      5  C   UNL     1      30.615  26.964  21.413  1.00  0.00     0.154 C 
BRANCH   5   6
ATOM      6  C   UNL     1      31.539  28.135  21.454  1.00  0.00     0.165 C 
BRANCH   6   7
ATOM      7  C   UNL     1      31.068  29.242  22.342  1.00  0.00     0.176 C 
BRANCH   7   8
ATOM      8  C   UNL     1      32.275  30.054  22.880  1.00  0.00     0.178 C 
ATOM      9  C   UNL     1      33.664  31.758  22.345  1.00  0.00     0.269 C 
ATOM     10  C   UNL     1      34.897  30.883  22.319  1.00  0.00     0.112 C 
ATOM     11  O   UNL     1      32.586  31.023  21.963  1.00  0.00    -0.332 OA
ATOM     12  C   UNL     1      34.763  29.672  23.191  1.00  0.00     0.145 C 
ATOM     13  C   UNL     1      33.367  29.121  23.253  1.00  0.00     0.142 C 
BRANCH   9  14
ATOM     14  O   UNL     1      33.881  32.720  21.318  1.00  0.00    -0.357 OA
ATOM     15  H   UNL     1      33.323  32.555  20.537  1.00  0.00     0.214 HD
ENDBRANCH   9  14
BRANCH   9  16
ATOM     16  C   UNL     1      33.556  32.481  23.619  1.00  0.00     0.364 C 
ATOM     17  O   UNL     1      32.494  33.083  23.994  1.00  0.00    -0.246 OA
BRANCH  16  18
ATOM     18  O   UNL     1      34.682  32.510  24.464  1.00  0.00    -0.477 OA
ATOM     19  H   UNL     1      35.091  33.431  24.668  1.00  0.00     0.296 HD
ENDBRANCH  16  18
ENDBRANCH   9  16
BRANCH  12  20
ATOM     20  O   UNL     1      35.675  28.709  22.762  1.00  0.00    -0.391 OA
ATOM     21  H   UNL     1      36.493  28.682  23.320  1.00  0.00     0.211 HD
ENDBRANCH  12  20
BRANCH  13  22
ATOM     22  N   UNL     1      33.082  28.534  24.550  1.00  0.00    -0.348 N 
ATOM     23  C   UNL     1      33.414  27.187  24.854  1.00  0.00     0.217 C 
ATOM     24  H   UNL     1      32.610  29.146  25.280  1.00  0.00     0.163 HD
ATOM     25  C   UNL     1      33.089  26.655  26.203  1.00  0.00     0.114 C 
ATOM     26  O   UNL     1      33.984  26.436  23.990  1.00  0.00    -0.275 OA
ENDBRANCH  13  22
ENDBRANCH   7   8
BRANCH   7  27
ATOM     27  O   UNL     1      30.197  30.128  21.759  1.00  0.00    -0.388 OA
ATOM     28  H   UNL     1      29.662  30.659  22.376  1.00  0.00     0.211 HD
ENDBRANCH   7  27
ENDBRANCH   6   7
BRANCH   6  29
ATOM     29  O   UNL     1      31.865  28.559  20.169  1.00  0.00    -0.388 OA
ATOM     30  H   UNL     1      31.022  28.866  19.739  1.00  0.00     0.211 HD
ENDBRANCH   6  29
ENDBRANCH   5   6
ENDBRANCH   1   5
BRANCH   2  31
ATOM     31  O   UNL     1      27.424  27.507  19.439  1.00  0.00    -0.443 OA
BRANCH  31  32
ATOM     32  C   UNL     1      26.782  28.716  19.080  1.00  0.00     0.294 C 
BRANCH  32  33
ATOM     33  C   UNL     1      27.576  29.446  18.073  1.00  0.00     0.121 A 
ATOM     34  C   UNL     1      28.530  30.430  18.269  1.00  0.00     0.144 A 
ATOM     35  N   UNL     1      27.522  29.289  16.733  1.00  0.00    -0.131 NA
ATOM     36  N   UNL     1      29.011  30.828  17.072  1.00  0.00    -0.220 N 
ATOM     37  N   UNL     1      28.365  30.102  16.156  1.00  0.00    -0.062 NA
BRANCH  36  38
ATOM     38  C   UNL     1      29.991  31.804  16.787  1.00  0.00     0.067 A 
ATOM     39  C   UNL     1      30.393  32.723  17.738  1.00  0.00     0.044 A 
ATOM     40  C   UNL     1      30.586  31.877  15.547  1.00  0.00     0.028 A 
ATOM     41  C   UNL     1      31.348  33.693  17.500  1.00  0.00     0.062 A 
ATOM     42  C   UNL     1      31.552  32.842  15.277  1.00  0.00     0.003 A 
ATOM     43  C   UNL     1      31.921  33.736  16.250  1.00  0.00     0.016 A 
BRANCH  41  44
ATOM     44  C   UNL     1      31.754  34.649  18.523  1.00  0.00     0.338 C 
ATOM     45  O   UNL     1      32.382  34.243  19.531  1.00  0.00    -0.246 OA
BRANCH  44  46
ATOM     46  O   UNL     1      31.475  36.003  18.431  1.00  0.00    -0.462 OA
BRANCH  46  47
ATOM     47  C   UNL     1      30.353  36.595  19.057  1.00  0.00     0.230 C 
ATOM     48  C   UNL     1      29.306  36.860  18.014  1.00  0.00     0.049 C 
ENDBRANCH  46  47
ENDBRANCH  44  46
ENDBRANCH  41  44
ENDBRANCH  36  38
ENDBRANCH  32  33
ENDBRANCH  31  32
ENDBRANCH   2  31
TORSDOF 18
BEGIN_RES LYS A 131
REMARK  4 active torsions:
REMARK  status: ('A' for Active; 'I' for Inactive)
REMARK    1  A    between atoms: CA   and  CB  
REMARK    2  A    between atoms: CB   and  CG  
REMARK    3  A    between atoms: CG   and  CD  
REMARK    4  A    between atoms: CD   and  CE  
ROOT
ATOM      1  CA  LYS A 131      29.867  25.555  16.977  1.00 20.52     0.186 C 
ENDROOT
BRANCH   1   2
ATOM      2  CB  LYS A 131      28.345  25.722  17.026  1.00 20.94     0.034 C 
BRANCH   2   3
ATOM      3  CG  LYS A 131      27.606  24.393  17.061  1.00 22.96     0.005 C 
BRANCH   3   4
ATOM      4  CD  LYS A 131      26.132  24.571  17.303  1.00 24.33     0.041 C 
BRANCH   4   5
ATOM      5  CE  LYS A 131      25.847  24.474  18.798  1.00 26.91     0.338 C 
ATOM      6  NZ  LYS A 131      25.506  23.080  19.172  1.00 27.40     0.618 N 
ENDBRANCH   4   5
ENDBRANCH   3   4
ENDBRANCH   2   3
ENDBRANCH   1   2
END_RES LYS A 131
BEGIN_RES LYS A 135
REMARK  4 active torsions:
REMARK  status: ('A' for Active; 'I' for Inactive)
REMARK    5  A    between atoms: CA   and  CB  
REMARK    6  A    between atoms: CB   and  CG  
REMARK    7  A    between atoms: CG   and  CD  
REMARK    8  A    between atoms: CD   and  CE  
ROOT
ATOM      7  CA  LYS A 135      33.193  34.663   9.290  1.00 25.02     0.186 C 
ENDROOT
BRANCH   7   8
ATOM      8  CB  LYS A 135      32.060  35.360  10.034  1.00 26.63     0.034 C 
BRANCH   8   9
ATOM      9  CG  LYS A 135      30.710  34.731   9.802  1.00 29.45     0.005 C 
BRANCH   9  10
ATOM     10  CD  LYS A 135      30.455  34.540   8.315  1.00 32.00     0.041 C 
BRANCH  10  11
ATOM     11  CE  LYS A 135      28.999  34.808   7.986  1.00 34.25     0.338 C 
ATOM     12  NZ  LYS A 135      28.100  34.232   9.023  1.00 35.99     0.618 N 
ENDBRANCH  10  11
ENDBRANCH   9  10
ENDBRANCH   8   9
ENDBRANCH   7   8
END_RES LYS A 135
