REMARK VINA RESULT:    -4.496      2.728      4.854
REMARK INTER + INTRA:         -14.336
REMARK INTER:                  -8.344
REMARK INTRA:                  -5.992
REMARK UNBOUND:                -6.555
REMARK SMILES CC(=O)N[C@@H]1[C@@H](O)C[C@](O)(C(=O)O)O[C@H]1C(O)[C@H](O)CNC(=O)OCc1cn([C@H]2C[C@H]3CC[C@@H](C2)N3C)nn1
REMARK SMILES IDX 20 1 18 2 16 3 15 4 9 5 8 6 14 7 6 8 5 9 10 10 11 12 12 13
REMARK SMILES IDX 13 14 7 16 4 18 2 19 1 21 3 22 17 23 19 25 21 27 22 28 23 30
REMARK SMILES IDX 24 31 25 32 26 33 27 34 39 35 28 36 38 37 29 38 35 39 30 40
REMARK SMILES IDX 34 41 31 42 36 43 33 44 32 45 37 46
REMARK H PARENT 10 11 13 15 7 17 4 20 17 24 19 26 21 29
REMARK Flexibility Score: inf
ROOT
ATOM      1  C   UNL     1      29.986  33.491  18.742  1.00  0.00     0.154 C 
ENDROOT
BRANCH   1   2
ATOM      2  C   UNL     1      30.506  32.146  19.117  1.00  0.00     0.165 C 
BRANCH   2   3
ATOM      3  C   UNL     1      29.450  31.088  19.207  1.00  0.00     0.176 C 
BRANCH   3   4
ATOM      4  C   UNL     1      29.707  30.098  20.318  1.00  0.00     0.178 C 
ATOM      5  C   UNL     1      31.192  28.450  20.972  1.00  0.00     0.269 C 
ATOM      6  C   UNL     1      30.145  28.306  22.043  1.00  0.00     0.112 C 
ATOM      7  O   UNL     1      30.951  29.518  20.120  1.00  0.00    -0.332 OA
ATOM      8  C   UNL     1      28.748  28.216  21.509  1.00  0.00     0.145 C 
ATOM      9  C   UNL     1      28.679  28.989  20.221  1.00  0.00     0.142 C 
BRANCH   5  10
ATOM     10  O   UNL     1      31.384  27.274  20.250  1.00  0.00    -0.357 OA
ATOM     11  H   UNL     1      31.702  26.554  20.842  1.00  0.00     0.214 HD
ENDBRANCH   5  10
BRANCH   5  12
ATOM     12  C   UNL     1      32.487  28.740  21.665  1.00  0.00     0.364 C 
ATOM     13  O   UNL     1      32.953  27.933  22.537  1.00  0.00    -0.246 OA
BRANCH  12  14
ATOM     14  O   UNL     1      33.238  29.864  21.411  1.00  0.00    -0.477 OA
ATOM     15  H   UNL     1      34.020  29.777  20.750  1.00  0.00     0.296 HD
ENDBRANCH  12  14
ENDBRANCH   5  12
BRANCH   8  16
ATOM     16  O   UNL     1      28.269  26.930  21.416  1.00  0.00    -0.391 OA
ATOM     17  H   UNL     1      27.402  26.893  21.899  1.00  0.00     0.211 HD
ENDBRANCH   8  16
BRANCH   9  18
ATOM     18  N   UNL     1      27.359  29.487  19.925  1.00  0.00    -0.348 N 
ATOM     19  C   UNL     1      26.590  29.009  18.821  1.00  0.00     0.217 C 
ATOM     20  H   UNL     1      26.919  30.225  20.519  1.00  0.00     0.163 HD
ATOM     21  C   UNL     1      25.243  29.561  18.572  1.00  0.00     0.114 C 
ATOM     22  O   UNL     1      27.099  28.123  18.096  1.00  0.00    -0.275 OA
ENDBRANCH   9  18
ENDBRANCH   3   4
BRANCH   3  23
ATOM     23  O   UNL     1      29.410  30.382  18.005  1.00  0.00    -0.388 OA
ATOM     24  H   UNL     1      30.293  30.085  17.723  1.00  0.00     0.211 HD
ENDBRANCH   3  23
ENDBRANCH   2   3
BRANCH   2  25
ATOM     25  O   UNL     1      31.181  32.192  20.358  1.00  0.00    -0.388 OA
ATOM     26  H   UNL     1      31.323  31.236  20.610  1.00  0.00     0.211 HD
ENDBRANCH   2  25
ENDBRANCH   1   2
BRANCH   1  27
ATOM     27  N   UNL     1      28.965  33.423  17.724  1.00  0.00    -0.319 N 
ATOM     28  C   UNL     1      29.161  34.087  16.484  1.00  0.00     0.407 C 
ATOM     29  H   UNL     1      28.067  32.898  17.851  1.00  0.00     0.167 HD
ATOM     30  O   UNL     1      30.200  34.750  16.214  1.00  0.00    -0.225 OA
BRANCH  28  31
ATOM     31  O   UNL     1      28.209  34.053  15.465  1.00  0.00    -0.443 OA
BRANCH  31  32
ATOM     32  C   UNL     1      26.833  33.848  15.714  1.00  0.00     0.294 C 
BRANCH  32  33
ATOM     33  C   UNL     1      26.490  32.413  15.526  1.00  0.00     0.120 A 
ATOM     34  C   UNL     1      25.296  31.942  15.021  1.00  0.00     0.138 A 
ATOM     35  N   UNL     1      27.222  31.315  15.787  1.00  0.00    -0.132 NA
ATOM     36  N   UNL     1      25.331  30.581  14.987  1.00  0.00    -0.249 N 
ATOM     37  N   UNL     1      26.520  30.255  15.463  1.00  0.00    -0.067 NA
BRANCH  36  38
ATOM     38  C   UNL     1      24.276  29.684  14.525  1.00  0.00     0.112 C 
ATOM     39  C   UNL     1      24.029  29.965  13.089  1.00  0.00     0.046 C 
ATOM     40  C   UNL     1      23.104  29.860  15.423  1.00  0.00     0.046 C 
ATOM     41  C   UNL     1      22.628  29.778  12.630  1.00  0.00     0.058 C 
ATOM     42  C   UNL     1      21.785  29.969  14.704  1.00  0.00     0.058 C 
ATOM     43  N   UNL     1      21.829  29.044  13.585  1.00  0.00    -0.300 NA
ATOM     44  C   UNL     1      21.948  31.138  12.626  1.00  0.00     0.021 C 
ATOM     45  C   UNL     1      21.691  31.349  14.105  1.00  0.00     0.021 C 
ATOM     46  C   UNL     1      20.519  28.784  13.042  1.00  0.00     0.105 C 
ENDBRANCH  36  38
ENDBRANCH  32  33
ENDBRANCH  31  32
ENDBRANCH  28  31
ENDBRANCH   1  27
TORSDOF 15
BEGIN_RES LYS A 131
REMARK  4 active torsions:
REMARK  status: ('A' for Active; 'I' for Inactive)
REMARK    1  A    between atoms: CA   and  CB  
REMARK    2  A    between atoms: CB   and  CG  
REMARK    3  A    between atoms: CG   and  CD  
REMARK    4  A    between atoms: CD   and  CE  
ROOT
ATOM      1  CA  LYS A 131      29.867  25.555  16.977  1.00 20.52     0.186 C 
ENDROOT
BRANCH   1   2
ATOM      2  CB  LYS A 131      28.345  25.722  17.026  1.00 20.94     0.034 C 
BRANCH   2   3
ATOM      3  CG  LYS A 131      27.599  24.431  16.727  1.00 22.96     0.005 C 
BRANCH   3   4
ATOM      4  CD  LYS A 131      26.810  23.945  17.911  1.00 24.33     0.041 C 
BRANCH   4   5
ATOM      5  CE  LYS A 131      25.674  24.921  18.200  1.00 26.91     0.338 C 
ATOM      6  NZ  LYS A 131      25.705  25.347  19.619  1.00 27.40     0.618 N 
ENDBRANCH   4   5
ENDBRANCH   3   4
ENDBRANCH   2   3
ENDBRANCH   1   2
END_RES LYS A 131
BEGIN_RES LYS A 135
REMARK  4 active torsions:
REMARK  status: ('A' for Active; 'I' for Inactive)
REMARK    5  A    between atoms: CA   and  CB  
REMARK    6  A    between atoms: CB   and  CG  
REMARK    7  A    between atoms: CG   and  CD  
REMARK    8  A    between atoms: CD   and  CE  
ROOT
ATOM      7  CA  LYS A 135      33.193  34.663   9.290  1.00 25.02     0.186 C 
ENDROOT
BRANCH   7   8
ATOM      8  CB  LYS A 135      32.060  35.360  10.034  1.00 26.63     0.034 C 
BRANCH   8   9
ATOM      9  CG  LYS A 135      30.812  35.531   9.207  1.00 29.45     0.005 C 
BRANCH   9  10
ATOM     10  CD  LYS A 135      30.063  34.213   9.086  1.00 32.00     0.041 C 
BRANCH  10  11
ATOM     11  CE  LYS A 135      28.637  34.450   8.627  1.00 34.25     0.338 C 
ATOM     12  NZ  LYS A 135      27.669  33.705   9.478  1.00 35.99     0.618 N 
ENDBRANCH  10  11
ENDBRANCH   9  10
ENDBRANCH   8   9
ENDBRANCH   7   8
END_RES LYS A 135
