REMARK VINA RESULT:    -4.685      0.000      0.000
REMARK INTER + INTRA:         -14.949
REMARK INTER:                  -9.746
REMARK INTRA:                  -5.203
REMARK UNBOUND:                -6.292
REMARK SMILES CC(=O)N[C@@H]1[C@@H](O)C[C@](O)(C(=O)O)O[C@H]1C(O)[C@H](O)CNC(=O)OCc1cn(CCC2OCCO2)nn1
REMARK SMILES IDX 21 1 22 2 23 3 20 5 18 6 16 7 15 8 9 9 8 10 14 11 6 12 5 13
REMARK SMILES IDX 10 14 11 16 12 17 13 18 7 20 4 22 2 23 1 25 3 26 17 27 19 29
REMARK SMILES IDX 24 31 25 32 26 33 27 34 37 35 28 36 36 37 29 38 30 39 31 40
REMARK SMILES IDX 32 41 35 42 33 43 34 44
REMARK H PARENT 21 4 10 15 13 19 7 21 4 24 17 28 19 30
REMARK Flexibility Score: inf
ROOT
ATOM      1  N   UNL     1      25.954  32.827  15.056  1.00  0.00    -0.319 N 
ATOM      2  C   UNL     1      25.313  33.110  13.825  1.00  0.00     0.407 C 
ATOM      3  O   UNL     1      24.594  32.206  13.278  1.00  0.00    -0.225 OA
ATOM      4  H   UNL     1      26.537  33.551  15.507  1.00  0.00     0.167 HD
ENDROOT
BRANCH   1   5
ATOM      5  C   UNL     1      25.789  31.548  15.660  1.00  0.00     0.154 C 
BRANCH   5   6
ATOM      6  C   UNL     1      26.797  31.251  16.737  1.00  0.00     0.165 C 
BRANCH   6   7
ATOM      7  C   UNL     1      28.188  31.079  16.207  1.00  0.00     0.176 C 
BRANCH   7   8
ATOM      8  C   UNL     1      28.963  32.374  16.320  1.00  0.00     0.178 C 
ATOM      9  C   UNL     1      29.816  34.064  14.969  1.00  0.00     0.269 C 
ATOM     10  C   UNL     1      31.052  34.069  15.822  1.00  0.00     0.112 C 
ATOM     11  O   UNL     1      29.052  32.931  15.071  1.00  0.00    -0.332 OA
ATOM     12  C   UNL     1      31.429  32.627  16.089  1.00  0.00     0.145 C 
ATOM     13  C   UNL     1      30.311  32.032  16.935  1.00  0.00     0.142 C 
BRANCH   9  14
ATOM     14  O   UNL     1      30.244  34.142  13.623  1.00  0.00    -0.357 OA
ATOM     15  H   UNL     1      30.115  33.297  13.151  1.00  0.00     0.214 HD
ENDBRANCH   9  14
BRANCH   9  16
ATOM     16  C   UNL     1      29.028  35.316  15.198  1.00  0.00     0.364 C 
ATOM     17  O   UNL     1      29.475  36.326  15.784  1.00  0.00    -0.246 OA
BRANCH  16  18
ATOM     18  O   UNL     1      27.724  35.336  14.724  1.00  0.00    -0.477 OA
ATOM     19  H   UNL     1      27.477  35.303  13.740  1.00  0.00     0.296 HD
ENDBRANCH  16  18
ENDBRANCH   9  16
BRANCH  12  20
ATOM     20  O   UNL     1      31.464  31.947  14.862  1.00  0.00    -0.391 OA
ATOM     21  H   UNL     1      32.072  32.378  14.216  1.00  0.00     0.211 HD
ENDBRANCH  12  20
BRANCH  13  22
ATOM     22  N   UNL     1      30.432  32.565  18.283  1.00  0.00    -0.348 N 
ATOM     23  C   UNL     1      30.549  31.666  19.373  1.00  0.00     0.217 C 
ATOM     24  H   UNL     1      30.433  33.611  18.457  1.00  0.00     0.163 HD
ATOM     25  C   UNL     1      30.676  32.111  20.784  1.00  0.00     0.114 C 
ATOM     26  O   UNL     1      30.546  30.426  19.120  1.00  0.00    -0.275 OA
ENDBRANCH  13  22
ENDBRANCH   7   8
BRANCH   7  27
ATOM     27  O   UNL     1      28.837  30.013  16.829  1.00  0.00    -0.388 OA
ATOM     28  H   UNL     1      28.371  29.674  17.623  1.00  0.00     0.211 HD
ENDBRANCH   7  27
ENDBRANCH   6   7
BRANCH   6  29
ATOM     29  O   UNL     1      26.410  30.104  17.414  1.00  0.00    -0.388 OA
ATOM     30  H   UNL     1      25.978  30.276  18.270  1.00  0.00     0.211 HD
ENDBRANCH   6  29
ENDBRANCH   5   6
ENDBRANCH   1   5
BRANCH   2  31
ATOM     31  O   UNL     1      25.403  34.299  13.159  1.00  0.00    -0.443 OA
BRANCH  31  32
ATOM     32  C   UNL     1      25.454  34.467  11.756  1.00  0.00     0.294 C 
BRANCH  32  33
ATOM     33  C   UNL     1      26.843  34.490  11.240  1.00  0.00     0.120 A 
ATOM     34  C   UNL     1      27.257  34.124   9.981  1.00  0.00     0.138 A 
ATOM     35  N   UNL     1      27.951  34.865  11.899  1.00  0.00    -0.132 NA
ATOM     36  N   UNL     1      28.596  34.287   9.911  1.00  0.00    -0.252 N 
ATOM     37  N   UNL     1      28.990  34.737  11.088  1.00  0.00    -0.067 NA
BRANCH  36  38
ATOM     38  C   UNL     1      29.485  34.038   8.784  1.00  0.00     0.151 C 
BRANCH  38  39
ATOM     39  C   UNL     1      30.216  35.305   8.393  1.00  0.00     0.086 C 
BRANCH  39  40
ATOM     40  C   UNL     1      29.340  36.214   7.599  1.00  0.00     0.251 C 
ATOM     41  O   UNL     1      28.549  37.058   8.368  1.00  0.00    -0.350 OA
ATOM     42  O   UNL     1      28.488  35.561   6.721  1.00  0.00    -0.350 OA
ATOM     43  C   UNL     1      27.478  37.434   7.561  1.00  0.00     0.192 C 
ATOM     44  C   UNL     1      27.398  36.370   6.507  1.00  0.00     0.192 C 
ENDBRANCH  39  40
ENDBRANCH  38  39
ENDBRANCH  36  38
ENDBRANCH  32  33
ENDBRANCH  31  32
ENDBRANCH   2  31
TORSDOF 17
BEGIN_RES LYS A 131
REMARK  4 active torsions:
REMARK  status: ('A' for Active; 'I' for Inactive)
REMARK    1  A    between atoms: CA   and  CB  
REMARK    2  A    between atoms: CB   and  CG  
REMARK    3  A    between atoms: CG   and  CD  
REMARK    4  A    between atoms: CD   and  CE  
ROOT
ATOM      1  CA  LYS A 131      29.867  25.555  16.977  1.00 20.52     0.186 C 
ENDROOT
BRANCH   1   2
ATOM      2  CB  LYS A 131      28.345  25.722  17.026  1.00 20.94     0.034 C 
BRANCH   2   3
ATOM      3  CG  LYS A 131      27.601  24.403  16.887  1.00 22.96     0.005 C 
BRANCH   3   4
ATOM      4  CD  LYS A 131      26.381  24.345  17.763  1.00 24.33     0.041 C 
BRANCH   4   5
ATOM      5  CE  LYS A 131      26.104  25.730  18.341  1.00 26.91     0.338 C 
ATOM      6  NZ  LYS A 131      25.772  25.633  19.783  1.00 27.40     0.618 N 
ENDBRANCH   4   5
ENDBRANCH   3   4
ENDBRANCH   2   3
ENDBRANCH   1   2
END_RES LYS A 131
BEGIN_RES LYS A 135
REMARK  4 active torsions:
REMARK  status: ('A' for Active; 'I' for Inactive)
REMARK    5  A    between atoms: CA   and  CB  
REMARK    6  A    between atoms: CB   and  CG  
REMARK    7  A    between atoms: CG   and  CD  
REMARK    8  A    between atoms: CD   and  CE  
ROOT
ATOM      7  CA  LYS A 135      33.193  34.663   9.290  1.00 25.02     0.186 C 
ENDROOT
BRANCH   7   8
ATOM      8  CB  LYS A 135      32.060  35.360  10.034  1.00 26.63     0.034 C 
BRANCH   8   9
ATOM      9  CG  LYS A 135      32.512  36.089  11.273  1.00 29.45     0.005 C 
BRANCH   9  10
ATOM     10  CD  LYS A 135      31.744  37.391  11.440  1.00 32.00     0.041 C 
BRANCH  10  11
ATOM     11  CE  LYS A 135      31.439  37.647  12.903  1.00 34.25     0.338 C 
ATOM     12  NZ  LYS A 135      32.237  36.747  13.782  1.00 35.99     0.618 N 
ENDBRANCH  10  11
ENDBRANCH   9  10
ENDBRANCH   8   9
ENDBRANCH   7   8
END_RES LYS A 135
