REMARK VINA RESULT:    -5.138      2.819      6.425
REMARK INTER + INTRA:         -15.465
REMARK INTER:                  -8.842
REMARK INTRA:                  -6.622
REMARK UNBOUND:                -5.671
REMARK SMILES CCOC(=O)c1cccc(-n2cc(COC(=O)NC[C@@H](O)C(O)[C@@H]3O[C@@](O)(C(=O)O)C[C@H](O)[C@H]3NC(C)=O)nn2)c1
REMARK SMILES IDX 18 1 16 2 17 3 19 5 20 6 22 7 24 8 26 9 31 10 25 11 32 12
REMARK SMILES IDX 34 13 27 14 28 16 29 17 30 18 33 20 35 22 36 23 37 25 38 26
REMARK SMILES IDX 23 27 21 29 15 31 14 32 13 33 12 34 39 35 11 36 40 37 10 38
REMARK SMILES IDX 41 39 9 40 6 41 8 42 7 43 4 44 5 45 3 46 2 47 1 48
REMARK H PARENT 18 4 27 15 30 19 33 21 35 24 23 28 21 30
REMARK Flexibility Score: inf
ROOT
ATOM      1  N   UNL     1      28.681  29.853  16.693  1.00  0.00    -0.319 N 
ATOM      2  C   UNL     1      27.474  29.218  17.090  1.00  0.00     0.407 C 
ATOM      3  O   UNL     1      26.461  29.346  16.358  1.00  0.00    -0.225 OA
ATOM      4  H   UNL     1      29.506  29.733  17.314  1.00  0.00     0.167 HD
ENDROOT
BRANCH   1   5
ATOM      5  C   UNL     1      28.760  30.637  15.477  1.00  0.00     0.154 C 
BRANCH   5   6
ATOM      6  C   UNL     1      29.156  32.054  15.723  1.00  0.00     0.165 C 
BRANCH   6   7
ATOM      7  C   UNL     1      30.559  32.211  16.214  1.00  0.00     0.176 C 
BRANCH   7   8
ATOM      8  C   UNL     1      31.138  33.579  15.769  1.00  0.00     0.178 C 
ATOM      9  C   UNL     1      32.831  34.505  14.587  1.00  0.00     0.269 C 
ATOM     10  C   UNL     1      33.428  35.202  15.789  1.00  0.00     0.112 C 
ATOM     11  O   UNL     1      32.240  33.348  14.989  1.00  0.00    -0.332 OA
ATOM     12  C   UNL     1      32.413  35.483  16.856  1.00  0.00     0.145 C 
ATOM     13  C   UNL     1      31.340  34.438  16.962  1.00  0.00     0.142 C 
BRANCH   9  14
ATOM     14  O   UNL     1      33.951  34.131  13.792  1.00  0.00    -0.357 OA
ATOM     15  H   UNL     1      34.524  34.891  13.586  1.00  0.00     0.214 HD
ENDBRANCH   9  14
BRANCH   9  16
ATOM     16  C   UNL     1      32.009  35.430  13.795  1.00  0.00     0.364 C 
ATOM     17  O   UNL     1      31.141  35.041  12.944  1.00  0.00    -0.246 OA
BRANCH  16  18
ATOM     18  O   UNL     1      32.192  36.813  13.988  1.00  0.00    -0.477 OA
ATOM     19  H   UNL     1      32.024  37.180  14.933  1.00  0.00     0.296 HD
ENDBRANCH  16  18
ENDBRANCH   9  16
BRANCH  12  20
ATOM     20  O   UNL     1      33.078  35.661  18.068  1.00  0.00    -0.391 OA
ATOM     21  H   UNL     1      33.832  36.299  18.000  1.00  0.00     0.211 HD
ENDBRANCH  12  20
BRANCH  13  22
ATOM     22  N   UNL     1      30.071  35.016  17.365  1.00  0.00    -0.348 N 
ATOM     23  C   UNL     1      29.665  35.063  18.725  1.00  0.00     0.217 C 
ATOM     24  H   UNL     1      29.440  35.410  16.606  1.00  0.00     0.163 HD
ATOM     25  C   UNL     1      28.350  35.668  19.061  1.00  0.00     0.114 C 
ATOM     26  O   UNL     1      30.411  34.597  19.653  1.00  0.00    -0.275 OA
ENDBRANCH  13  22
ENDBRANCH   7   8
BRANCH   7  27
ATOM     27  O   UNL     1      30.718  32.114  17.573  1.00  0.00    -0.388 OA
ATOM     28  H   UNL     1      31.632  31.988  17.882  1.00  0.00     0.211 HD
ENDBRANCH   7  27
ENDBRANCH   6   7
BRANCH   6  29
ATOM     29  O   UNL     1      28.218  32.704  16.520  1.00  0.00    -0.388 OA
ATOM     30  H   UNL     1      28.720  33.186  17.231  1.00  0.00     0.211 HD
ENDBRANCH   6  29
ENDBRANCH   5   6
ENDBRANCH   1   5
BRANCH   2  31
ATOM     31  O   UNL     1      27.345  28.460  18.241  1.00  0.00    -0.443 OA
BRANCH  31  32
ATOM     32  C   UNL     1      27.361  29.045  19.529  1.00  0.00     0.294 C 
BRANCH  32  33
ATOM     33  C   UNL     1      28.716  28.989  20.109  1.00  0.00     0.121 A 
ATOM     34  C   UNL     1      29.610  30.024  20.324  1.00  0.00     0.144 A 
ATOM     35  N   UNL     1      29.361  27.888  20.551  1.00  0.00    -0.131 NA
ATOM     36  N   UNL     1      30.739  29.531  20.875  1.00  0.00    -0.220 N 
ATOM     37  N   UNL     1      30.544  28.215  20.997  1.00  0.00    -0.062 NA
BRANCH  36  38
ATOM     38  C   UNL     1      31.912  30.213  21.261  1.00  0.00     0.067 A 
ATOM     39  C   UNL     1      31.973  31.594  21.277  1.00  0.00     0.044 A 
ATOM     40  C   UNL     1      33.045  29.527  21.640  1.00  0.00     0.028 A 
ATOM     41  C   UNL     1      33.101  32.300  21.648  1.00  0.00     0.062 A 
ATOM     42  C   UNL     1      34.197  30.210  22.021  1.00  0.00     0.003 A 
ATOM     43  C   UNL     1      34.214  31.582  22.021  1.00  0.00     0.016 A 
BRANCH  41  44
ATOM     44  C   UNL     1      33.136  33.758  21.656  1.00  0.00     0.338 C 
ATOM     45  O   UNL     1      32.552  34.383  22.575  1.00  0.00    -0.246 OA
BRANCH  44  46
ATOM     46  O   UNL     1      33.794  34.494  20.684  1.00  0.00    -0.462 OA
BRANCH  46  47
ATOM     47  C   UNL     1      34.946  35.266  20.960  1.00  0.00     0.230 C 
ATOM     48  C   UNL     1      36.162  34.446  20.638  1.00  0.00     0.049 C 
ENDBRANCH  46  47
ENDBRANCH  44  46
ENDBRANCH  41  44
ENDBRANCH  36  38
ENDBRANCH  32  33
ENDBRANCH  31  32
ENDBRANCH   2  31
TORSDOF 18
BEGIN_RES LYS A 131
REMARK  4 active torsions:
REMARK  status: ('A' for Active; 'I' for Inactive)
REMARK    1  A    between atoms: CA   and  CB  
REMARK    2  A    between atoms: CB   and  CG  
REMARK    3  A    between atoms: CG   and  CD  
REMARK    4  A    between atoms: CD   and  CE  
ROOT
ATOM      1  CA  LYS A 131      29.867  25.555  16.977  1.00 20.52     0.186 C 
ENDROOT
BRANCH   1   2
ATOM      2  CB  LYS A 131      28.345  25.722  17.026  1.00 20.94     0.034 C 
BRANCH   2   3
ATOM      3  CG  LYS A 131      27.601  24.402  16.889  1.00 22.96     0.005 C 
BRANCH   3   4
ATOM      4  CD  LYS A 131      26.153  24.526  17.272  1.00 24.33     0.041 C 
BRANCH   4   5
ATOM      5  CE  LYS A 131      26.045  24.831  18.763  1.00 26.91     0.338 C 
ATOM      6  NZ  LYS A 131      25.523  23.654  19.497  1.00 27.40     0.618 N 
ENDBRANCH   4   5
ENDBRANCH   3   4
ENDBRANCH   2   3
ENDBRANCH   1   2
END_RES LYS A 131
BEGIN_RES LYS A 135
REMARK  4 active torsions:
REMARK  status: ('A' for Active; 'I' for Inactive)
REMARK    5  A    between atoms: CA   and  CB  
REMARK    6  A    between atoms: CB   and  CG  
REMARK    7  A    between atoms: CG   and  CD  
REMARK    8  A    between atoms: CD   and  CE  
ROOT
ATOM      7  CA  LYS A 135      33.193  34.663   9.290  1.00 25.02     0.186 C 
ENDROOT
BRANCH   7   8
ATOM      8  CB  LYS A 135      32.060  35.360  10.034  1.00 26.63     0.034 C 
BRANCH   8   9
ATOM      9  CG  LYS A 135      30.803  35.507   9.216  1.00 29.45     0.005 C 
BRANCH   9  10
ATOM     10  CD  LYS A 135      30.070  34.178   9.115  1.00 32.00     0.041 C 
BRANCH  10  11
ATOM     11  CE  LYS A 135      28.627  34.396   8.700  1.00 34.25     0.338 C 
ATOM     12  NZ  LYS A 135      27.693  33.664   9.599  1.00 35.99     0.618 N 
ENDBRANCH  10  11
ENDBRANCH   9  10
ENDBRANCH   8   9
ENDBRANCH   7   8
END_RES LYS A 135
