REMARK VINA RESULT:    -4.488      5.272     11.022
REMARK INTER + INTRA:         -15.342
REMARK INTER:                  -8.128
REMARK INTRA:                  -7.214
REMARK UNBOUND:                -6.788
REMARK SMILES CC(=O)N[C@@H]1[C@@H](O)C[C@](O)(C(=O)O)O[C@H]1C(O)[C@H](O)CNC(=O)OCc1cn(CC(=O)NCc2cccs2)nn1
REMARK SMILES IDX 21 1 22 2 23 3 20 5 18 6 16 7 15 8 9 9 8 10 14 11 6 12 5 13
REMARK SMILES IDX 10 14 11 16 12 17 13 18 7 20 4 22 2 23 1 25 3 26 17 27 19 29
REMARK SMILES IDX 24 31 25 32 26 33 27 34 40 35 28 36 39 37 29 38 30 39 31 40
REMARK SMILES IDX 32 41 33 43 34 44 35 45 38 46 36 47 37 48
REMARK H PARENT 21 4 10 15 13 19 7 21 4 24 17 28 19 30 32 42
REMARK Flexibility Score: inf
ROOT
ATOM      1  N   UNL     1      26.791  29.224  19.291  1.00  0.00    -0.319 N 
ATOM      2  C   UNL     1      25.485  29.408  18.793  1.00  0.00     0.407 C 
ATOM      3  O   UNL     1      24.515  29.097  19.527  1.00  0.00    -0.225 OA
ATOM      4  H   UNL     1      27.582  29.488  18.663  1.00  0.00     0.167 HD
ENDROOT
BRANCH   1   5
ATOM      5  C   UNL     1      27.116  28.700  20.603  1.00  0.00     0.154 C 
BRANCH   5   6
ATOM      6  C   UNL     1      28.322  27.804  20.541  1.00  0.00     0.165 C 
BRANCH   6   7
ATOM      7  C   UNL     1      29.604  28.504  20.240  1.00  0.00     0.176 C 
BRANCH   7   8
ATOM      8  C   UNL     1      29.796  29.872  20.774  1.00  0.00     0.178 C 
ATOM      9  C   UNL     1      29.812  32.055  19.932  1.00  0.00     0.269 C 
ATOM     10  C   UNL     1      29.781  32.356  21.420  1.00  0.00     0.112 C 
ATOM     11  O   UNL     1      29.685  30.732  19.632  1.00  0.00    -0.332 OA
ATOM     12  C   UNL     1      30.894  31.606  22.064  1.00  0.00     0.145 C 
ATOM     13  C   UNL     1      31.086  30.231  21.392  1.00  0.00     0.142 C 
BRANCH   9  14
ATOM     14  O   UNL     1      31.026  32.598  19.470  1.00  0.00    -0.357 OA
ATOM     15  H   UNL     1      31.053  32.509  18.477  1.00  0.00     0.214 HD
ENDBRANCH   9  14
BRANCH   9  16
ATOM     16  C   UNL     1      28.716  32.776  19.236  1.00  0.00     0.364 C 
ATOM     17  O   UNL     1      28.909  33.950  18.857  1.00  0.00    -0.246 OA
BRANCH  16  18
ATOM     18  O   UNL     1      27.480  32.184  18.993  1.00  0.00    -0.477 OA
ATOM     19  H   UNL     1      27.499  31.303  18.477  1.00  0.00     0.296 HD
ENDBRANCH  16  18
ENDBRANCH   9  16
BRANCH  12  20
ATOM     20  O   UNL     1      32.084  32.298  22.112  1.00  0.00    -0.391 OA
ATOM     21  H   UNL     1      32.029  33.146  21.604  1.00  0.00     0.211 HD
ENDBRANCH  12  20
BRANCH  13  22
ATOM     22  N   UNL     1      31.627  29.392  22.395  1.00  0.00    -0.348 N 
ATOM     23  C   UNL     1      33.021  29.199  22.485  1.00  0.00     0.217 C 
ATOM     24  H   UNL     1      31.030  28.907  23.078  1.00  0.00     0.163 HD
ATOM     25  C   UNL     1      33.640  28.321  23.526  1.00  0.00     0.114 C 
ATOM     26  O   UNL     1      33.843  29.760  21.684  1.00  0.00    -0.275 OA
ENDBRANCH  13  22
ENDBRANCH   7   8
BRANCH   7  27
ATOM     27  O   UNL     1      30.729  27.693  20.211  1.00  0.00    -0.388 OA
ATOM     28  H   UNL     1      31.204  27.691  19.371  1.00  0.00     0.211 HD
ENDBRANCH   7  27
ENDBRANCH   6   7
BRANCH   6  29
ATOM     29  O   UNL     1      28.137  26.647  19.795  1.00  0.00    -0.388 OA
ATOM     30  H   UNL     1      27.972  26.822  18.840  1.00  0.00     0.211 HD
ENDBRANCH   6  29
ENDBRANCH   5   6
ENDBRANCH   1   5
BRANCH   2  31
ATOM     31  O   UNL     1      25.232  29.923  17.514  1.00  0.00    -0.443 OA
BRANCH  31  32
ATOM     32  C   UNL     1      25.977  29.475  16.396  1.00  0.00     0.294 C 
BRANCH  32  33
ATOM     33  C   UNL     1      27.136  30.393  16.216  1.00  0.00     0.120 A 
ATOM     34  C   UNL     1      28.479  30.107  16.345  1.00  0.00     0.138 A 
ATOM     35  N   UNL     1      27.098  31.695  15.890  1.00  0.00    -0.132 NA
ATOM     36  N   UNL     1      29.191  31.217  16.100  1.00  0.00    -0.243 N 
ATOM     37  N   UNL     1      28.326  32.169  15.826  1.00  0.00    -0.067 NA
BRANCH  36  38
ATOM     38  C   UNL     1      30.660  31.295  16.138  1.00  0.00     0.245 C 
BRANCH  38  39
ATOM     39  C   UNL     1      31.020  32.685  15.771  1.00  0.00     0.242 C 
ATOM     40  O   UNL     1      31.439  33.464  16.689  1.00  0.00    -0.273 OA
ATOM     41  N   UNL     1      30.937  33.231  14.469  1.00  0.00    -0.350 N 
ATOM     42  H   UNL     1      30.596  32.598  13.724  1.00  0.00     0.163 HD
BRANCH  41  43
ATOM     43  C   UNL     1      31.300  34.594  14.156  1.00  0.00     0.162 C 
BRANCH  43  44
ATOM     44  C   UNL     1      30.117  35.196  13.423  1.00  0.00     0.024 A 
ATOM     45  C   UNL     1      28.985  34.626  13.027  1.00  0.00     0.017 A 
ATOM     46  S   UNL     1      29.971  36.845  12.912  1.00  0.00    -0.147 S 
ATOM     47  C   UNL     1      28.043  35.344  12.379  1.00  0.00     0.012 A 
ATOM     48  C   UNL     1      28.349  36.696  12.166  1.00  0.00     0.065 A 
ENDBRANCH  43  44
ENDBRANCH  41  43
ENDBRANCH  38  39
ENDBRANCH  36  38
ENDBRANCH  32  33
ENDBRANCH  31  32
ENDBRANCH   2  31
TORSDOF 18
BEGIN_RES LYS A 131
REMARK  4 active torsions:
REMARK  status: ('A' for Active; 'I' for Inactive)
REMARK    1  A    between atoms: CA   and  CB  
REMARK    2  A    between atoms: CB   and  CG  
REMARK    3  A    between atoms: CG   and  CD  
REMARK    4  A    between atoms: CD   and  CE  
ROOT
ATOM      1  CA  LYS A 131      29.867  25.555  16.977  1.00 20.52     0.186 C 
ENDROOT
BRANCH   1   2
ATOM      2  CB  LYS A 131      28.345  25.722  17.026  1.00 20.94     0.034 C 
BRANCH   2   3
ATOM      3  CG  LYS A 131      27.601  24.404  16.879  1.00 22.96     0.005 C 
BRANCH   3   4
ATOM      4  CD  LYS A 131      26.570  24.212  17.957  1.00 24.33     0.041 C 
BRANCH   4   5
ATOM      5  CE  LYS A 131      25.521  23.210  17.485  1.00 26.91     0.338 C 
ATOM      6  NZ  LYS A 131      24.380  23.913  16.853  1.00 27.40     0.618 N 
ENDBRANCH   4   5
ENDBRANCH   3   4
ENDBRANCH   2   3
ENDBRANCH   1   2
END_RES LYS A 131
BEGIN_RES LYS A 135
REMARK  4 active torsions:
REMARK  status: ('A' for Active; 'I' for Inactive)
REMARK    5  A    between atoms: CA   and  CB  
REMARK    6  A    between atoms: CB   and  CG  
REMARK    7  A    between atoms: CG   and  CD  
REMARK    8  A    between atoms: CD   and  CE  
ROOT
ATOM      7  CA  LYS A 135      33.193  34.663   9.290  1.00 25.02     0.186 C 
ENDROOT
BRANCH   7   8
ATOM      8  CB  LYS A 135      32.060  35.360  10.034  1.00 26.63     0.034 C 
BRANCH   8   9
ATOM      9  CG  LYS A 135      30.698  34.793   9.726  1.00 29.45     0.005 C 
BRANCH   9  10
ATOM     10  CD  LYS A 135      30.562  34.501   8.239  1.00 32.00     0.041 C 
BRANCH  10  11
ATOM     11  CE  LYS A 135      29.179  34.881   7.747  1.00 34.25     0.338 C 
ATOM     12  NZ  LYS A 135      28.131  34.478   8.725  1.00 35.99     0.618 N 
ENDBRANCH  10  11
ENDBRANCH   9  10
ENDBRANCH   8   9
ENDBRANCH   7   8
END_RES LYS A 135
