REMARK VINA RESULT:    -4.356      6.221     11.599
REMARK INTER + INTRA:         -15.029
REMARK INTER:                 -10.928
REMARK INTRA:                  -4.101
REMARK UNBOUND:                -6.980
REMARK SMILES CC(=O)N[C@@H]1[C@@H](O)C[C@](O)(C(=O)O)O[C@H]1C(O)[C@H](O)CNC(=O)OCc1cn(Cc2ccc(C#N)cc2)nn1
REMARK SMILES IDX 21 1 22 2 23 3 20 5 18 6 16 7 15 8 9 9 8 10 14 11 6 12 5 13
REMARK SMILES IDX 10 14 11 16 12 17 13 18 7 20 4 22 2 23 1 25 3 26 17 27 19 29
REMARK SMILES IDX 24 31 25 32 26 33 27 34 39 35 28 36 38 37 29 38 30 39 31 40
REMARK SMILES IDX 37 41 32 42 36 43 33 44 34 45 35 46
REMARK H PARENT 21 4 10 15 13 19 7 21 4 24 17 28 19 30
REMARK Flexibility Score: inf
ROOT
ATOM      1  N   UNL     1      24.824  36.598  11.775  1.00  0.00    -0.319 N 
ATOM      2  C   UNL     1      25.942  37.403  12.144  1.00  0.00     0.407 C 
ATOM      3  O   UNL     1      26.304  38.356  11.370  1.00  0.00    -0.225 OA
ATOM      4  H   UNL     1      24.548  35.835  12.420  1.00  0.00     0.167 HD
ENDROOT
BRANCH   1   5
ATOM      5  C   UNL     1      24.141  36.865  10.562  1.00  0.00     0.154 C 
BRANCH   5   6
ATOM      6  C   UNL     1      24.593  36.083   9.352  1.00  0.00     0.165 C 
BRANCH   6   7
ATOM      7  C   UNL     1      25.197  36.954   8.269  1.00  0.00     0.176 C 
BRANCH   7   8
ATOM      8  C   UNL     1      26.464  36.397   7.717  1.00  0.00     0.178 C 
ATOM      9  C   UNL     1      28.546  35.598   8.383  1.00  0.00     0.269 C 
ATOM     10  C   UNL     1      28.692  35.325   6.903  1.00  0.00     0.112 C 
ATOM     11  O   UNL     1      27.276  35.922   8.754  1.00  0.00    -0.332 OA
ATOM     12  C   UNL     1      28.232  36.455   6.051  1.00  0.00     0.145 C 
ATOM     13  C   UNL     1      27.302  37.334   6.906  1.00  0.00     0.142 C 
BRANCH   9  14
ATOM     14  O   UNL     1      29.482  36.591   8.744  1.00  0.00    -0.357 OA
ATOM     15  H   UNL     1      30.366  36.323   8.357  1.00  0.00     0.214 HD
ENDBRANCH   9  14
BRANCH   9  16
ATOM     16  C   UNL     1      28.935  34.357   9.086  1.00  0.00     0.364 C 
ATOM     17  O   UNL     1      30.135  34.000   9.086  1.00  0.00    -0.246 OA
BRANCH  16  18
ATOM     18  O   UNL     1      27.991  33.598   9.736  1.00  0.00    -0.477 OA
ATOM     19  H   UNL     1      26.997  33.688   9.622  1.00  0.00     0.296 HD
ENDBRANCH  16  18
ENDBRANCH   9  16
BRANCH  12  20
ATOM     20  O   UNL     1      29.252  37.204   5.500  1.00  0.00    -0.391 OA
ATOM     21  H   UNL     1      29.017  37.349   4.532  1.00  0.00     0.211 HD
ENDBRANCH  12  20
BRANCH  13  22
ATOM     22  N   UNL     1      26.594  38.264   6.082  1.00  0.00    -0.348 N 
ATOM     23  C   UNL     1      26.913  39.665   6.097  1.00  0.00     0.217 C 
ATOM     24  H   UNL     1      25.818  37.966   5.425  1.00  0.00     0.163 HD
ATOM     25  C   UNL     1      26.167  40.627   5.232  1.00  0.00     0.114 C 
ATOM     26  O   UNL     1      27.824  40.110   6.836  1.00  0.00    -0.275 OA
ENDBRANCH  13  22
ENDBRANCH   7   8
BRANCH   7  27
ATOM     27  O   UNL     1      25.247  38.250   8.669  1.00  0.00    -0.388 OA
ATOM     28  H   UNL     1      25.465  38.900   7.999  1.00  0.00     0.211 HD
ENDBRANCH   7  27
ENDBRANCH   6   7
BRANCH   6  29
ATOM     29  O   UNL     1      23.401  35.493   8.858  1.00  0.00    -0.388 OA
ATOM     30  H   UNL     1      22.858  35.114   9.573  1.00  0.00     0.211 HD
ENDBRANCH   6  29
ENDBRANCH   5   6
ENDBRANCH   1   5
BRANCH   2  31
ATOM     31  O   UNL     1      26.683  37.233  13.300  1.00  0.00    -0.443 OA
BRANCH  31  32
ATOM     32  C   UNL     1      26.721  35.959  13.903  1.00  0.00     0.294 C 
BRANCH  32  33
ATOM     33  C   UNL     1      28.044  35.310  13.750  1.00  0.00     0.120 A 
ATOM     34  C   UNL     1      28.960  34.989  14.739  1.00  0.00     0.138 A 
ATOM     35  N   UNL     1      28.589  34.911  12.594  1.00  0.00    -0.132 NA
ATOM     36  N   UNL     1      30.016  34.412  14.158  1.00  0.00    -0.248 N 
ATOM     37  N   UNL     1      29.762  34.380  12.867  1.00  0.00    -0.067 NA
BRANCH  36  38
ATOM     38  C   UNL     1      31.209  33.908  14.803  1.00  0.00     0.181 C 
BRANCH  38  39
ATOM     39  C   UNL     1      30.944  33.081  15.981  1.00  0.00    -0.026 A 
ATOM     40  C   UNL     1      31.192  33.574  17.236  1.00  0.00     0.007 A 
ATOM     41  C   UNL     1      30.447  31.796  15.826  1.00  0.00     0.007 A 
ATOM     42  C   UNL     1      30.952  32.803  18.358  1.00  0.00     0.020 A 
ATOM     43  C   UNL     1      30.197  31.001  16.937  1.00  0.00     0.020 A 
ATOM     44  C   UNL     1      30.458  31.525  18.204  1.00  0.00     0.052 A 
BRANCH  44  45
ATOM     45  C   UNL     1      30.208  30.716  19.361  1.00  0.00     0.099 C 
ATOM     46  N   UNL     1      30.001  30.040  20.295  1.00  0.00    -0.192 NA
ENDBRANCH  44  45
ENDBRANCH  38  39
ENDBRANCH  36  38
ENDBRANCH  32  33
ENDBRANCH  31  32
ENDBRANCH   2  31
TORSDOF 17
BEGIN_RES LYS A 131
REMARK  4 active torsions:
REMARK  status: ('A' for Active; 'I' for Inactive)
REMARK    1  A    between atoms: CA   and  CB  
REMARK    2  A    between atoms: CB   and  CG  
REMARK    3  A    between atoms: CG   and  CD  
REMARK    4  A    between atoms: CD   and  CE  
ROOT
ATOM      1  CA  LYS A 131      29.867  25.555  16.977  1.00 20.52     0.186 C 
ENDROOT
BRANCH   1   2
ATOM      2  CB  LYS A 131      28.345  25.722  17.026  1.00 20.94     0.034 C 
BRANCH   2   3
ATOM      3  CG  LYS A 131      27.600  24.411  16.824  1.00 22.96     0.005 C 
BRANCH   3   4
ATOM      4  CD  LYS A 131      26.826  24.006  18.048  1.00 24.33     0.041 C 
BRANCH   4   5
ATOM      5  CE  LYS A 131      26.022  25.196  18.560  1.00 26.91     0.338 C 
ATOM      6  NZ  LYS A 131      24.770  25.350  17.782  1.00 27.40     0.618 N 
ENDBRANCH   4   5
ENDBRANCH   3   4
ENDBRANCH   2   3
ENDBRANCH   1   2
END_RES LYS A 131
BEGIN_RES LYS A 135
REMARK  4 active torsions:
REMARK  status: ('A' for Active; 'I' for Inactive)
REMARK    5  A    between atoms: CA   and  CB  
REMARK    6  A    between atoms: CB   and  CG  
REMARK    7  A    between atoms: CG   and  CD  
REMARK    8  A    between atoms: CD   and  CE  
ROOT
ATOM      7  CA  LYS A 135      33.193  34.663   9.290  1.00 25.02     0.186 C 
ENDROOT
BRANCH   7   8
ATOM      8  CB  LYS A 135      32.060  35.360  10.034  1.00 26.63     0.034 C 
BRANCH   8   9
ATOM      9  CG  LYS A 135      32.516  36.111  11.258  1.00 29.45     0.005 C 
BRANCH   9  10
ATOM     10  CD  LYS A 135      31.967  37.530  11.252  1.00 32.00     0.041 C 
BRANCH  10  11
ATOM     11  CE  LYS A 135      30.943  37.710  12.356  1.00 34.25     0.338 C 
ATOM     12  NZ  LYS A 135      31.564  37.537  13.698  1.00 35.99     0.618 N 
ENDBRANCH  10  11
ENDBRANCH   9  10
ENDBRANCH   8   9
ENDBRANCH   7   8
END_RES LYS A 135
