REMARK VINA RESULT:    -4.076      4.834      8.479
REMARK INTER + INTRA:         -14.512
REMARK INTER:                  -8.137
REMARK INTRA:                  -6.374
REMARK UNBOUND:                -6.980
REMARK SMILES CC(=O)N[C@@H]1[C@@H](O)C[C@](O)(C(=O)O)O[C@H]1C(O)[C@H](O)CNC(=O)OCc1cn(Cc2ccc(C#N)cc2)nn1
REMARK SMILES IDX 21 1 22 2 23 3 20 5 18 6 16 7 15 8 9 9 8 10 14 11 6 12 5 13
REMARK SMILES IDX 10 14 11 16 12 17 13 18 7 20 4 22 2 23 1 25 3 26 17 27 19 29
REMARK SMILES IDX 24 31 25 32 26 33 27 34 39 35 28 36 38 37 29 38 30 39 31 40
REMARK SMILES IDX 37 41 32 42 36 43 33 44 34 45 35 46
REMARK H PARENT 21 4 10 15 13 19 7 21 4 24 17 28 19 30
REMARK Flexibility Score: inf
ROOT
ATOM      1  N   UNL     1      25.980  34.562  14.104  1.00  0.00    -0.319 N 
ATOM      2  C   UNL     1      25.280  33.337  14.307  1.00  0.00     0.407 C 
ATOM      3  O   UNL     1      24.904  32.660  13.287  1.00  0.00    -0.225 OA
ATOM      4  H   UNL     1      26.276  35.090  14.945  1.00  0.00     0.167 HD
ENDROOT
BRANCH   1   5
ATOM      5  C   UNL     1      26.243  35.007  12.784  1.00  0.00     0.154 C 
BRANCH   5   6
ATOM      6  C   UNL     1      27.651  35.471  12.501  1.00  0.00     0.165 C 
BRANCH   6   7
ATOM      7  C   UNL     1      28.354  36.027  13.723  1.00  0.00     0.176 C 
BRANCH   7   8
ATOM      8  C   UNL     1      29.197  37.217  13.416  1.00  0.00     0.178 C 
ATOM      9  C   UNL     1      31.003  37.882  12.105  1.00  0.00     0.269 C 
ATOM     10  C   UNL     1      30.688  39.231  12.710  1.00  0.00     0.112 C 
ATOM     11  O   UNL     1      30.037  36.947  12.328  1.00  0.00    -0.332 OA
ATOM     12  C   UNL     1      30.428  39.170  14.174  1.00  0.00     0.145 C 
ATOM     13  C   UNL     1      30.071  37.715  14.524  1.00  0.00     0.142 C 
BRANCH   9  14
ATOM     14  O   UNL     1      32.268  37.470  12.575  1.00  0.00    -0.357 OA
ATOM     15  H   UNL     1      32.327  37.733  13.540  1.00  0.00     0.214 HD
ENDBRANCH   9  14
BRANCH   9  16
ATOM     16  C   UNL     1      31.125  38.088  10.646  1.00  0.00     0.364 C 
ATOM     17  O   UNL     1      30.092  38.127   9.941  1.00  0.00    -0.246 OA
BRANCH  16  18
ATOM     18  O   UNL     1      32.362  38.235  10.064  1.00  0.00    -0.477 OA
ATOM     19  H   UNL     1      32.682  37.741   9.250  1.00  0.00     0.296 HD
ENDBRANCH  16  18
ENDBRANCH   9  16
BRANCH  12  20
ATOM     20  O   UNL     1      31.470  39.626  14.957  1.00  0.00    -0.391 OA
ATOM     21  H   UNL     1      32.304  39.566  14.396  1.00  0.00     0.211 HD
ENDBRANCH  12  20
BRANCH  13  22
ATOM     22  N   UNL     1      29.526  37.634  15.843  1.00  0.00    -0.348 N 
ATOM     23  C   UNL     1      30.376  37.484  16.992  1.00  0.00     0.217 C 
ATOM     24  H   UNL     1      28.486  37.691  16.033  1.00  0.00     0.163 HD
ATOM     25  C   UNL     1      29.796  37.401  18.366  1.00  0.00     0.114 C 
ATOM     26  O   UNL     1      31.623  37.418  16.866  1.00  0.00    -0.275 OA
ENDBRANCH  13  22
ENDBRANCH   7   8
BRANCH   7  27
ATOM     27  O   UNL     1      28.966  35.034  14.417  1.00  0.00    -0.388 OA
ATOM     28  H   UNL     1      28.469  34.639  15.134  1.00  0.00     0.211 HD
ENDBRANCH   7  27
ENDBRANCH   6   7
BRANCH   6  29
ATOM     29  O   UNL     1      27.487  36.512  11.551  1.00  0.00    -0.388 OA
ATOM     30  H   UNL     1      27.105  36.187  10.716  1.00  0.00     0.211 HD
ENDBRANCH   6  29
ENDBRANCH   5   6
ENDBRANCH   1   5
BRANCH   2  31
ATOM     31  O   UNL     1      24.967  32.808  15.546  1.00  0.00    -0.443 OA
BRANCH  31  32
ATOM     32  C   UNL     1      24.909  31.406  15.692  1.00  0.00     0.294 C 
BRANCH  32  33
ATOM     33  C   UNL     1      26.151  30.857  16.286  1.00  0.00     0.120 A 
ATOM     34  C   UNL     1      27.194  31.550  16.881  1.00  0.00     0.138 A 
ATOM     35  N   UNL     1      26.479  29.561  16.351  1.00  0.00    -0.132 NA
ATOM     36  N   UNL     1      28.107  30.662  17.283  1.00  0.00    -0.248 N 
ATOM     37  N   UNL     1      27.649  29.475  16.949  1.00  0.00    -0.067 NA
BRANCH  36  38
ATOM     38  C   UNL     1      29.357  30.931  17.960  1.00  0.00     0.181 C 
BRANCH  38  39
ATOM     39  C   UNL     1      30.225  31.876  17.255  1.00  0.00    -0.026 A 
ATOM     40  C   UNL     1      30.640  33.024  17.878  1.00  0.00     0.007 A 
ATOM     41  C   UNL     1      30.622  31.611  15.954  1.00  0.00     0.007 A 
ATOM     42  C   UNL     1      31.455  33.928  17.224  1.00  0.00     0.020 A 
ATOM     43  C   UNL     1      31.440  32.503  15.274  1.00  0.00     0.020 A 
ATOM     44  C   UNL     1      31.850  33.665  15.929  1.00  0.00     0.052 A 
BRANCH  44  45
ATOM     45  C   UNL     1      32.693  34.597  15.240  1.00  0.00     0.099 C 
ATOM     46  N   UNL     1      33.371  35.357  14.662  1.00  0.00    -0.192 NA
ENDBRANCH  44  45
ENDBRANCH  38  39
ENDBRANCH  36  38
ENDBRANCH  32  33
ENDBRANCH  31  32
ENDBRANCH   2  31
TORSDOF 17
BEGIN_RES LYS A 131
REMARK  4 active torsions:
REMARK  status: ('A' for Active; 'I' for Inactive)
REMARK    1  A    between atoms: CA   and  CB  
REMARK    2  A    between atoms: CB   and  CG  
REMARK    3  A    between atoms: CG   and  CD  
REMARK    4  A    between atoms: CD   and  CE  
ROOT
ATOM      1  CA  LYS A 131      29.867  25.555  16.977  1.00 20.52     0.186 C 
ENDROOT
BRANCH   1   2
ATOM      2  CB  LYS A 131      28.345  25.722  17.026  1.00 20.94     0.034 C 
BRANCH   2   3
ATOM      3  CG  LYS A 131      27.602  24.399  16.919  1.00 22.96     0.005 C 
BRANCH   3   4
ATOM      4  CD  LYS A 131      26.161  24.524  17.330  1.00 24.33     0.041 C 
BRANCH   4   5
ATOM      5  CE  LYS A 131      25.897  23.630  18.537  1.00 26.91     0.338 C 
ATOM      6  NZ  LYS A 131      24.786  22.691  18.254  1.00 27.40     0.618 N 
ENDBRANCH   4   5
ENDBRANCH   3   4
ENDBRANCH   2   3
ENDBRANCH   1   2
END_RES LYS A 131
BEGIN_RES LYS A 135
REMARK  4 active torsions:
REMARK  status: ('A' for Active; 'I' for Inactive)
REMARK    5  A    between atoms: CA   and  CB  
REMARK    6  A    between atoms: CB   and  CG  
REMARK    7  A    between atoms: CG   and  CD  
REMARK    8  A    between atoms: CD   and  CE  
ROOT
ATOM      7  CA  LYS A 135      33.193  34.663   9.290  1.00 25.02     0.186 C 
ENDROOT
BRANCH   7   8
ATOM      8  CB  LYS A 135      32.060  35.360  10.034  1.00 26.63     0.034 C 
BRANCH   8   9
ATOM      9  CG  LYS A 135      30.732  34.660   9.902  1.00 29.45     0.005 C 
BRANCH   9  10
ATOM     10  CD  LYS A 135      30.328  34.546   8.440  1.00 32.00     0.041 C 
BRANCH  10  11
ATOM     11  CE  LYS A 135      28.818  34.552   8.303  1.00 34.25     0.338 C 
ATOM     12  NZ  LYS A 135      28.176  33.791   9.410  1.00 35.99     0.618 N 
ENDBRANCH  10  11
ENDBRANCH   9  10
ENDBRANCH   8   9
ENDBRANCH   7   8
END_RES LYS A 135
