REMARK VINA RESULT:    -3.896      4.973      8.909
REMARK INTER + INTRA:         -16.839
REMARK INTER:                  -8.497
REMARK INTRA:                  -8.342
REMARK UNBOUND:                -9.983
REMARK SMILES CC(=O)N[C@@H]1[C@@H](O)C[C@](O)(C(=O)O)O[C@H]1C(O)[C@H](O)CNC(=O)OCc1cn(-c2nc(C)nc(N)n2)nn1
REMARK SMILES IDX 21 1 22 2 23 3 20 5 18 6 16 7 15 8 9 9 8 10 14 11 6 12 5 13
REMARK SMILES IDX 10 14 11 16 12 17 13 18 7 20 4 22 2 23 1 25 3 26 17 27 19 29
REMARK SMILES IDX 24 31 25 32 26 33 27 34 38 35 28 36 37 37 29 38 36 39 30 40
REMARK SMILES IDX 34 41 31 42 33 43 32 44 35 45
REMARK H PARENT 21 4 10 15 13 19 7 21 4 24 17 28 19 30 35 46 35 47
REMARK Flexibility Score: inf
ROOT
ATOM      1  N   UNL     1      27.443  38.397   5.006  1.00  0.00    -0.319 N 
ATOM      2  C   UNL     1      27.486  39.795   4.773  1.00  0.00     0.407 C 
ATOM      3  O   UNL     1      28.544  40.452   4.779  1.00  0.00    -0.225 OA
ATOM      4  H   UNL     1      26.472  37.966   4.982  1.00  0.00     0.167 HD
ENDROOT
BRANCH   1   5
ATOM      5  C   UNL     1      28.599  37.559   5.262  1.00  0.00     0.154 C 
BRANCH   5   6
ATOM      6  C   UNL     1      28.243  36.306   5.940  1.00  0.00     0.165 C 
BRANCH   6   7
ATOM      7  C   UNL     1      27.560  36.450   7.301  1.00  0.00     0.176 C 
BRANCH   7   8
ATOM      8  C   UNL     1      28.155  37.514   8.174  1.00  0.00     0.178 C 
ATOM      9  C   UNL     1      30.172  38.647   8.504  1.00  0.00     0.269 C 
ATOM     10  C   UNL     1      30.148  38.268   9.965  1.00  0.00     0.112 C 
ATOM     11  O   UNL     1      29.382  37.868   7.713  1.00  0.00    -0.332 OA
ATOM     12  C   UNL     1      28.729  38.259  10.447  1.00  0.00     0.145 C 
ATOM     13  C   UNL     1      27.969  37.224   9.606  1.00  0.00     0.142 C 
BRANCH   9  14
ATOM     14  O   UNL     1      31.507  38.384   8.093  1.00  0.00    -0.357 OA
ATOM     15  H   UNL     1      31.481  37.859   7.253  1.00  0.00     0.214 HD
ENDBRANCH   9  14
BRANCH   9  16
ATOM     16  C   UNL     1      29.945  40.086   8.381  1.00  0.00     0.364 C 
ATOM     17  O   UNL     1      30.844  40.887   8.813  1.00  0.00    -0.246 OA
BRANCH  16  18
ATOM     18  O   UNL     1      28.837  40.705   7.833  1.00  0.00    -0.477 OA
ATOM     19  H   UNL     1      28.163  40.144   7.289  1.00  0.00     0.296 HD
ENDBRANCH  16  18
ENDBRANCH   9  16
BRANCH  12  20
ATOM     20  O   UNL     1      28.664  37.891  11.794  1.00  0.00    -0.391 OA
ATOM     21  H   UNL     1      27.711  37.654  11.978  1.00  0.00     0.211 HD
ENDBRANCH  12  20
BRANCH  13  22
ATOM     22  N   UNL     1      26.553  37.475   9.939  1.00  0.00    -0.348 N 
ATOM     23  C   UNL     1      25.869  36.535  10.746  1.00  0.00     0.217 C 
ATOM     24  H   UNL     1      26.058  38.323   9.596  1.00  0.00     0.163 HD
ATOM     25  C   UNL     1      24.432  36.720  11.128  1.00  0.00     0.114 C 
ATOM     26  O   UNL     1      26.508  35.521  11.142  1.00  0.00    -0.275 OA
ENDBRANCH  13  22
ENDBRANCH   7   8
BRANCH   7  27
ATOM     27  O   UNL     1      26.234  36.851   6.913  1.00  0.00    -0.388 OA
ATOM     28  H   UNL     1      25.898  36.036   6.428  1.00  0.00     0.211 HD
ENDBRANCH   7  27
ENDBRANCH   6   7
BRANCH   6  29
ATOM     29  O   UNL     1      29.271  35.399   6.011  1.00  0.00    -0.388 OA
ATOM     30  H   UNL     1      30.170  35.812   6.007  1.00  0.00     0.211 HD
ENDBRANCH   6  29
ENDBRANCH   5   6
ENDBRANCH   1   5
BRANCH   2  31
ATOM     31  O   UNL     1      26.315  40.510   4.524  1.00  0.00    -0.443 OA
BRANCH  31  32
ATOM     32  C   UNL     1      25.619  41.200   5.517  1.00  0.00     0.294 C 
BRANCH  32  33
ATOM     33  C   UNL     1      25.073  40.302   6.567  1.00  0.00     0.121 A 
ATOM     34  C   UNL     1      23.793  39.792   6.610  1.00  0.00     0.148 A 
ATOM     35  N   UNL     1      25.678  39.801   7.672  1.00  0.00    -0.131 NA
ATOM     36  N   UNL     1      23.645  39.016   7.705  1.00  0.00    -0.185 N 
ATOM     37  N   UNL     1      24.802  39.048   8.317  1.00  0.00    -0.059 NA
BRANCH  36  38
ATOM     38  C   UNL     1      22.482  38.310   8.115  1.00  0.00     0.257 A 
ATOM     39  N   UNL     1      22.242  37.029   7.785  1.00  0.00    -0.175 NA
ATOM     40  N   UNL     1      21.564  38.938   8.868  1.00  0.00    -0.196 NA
ATOM     41  C   UNL     1      21.142  36.359   8.171  1.00  0.00     0.225 A 
ATOM     42  C   UNL     1      20.438  38.283   9.275  1.00  0.00     0.133 A 
ATOM     43  N   UNL     1      20.246  37.001   8.918  1.00  0.00    -0.198 NA
ATOM     44  C   UNL     1      19.440  38.987  10.104  1.00  0.00     0.090 C 
BRANCH  41  45
ATOM     45  N   UNL     1      20.888  35.014   7.826  1.00  0.00    -0.368 N 
ATOM     46  H   UNL     1      21.649  34.313   7.889  1.00  0.00     0.159 HD
ATOM     47  H   UNL     1      19.953  34.701   7.506  1.00  0.00     0.159 HD
ENDBRANCH  41  45
ENDBRANCH  36  38
ENDBRANCH  32  33
ENDBRANCH  31  32
ENDBRANCH   2  31
TORSDOF 16
BEGIN_RES LYS A 135
REMARK  4 active torsions:
REMARK  status: ('A' for Active; 'I' for Inactive)
REMARK    1  A    between atoms: CA   and  CB  
REMARK    2  A    between atoms: CB   and  CG  
REMARK    3  A    between atoms: CG   and  CD  
REMARK    4  A    between atoms: CD   and  CE  
ROOT
ATOM      1  CA  LYS A 135      33.193  34.663   9.290  1.00 25.02     0.186 C 
ENDROOT
BRANCH   1   2
ATOM      2  CB  LYS A 135      32.060  35.360  10.034  1.00 26.63     0.034 C 
BRANCH   2   3
ATOM      3  CG  LYS A 135      30.705  34.753   9.774  1.00 29.45     0.005 C 
BRANCH   3   4
ATOM      4  CD  LYS A 135      29.913  34.635  11.067  1.00 32.00     0.041 C 
BRANCH   4   5
ATOM      5  CE  LYS A 135      30.778  35.002  12.257  1.00 34.25     0.338 C 
ATOM      6  NZ  LYS A 135      30.384  34.227  13.466  1.00 35.99     0.618 N 
ENDBRANCH   4   5
ENDBRANCH   3   4
ENDBRANCH   2   3
ENDBRANCH   1   2
END_RES LYS A 135
BEGIN_RES ARG A 124
REMARK  4 active torsions:
REMARK  status: ('A' for Active; 'I' for Inactive)
REMARK    5  A    between atoms: CA   and  CB  
REMARK    6  A    between atoms: CB   and  CG  
REMARK    7  A    between atoms: CG   and  CD  
REMARK    8  A    between atoms: CD   and  NE  
REMARK       I    between atoms: NE   and  CZ  
ROOT
ATOM      7  CA  ARG A 124      31.045  26.515   9.594  1.00 17.84     0.186 C 
ENDROOT
BRANCH   7   8
ATOM      8  CB  ARG A 124      29.529  26.705   9.647  1.00 16.18     0.036 C 
BRANCH   8   9
ATOM      9  CG  ARG A 124      28.922  26.925  11.079  1.00 16.22     0.029 C 
BRANCH   9  10
ATOM     10  CD  ARG A 124      27.632  26.108  11.316  1.00 15.09     0.145 C 
BRANCH  10  11
ATOM     11  NE  ARG A 124      26.420  26.939  11.487  1.00 16.98    -0.083 NA
ATOM     12  CZ  ARG A 124      26.037  27.498  12.630  1.00 18.21     0.782 C 
ATOM     13  NH1 ARG A 124      26.751  27.356  13.741  1.00 21.11     0.063 N 
ATOM     14  NH2 ARG A 124      24.938  28.235  12.670  1.00 21.25     0.063 N 
ENDBRANCH  10  11
ENDBRANCH   9  10
ENDBRANCH   8   9
ENDBRANCH   7   8
END_RES ARG A 124
BEGIN_RES ASN A 133
REMARK  2 active torsions:
REMARK  status: ('A' for Active; 'I' for Inactive)
REMARK    9  A    between atoms: CA   and  CB  
REMARK   10  A    between atoms: CB   and  CG  
ROOT
ATOM     15  CA  ASN A 133      31.225  30.257  11.749  1.00 18.15     0.196 C 
ENDROOT
BRANCH  15  16
ATOM     16  CB  ASN A 133      30.092  31.240  11.460  1.00 18.27     0.126 C 
BRANCH  16  17
ATOM     17  CG  ASN A 133      28.731  30.631  11.598  1.00 18.94     0.276 C 
ATOM     18  OD1 ASN A 133      28.269  29.897  10.723  1.00 18.09    -0.269 OA
ATOM     19  ND2 ASN A 133      28.067  30.935  12.712  1.00 18.93    -0.107 N 
ENDBRANCH  16  17
ENDBRANCH  15  16
END_RES ASN A 133
BEGIN_RES LYS A 131
REMARK  4 active torsions:
REMARK  status: ('A' for Active; 'I' for Inactive)
REMARK   11  A    between atoms: CA   and  CB  
REMARK   12  A    between atoms: CB   and  CG  
REMARK   13  A    between atoms: CG   and  CD  
REMARK   14  A    between atoms: CD   and  CE  
ROOT
ATOM     20  CA  LYS A 131      29.867  25.555  16.977  1.00 20.52     0.186 C 
ENDROOT
BRANCH  20  21
ATOM     21  CB  LYS A 131      28.345  25.722  17.026  1.00 20.94     0.034 C 
BRANCH  21  22
ATOM     22  CG  LYS A 131      27.600  24.414  16.810  1.00 22.96     0.005 C 
BRANCH  22  23
ATOM     23  CD  LYS A 131      26.172  24.492  17.274  1.00 24.33     0.041 C 
BRANCH  23  24
ATOM     24  CE  LYS A 131      25.909  23.393  18.298  1.00 26.91     0.338 C 
ATOM     25  NZ  LYS A 131      25.516  23.980  19.601  1.00 27.40     0.618 N 
ENDBRANCH  23  24
ENDBRANCH  22  23
ENDBRANCH  21  22
ENDBRANCH  20  21
END_RES LYS A 131
