REMARK VINA RESULT:    -3.944      2.410      3.710
REMARK INTER + INTRA:         -17.545
REMARK INTER:                 -10.624
REMARK INTRA:                  -6.921
REMARK UNBOUND:                -8.298
REMARK SMILES CC(=O)N[C@@H]1[C@@H](O)C[C@](O)(C(=O)O)O[C@H]1C(O)[C@H](O)CNC(=O)OCc1cn(CCCCCCCCCCC(=O)O)nn1
REMARK SMILES IDX 29 1 28 2 26 3 27 4 43 5 42 6 25 7 24 8 22 9 21 10 23 12
REMARK SMILES IDX 20 13 18 14 16 15 15 16 9 17 8 18 14 19 6 20 5 21 10 22
REMARK SMILES IDX 11 24 12 25 13 26 7 28 4 30 2 31 1 33 3 34 17 35 19 37 30 39
REMARK SMILES IDX 31 40 32 41 33 42 34 43 35 44 36 45 37 46 38 47 39 48 40 49
REMARK SMILES IDX 41 50
REMARK H PARENT 21 11 10 23 13 27 7 29 4 32 17 36 19 38 41 51
REMARK Flexibility Score: inf
ROOT
ATOM      1  C   UNL     1      29.048  31.732  15.577  1.00  0.00     0.146 C 
ENDROOT
BRANCH   1   2
ATOM      2  N   UNL     1      27.884  30.966  15.930  1.00  0.00    -0.252 N 
ATOM      3  C   UNL     1      25.858  30.273  16.406  1.00  0.00     0.120 A 
ATOM      4  C   UNL     1      26.588  31.374  16.050  1.00  0.00     0.138 A 
ATOM      5  N   UNL     1      26.713  29.231  16.493  1.00  0.00    -0.132 NA
ATOM      6  N   UNL     1      27.905  29.677  16.203  1.00  0.00    -0.067 NA
BRANCH   3   7
ATOM      7  C   UNL     1      24.399  30.261  16.646  1.00  0.00     0.294 C 
BRANCH   7   8
ATOM      8  O   UNL     1      24.018  29.097  17.346  1.00  0.00    -0.443 OA
BRANCH   8   9
ATOM      9  C   UNL     1      24.617  28.769  18.555  1.00  0.00     0.407 C 
ATOM     10  N   UNL     1      25.397  27.591  18.705  1.00  0.00    -0.319 N 
ATOM     11  H   UNL     1      25.534  26.943  17.900  1.00  0.00     0.167 HD
ATOM     12  O   UNL     1      24.450  29.561  19.545  1.00  0.00    -0.225 OA
BRANCH  10  13
ATOM     13  C   UNL     1      25.997  27.291  19.967  1.00  0.00     0.154 C 
BRANCH  13  14
ATOM     14  C   UNL     1      27.492  27.529  19.973  1.00  0.00     0.165 C 
BRANCH  14  15
ATOM     15  C   UNL     1      27.796  28.873  20.563  1.00  0.00     0.176 C 
BRANCH  15  16
ATOM     16  C   UNL     1      29.116  28.826  21.302  1.00  0.00     0.178 C 
ATOM     17  C   UNL     1      31.400  28.873  20.914  1.00  0.00     0.269 C 
ATOM     18  C   UNL     1      31.461  28.187  22.260  1.00  0.00     0.112 C 
ATOM     19  O   UNL     1      30.123  28.869  20.376  1.00  0.00    -0.332 OA
ATOM     20  C   UNL     1      30.530  27.006  22.229  1.00  0.00     0.145 C 
ATOM     21  C   UNL     1      29.109  27.586  22.159  1.00  0.00     0.142 C 
BRANCH  17  22
ATOM     22  O   UNL     1      32.207  28.135  20.053  1.00  0.00    -0.357 OA
ATOM     23  H   UNL     1      31.671  27.657  19.381  1.00  0.00     0.214 HD
ENDBRANCH  17  22
BRANCH  17  24
ATOM     24  C   UNL     1      31.965  30.214  21.069  1.00  0.00     0.364 C 
ATOM     25  O   UNL     1      33.112  30.346  21.559  1.00  0.00    -0.246 OA
BRANCH  24  26
ATOM     26  O   UNL     1      31.308  31.382  20.703  1.00  0.00    -0.477 OA
ATOM     27  H   UNL     1      31.530  32.250  21.216  1.00  0.00     0.296 HD
ENDBRANCH  24  26
ENDBRANCH  17  24
BRANCH  20  28
ATOM     28  O   UNL     1      30.804  26.182  21.159  1.00  0.00    -0.391 OA
ATOM     29  H   UNL     1      30.186  25.409  21.201  1.00  0.00     0.211 HD
ENDBRANCH  20  28
BRANCH  21  30
ATOM     30  N   UNL     1      28.749  27.895  23.526  1.00  0.00    -0.348 N 
ATOM     31  C   UNL     1      27.542  27.366  24.042  1.00  0.00     0.217 C 
ATOM     32  H   UNL     1      29.353  28.496  24.141  1.00  0.00     0.163 HD
ATOM     33  C   UNL     1      27.133  27.662  25.450  1.00  0.00     0.114 C 
ATOM     34  O   UNL     1      26.815  26.651  23.326  1.00  0.00    -0.275 OA
ENDBRANCH  21  30
ENDBRANCH  15  16
BRANCH  15  35
ATOM     35  O   UNL     1      26.735  29.224  21.403  1.00  0.00    -0.388 OA
ATOM     36  H   UNL     1      25.959  28.644  21.312  1.00  0.00     0.211 HD
ENDBRANCH  15  35
ENDBRANCH  14  15
BRANCH  14  37
ATOM     37  O   UNL     1      28.019  27.494  18.682  1.00  0.00    -0.388 OA
ATOM     38  H   UNL     1      28.464  26.644  18.501  1.00  0.00     0.211 HD
ENDBRANCH  14  37
ENDBRANCH  13  14
ENDBRANCH  10  13
ENDBRANCH   8   9
ENDBRANCH   7   8
ENDBRANCH   3   7
ENDBRANCH   1   2
BRANCH   1  39
ATOM     39  C   UNL     1      30.239  31.183  16.314  1.00  0.00     0.024 C 
BRANCH  39  40
ATOM     40  C   UNL     1      30.738  32.105  17.390  1.00  0.00     0.002 C 
BRANCH  40  41
ATOM     41  C   UNL     1      30.818  33.539  16.929  1.00  0.00     0.000 C 
BRANCH  41  42
ATOM     42  C   UNL     1      31.217  34.431  18.101  1.00  0.00     0.000 C 
BRANCH  42  43
ATOM     43  C   UNL     1      32.480  35.168  17.741  1.00  0.00     0.000 C 
BRANCH  43  44
ATOM     44  C   UNL     1      32.769  35.086  16.270  1.00  0.00     0.000 C 
BRANCH  44  45
ATOM     45  C   UNL     1      32.897  36.452  15.682  1.00  0.00     0.001 C 
BRANCH  45  46
ATOM     46  C   UNL     1      31.785  36.720  14.671  1.00  0.00     0.012 C 
BRANCH  46  47
ATOM     47  C   UNL     1      31.599  35.573  13.715  1.00  0.00     0.122 C 
BRANCH  47  48
ATOM     48  C   UNL     1      32.689  35.688  12.697  1.00  0.00     0.303 C 
ATOM     49  O   UNL     1      32.751  36.609  11.856  1.00  0.00    -0.252 OA
BRANCH  48  50
ATOM     50  O   UNL     1      33.699  34.724  12.673  1.00  0.00    -0.481 OA
ATOM     51  H   UNL     1      33.581  33.883  13.211  1.00  0.00     0.296 HD
ENDBRANCH  48  50
ENDBRANCH  47  48
ENDBRANCH  46  47
ENDBRANCH  45  46
ENDBRANCH  44  45
ENDBRANCH  43  44
ENDBRANCH  42  43
ENDBRANCH  41  42
ENDBRANCH  40  41
ENDBRANCH  39  40
ENDBRANCH   1  39
TORSDOF 26
BEGIN_RES LYS A 131
REMARK  4 active torsions:
REMARK  status: ('A' for Active; 'I' for Inactive)
REMARK    1  A    between atoms: CA   and  CB  
REMARK    2  A    between atoms: CB   and  CG  
REMARK    3  A    between atoms: CG   and  CD  
REMARK    4  A    between atoms: CD   and  CE  
ROOT
ATOM      1  CA  LYS A 131      29.867  25.555  16.977  1.00 20.52     0.186 C 
ENDROOT
BRANCH   1   2
ATOM      2  CB  LYS A 131      28.345  25.722  17.026  1.00 20.94     0.034 C 
BRANCH   2   3
ATOM      3  CG  LYS A 131      27.601  24.400  16.908  1.00 22.96     0.005 C 
BRANCH   3   4
ATOM      4  CD  LYS A 131      26.164  24.519  17.334  1.00 24.33     0.041 C 
BRANCH   4   5
ATOM      5  CE  LYS A 131      25.954  23.750  18.634  1.00 26.91     0.338 C 
ATOM      6  NZ  LYS A 131      24.822  22.802  18.499  1.00 27.40     0.618 N 
ENDBRANCH   4   5
ENDBRANCH   3   4
ENDBRANCH   2   3
ENDBRANCH   1   2
END_RES LYS A 131
BEGIN_RES LYS A 135
REMARK  4 active torsions:
REMARK  status: ('A' for Active; 'I' for Inactive)
REMARK    5  A    between atoms: CA   and  CB  
REMARK    6  A    between atoms: CB   and  CG  
REMARK    7  A    between atoms: CG   and  CD  
REMARK    8  A    between atoms: CD   and  CE  
ROOT
ATOM      7  CA  LYS A 135      33.193  34.663   9.290  1.00 25.02     0.186 C 
ENDROOT
BRANCH   7   8
ATOM      8  CB  LYS A 135      32.060  35.360  10.034  1.00 26.63     0.034 C 
BRANCH   8   9
ATOM      9  CG  LYS A 135      30.714  34.716   9.822  1.00 29.45     0.005 C 
BRANCH   9  10
ATOM     10  CD  LYS A 135      30.450  34.498   8.341  1.00 32.00     0.041 C 
BRANCH  10  11
ATOM     11  CE  LYS A 135      29.400  35.470   7.838  1.00 34.25     0.338 C 
ATOM     12  NZ  LYS A 135      28.041  34.863   7.884  1.00 35.99     0.618 N 
ENDBRANCH  10  11
ENDBRANCH   9  10
ENDBRANCH   8   9
ENDBRANCH   7   8
END_RES LYS A 135
