REMARK VINA RESULT:    -4.060      6.609     12.485
REMARK INTER + INTRA:         -14.528
REMARK INTER:                  -6.564
REMARK INTRA:                  -7.964
REMARK UNBOUND:                -6.788
REMARK SMILES CC(=O)N[C@@H]1[C@@H](O)C[C@](O)(C(=O)O)O[C@H]1C(O)[C@H](O)CNC(=O)OCc1cn(CC(=O)NCc2cccs2)nn1
REMARK SMILES IDX 21 1 22 2 23 3 20 5 18 6 16 7 15 8 9 9 8 10 14 11 6 12 5 13
REMARK SMILES IDX 10 14 11 16 12 17 13 18 7 20 4 22 2 23 1 25 3 26 17 27 19 29
REMARK SMILES IDX 24 31 25 32 26 33 27 34 40 35 28 36 39 37 29 38 30 39 31 40
REMARK SMILES IDX 32 41 33 43 34 44 35 45 38 46 36 47 37 48
REMARK H PARENT 21 4 10 15 13 19 7 21 4 24 17 28 19 30 32 42
REMARK Flexibility Score: inf
ROOT
ATOM      1  N   UNL     1      32.972  28.444  22.163  1.00  0.00    -0.319 N 
ATOM      2  C   UNL     1      32.934  28.825  23.520  1.00  0.00     0.407 C 
ATOM      3  O   UNL     1      32.626  30.009  23.800  1.00  0.00    -0.225 OA
ATOM      4  H   UNL     1      33.231  27.454  21.953  1.00  0.00     0.167 HD
ENDROOT
BRANCH   1   5
ATOM      5  C   UNL     1      32.677  29.316  21.044  1.00  0.00     0.154 C 
BRANCH   5   6
ATOM      6  C   UNL     1      31.348  28.975  20.431  1.00  0.00     0.165 C 
BRANCH   6   7
ATOM      7  C   UNL     1      30.192  29.739  20.981  1.00  0.00     0.176 C 
BRANCH   7   8
ATOM      8  C   UNL     1      28.954  29.812  20.169  1.00  0.00     0.178 C 
ATOM      9  C   UNL     1      27.400  28.310  19.273  1.00  0.00     0.269 C 
ATOM     10  C   UNL     1      26.654  29.612  19.048  1.00  0.00     0.112 C 
ATOM     11  O   UNL     1      28.553  28.447  19.988  1.00  0.00    -0.332 OA
ATOM     12  C   UNL     1      27.563  30.544  18.325  1.00  0.00     0.145 C 
ATOM     13  C   UNL     1      29.017  30.370  18.806  1.00  0.00     0.142 C 
BRANCH   9  14
ATOM     14  O   UNL     1      27.624  27.784  17.986  1.00  0.00    -0.357 OA
ATOM     15  H   UNL     1      26.825  27.248  17.723  1.00  0.00     0.214 HD
ENDBRANCH   9  14
BRANCH   9  16
ATOM     16  C   UNL     1      26.540  27.340  20.000  1.00  0.00     0.364 C 
ATOM     17  O   UNL     1      25.375  27.143  19.595  1.00  0.00    -0.246 OA
BRANCH  16  18
ATOM     18  O   UNL     1      26.992  26.644  21.117  1.00  0.00    -0.477 OA
ATOM     19  H   UNL     1      26.611  26.943  22.015  1.00  0.00     0.296 HD
ENDBRANCH  16  18
ENDBRANCH   9  16
BRANCH  12  20
ATOM     20  O   UNL     1      27.486  30.449  16.952  1.00  0.00    -0.391 OA
ATOM     21  H   UNL     1      26.990  31.213  16.566  1.00  0.00     0.211 HD
ENDBRANCH  12  20
BRANCH  13  22
ATOM     22  N   UNL     1      29.635  31.627  18.604  1.00  0.00    -0.348 N 
ATOM     23  C   UNL     1      30.370  31.878  17.426  1.00  0.00     0.217 C 
ATOM     24  H   UNL     1      29.567  32.384  19.298  1.00  0.00     0.163 HD
ATOM     25  C   UNL     1      31.041  33.189  17.168  1.00  0.00     0.114 C 
ATOM     26  O   UNL     1      30.509  31.002  16.508  1.00  0.00    -0.275 OA
ENDBRANCH  13  22
ENDBRANCH   7   8
BRANCH   7  27
ATOM     27  O   UNL     1      30.021  29.649  22.354  1.00  0.00    -0.388 OA
ATOM     28  H   UNL     1      29.115  29.473  22.638  1.00  0.00     0.211 HD
ENDBRANCH   7  27
ENDBRANCH   6   7
BRANCH   6  29
ATOM     29  O   UNL     1      31.105  27.612  20.317  1.00  0.00    -0.388 OA
ATOM     30  H   UNL     1      30.148  27.393  20.246  1.00  0.00     0.211 HD
ENDBRANCH   6  29
ENDBRANCH   5   6
ENDBRANCH   1   5
BRANCH   2  31
ATOM     31  O   UNL     1      33.225  27.933  24.562  1.00  0.00    -0.443 OA
BRANCH  31  32
ATOM     32  C   UNL     1      32.621  26.653  24.605  1.00  0.00     0.294 C 
BRANCH  32  33
ATOM     33  C   UNL     1      31.199  26.800  24.188  1.00  0.00     0.120 A 
ATOM     34  C   UNL     1      30.131  27.244  24.939  1.00  0.00     0.138 A 
ATOM     35  N   UNL     1      30.674  26.524  22.983  1.00  0.00    -0.132 NA
ATOM     36  N   UNL     1      29.023  27.222  24.185  1.00  0.00    -0.243 N 
ATOM     37  N   UNL     1      29.381  26.780  22.998  1.00  0.00    -0.067 NA
BRANCH  36  38
ATOM     38  C   UNL     1      27.687  27.632  24.646  1.00  0.00     0.245 C 
BRANCH  38  39
ATOM     39  C   UNL     1      27.443  28.984  24.089  1.00  0.00     0.242 C 
ATOM     40  O   UNL     1      26.879  29.075  22.949  1.00  0.00    -0.273 OA
ATOM     41  N   UNL     1      27.789  30.201  24.721  1.00  0.00    -0.350 N 
ATOM     42  H   UNL     1      28.248  30.125  25.647  1.00  0.00     0.163 HD
BRANCH  41  43
ATOM     43  C   UNL     1      27.530  31.498  24.141  1.00  0.00     0.162 C 
BRANCH  43  44
ATOM     44  C   UNL     1      28.774  32.331  24.380  1.00  0.00     0.024 A 
ATOM     45  C   UNL     1      29.906  32.008  24.994  1.00  0.00     0.017 A 
ATOM     46  S   UNL     1      29.008  33.974  23.881  1.00  0.00    -0.147 S 
ATOM     47  C   UNL     1      30.909  32.906  25.106  1.00  0.00     0.012 A 
ATOM     48  C   UNL     1      30.664  34.164  24.538  1.00  0.00     0.065 A 
ENDBRANCH  43  44
ENDBRANCH  41  43
ENDBRANCH  38  39
ENDBRANCH  36  38
ENDBRANCH  32  33
ENDBRANCH  31  32
ENDBRANCH   2  31
TORSDOF 18
BEGIN_RES LYS A 131
REMARK  4 active torsions:
REMARK  status: ('A' for Active; 'I' for Inactive)
REMARK    1  A    between atoms: CA   and  CB  
REMARK    2  A    between atoms: CB   and  CG  
REMARK    3  A    between atoms: CG   and  CD  
REMARK    4  A    between atoms: CD   and  CE  
ROOT
ATOM      1  CA  LYS A 131      29.867  25.555  16.977  1.00 20.52     0.186 C 
ENDROOT
BRANCH   1   2
ATOM      2  CB  LYS A 131      28.345  25.722  17.026  1.00 20.94     0.034 C 
BRANCH   2   3
ATOM      3  CG  LYS A 131      27.602  24.399  16.926  1.00 22.96     0.005 C 
BRANCH   3   4
ATOM      4  CD  LYS A 131      26.154  24.532  17.310  1.00 24.33     0.041 C 
BRANCH   4   5
ATOM      5  CE  LYS A 131      25.725  23.308  18.112  1.00 26.91     0.338 C 
ATOM      6  NZ  LYS A 131      25.529  23.664  19.537  1.00 27.40     0.618 N 
ENDBRANCH   4   5
ENDBRANCH   3   4
ENDBRANCH   2   3
ENDBRANCH   1   2
END_RES LYS A 131
BEGIN_RES LYS A 135
REMARK  4 active torsions:
REMARK  status: ('A' for Active; 'I' for Inactive)
REMARK    5  A    between atoms: CA   and  CB  
REMARK    6  A    between atoms: CB   and  CG  
REMARK    7  A    between atoms: CG   and  CD  
REMARK    8  A    between atoms: CD   and  CE  
ROOT
ATOM      7  CA  LYS A 135      33.193  34.663   9.290  1.00 25.02     0.186 C 
ENDROOT
BRANCH   7   8
ATOM      8  CB  LYS A 135      32.060  35.360  10.034  1.00 26.63     0.034 C 
BRANCH   8   9
ATOM      9  CG  LYS A 135      30.729  34.667   9.891  1.00 29.45     0.005 C 
BRANCH   9  10
ATOM     10  CD  LYS A 135      30.339  34.551   8.426  1.00 32.00     0.041 C 
BRANCH  10  11
ATOM     11  CE  LYS A 135      29.324  35.616   8.059  1.00 34.25     0.338 C 
ATOM     12  NZ  LYS A 135      28.901  35.488   6.637  1.00 35.99     0.618 N 
ENDBRANCH  10  11
ENDBRANCH   9  10
ENDBRANCH   8   9
ENDBRANCH   7   8
END_RES LYS A 135
