REMARK VINA RESULT:    -6.358      2.681      3.869
REMARK INTER + INTRA:         -15.582
REMARK INTER:                 -11.451
REMARK INTRA:                  -4.131
REMARK UNBOUND:                -4.578
REMARK SMILES CC(=O)N[C@@H]1[C@@H](O)C[C@](O)(C(=O)O)O[C@H]1C(O)[C@H](O)CNC(=O)OCc1cn(C2c3ccccc3-c3ccccc32)nn1
REMARK SMILES IDX 20 1 18 2 16 3 15 4 9 5 8 6 14 7 6 8 5 9 10 10 11 12 12 13
REMARK SMILES IDX 13 14 7 16 4 18 2 19 1 21 3 22 17 23 19 25 21 27 22 28 23 30
REMARK SMILES IDX 24 31 25 32 26 33 27 34 43 35 28 36 42 37 29 38 30 39 41 40
REMARK SMILES IDX 31 41 35 42 36 43 40 44 32 45 34 46 37 47 39 48 33 49 38 50
REMARK H PARENT 10 11 13 15 7 17 4 20 17 24 19 26 21 29
REMARK Flexibility Score: inf
ROOT
ATOM      1  C   UNL     1      29.932  33.428  18.673  1.00  0.00     0.154 C 
ENDROOT
BRANCH   1   2
ATOM      2  C   UNL     1      30.680  32.170  18.914  1.00  0.00     0.165 C 
BRANCH   2   3
ATOM      3  C   UNL     1      29.866  30.936  18.685  1.00  0.00     0.176 C 
BRANCH   3   4
ATOM      4  C   UNL     1      28.590  30.833  19.473  1.00  0.00     0.178 C 
ATOM      5  C   UNL     1      28.170  28.627  20.139  1.00  0.00     0.269 C 
ATOM      6  C   UNL     1      26.676  28.815  20.302  1.00  0.00     0.112 C 
ATOM      7  O   UNL     1      28.798  29.805  20.394  1.00  0.00    -0.332 OA
ATOM      8  C   UNL     1      26.247  30.002  19.519  1.00  0.00     0.145 C 
ATOM      9  C   UNL     1      27.363  30.588  18.638  1.00  0.00     0.142 C 
BRANCH   5  10
ATOM     10  O   UNL     1      28.378  28.055  18.912  1.00  0.00    -0.357 OA
ATOM     11  H   UNL     1      27.743  27.328  18.727  1.00  0.00     0.214 HD
ENDBRANCH   5  10
BRANCH   5  12
ATOM     12  C   UNL     1      28.581  27.661  21.204  1.00  0.00     0.364 C 
ATOM     13  O   UNL     1      28.135  27.803  22.366  1.00  0.00    -0.246 OA
BRANCH  12  14
ATOM     14  O   UNL     1      29.445  26.603  20.961  1.00  0.00    -0.477 OA
ATOM     15  H   UNL     1      29.116  25.632  21.044  1.00  0.00     0.296 HD
ENDBRANCH  12  14
ENDBRANCH   5  12
BRANCH   8  16
ATOM     16  O   UNL     1      25.159  29.770  18.694  1.00  0.00    -0.391 OA
ATOM     17  H   UNL     1      25.370  29.835  17.735  1.00  0.00     0.211 HD
ENDBRANCH   8  16
BRANCH   9  18
ATOM     18  N   UNL     1      26.820  31.849  18.185  1.00  0.00    -0.348 N 
ATOM     19  C   UNL     1      26.793  32.281  16.833  1.00  0.00     0.217 C 
ATOM     20  H   UNL     1      26.416  32.487  18.901  1.00  0.00     0.163 HD
ATOM     21  C   UNL     1      26.212  33.606  16.442  1.00  0.00     0.114 C 
ATOM     22  O   UNL     1      27.278  31.509  15.966  1.00  0.00    -0.275 OA
ENDBRANCH   9  18
ENDBRANCH   3   4
BRANCH   3  23
ATOM     23  O   UNL     1      29.645  30.628  17.348  1.00  0.00    -0.388 OA
ATOM     24  H   UNL     1      30.438  30.387  16.843  1.00  0.00     0.211 HD
ENDBRANCH   3  23
ENDBRANCH   2   3
BRANCH   2  25
ATOM     25  O   UNL     1      31.110  32.130  20.238  1.00  0.00    -0.388 OA
ATOM     26  H   UNL     1      31.341  33.009  20.595  1.00  0.00     0.211 HD
ENDBRANCH   2  25
ENDBRANCH   1   2
BRANCH   1  27
ATOM     27  N   UNL     1      30.376  34.220  17.588  1.00  0.00    -0.319 N 
ATOM     28  C   UNL     1      29.733  35.390  17.146  1.00  0.00     0.407 C 
ATOM     29  H   UNL     1      31.259  33.928  17.054  1.00  0.00     0.167 HD
ATOM     30  O   UNL     1      28.721  35.828  17.684  1.00  0.00    -0.225 OA
BRANCH  28  31
ATOM     31  O   UNL     1      30.226  36.121  16.050  1.00  0.00    -0.443 OA
BRANCH  31  32
ATOM     32  C   UNL     1      30.763  35.525  14.908  1.00  0.00     0.294 C 
BRANCH  32  33
ATOM     33  C   UNL     1      29.843  35.527  13.744  1.00  0.00     0.120 A 
ATOM     34  C   UNL     1      29.469  34.490  12.926  1.00  0.00     0.139 A 
ATOM     35  N   UNL     1      29.213  36.620  13.309  1.00  0.00    -0.132 NA
ATOM     36  N   UNL     1      28.628  34.989  12.026  1.00  0.00    -0.240 N 
ATOM     37  N   UNL     1      28.485  36.275  12.272  1.00  0.00    -0.066 NA
BRANCH  36  38
ATOM     38  C   UNL     1      27.963  34.274  10.947  1.00  0.00     0.170 C 
ATOM     39  C   UNL     1      28.615  34.516   9.647  1.00  0.00    -0.011 A 
ATOM     40  C   UNL     1      26.575  34.671  10.779  1.00  0.00    -0.011 A 
ATOM     41  C   UNL     1      29.947  34.309   9.249  1.00  0.00     0.007 A 
ATOM     42  C   UNL     1      27.671  35.016   8.796  1.00  0.00    -0.012 A 
ATOM     43  C   UNL     1      26.393  35.116   9.497  1.00  0.00    -0.012 A 
ATOM     44  C   UNL     1      25.464  34.677  11.647  1.00  0.00     0.007 A 
ATOM     45  C   UNL     1      30.294  34.625   7.959  1.00  0.00     0.000 A 
ATOM     46  C   UNL     1      28.063  35.326   7.493  1.00  0.00     0.009 A 
ATOM     47  C   UNL     1      25.163  35.572   9.012  1.00  0.00     0.009 A 
ATOM     48  C   UNL     1      24.249  35.120  11.194  1.00  0.00     0.000 A 
ATOM     49  C   UNL     1      29.361  35.132   7.076  1.00  0.00     0.001 A 
ATOM     50  C   UNL     1      24.103  35.563   9.890  1.00  0.00     0.001 A 
ENDBRANCH  36  38
ENDBRANCH  32  33
ENDBRANCH  31  32
ENDBRANCH  28  31
ENDBRANCH   1  27
TORSDOF 15
BEGIN_RES LYS A 131
REMARK  4 active torsions:
REMARK  status: ('A' for Active; 'I' for Inactive)
REMARK    1  A    between atoms: CA   and  CB  
REMARK    2  A    between atoms: CB   and  CG  
REMARK    3  A    between atoms: CG   and  CD  
REMARK    4  A    between atoms: CD   and  CE  
ROOT
ATOM      1  CA  LYS A 131      29.867  25.555  16.977  1.00 20.52     0.186 C 
ENDROOT
BRANCH   1   2
ATOM      2  CB  LYS A 131      28.345  25.722  17.026  1.00 20.94     0.034 C 
BRANCH   2   3
ATOM      3  CG  LYS A 131      27.601  24.404  16.877  1.00 22.96     0.005 C 
BRANCH   3   4
ATOM      4  CD  LYS A 131      26.497  24.259  17.887  1.00 24.33     0.041 C 
BRANCH   4   5
ATOM      5  CE  LYS A 131      25.150  24.466  17.201  1.00 26.91     0.338 C 
ATOM      6  NZ  LYS A 131      24.399  23.190  17.138  1.00 27.40     0.618 N 
ENDBRANCH   4   5
ENDBRANCH   3   4
ENDBRANCH   2   3
ENDBRANCH   1   2
END_RES LYS A 131
BEGIN_RES LYS A 135
REMARK  4 active torsions:
REMARK  status: ('A' for Active; 'I' for Inactive)
REMARK    5  A    between atoms: CA   and  CB  
REMARK    6  A    between atoms: CB   and  CG  
REMARK    7  A    between atoms: CG   and  CD  
REMARK    8  A    between atoms: CD   and  CE  
ROOT
ATOM      7  CA  LYS A 135      33.193  34.663   9.290  1.00 25.02     0.186 C 
ENDROOT
BRANCH   7   8
ATOM      8  CB  LYS A 135      32.060  35.360  10.034  1.00 26.63     0.034 C 
BRANCH   8   9
ATOM      9  CG  LYS A 135      32.505  36.054  11.295  1.00 29.45     0.005 C 
BRANCH   9  10
ATOM     10  CD  LYS A 135      31.965  37.475  11.345  1.00 32.00     0.041 C 
BRANCH  10  11
ATOM     11  CE  LYS A 135      31.044  37.736  10.169  1.00 34.25     0.338 C 
ATOM     12  NZ  LYS A 135      30.148  38.896  10.436  1.00 35.99     0.618 N 
ENDBRANCH  10  11
ENDBRANCH   9  10
ENDBRANCH   8   9
ENDBRANCH   7   8
END_RES LYS A 135
