REMARK VINA RESULT:    -4.033      2.721      7.007
REMARK INTER + INTRA:         -15.018
REMARK INTER:                  -7.729
REMARK INTRA:                  -7.288
REMARK UNBOUND:                -7.565
REMARK SMILES CC(=O)N[C@@H]1[C@@H](O)C[C@](O)(C(=O)O)O[C@H]1C(O)[C@H](O)CNC(=O)OCc1cn(CC(=O)Nc2ncccn2)nn1
REMARK SMILES IDX 21 1 22 2 23 3 20 5 18 6 16 7 15 8 9 9 8 10 14 11 6 12 5 13
REMARK SMILES IDX 10 14 11 16 12 17 13 18 7 20 4 22 2 23 1 25 3 26 17 27 19 29
REMARK SMILES IDX 24 31 25 32 26 33 27 34 40 35 28 36 39 37 29 38 30 39 31 40
REMARK SMILES IDX 32 41 33 43 34 44 38 45 35 46 37 47 36 48
REMARK H PARENT 21 4 10 15 13 19 7 21 4 24 17 28 19 30 32 42
REMARK Flexibility Score: inf
ROOT
ATOM      1  N   UNL     1      25.525  32.597  17.297  1.00  0.00    -0.319 N 
ATOM      2  C   UNL     1      25.603  31.848  16.073  1.00  0.00     0.407 C 
ATOM      3  O   UNL     1      25.877  32.412  14.986  1.00  0.00    -0.225 OA
ATOM      4  H   UNL     1      25.300  32.114  18.183  1.00  0.00     0.167 HD
ENDROOT
BRANCH   1   5
ATOM      5  C   UNL     1      25.770  34.011  17.231  1.00  0.00     0.154 C 
BRANCH   5   6
ATOM      6  C   UNL     1      26.857  34.476  18.169  1.00  0.00     0.165 C 
BRANCH   6   7
ATOM      7  C   UNL     1      28.087  34.739  17.334  1.00  0.00     0.176 C 
BRANCH   7   8
ATOM      8  C   UNL     1      28.713  33.431  16.845  1.00  0.00     0.178 C 
ATOM      9  C   UNL     1      29.756  31.554  17.541  1.00  0.00     0.269 C 
ATOM     10  C   UNL     1      30.434  31.455  16.223  1.00  0.00     0.112 C 
ATOM     11  O   UNL     1      29.439  32.844  17.853  1.00  0.00    -0.332 OA
ATOM     12  C   UNL     1      30.743  32.768  15.545  1.00  0.00     0.145 C 
ATOM     13  C   UNL     1      29.624  33.763  15.674  1.00  0.00     0.142 C 
BRANCH   9  14
ATOM     14  O   UNL     1      30.682  31.154  18.563  1.00  0.00    -0.357 OA
ATOM     15  H   UNL     1      31.578  31.037  18.143  1.00  0.00     0.214 HD
ENDBRANCH   9  14
BRANCH   9  16
ATOM     16  C   UNL     1      28.625  30.589  17.668  1.00  0.00     0.364 C 
ATOM     17  O   UNL     1      27.870  30.621  18.641  1.00  0.00    -0.246 OA
BRANCH  16  18
ATOM     18  O   UNL     1      28.380  29.617  16.695  1.00  0.00    -0.477 OA
ATOM     19  H   UNL     1      28.637  29.747  15.733  1.00  0.00     0.296 HD
ENDBRANCH  16  18
ENDBRANCH   9  16
BRANCH  12  20
ATOM     20  O   UNL     1      31.922  33.251  16.119  1.00  0.00    -0.391 OA
ATOM     21  H   UNL     1      31.879  33.236  17.117  1.00  0.00     0.211 HD
ENDBRANCH  12  20
BRANCH  13  22
ATOM     22  N   UNL     1      28.831  33.933  14.507  1.00  0.00    -0.348 N 
ATOM     23  C   UNL     1      29.208  34.696  13.372  1.00  0.00     0.217 C 
ATOM     24  H   UNL     1      27.890  33.472  14.452  1.00  0.00     0.163 HD
ATOM     25  C   UNL     1      28.319  34.836  12.177  1.00  0.00     0.114 C 
ATOM     26  O   UNL     1      30.317  35.257  13.397  1.00  0.00    -0.275 OA
ENDBRANCH  13  22
ENDBRANCH   7   8
BRANCH   7  27
ATOM     27  O   UNL     1      27.822  35.582  16.271  1.00  0.00    -0.388 OA
ATOM     28  H   UNL     1      27.643  35.013  15.462  1.00  0.00     0.211 HD
ENDBRANCH   7  27
ENDBRANCH   6   7
BRANCH   6  29
ATOM     29  O   UNL     1      27.075  33.463  19.100  1.00  0.00    -0.388 OA
ATOM     30  H   UNL     1      26.543  33.693  19.909  1.00  0.00     0.211 HD
ENDBRANCH   6  29
ENDBRANCH   5   6
ENDBRANCH   1   5
BRANCH   2  31
ATOM     31  O   UNL     1      25.382  30.490  16.053  1.00  0.00    -0.443 OA
BRANCH  31  32
ATOM     32  C   UNL     1      24.497  29.784  16.872  1.00  0.00     0.294 C 
BRANCH  32  33
ATOM     33  C   UNL     1      25.234  28.795  17.687  1.00  0.00     0.120 A 
ATOM     34  C   UNL     1      25.111  28.522  19.033  1.00  0.00     0.138 A 
ATOM     35  N   UNL     1      26.176  27.966  17.210  1.00  0.00    -0.132 NA
ATOM     36  N   UNL     1      25.974  27.548  19.319  1.00  0.00    -0.243 N 
ATOM     37  N   UNL     1      26.600  27.236  18.199  1.00  0.00    -0.067 NA
BRANCH  36  38
ATOM     38  C   UNL     1      26.149  26.957  20.650  1.00  0.00     0.246 C 
BRANCH  38  39
ATOM     39  C   UNL     1      27.452  27.397  21.230  1.00  0.00     0.248 C 
ATOM     40  O   UNL     1      27.585  27.875  22.369  1.00  0.00    -0.272 OA
ATOM     41  N   UNL     1      28.625  27.258  20.418  1.00  0.00    -0.293 N 
ATOM     42  H   UNL     1      28.543  26.859  19.456  1.00  0.00     0.173 HD
BRANCH  41  43
ATOM     43  C   UNL     1      29.905  27.640  20.882  1.00  0.00     0.229 A 
ATOM     44  N   UNL     1      30.429  28.866  20.688  1.00  0.00    -0.221 NA
ATOM     45  N   UNL     1      30.669  26.759  21.556  1.00  0.00    -0.221 NA
ATOM     46  C   UNL     1      31.652  29.203  21.143  1.00  0.00     0.117 A 
ATOM     47  C   UNL     1      31.882  27.030  22.031  1.00  0.00     0.117 A 
ATOM     48  C   UNL     1      32.419  28.287  21.832  1.00  0.00     0.040 A 
ENDBRANCH  41  43
ENDBRANCH  38  39
ENDBRANCH  36  38
ENDBRANCH  32  33
ENDBRANCH  31  32
ENDBRANCH   2  31
TORSDOF 17
BEGIN_RES LYS A 131
REMARK  4 active torsions:
REMARK  status: ('A' for Active; 'I' for Inactive)
REMARK    1  A    between atoms: CA   and  CB  
REMARK    2  A    between atoms: CB   and  CG  
REMARK    3  A    between atoms: CG   and  CD  
REMARK    4  A    between atoms: CD   and  CE  
ROOT
ATOM      1  CA  LYS A 131      29.867  25.555  16.977  1.00 20.52     0.186 C 
ENDROOT
BRANCH   1   2
ATOM      2  CB  LYS A 131      28.345  25.722  17.026  1.00 20.94     0.034 C 
BRANCH   2   3
ATOM      3  CG  LYS A 131      27.599  24.472  16.585  1.00 22.96     0.005 C 
BRANCH   3   4
ATOM      4  CD  LYS A 131      27.283  23.564  17.740  1.00 24.33     0.041 C 
BRANCH   4   5
ATOM      5  CE  LYS A 131      25.832  23.766  18.164  1.00 26.91     0.338 C 
ATOM      6  NZ  LYS A 131      25.021  24.254  17.024  1.00 27.40     0.618 N 
ENDBRANCH   4   5
ENDBRANCH   3   4
ENDBRANCH   2   3
ENDBRANCH   1   2
END_RES LYS A 131
BEGIN_RES LYS A 135
REMARK  4 active torsions:
REMARK  status: ('A' for Active; 'I' for Inactive)
REMARK    5  A    between atoms: CA   and  CB  
REMARK    6  A    between atoms: CB   and  CG  
REMARK    7  A    between atoms: CG   and  CD  
REMARK    8  A    between atoms: CD   and  CE  
ROOT
ATOM      7  CA  LYS A 135      33.193  34.663   9.290  1.00 25.02     0.186 C 
ENDROOT
BRANCH   7   8
ATOM      8  CB  LYS A 135      32.060  35.360  10.034  1.00 26.63     0.034 C 
BRANCH   8   9
ATOM      9  CG  LYS A 135      30.812  35.533   9.207  1.00 29.45     0.005 C 
BRANCH   9  10
ATOM     10  CD  LYS A 135      30.163  34.186   8.927  1.00 32.00     0.041 C 
BRANCH  10  11
ATOM     11  CE  LYS A 135      28.735  34.372   8.450  1.00 34.25     0.338 C 
ATOM     12  NZ  LYS A 135      28.673  35.309   7.294  1.00 35.99     0.618 N 
ENDBRANCH  10  11
ENDBRANCH   9  10
ENDBRANCH   8   9
ENDBRANCH   7   8
END_RES LYS A 135
