REMARK VINA RESULT:    -4.432      2.398      6.141
REMARK INTER + INTRA:         -15.370
REMARK INTER:                  -8.789
REMARK INTRA:                  -6.581
REMARK UNBOUND:                -7.311
REMARK SMILES CC(=O)N[C@@H]1[C@@H](O)C[C@](O)(C(=O)O)O[C@H]1C(O)[C@H](O)CNC(=O)OCc1cn(-c2ccc(O)c([N+](=O)[O-])c2)nn1
REMARK SMILES IDX 21 1 22 2 23 3 20 5 18 6 16 7 15 8 9 9 8 10 14 11 6 12 5 13
REMARK SMILES IDX 10 14 11 16 12 17 13 18 7 20 4 22 2 23 1 25 3 26 17 27 19 29
REMARK SMILES IDX 24 31 25 32 26 33 27 34 40 35 28 36 39 37 29 38 30 39 38 40
REMARK SMILES IDX 31 41 34 42 32 43 35 44 36 45 37 46 33 47
REMARK H PARENT 21 4 10 15 13 19 7 21 4 24 17 28 19 30 33 48
REMARK Flexibility Score: inf
ROOT
ATOM      1  N   UNL     1      26.001  29.194  19.207  1.00  0.00    -0.319 N 
ATOM      2  C   UNL     1      25.514  30.464  18.797  1.00  0.00     0.407 C 
ATOM      3  O   UNL     1      25.772  31.526  19.456  1.00  0.00    -0.225 OA
ATOM      4  H   UNL     1      25.775  28.360  18.642  1.00  0.00     0.167 HD
ENDROOT
BRANCH   1   5
ATOM      5  C   UNL     1      26.804  29.101  20.390  1.00  0.00     0.154 C 
BRANCH   5   6
ATOM      6  C   UNL     1      28.251  28.823  20.193  1.00  0.00     0.165 C 
BRANCH   6   7
ATOM      7  C   UNL     1      29.123  30.034  19.989  1.00  0.00     0.176 C 
BRANCH   7   8
ATOM      8  C   UNL     1      30.437  29.983  20.706  1.00  0.00     0.178 C 
ATOM      9  C   UNL     1      31.730  28.804  22.192  1.00  0.00     0.269 C 
ATOM     10  C   UNL     1      32.776  29.704  21.574  1.00  0.00     0.112 C 
ATOM     11  O   UNL     1      30.466  28.977  21.656  1.00  0.00    -0.332 OA
ATOM     12  C   UNL     1      32.354  31.127  21.723  1.00  0.00     0.145 C 
ATOM     13  C   UNL     1      30.944  31.305  21.149  1.00  0.00     0.142 C 
BRANCH   9  14
ATOM     14  O   UNL     1      31.692  29.100  23.547  1.00  0.00    -0.357 OA
ATOM     15  H   UNL     1      30.833  28.738  23.899  1.00  0.00     0.214 HD
ENDBRANCH   9  14
BRANCH   9  16
ATOM     16  C   UNL     1      32.200  27.406  22.032  1.00  0.00     0.364 C 
ATOM     17  O   UNL     1      31.557  26.576  21.336  1.00  0.00    -0.246 OA
BRANCH  16  18
ATOM     18  O   UNL     1      33.362  26.984  22.648  1.00  0.00    -0.477 OA
ATOM     19  H   UNL     1      33.643  26.023  22.710  1.00  0.00     0.296 HD
ENDBRANCH  16  18
ENDBRANCH   9  16
BRANCH  12  20
ATOM     20  O   UNL     1      32.384  31.425  23.098  1.00  0.00    -0.391 OA
ATOM     21  H   UNL     1      31.616  30.919  23.503  1.00  0.00     0.211 HD
ENDBRANCH  12  20
BRANCH  13  22
ATOM     22  N   UNL     1      31.077  32.136  19.942  1.00  0.00    -0.348 N 
ATOM     23  C   UNL     1      30.582  33.455  19.864  1.00  0.00     0.217 C 
ATOM     24  H   UNL     1      31.560  31.727  19.108  1.00  0.00     0.163 HD
ATOM     25  C   UNL     1      30.735  34.259  18.627  1.00  0.00     0.114 C 
ATOM     26  O   UNL     1      30.009  33.953  20.841  1.00  0.00    -0.275 OA
ENDBRANCH  13  22
ENDBRANCH   7   8
BRANCH   7  27
ATOM     27  O   UNL     1      29.380  30.250  18.635  1.00  0.00    -0.388 OA
ATOM     28  H   UNL     1      29.319  29.447  18.092  1.00  0.00     0.211 HD
ENDBRANCH   7  27
ENDBRANCH   6   7
BRANCH   6  29
ATOM     29  O   UNL     1      28.348  27.976  19.079  1.00  0.00    -0.388 OA
ATOM     30  H   UNL     1      27.415  27.743  18.804  1.00  0.00     0.211 HD
ENDBRANCH   6  29
ENDBRANCH   5   6
ENDBRANCH   1   5
BRANCH   2  31
ATOM     31  O   UNL     1      24.745  30.528  17.659  1.00  0.00    -0.443 OA
BRANCH  31  32
ATOM     32  C   UNL     1      25.209  29.955  16.476  1.00  0.00     0.294 C 
BRANCH  32  33
ATOM     33  C   UNL     1      26.641  30.243  16.199  1.00  0.00     0.121 A 
ATOM     34  C   UNL     1      27.226  31.462  15.885  1.00  0.00     0.144 A 
ATOM     35  N   UNL     1      27.665  29.370  16.199  1.00  0.00    -0.131 NA
ATOM     36  N   UNL     1      28.547  31.306  15.708  1.00  0.00    -0.220 N 
ATOM     37  N   UNL     1      28.791  30.022  15.904  1.00  0.00    -0.062 NA
BRANCH  36  38
ATOM     38  C   UNL     1      29.526  32.283  15.376  1.00  0.00     0.073 A 
ATOM     39  C   UNL     1      30.857  32.052  15.656  1.00  0.00     0.033 A 
ATOM     40  C   UNL     1      29.211  33.482  14.772  1.00  0.00     0.118 A 
ATOM     41  C   UNL     1      31.828  32.989  15.341  1.00  0.00     0.056 A 
ATOM     42  C   UNL     1      30.145  34.449  14.440  1.00  0.00     0.312 A 
ATOM     43  C   UNL     1      31.476  34.174  14.740  1.00  0.00     0.194 A 
BRANCH  42  44
ATOM     44  N   UNL     1      29.805  35.670  13.823  1.00  0.00     0.066 N 
ATOM     45  O   UNL     1      30.120  35.866  12.648  1.00  0.00    -0.258 OA
ATOM     46  O   UNL     1      29.134  36.622  14.523  1.00  0.00    -0.258 OA
ENDBRANCH  42  44
BRANCH  43  47
ATOM     47  O   UNL     1      32.414  35.149  14.405  1.00  0.00    -0.502 OA
ATOM     48  H   UNL     1      33.185  34.880  13.776  1.00  0.00     0.293 HD
ENDBRANCH  43  47
ENDBRANCH  36  38
ENDBRANCH  32  33
ENDBRANCH  31  32
ENDBRANCH   2  31
TORSDOF 17
BEGIN_RES LYS A 131
REMARK  4 active torsions:
REMARK  status: ('A' for Active; 'I' for Inactive)
REMARK    1  A    between atoms: CA   and  CB  
REMARK    2  A    between atoms: CB   and  CG  
REMARK    3  A    between atoms: CG   and  CD  
REMARK    4  A    between atoms: CD   and  CE  
ROOT
ATOM      1  CA  LYS A 131      29.867  25.555  16.977  1.00 20.52     0.186 C 
ENDROOT
BRANCH   1   2
ATOM      2  CB  LYS A 131      28.345  25.722  17.026  1.00 20.94     0.034 C 
BRANCH   2   3
ATOM      3  CG  LYS A 131      27.602  24.399  16.918  1.00 22.96     0.005 C 
BRANCH   3   4
ATOM      4  CD  LYS A 131      26.152  24.532  17.292  1.00 24.33     0.041 C 
BRANCH   4   5
ATOM      5  CE  LYS A 131      25.978  24.220  18.775  1.00 26.91     0.338 C 
ATOM      6  NZ  LYS A 131      25.802  25.470  19.552  1.00 27.40     0.618 N 
ENDBRANCH   4   5
ENDBRANCH   3   4
ENDBRANCH   2   3
ENDBRANCH   1   2
END_RES LYS A 131
BEGIN_RES LYS A 135
REMARK  4 active torsions:
REMARK  status: ('A' for Active; 'I' for Inactive)
REMARK    5  A    between atoms: CA   and  CB  
REMARK    6  A    between atoms: CB   and  CG  
REMARK    7  A    between atoms: CG   and  CD  
REMARK    8  A    between atoms: CD   and  CE  
ROOT
ATOM      7  CA  LYS A 135      33.193  34.663   9.290  1.00 25.02     0.186 C 
ENDROOT
BRANCH   7   8
ATOM      8  CB  LYS A 135      32.060  35.360  10.034  1.00 26.63     0.034 C 
BRANCH   8   9
ATOM      9  CG  LYS A 135      30.800  35.498   9.220  1.00 29.45     0.005 C 
BRANCH   9  10
ATOM     10  CD  LYS A 135      30.160  34.138   8.986  1.00 32.00     0.041 C 
BRANCH  10  11
ATOM     11  CE  LYS A 135      28.692  34.293   8.640  1.00 34.25     0.338 C 
ATOM     12  NZ  LYS A 135      27.825  33.714   9.704  1.00 35.99     0.618 N 
ENDBRANCH  10  11
ENDBRANCH   9  10
ENDBRANCH   8   9
ENDBRANCH   7   8
END_RES LYS A 135
