REMARK VINA RESULT:    -5.776      5.268     10.722
REMARK INTER + INTRA:         -14.482
REMARK INTER:                 -10.775
REMARK INTRA:                  -3.707
REMARK UNBOUND:                -4.485
REMARK SMILES CC(=O)N[C@@H]1[C@@H](O)C[C@](O)(C(=O)O)O[C@H]1C(O)[C@H](O)CNC(=O)OCc1cn(-c2ccccc2)nn1
REMARK SMILES IDX 20 1 18 2 16 3 15 4 9 5 8 6 14 7 6 8 5 9 10 10 11 12 12 13
REMARK SMILES IDX 13 14 7 16 4 18 2 19 1 21 3 22 17 23 19 25 21 27 22 28 23 30
REMARK SMILES IDX 24 31 25 32 26 33 27 34 36 35 28 36 35 37 29 38 30 39 34 40
REMARK SMILES IDX 31 41 33 42 32 43
REMARK H PARENT 10 11 13 15 7 17 4 20 17 24 19 26 21 29
REMARK Flexibility Score: inf
ROOT
ATOM      1  C   UNL     1      25.927  34.851  15.565  1.00  0.00     0.154 C 
ENDROOT
BRANCH   1   2
ATOM      2  C   UNL     1      27.413  34.997  15.304  1.00  0.00     0.165 C 
BRANCH   2   3
ATOM      3  C   UNL     1      28.147  33.686  15.481  1.00  0.00     0.176 C 
BRANCH   3   4
ATOM      4  C   UNL     1      29.322  33.801  16.394  1.00  0.00     0.178 C 
ATOM      5  C   UNL     1      31.275  33.661  15.096  1.00  0.00     0.269 C 
ATOM      6  C   UNL     1      31.475  32.219  15.404  1.00  0.00     0.112 C 
ATOM      7  O   UNL     1      30.428  34.359  15.869  1.00  0.00    -0.332 OA
ATOM      8  C   UNL     1      30.358  31.576  16.171  1.00  0.00     0.145 C 
ATOM      9  C   UNL     1      29.661  32.519  17.098  1.00  0.00     0.142 C 
BRANCH   5  10
ATOM     10  O   UNL     1      30.807  33.723  13.765  1.00  0.00    -0.357 OA
ATOM     11  H   UNL     1      31.520  33.323  13.191  1.00  0.00     0.214 HD
ENDBRANCH   5  10
BRANCH   5  12
ATOM     12  C   UNL     1      32.588  34.362  15.084  1.00  0.00     0.364 C 
ATOM     13  O   UNL     1      32.888  35.245  15.917  1.00  0.00    -0.246 OA
BRANCH  12  14
ATOM     14  O   UNL     1      33.525  34.040  14.127  1.00  0.00    -0.477 OA
ATOM     15  H   UNL     1      34.345  34.596  13.920  1.00  0.00     0.296 HD
ENDBRANCH  12  14
ENDBRANCH   5  12
BRANCH   8  16
ATOM     16  O   UNL     1      29.429  31.002  15.285  1.00  0.00    -0.391 OA
ATOM     17  H   UNL     1      29.787  30.219  14.822  1.00  0.00     0.211 HD
ENDBRANCH   8  16
BRANCH   9  18
ATOM     18  N   UNL     1      30.599  32.852  18.173  1.00  0.00    -0.348 N 
ATOM     19  C   UNL     1      30.554  32.195  19.433  1.00  0.00     0.217 C 
ATOM     20  H   UNL     1      31.330  33.583  18.044  1.00  0.00     0.163 HD
ATOM     21  C   UNL     1      31.498  32.518  20.536  1.00  0.00     0.114 C 
ATOM     22  O   UNL     1      29.697  31.299  19.664  1.00  0.00    -0.275 OA
ENDBRANCH   9  18
ENDBRANCH   3   4
BRANCH   3  23
ATOM     23  O   UNL     1      27.192  32.796  15.998  1.00  0.00    -0.388 OA
ATOM     24  H   UNL     1      27.129  33.031  16.972  1.00  0.00     0.211 HD
ENDBRANCH   3  23
ENDBRANCH   2   3
BRANCH   2  25
ATOM     25  O   UNL     1      27.956  36.039  16.036  1.00  0.00    -0.388 OA
ATOM     26  H   UNL     1      27.382  36.335  16.772  1.00  0.00     0.211 HD
ENDBRANCH   2  25
ENDBRANCH   1   2
BRANCH   1  27
ATOM     27  N   UNL     1      25.129  34.902  14.380  1.00  0.00    -0.319 N 
ATOM     28  C   UNL     1      24.731  33.751  13.647  1.00  0.00     0.407 C 
ATOM     29  H   UNL     1      24.801  35.823  14.005  1.00  0.00     0.167 HD
ATOM     30  O   UNL     1      25.063  32.614  14.003  1.00  0.00    -0.225 OA
BRANCH  28  31
ATOM     31  O   UNL     1      23.955  33.859  12.498  1.00  0.00    -0.443 OA
BRANCH  31  32
ATOM     32  C   UNL     1      23.759  35.127  11.892  1.00  0.00     0.294 C 
BRANCH  32  33
ATOM     33  C   UNL     1      24.665  35.203  10.724  1.00  0.00     0.121 A 
ATOM     34  C   UNL     1      26.007  34.895  10.690  1.00  0.00     0.144 A 
ATOM     35  N   UNL     1      24.315  35.596   9.483  1.00  0.00    -0.131 NA
ATOM     36  N   UNL     1      26.408  35.114   9.427  1.00  0.00    -0.220 N 
ATOM     37  N   UNL     1      25.384  35.534   8.714  1.00  0.00    -0.062 NA
BRANCH  36  38
ATOM     38  C   UNL     1      27.735  34.920   8.952  1.00  0.00     0.066 A 
ATOM     39  C   UNL     1      28.085  35.406   7.705  1.00  0.00     0.028 A 
ATOM     40  C   UNL     1      28.670  34.252   9.722  1.00  0.00     0.028 A 
ATOM     41  C   UNL     1      29.383  35.200   7.273  1.00  0.00     0.002 A 
ATOM     42  C   UNL     1      29.953  34.056   9.278  1.00  0.00     0.002 A 
ATOM     43  C   UNL     1      30.308  34.538   8.037  1.00  0.00     0.000 A 
ENDBRANCH  36  38
ENDBRANCH  32  33
ENDBRANCH  31  32
ENDBRANCH  28  31
ENDBRANCH   1  27
TORSDOF 15
BEGIN_RES LYS A 131
REMARK  4 active torsions:
REMARK  status: ('A' for Active; 'I' for Inactive)
REMARK    1  A    between atoms: CA   and  CB  
REMARK    2  A    between atoms: CB   and  CG  
REMARK    3  A    between atoms: CG   and  CD  
REMARK    4  A    between atoms: CD   and  CE  
ROOT
ATOM      1  CA  LYS A 131      29.867  25.555  16.977  1.00 20.52     0.186 C 
ENDROOT
BRANCH   1   2
ATOM      2  CB  LYS A 131      28.345  25.722  17.026  1.00 20.94     0.034 C 
BRANCH   2   3
ATOM      3  CG  LYS A 131      27.599  24.419  16.783  1.00 22.96     0.005 C 
BRANCH   3   4
ATOM      4  CD  LYS A 131      26.257  24.399  17.461  1.00 24.33     0.041 C 
BRANCH   4   5
ATOM      5  CE  LYS A 131      26.248  25.413  18.600  1.00 26.91     0.338 C 
ATOM      6  NZ  LYS A 131      25.253  25.028  19.629  1.00 27.40     0.618 N 
ENDBRANCH   4   5
ENDBRANCH   3   4
ENDBRANCH   2   3
ENDBRANCH   1   2
END_RES LYS A 131
BEGIN_RES LYS A 135
REMARK  4 active torsions:
REMARK  status: ('A' for Active; 'I' for Inactive)
REMARK    5  A    between atoms: CA   and  CB  
REMARK    6  A    between atoms: CB   and  CG  
REMARK    7  A    between atoms: CG   and  CD  
REMARK    8  A    between atoms: CD   and  CE  
ROOT
ATOM      7  CA  LYS A 135      33.193  34.663   9.290  1.00 25.02     0.186 C 
ENDROOT
BRANCH   7   8
ATOM      8  CB  LYS A 135      32.060  35.360  10.034  1.00 26.63     0.034 C 
BRANCH   8   9
ATOM      9  CG  LYS A 135      32.468  35.907  11.377  1.00 29.45     0.005 C 
BRANCH   9  10
ATOM     10  CD  LYS A 135      31.674  37.161  11.710  1.00 32.00     0.041 C 
BRANCH  10  11
ATOM     11  CE  LYS A 135      31.596  37.359  13.212  1.00 34.25     0.338 C 
ATOM     12  NZ  LYS A 135      30.212  37.134  13.711  1.00 35.99     0.618 N 
ENDBRANCH  10  11
ENDBRANCH   9  10
ENDBRANCH   8   9
ENDBRANCH   7   8
END_RES LYS A 135
