REMARK VINA RESULT:    -5.401      4.579      8.794
REMARK INTER + INTRA:         -15.256
REMARK INTER:                  -8.820
REMARK INTRA:                  -6.436
REMARK UNBOUND:                -5.276
REMARK SMILES COc1ccc(Cn2cc(COC(=O)NC[C@@H](O)C(O)[C@@H]3O[C@@](O)(C(=O)O)C[C@H](O)[C@H]3NC(C)=O)nn2)cc1
REMARK SMILES IDX 15 1 13 2 14 3 16 5 17 6 19 7 21 8 23 9 28 10 22 11 29 12
REMARK SMILES IDX 31 13 24 14 25 16 26 17 27 18 30 20 32 22 33 23 34 25 35 26
REMARK SMILES IDX 20 27 18 29 12 31 11 32 10 33 9 34 36 35 8 36 37 37 7 38
REMARK SMILES IDX 6 39 5 40 38 41 4 42 39 43 3 44 2 45 1 46
REMARK H PARENT 15 4 24 15 27 19 30 21 32 24 20 28 18 30
REMARK Flexibility Score: inf
ROOT
ATOM      1  N   UNL     1      25.950  37.484  12.947  1.00  0.00    -0.319 N 
ATOM      2  C   UNL     1      26.092  37.581  11.546  1.00  0.00     0.407 C 
ATOM      3  O   UNL     1      27.205  37.667  10.973  1.00  0.00    -0.225 OA
ATOM      4  H   UNL     1      24.973  37.423  13.319  1.00  0.00     0.167 HD
ENDROOT
BRANCH   1   5
ATOM      5  C   UNL     1      27.040  37.464  13.870  1.00  0.00     0.154 C 
BRANCH   5   6
ATOM      6  C   UNL     1      27.310  36.139  14.496  1.00  0.00     0.165 C 
BRANCH   6   7
ATOM      7  C   UNL     1      28.450  35.399  13.832  1.00  0.00     0.176 C 
BRANCH   7   8
ATOM      8  C   UNL     1      28.723  34.053  14.402  1.00  0.00     0.178 C 
ATOM      9  C   UNL     1      28.404  32.696  16.249  1.00  0.00     0.269 C 
ATOM     10  C   UNL     1      29.814  32.180  16.192  1.00  0.00     0.112 C 
ATOM     11  O   UNL     1      28.196  33.914  15.683  1.00  0.00    -0.332 OA
ATOM     12  C   UNL     1      30.500  32.495  14.879  1.00  0.00     0.145 C 
ATOM     13  C   UNL     1      30.240  33.933  14.584  1.00  0.00     0.142 C 
BRANCH   9  14
ATOM     14  O   UNL     1      28.129  32.852  17.633  1.00  0.00    -0.357 OA
ATOM     15  H   UNL     1      29.005  33.025  18.054  1.00  0.00     0.214 HD
ENDBRANCH   9  14
BRANCH   9  16
ATOM     16  C   UNL     1      27.508  31.616  15.771  1.00  0.00     0.364 C 
ATOM     17  O   UNL     1      26.285  31.815  15.511  1.00  0.00    -0.246 OA
BRANCH  16  18
ATOM     18  O   UNL     1      27.965  30.313  15.580  1.00  0.00    -0.477 OA
ATOM     19  H   UNL     1      27.813  29.837  14.712  1.00  0.00     0.296 HD
ENDBRANCH  16  18
ENDBRANCH   9  16
BRANCH  12  20
ATOM     20  O   UNL     1      31.842  32.180  14.965  1.00  0.00    -0.391 OA
ATOM     21  H   UNL     1      31.944  31.233  15.148  1.00  0.00     0.211 HD
ENDBRANCH  12  20
BRANCH  13  22
ATOM     22  N   UNL     1      30.991  34.467  13.494  1.00  0.00    -0.348 N 
ATOM     23  C   UNL     1      32.010  35.424  13.601  1.00  0.00     0.217 C 
ATOM     24  H   UNL     1      30.766  34.111  12.525  1.00  0.00     0.163 HD
ATOM     25  C   UNL     1      32.717  35.897  12.388  1.00  0.00     0.114 C 
ATOM     26  O   UNL     1      32.324  35.876  14.707  1.00  0.00    -0.275 OA
ENDBRANCH  13  22
ENDBRANCH   7   8
BRANCH   7  27
ATOM     27  O   UNL     1      28.217  35.326  12.476  1.00  0.00    -0.388 OA
ATOM     28  H   UNL     1      27.274  35.250  12.211  1.00  0.00     0.211 HD
ENDBRANCH   7  27
ENDBRANCH   6   7
BRANCH   6  29
ATOM     29  O   UNL     1      26.200  35.359  14.633  1.00  0.00    -0.388 OA
ATOM     30  H   UNL     1      25.582  35.814  15.282  1.00  0.00     0.211 HD
ENDBRANCH   6  29
ENDBRANCH   5   6
ENDBRANCH   1   5
BRANCH   2  31
ATOM     31  O   UNL     1      24.944  37.583  10.732  1.00  0.00    -0.443 OA
BRANCH  31  32
ATOM     32  C   UNL     1      24.473  36.350  10.239  1.00  0.00     0.294 C 
BRANCH  32  33
ATOM     33  C   UNL     1      24.577  35.269  11.236  1.00  0.00     0.120 A 
ATOM     34  C   UNL     1      23.570  34.809  12.090  1.00  0.00     0.138 A 
ATOM     35  N   UNL     1      25.650  34.515  11.529  1.00  0.00    -0.132 NA
ATOM     36  N   UNL     1      24.065  33.817  12.845  1.00  0.00    -0.248 N 
ATOM     37  N   UNL     1      25.324  33.660  12.486  1.00  0.00    -0.067 NA
BRANCH  36  38
ATOM     38  C   UNL     1      23.383  33.055  13.857  1.00  0.00     0.181 C 
BRANCH  38  39
ATOM     39  C   UNL     1      22.736  31.853  13.288  1.00  0.00    -0.026 A 
ATOM     40  C   UNL     1      21.414  31.887  12.908  1.00  0.00     0.009 A 
ATOM     41  C   UNL     1      23.458  30.698  13.139  1.00  0.00     0.009 A 
ATOM     42  C   UNL     1      20.812  30.750  12.372  1.00  0.00     0.047 A 
ATOM     43  C   UNL     1      22.869  29.554  12.604  1.00  0.00     0.047 A 
ATOM     44  C   UNL     1      21.552  29.588  12.224  1.00  0.00     0.118 A 
BRANCH  44  45
ATOM     45  O   UNL     1      20.931  28.459  11.686  1.00  0.00    -0.497 OA
ATOM     46  C   UNL     1      19.564  28.212  11.969  1.00  0.00     0.278 C 
ENDBRANCH  44  45
ENDBRANCH  38  39
ENDBRANCH  36  38
ENDBRANCH  32  33
ENDBRANCH  31  32
ENDBRANCH   2  31
TORSDOF 17
BEGIN_RES LYS A 131
REMARK  4 active torsions:
REMARK  status: ('A' for Active; 'I' for Inactive)
REMARK    1  A    between atoms: CA   and  CB  
REMARK    2  A    between atoms: CB   and  CG  
REMARK    3  A    between atoms: CG   and  CD  
REMARK    4  A    between atoms: CD   and  CE  
ROOT
ATOM      1  CA  LYS A 131      29.867  25.555  16.977  1.00 20.52     0.186 C 
ENDROOT
BRANCH   1   2
ATOM      2  CB  LYS A 131      28.345  25.722  17.026  1.00 20.94     0.034 C 
BRANCH   2   3
ATOM      3  CG  LYS A 131      27.601  24.401  16.900  1.00 22.96     0.005 C 
BRANCH   3   4
ATOM      4  CD  LYS A 131      26.489  24.280  17.905  1.00 24.33     0.041 C 
BRANCH   4   5
ATOM      5  CE  LYS A 131      25.162  24.630  17.239  1.00 26.91     0.338 C 
ATOM      6  NZ  LYS A 131      24.319  23.419  17.094  1.00 27.40     0.618 N 
ENDBRANCH   4   5
ENDBRANCH   3   4
ENDBRANCH   2   3
ENDBRANCH   1   2
END_RES LYS A 131
BEGIN_RES LYS A 135
REMARK  4 active torsions:
REMARK  status: ('A' for Active; 'I' for Inactive)
REMARK    5  A    between atoms: CA   and  CB  
REMARK    6  A    between atoms: CB   and  CG  
REMARK    7  A    between atoms: CG   and  CD  
REMARK    8  A    between atoms: CD   and  CE  
ROOT
ATOM      7  CA  LYS A 135      33.193  34.663   9.290  1.00 25.02     0.186 C 
ENDROOT
BRANCH   7   8
ATOM      8  CB  LYS A 135      32.060  35.360  10.034  1.00 26.63     0.034 C 
BRANCH   8   9
ATOM      9  CG  LYS A 135      30.708  34.743   9.787  1.00 29.45     0.005 C 
BRANCH   9  10
ATOM     10  CD  LYS A 135      30.492  34.502   8.301  1.00 32.00     0.041 C 
BRANCH  10  11
ATOM     11  CE  LYS A 135      29.160  35.075   7.856  1.00 34.25     0.338 C 
ATOM     12  NZ  LYS A 135      28.112  34.867   8.894  1.00 35.99     0.618 N 
ENDBRANCH  10  11
ENDBRANCH   9  10
ENDBRANCH   8   9
ENDBRANCH   7   8
END_RES LYS A 135
