REMARK VINA RESULT:    -4.452      6.462     11.917
REMARK INTER + INTRA:         -15.075
REMARK INTER:                  -8.874
REMARK INTRA:                  -6.201
REMARK UNBOUND:                -7.109
REMARK SMILES CC(=O)N[C@@H]1[C@@H](O)C[C@](O)(C(=O)O)O[C@H]1C(O)[C@H](O)CNC(=O)OCc1cn(-c2ncn3c2c(=O)n(C(C)C)c2ccccc23)nn1
REMARK SMILES IDX 21 1 22 2 23 3 20 5 18 6 16 7 15 8 9 9 8 10 14 11 6 12 5 13
REMARK SMILES IDX 10 14 11 16 12 17 13 18 7 20 4 22 2 23 1 25 3 26 17 27 19 29
REMARK SMILES IDX 24 31 25 32 26 33 27 34 47 35 28 36 46 37 29 38 30 39 33 40
REMARK SMILES IDX 31 41 32 42 34 43 45 44 36 45 35 46 44 47 40 48 43 49 41 50
REMARK SMILES IDX 42 51 37 52 38 53 39 54
REMARK H PARENT 21 4 10 15 13 19 7 21 4 24 17 28 19 30
REMARK Flexibility Score: inf
ROOT
ATOM      1  N   UNL     1      30.067  38.974   6.701  1.00  0.00    -0.319 N 
ATOM      2  C   UNL     1      29.443  39.731   5.710  1.00  0.00     0.407 C 
ATOM      3  O   UNL     1      29.835  40.838   5.339  1.00  0.00    -0.225 OA
ATOM      4  H   UNL     1      29.619  37.994   6.899  1.00  0.00     0.167 HD
ENDROOT
BRANCH   1   5
ATOM      5  C   UNL     1      31.200  39.342   7.459  1.00  0.00     0.154 C 
BRANCH   5   6
ATOM      6  C   UNL     1      31.512  38.519   8.629  1.00  0.00     0.165 C 
BRANCH   6   7
ATOM      7  C   UNL     1      30.645  38.445   9.818  1.00  0.00     0.176 C 
BRANCH   7   8
ATOM      8  C   UNL     1      31.534  38.890  11.017  1.00  0.00     0.178 C 
ATOM      9  C   UNL     1      31.334  37.142  12.572  1.00  0.00     0.269 C 
ATOM     10  C   UNL     1      30.797  38.096  13.585  1.00  0.00     0.112 C 
ATOM     11  O   UNL     1      32.030  37.787  11.603  1.00  0.00    -0.332 OA
ATOM     12  C   UNL     1      30.060  39.274  13.000  1.00  0.00     0.145 C 
ATOM     13  C   UNL     1      30.828  39.891  11.853  1.00  0.00     0.142 C 
BRANCH   9  14
ATOM     14  O   UNL     1      30.266  36.438  11.958  1.00  0.00    -0.357 OA
ATOM     15  H   UNL     1      30.542  35.483  11.983  1.00  0.00     0.214 HD
ENDBRANCH   9  14
BRANCH   9  16
ATOM     16  C   UNL     1      32.185  36.161  13.326  1.00  0.00     0.364 C 
ATOM     17  O   UNL     1      32.433  36.359  14.523  1.00  0.00    -0.246 OA
BRANCH  16  18
ATOM     18  O   UNL     1      32.682  35.050  12.688  1.00  0.00    -0.477 OA
ATOM     19  H   UNL     1      33.611  34.686  12.920  1.00  0.00     0.296 HD
ENDBRANCH  16  18
ENDBRANCH   9  16
BRANCH  12  20
ATOM     20  O   UNL     1      28.763  38.948  12.598  1.00  0.00    -0.391 OA
ATOM     21  H   UNL     1      28.271  39.777  12.380  1.00  0.00     0.211 HD
ENDBRANCH  12  20
BRANCH  13  22
ATOM     22  N   UNL     1      31.757  40.865  12.440  1.00  0.00    -0.348 N 
ATOM     23  C   UNL     1      32.250  41.974  11.722  1.00  0.00     0.217 C 
ATOM     24  H   UNL     1      32.089  40.758  13.440  1.00  0.00     0.163 HD
ATOM     25  C   UNL     1      33.190  42.956  12.321  1.00  0.00     0.114 C 
ATOM     26  O   UNL     1      31.892  42.159  10.520  1.00  0.00    -0.275 OA
ENDBRANCH  13  22
ENDBRANCH   7   8
BRANCH   7  27
ATOM     27  O   UNL     1      29.518  39.269   9.785  1.00  0.00    -0.388 OA
ATOM     28  H   UNL     1      29.479  39.839  10.615  1.00  0.00     0.211 HD
ENDBRANCH   7  27
ENDBRANCH   6   7
BRANCH   6  29
ATOM     29  O   UNL     1      32.835  38.931   9.047  1.00  0.00    -0.388 OA
ATOM     30  H   UNL     1      33.027  38.605   9.943  1.00  0.00     0.211 HD
ENDBRANCH   6  29
ENDBRANCH   5   6
ENDBRANCH   1   5
BRANCH   2  31
ATOM     31  O   UNL     1      28.284  39.252   5.058  1.00  0.00    -0.443 OA
BRANCH  31  32
ATOM     32  C   UNL     1      27.004  39.681   5.425  1.00  0.00     0.294 C 
BRANCH  32  33
ATOM     33  C   UNL     1      26.800  39.459   6.878  1.00  0.00     0.121 A 
ATOM     34  C   UNL     1      26.734  38.234   7.537  1.00  0.00     0.146 A 
ATOM     35  N   UNL     1      26.641  40.372   7.854  1.00  0.00    -0.131 NA
ATOM     36  N   UNL     1      26.542  38.434   8.872  1.00  0.00    -0.200 N 
ATOM     37  N   UNL     1      26.494  39.735   8.999  1.00  0.00    -0.060 NA
BRANCH  36  38
ATOM     38  C   UNL     1      26.436  37.375   9.819  1.00  0.00     0.186 A 
ATOM     39  N   UNL     1      27.468  36.854  10.547  1.00  0.00    -0.216 NA
ATOM     40  C   UNL     1      25.327  36.668  10.203  1.00  0.00     0.158 A 
ATOM     41  C   UNL     1      26.990  35.878  11.330  1.00  0.00     0.207 A 
ATOM     42  N   UNL     1      25.665  35.734  11.143  1.00  0.00    -0.291 N 
ATOM     43  C   UNL     1      24.021  36.735   9.828  1.00  0.00     0.279 A 
ATOM     44  C   UNL     1      24.756  34.904  11.689  1.00  0.00     0.071 A 
ATOM     45  N   UNL     1      23.090  35.935  10.341  1.00  0.00    -0.302 N 
ATOM     46  O   UNL     1      23.636  37.567   8.969  1.00  0.00    -0.267 OA
ATOM     47  C   UNL     1      25.135  33.975  12.635  1.00  0.00     0.029 A 
ATOM     48  C   UNL     1      23.448  35.022  11.268  1.00  0.00     0.068 A 
ATOM     49  C   UNL     1      24.222  33.108  13.214  1.00  0.00     0.002 A 
ATOM     50  C   UNL     1      22.553  34.143  11.861  1.00  0.00     0.028 A 
ATOM     51  C   UNL     1      22.919  33.208  12.810  1.00  0.00     0.002 A 
BRANCH  45  52
ATOM     52  C   UNL     1      21.688  35.956   9.990  1.00  0.00     0.085 C 
ATOM     53  C   UNL     1      21.588  35.573   8.529  1.00  0.00     0.031 C 
ATOM     54  C   UNL     1      21.022  37.284  10.158  1.00  0.00     0.031 C 
ENDBRANCH  45  52
ENDBRANCH  36  38
ENDBRANCH  32  33
ENDBRANCH  31  32
ENDBRANCH   2  31
TORSDOF 16
BEGIN_RES LYS A 131
REMARK  4 active torsions:
REMARK  status: ('A' for Active; 'I' for Inactive)
REMARK    1  A    between atoms: CA   and  CB  
REMARK    2  A    between atoms: CB   and  CG  
REMARK    3  A    between atoms: CG   and  CD  
REMARK    4  A    between atoms: CD   and  CE  
ROOT
ATOM      1  CA  LYS A 131      29.867  25.555  16.977  1.00 20.52     0.186 C 
ENDROOT
BRANCH   1   2
ATOM      2  CB  LYS A 131      28.345  25.722  17.026  1.00 20.94     0.034 C 
BRANCH   2   3
ATOM      3  CG  LYS A 131      27.601  24.403  16.883  1.00 22.96     0.005 C 
BRANCH   3   4
ATOM      4  CD  LYS A 131      26.151  24.527  17.260  1.00 24.33     0.041 C 
BRANCH   4   5
ATOM      5  CE  LYS A 131      26.035  24.802  18.756  1.00 26.91     0.338 C 
ATOM      6  NZ  LYS A 131      25.470  23.625  19.458  1.00 27.40     0.618 N 
ENDBRANCH   4   5
ENDBRANCH   3   4
ENDBRANCH   2   3
ENDBRANCH   1   2
END_RES LYS A 131
BEGIN_RES LYS A 135
REMARK  4 active torsions:
REMARK  status: ('A' for Active; 'I' for Inactive)
REMARK    5  A    between atoms: CA   and  CB  
REMARK    6  A    between atoms: CB   and  CG  
REMARK    7  A    between atoms: CG   and  CD  
REMARK    8  A    between atoms: CD   and  CE  
ROOT
ATOM      7  CA  LYS A 135      33.193  34.663   9.290  1.00 25.02     0.186 C 
ENDROOT
BRANCH   7   8
ATOM      8  CB  LYS A 135      32.060  35.360  10.034  1.00 26.63     0.034 C 
BRANCH   8   9
ATOM      9  CG  LYS A 135      30.700  34.783   9.737  1.00 29.45     0.005 C 
BRANCH   9  10
ATOM     10  CD  LYS A 135      30.496  34.632   8.238  1.00 32.00     0.041 C 
BRANCH  10  11
ATOM     11  CE  LYS A 135      29.049  34.896   7.867  1.00 34.25     0.338 C 
ATOM     12  NZ  LYS A 135      28.950  35.598   6.558  1.00 35.99     0.618 N 
ENDBRANCH  10  11
ENDBRANCH   9  10
ENDBRANCH   8   9
ENDBRANCH   7   8
END_RES LYS A 135
