REMARK VINA RESULT:    -7.591      0.000      0.000
REMARK INTER + INTRA:         -17.715
REMARK INTER:                 -11.465
REMARK INTRA:                  -6.251
REMARK UNBOUND:                -4.578
REMARK SMILES CC(=O)N[C@@H]1[C@@H](O)C[C@](O)(C(=O)O)O[C@H]1C(O)[C@H](O)CNC(=O)OCc1cn(C2c3ccccc3-c3ccccc32)nn1
REMARK SMILES IDX 20 1 18 2 16 3 15 4 9 5 8 6 14 7 6 8 5 9 10 10 11 12 12 13
REMARK SMILES IDX 13 14 7 16 4 18 2 19 1 21 3 22 17 23 19 25 21 27 22 28 23 30
REMARK SMILES IDX 24 31 25 32 26 33 27 34 43 35 28 36 42 37 29 38 30 39 41 40
REMARK SMILES IDX 31 41 35 42 36 43 40 44 32 45 34 46 37 47 39 48 33 49 38 50
REMARK H PARENT 10 11 13 15 7 17 4 20 17 24 19 26 21 29
REMARK Flexibility Score: inf
ROOT
ATOM      1  C   UNL     1      25.938  36.124  16.715  1.00  0.00     0.154 C 
ENDROOT
BRANCH   1   2
ATOM      2  C   UNL     1      26.147  34.656  16.780  1.00  0.00     0.165 C 
BRANCH   2   3
ATOM      3  C   UNL     1      27.353  34.189  16.030  1.00  0.00     0.176 C 
BRANCH   3   4
ATOM      4  C   UNL     1      28.117  33.054  16.653  1.00  0.00     0.178 C 
ATOM      5  C   UNL     1      30.281  32.891  15.773  1.00  0.00     0.269 C 
ATOM      6  C   UNL     1      30.461  31.428  16.120  1.00  0.00     0.112 C 
ATOM      7  O   UNL     1      29.451  33.466  16.681  1.00  0.00    -0.332 OA
ATOM      8  C   UNL     1      29.126  30.807  16.315  1.00  0.00     0.145 C 
ATOM      9  C   UNL     1      27.960  31.737  15.943  1.00  0.00     0.142 C 
BRANCH   5  10
ATOM     10  O   UNL     1      29.916  32.955  14.455  1.00  0.00    -0.357 OA
ATOM     11  H   UNL     1      30.667  33.200  13.870  1.00  0.00     0.214 HD
ENDBRANCH   5  10
BRANCH   5  12
ATOM     12  C   UNL     1      31.627  33.521  15.937  1.00  0.00     0.364 C 
ATOM     13  O   UNL     1      31.970  33.952  17.062  1.00  0.00    -0.246 OA
BRANCH  12  14
ATOM     14  O   UNL     1      32.525  33.652  14.888  1.00  0.00    -0.477 OA
ATOM     15  H   UNL     1      32.266  33.347  13.939  1.00  0.00     0.296 HD
ENDBRANCH  12  14
ENDBRANCH   5  12
BRANCH   8  16
ATOM     16  O   UNL     1      28.945  29.627  15.611  1.00  0.00    -0.391 OA
ATOM     17  H   UNL     1      28.204  29.665  14.965  1.00  0.00     0.211 HD
ENDBRANCH   8  16
BRANCH   9  18
ATOM     18  N   UNL     1      26.793  31.047  16.444  1.00  0.00    -0.348 N 
ATOM     19  C   UNL     1      25.566  30.913  15.742  1.00  0.00     0.217 C 
ATOM     20  H   UNL     1      26.856  30.613  17.388  1.00  0.00     0.163 HD
ATOM     21  C   UNL     1      24.399  30.181  16.331  1.00  0.00     0.114 C 
ATOM     22  O   UNL     1      25.490  31.433  14.600  1.00  0.00    -0.275 OA
ENDBRANCH   9  18
ENDBRANCH   3   4
BRANCH   3  23
ATOM     23  O   UNL     1      27.141  33.956  14.677  1.00  0.00    -0.388 OA
ATOM     24  H   UNL     1      26.898  34.738  14.156  1.00  0.00     0.211 HD
ENDBRANCH   3  23
ENDBRANCH   2   3
BRANCH   2  25
ATOM     25  O   UNL     1      25.049  34.005  16.222  1.00  0.00    -0.388 OA
ATOM     26  H   UNL     1      24.197  34.428  16.443  1.00  0.00     0.211 HD
ENDBRANCH   2  25
ENDBRANCH   1   2
BRANCH   1  27
ATOM     27  N   UNL     1      26.493  36.784  15.593  1.00  0.00    -0.319 N 
ATOM     28  C   UNL     1      27.452  37.808  15.672  1.00  0.00     0.407 C 
ATOM     29  H   UNL     1      26.175  36.500  14.609  1.00  0.00     0.167 HD
ATOM     30  O   UNL     1      27.899  38.210  16.742  1.00  0.00    -0.225 OA
BRANCH  28  31
ATOM     31  O   UNL     1      27.951  38.429  14.513  1.00  0.00    -0.443 OA
BRANCH  31  32
ATOM     32  C   UNL     1      29.082  37.983  13.829  1.00  0.00     0.294 C 
BRANCH  32  33
ATOM     33  C   UNL     1      28.863  36.731  13.063  1.00  0.00     0.120 A 
ATOM     34  C   UNL     1      28.034  36.497  11.993  1.00  0.00     0.139 A 
ATOM     35  N   UNL     1      29.491  35.586  13.334  1.00  0.00    -0.132 NA
ATOM     36  N   UNL     1      28.188  35.221  11.655  1.00  0.00    -0.240 N 
ATOM     37  N   UNL     1      29.070  34.686  12.474  1.00  0.00    -0.066 NA
BRANCH  36  38
ATOM     38  C   UNL     1      27.519  34.506  10.578  1.00  0.00     0.170 C 
ATOM     39  C   UNL     1      28.144  34.777   9.272  1.00  0.00    -0.011 A 
ATOM     40  C   UNL     1      26.120  34.878  10.438  1.00  0.00    -0.011 A 
ATOM     41  C   UNL     1      29.473  34.601   8.849  1.00  0.00     0.007 A 
ATOM     42  C   UNL     1      27.178  35.269   8.442  1.00  0.00    -0.012 A 
ATOM     43  C   UNL     1      25.909  35.335   9.165  1.00  0.00    -0.012 A 
ATOM     44  C   UNL     1      25.024  34.852  11.324  1.00  0.00     0.007 A 
ATOM     45  C   UNL     1      29.793  34.939   7.558  1.00  0.00     0.000 A 
ATOM     46  C   UNL     1      27.542  35.602   7.137  1.00  0.00     0.009 A 
ATOM     47  C   UNL     1      24.662  35.773   8.705  1.00  0.00     0.009 A 
ATOM     48  C   UNL     1      23.794  35.276  10.896  1.00  0.00     0.000 A 
ATOM     49  C   UNL     1      28.836  35.439   6.697  1.00  0.00     0.001 A 
ATOM     50  C   UNL     1      23.618  35.732   9.600  1.00  0.00     0.001 A 
ENDBRANCH  36  38
ENDBRANCH  32  33
ENDBRANCH  31  32
ENDBRANCH  28  31
ENDBRANCH   1  27
TORSDOF 15
BEGIN_RES LYS A 131
REMARK  4 active torsions:
REMARK  status: ('A' for Active; 'I' for Inactive)
REMARK    1  A    between atoms: CA   and  CB  
REMARK    2  A    between atoms: CB   and  CG  
REMARK    3  A    between atoms: CG   and  CD  
REMARK    4  A    between atoms: CD   and  CE  
ROOT
ATOM      1  CA  LYS A 131      29.867  25.555  16.977  1.00 20.52     0.186 C 
ENDROOT
BRANCH   1   2
ATOM      2  CB  LYS A 131      28.345  25.722  17.026  1.00 20.94     0.034 C 
BRANCH   2   3
ATOM      3  CG  LYS A 131      27.601  24.403  16.885  1.00 22.96     0.005 C 
BRANCH   3   4
ATOM      4  CD  LYS A 131      26.158  24.520  17.292  1.00 24.33     0.041 C 
BRANCH   4   5
ATOM      5  CE  LYS A 131      26.075  24.975  18.745  1.00 26.91     0.338 C 
ATOM      6  NZ  LYS A 131      25.449  23.925  19.583  1.00 27.40     0.618 N 
ENDBRANCH   4   5
ENDBRANCH   3   4
ENDBRANCH   2   3
ENDBRANCH   1   2
END_RES LYS A 131
BEGIN_RES LYS A 135
REMARK  4 active torsions:
REMARK  status: ('A' for Active; 'I' for Inactive)
REMARK    5  A    between atoms: CA   and  CB  
REMARK    6  A    between atoms: CB   and  CG  
REMARK    7  A    between atoms: CG   and  CD  
REMARK    8  A    between atoms: CD   and  CE  
ROOT
ATOM      7  CA  LYS A 135      33.193  34.663   9.290  1.00 25.02     0.186 C 
ENDROOT
BRANCH   7   8
ATOM      8  CB  LYS A 135      32.060  35.360  10.034  1.00 26.63     0.034 C 
BRANCH   8   9
ATOM      9  CG  LYS A 135      32.507  36.063  11.290  1.00 29.45     0.005 C 
BRANCH   9  10
ATOM     10  CD  LYS A 135      31.937  37.472  11.348  1.00 32.00     0.041 C 
BRANCH  10  11
ATOM     11  CE  LYS A 135      31.232  37.815  10.050  1.00 34.25     0.338 C 
ATOM     12  NZ  LYS A 135      31.907  38.946   9.355  1.00 35.99     0.618 N 
ENDBRANCH  10  11
ENDBRANCH   9  10
ENDBRANCH   8   9
ENDBRANCH   7   8
END_RES LYS A 135
