REMARK VINA RESULT:    -4.844      5.273     12.378
REMARK INTER + INTRA:         -15.433
REMARK INTER:                  -9.345
REMARK INTRA:                  -6.088
REMARK UNBOUND:                -6.624
REMARK SMILES CC(=O)N[C@@H]1[C@@H](O)C[C@](O)(C(=O)O)O[C@H]1C(O)[C@H](O)CNC(=O)OCc1cn(-c2cccc(S(N)(=O)=O)c2)nn1
REMARK SMILES IDX 21 1 22 2 23 3 20 5 18 6 16 7 15 8 9 9 8 10 14 11 6 12 5 13
REMARK SMILES IDX 10 14 11 16 12 17 13 18 7 20 4 22 2 23 1 25 3 26 17 27 19 29
REMARK SMILES IDX 24 31 25 32 26 33 27 34 40 35 28 36 39 37 29 38 38 39 30 40
REMARK SMILES IDX 33 41 31 42 32 43 34 44 36 45 37 46 35 47
REMARK H PARENT 21 4 10 15 13 19 7 21 4 24 17 28 19 30 35 48 35 49
REMARK Flexibility Score: inf
ROOT
ATOM      1  N   UNL     1      29.298  26.997  20.224  1.00  0.00    -0.319 N 
ATOM      2  C   UNL     1      28.033  27.632  20.126  1.00  0.00     0.407 C 
ATOM      3  O   UNL     1      27.596  28.253  21.110  1.00  0.00    -0.225 OA
ATOM      4  H   UNL     1      29.607  26.489  19.352  1.00  0.00     0.167 HD
ENDROOT
BRANCH   1   5
ATOM      5  C   UNL     1      30.103  27.038  21.418  1.00  0.00     0.154 C 
BRANCH   5   6
ATOM      6  C   UNL     1      31.450  27.673  21.142  1.00  0.00     0.165 C 
BRANCH   6   7
ATOM      7  C   UNL     1      31.286  29.185  21.077  1.00  0.00     0.176 C 
BRANCH   7   8
ATOM      8  C   UNL     1      32.653  29.827  21.303  1.00  0.00     0.178 C 
ATOM      9  C   UNL     1      33.862  29.301  23.209  1.00  0.00     0.269 C 
ATOM     10  C   UNL     1      34.489  30.673  23.294  1.00  0.00     0.112 C 
ATOM     11  O   UNL     1      33.495  28.958  21.924  1.00  0.00    -0.332 OA
ATOM     12  C   UNL     1      33.856  31.663  22.377  1.00  0.00     0.145 C 
ATOM     13  C   UNL     1      32.470  31.146  21.991  1.00  0.00     0.142 C 
BRANCH   9  14
ATOM     14  O   UNL     1      32.768  29.177  24.062  1.00  0.00    -0.357 OA
ATOM     15  H   UNL     1      32.596  30.071  24.494  1.00  0.00     0.214 HD
ENDBRANCH   9  14
BRANCH   9  16
ATOM     16  C   UNL     1      34.892  28.325  23.653  1.00  0.00     0.364 C 
ATOM     17  O   UNL     1      34.767  27.672  24.723  1.00  0.00    -0.246 OA
BRANCH  16  18
ATOM     18  O   UNL     1      36.048  28.085  22.908  1.00  0.00    -0.477 OA
ATOM     19  H   UNL     1      36.081  28.322  21.923  1.00  0.00     0.296 HD
ENDBRANCH  16  18
ENDBRANCH   9  16
BRANCH  12  20
ATOM     20  O   UNL     1      33.773  32.943  22.896  1.00  0.00    -0.391 OA
ATOM     21  H   UNL     1      32.840  33.214  23.129  1.00  0.00     0.211 HD
ENDBRANCH  12  20
BRANCH  13  22
ATOM     22  N   UNL     1      31.874  32.062  21.034  1.00  0.00    -0.348 N 
ATOM     23  C   UNL     1      30.681  32.791  21.314  1.00  0.00     0.217 C 
ATOM     24  H   UNL     1      32.344  32.192  20.095  1.00  0.00     0.163 HD
ATOM     25  C   UNL     1      30.162  33.700  20.260  1.00  0.00     0.114 C 
ATOM     26  O   UNL     1      30.142  32.627  22.421  1.00  0.00    -0.275 OA
ENDBRANCH  13  22
ENDBRANCH   7   8
BRANCH   7  27
ATOM     27  O   UNL     1      30.861  29.509  19.801  1.00  0.00    -0.388 OA
ATOM     28  H   UNL     1      29.958  29.156  19.622  1.00  0.00     0.211 HD
ENDBRANCH   7  27
ENDBRANCH   6   7
BRANCH   6  29
ATOM     29  O   UNL     1      31.912  27.191  19.904  1.00  0.00    -0.388 OA
ATOM     30  H   UNL     1      31.484  27.693  19.142  1.00  0.00     0.211 HD
ENDBRANCH   6  29
ENDBRANCH   5   6
ENDBRANCH   1   5
BRANCH   2  31
ATOM     31  O   UNL     1      27.275  27.571  18.953  1.00  0.00    -0.443 OA
BRANCH  31  32
ATOM     32  C   UNL     1      26.600  28.709  18.457  1.00  0.00     0.294 C 
BRANCH  32  33
ATOM     33  C   UNL     1      27.456  29.424  17.478  1.00  0.00     0.121 A 
ATOM     34  C   UNL     1      28.138  30.598  17.731  1.00  0.00     0.144 A 
ATOM     35  N   UNL     1      27.731  29.096  16.210  1.00  0.00    -0.131 NA
ATOM     36  N   UNL     1      28.780  30.897  16.591  1.00  0.00    -0.220 N 
ATOM     37  N   UNL     1      28.539  29.989  15.658  1.00  0.00    -0.062 NA
BRANCH  36  38
ATOM     38  C   UNL     1      29.614  32.036  16.389  1.00  0.00     0.068 A 
ATOM     39  C   UNL     1      29.240  33.309  16.757  1.00  0.00     0.050 A 
ATOM     40  C   UNL     1      30.860  31.894  15.800  1.00  0.00     0.028 A 
ATOM     41  C   UNL     1      30.061  34.417  16.556  1.00  0.00     0.084 A 
ATOM     42  C   UNL     1      31.685  32.967  15.593  1.00  0.00     0.004 A 
ATOM     43  C   UNL     1      31.283  34.225  15.971  1.00  0.00     0.022 A 
BRANCH  41  44
ATOM     44  S   UNL     1      29.584  36.018  17.021  1.00  0.00     0.238 S 
ATOM     45  O   UNL     1      28.213  35.939  17.645  1.00  0.00    -0.207 OA
ATOM     46  O   UNL     1      29.441  36.875  15.786  1.00  0.00    -0.207 OA
BRANCH  44  47
ATOM     47  N   UNL     1      30.678  36.707  18.150  1.00  0.00    -0.225 NA
ATOM     48  H   UNL     1      30.916  36.009  18.878  1.00  0.00     0.137 HD
ATOM     49  H   UNL     1      30.316  37.587  18.571  1.00  0.00     0.137 HD
ENDBRANCH  44  47
ENDBRANCH  41  44
ENDBRANCH  36  38
ENDBRANCH  32  33
ENDBRANCH  31  32
ENDBRANCH   2  31
TORSDOF 17
BEGIN_RES LYS A 131
REMARK  4 active torsions:
REMARK  status: ('A' for Active; 'I' for Inactive)
REMARK    1  A    between atoms: CA   and  CB  
REMARK    2  A    between atoms: CB   and  CG  
REMARK    3  A    between atoms: CG   and  CD  
REMARK    4  A    between atoms: CD   and  CE  
ROOT
ATOM      1  CA  LYS A 131      29.867  25.555  16.977  1.00 20.52     0.186 C 
ENDROOT
BRANCH   1   2
ATOM      2  CB  LYS A 131      28.345  25.722  17.026  1.00 20.94     0.034 C 
BRANCH   2   3
ATOM      3  CG  LYS A 131      27.601  24.403  16.886  1.00 22.96     0.005 C 
BRANCH   3   4
ATOM      4  CD  LYS A 131      26.597  24.199  17.986  1.00 24.33     0.041 C 
BRANCH   4   5
ATOM      5  CE  LYS A 131      25.237  23.869  17.380  1.00 26.91     0.338 C 
ATOM      6  NZ  LYS A 131      24.948  22.421  17.513  1.00 27.40     0.618 N 
ENDBRANCH   4   5
ENDBRANCH   3   4
ENDBRANCH   2   3
ENDBRANCH   1   2
END_RES LYS A 131
BEGIN_RES LYS A 135
REMARK  4 active torsions:
REMARK  status: ('A' for Active; 'I' for Inactive)
REMARK    5  A    between atoms: CA   and  CB  
REMARK    6  A    between atoms: CB   and  CG  
REMARK    7  A    between atoms: CG   and  CD  
REMARK    8  A    between atoms: CD   and  CE  
ROOT
ATOM      7  CA  LYS A 135      33.193  34.663   9.290  1.00 25.02     0.186 C 
ENDROOT
BRANCH   7   8
ATOM      8  CB  LYS A 135      32.060  35.360  10.034  1.00 26.63     0.034 C 
BRANCH   8   9
ATOM      9  CG  LYS A 135      30.850  35.625   9.176  1.00 29.45     0.005 C 
BRANCH   9  10
ATOM     10  CD  LYS A 135      30.242  34.320   8.687  1.00 32.00     0.041 C 
BRANCH  10  11
ATOM     11  CE  LYS A 135      28.757  34.488   8.426  1.00 34.25     0.338 C 
ATOM     12  NZ  LYS A 135      27.948  33.750   9.435  1.00 35.99     0.618 N 
ENDBRANCH  10  11
ENDBRANCH   9  10
ENDBRANCH   8   9
ENDBRANCH   7   8
END_RES LYS A 135
