REMARK VINA RESULT:    -4.658      4.142      9.675
REMARK INTER + INTRA:         -16.731
REMARK INTER:                  -8.639
REMARK INTRA:                  -8.092
REMARK UNBOUND:                -7.171
REMARK SMILES CCOCCc1c(-c2ccccc2)nc(N)nc1-n1cc(COC(=O)NC[C@@H](O)C(O)[C@@H]2O[C@@](O)(C(=O)O)C[C@H](O)[C@H]2NC(C)=O)nn1
REMARK SMILES IDX 23 1 24 2 26 3 25 5 27 6 28 7 30 8 32 9 34 10 39 11 33 12
REMARK SMILES IDX 40 13 42 14 35 15 36 17 37 18 38 19 41 21 43 23 44 24 45 26
REMARK SMILES IDX 46 27 31 28 29 30 22 32 21 33 20 34 47 35 19 36 48 37 18 38
REMARK SMILES IDX 17 39 6 40 15 41 7 42 14 43 5 44 4 45 3 46 2 47 1 48 16 49
REMARK SMILES IDX 8 52 9 53 13 54 10 55 12 56 11 57
REMARK H PARENT 26 4 35 16 38 20 41 22 43 25 31 29 29 31 16 50 16 51
REMARK Flexibility Score: inf
ROOT
ATOM      1  O   UNL     1      32.486  34.905  15.003  1.00  0.00    -0.443 OA
ENDROOT
BRANCH   1   2
ATOM      2  C   UNL     1      32.013  33.962  15.887  1.00  0.00     0.407 C 
ATOM      3  N   UNL     1      31.714  34.292  17.260  1.00  0.00    -0.319 N 
ATOM      4  H   UNL     1      31.890  35.285  17.512  1.00  0.00     0.167 HD
ATOM      5  O   UNL     1      31.843  32.789  15.468  1.00  0.00    -0.225 OA
BRANCH   3   6
ATOM      6  C   UNL     1      31.220  33.263  18.144  1.00  0.00     0.154 C 
BRANCH   6   7
ATOM      7  C   UNL     1      29.843  33.693  18.632  1.00  0.00     0.165 C 
BRANCH   7   8
ATOM      8  C   UNL     1      28.854  32.718  18.038  1.00  0.00     0.176 C 
BRANCH   8   9
ATOM      9  C   UNL     1      29.253  31.277  18.131  1.00  0.00     0.178 C 
ATOM     10  C   UNL     1      27.157  30.422  17.529  1.00  0.00     0.269 C 
ATOM     11  C   UNL     1      26.895  30.236  19.014  1.00  0.00     0.112 C 
ATOM     12  O   UNL     1      28.483  30.568  17.240  1.00  0.00    -0.332 OA
ATOM     13  C   UNL     1      28.152  29.678  19.650  1.00  0.00     0.145 C 
ATOM     14  C   UNL     1      29.305  30.689  19.493  1.00  0.00     0.142 C 
BRANCH  10  15
ATOM     15  O   UNL     1      26.387  31.527  17.145  1.00  0.00    -0.357 OA
ATOM     16  H   UNL     1      26.343  31.628  16.169  1.00  0.00     0.214 HD
ENDBRANCH  10  15
BRANCH  10  17
ATOM     17  C   UNL     1      26.662  29.257  16.767  1.00  0.00     0.364 C 
ATOM     18  O   UNL     1      27.408  28.275  16.596  1.00  0.00    -0.246 OA
BRANCH  17  19
ATOM     19  O   UNL     1      25.393  29.255  16.250  1.00  0.00    -0.477 OA
ATOM     20  H   UNL     1      24.825  28.428  16.114  1.00  0.00     0.296 HD
ENDBRANCH  17  19
ENDBRANCH  10  17
BRANCH  13  21
ATOM     21  O   UNL     1      27.942  29.360  20.971  1.00  0.00    -0.391 OA
ATOM     22  H   UNL     1      27.573  30.119  21.472  1.00  0.00     0.211 HD
ENDBRANCH  13  21
BRANCH  14  23
ATOM     23  N   UNL     1      30.520  29.893  19.716  1.00  0.00    -0.348 N 
ATOM     24  C   UNL     1      31.394  30.233  20.776  1.00  0.00     0.217 C 
ATOM     25  H   UNL     1      30.751  29.079  19.107  1.00  0.00     0.163 HD
ATOM     26  C   UNL     1      32.647  29.468  21.060  1.00  0.00     0.114 C 
ATOM     27  O   UNL     1      31.081  31.224  21.493  1.00  0.00    -0.275 OA
ENDBRANCH  14  23
ENDBRANCH   8   9
BRANCH   8  28
ATOM     28  O   UNL     1      28.923  33.012  16.636  1.00  0.00    -0.388 OA
ATOM     29  H   UNL     1      28.069  32.802  16.212  1.00  0.00     0.211 HD
ENDBRANCH   8  28
ENDBRANCH   7   8
BRANCH   7  30
ATOM     30  O   UNL     1      29.674  35.002  18.209  1.00  0.00    -0.388 OA
ATOM     31  H   UNL     1      29.356  35.585  18.931  1.00  0.00     0.211 HD
ENDBRANCH   7  30
ENDBRANCH   6   7
ENDBRANCH   3   6
ENDBRANCH   1   2
BRANCH   1  32
ATOM     32  C   UNL     1      31.716  35.586  14.037  1.00  0.00     0.294 C 
BRANCH  32  33
ATOM     33  C   UNL     1      30.263  35.481  14.387  1.00  0.00     0.121 A 
ATOM     34  C   UNL     1      29.276  34.810  13.710  1.00  0.00     0.146 A 
ATOM     35  N   UNL     1      29.650  36.042  15.451  1.00  0.00    -0.131 NA
ATOM     36  N   UNL     1      28.082  34.966  14.361  1.00  0.00    -0.202 N 
ATOM     37  N   UNL     1      28.370  35.723  15.412  1.00  0.00    -0.060 NA
BRANCH  36  38
ATOM     38  C   UNL     1      26.827  34.442  13.965  1.00  0.00     0.164 A 
ATOM     39  N   UNL     1      26.309  33.356  14.555  1.00  0.00    -0.193 NA
ATOM     40  C   UNL     1      26.104  35.032  12.921  1.00  0.00     0.026 A 
ATOM     41  C   UNL     1      25.119  32.835  14.161  1.00  0.00     0.222 A 
ATOM     42  C   UNL     1      24.907  34.508  12.521  1.00  0.00     0.081 A 
ATOM     43  N   UNL     1      24.418  33.387  13.164  1.00  0.00    -0.213 NA
BRANCH  40  44
ATOM     44  C   UNL     1      26.683  36.210  12.245  1.00  0.00     0.070 C 
BRANCH  44  45
ATOM     45  C   UNL     1      26.370  37.531  12.889  1.00  0.00     0.165 C 
BRANCH  45  46
ATOM     46  O   UNL     1      27.491  38.253  13.191  1.00  0.00    -0.381 OA
BRANCH  46  47
ATOM     47  C   UNL     1      28.512  38.121  12.278  1.00  0.00     0.156 C 
ATOM     48  C   UNL     1      29.794  38.758  12.772  1.00  0.00     0.035 C 
ENDBRANCH  46  47
ENDBRANCH  45  46
ENDBRANCH  44  45
ENDBRANCH  40  44
BRANCH  41  49
ATOM     49  N   UNL     1      24.610  31.689  14.813  1.00  0.00    -0.368 N 
ATOM     50  H   UNL     1      23.704  31.282  14.519  1.00  0.00     0.159 HD
ATOM     51  H   UNL     1      25.118  31.229  15.591  1.00  0.00     0.159 HD
ENDBRANCH  41  49
BRANCH  42  52
ATOM     52  C   UNL     1      24.169  35.003  11.376  1.00  0.00     0.001 A 
ATOM     53  C   UNL     1      24.621  35.279  10.138  1.00  0.00     0.010 A 
ATOM     54  C   UNL     1      22.787  35.198  11.595  1.00  0.00     0.010 A 
ATOM     55  C   UNL     1      23.750  35.734   9.130  1.00  0.00     0.001 A 
ATOM     56  C   UNL     1      21.930  35.640  10.625  1.00  0.00     0.001 A 
ATOM     57  C   UNL     1      22.408  35.919   9.356  1.00  0.00     0.000 A 
ENDBRANCH  42  52
ENDBRANCH  36  38
ENDBRANCH  32  33
ENDBRANCH   1  32
TORSDOF 21
BEGIN_RES LYS A 131
REMARK  4 active torsions:
REMARK  status: ('A' for Active; 'I' for Inactive)
REMARK    1  A    between atoms: CA   and  CB  
REMARK    2  A    between atoms: CB   and  CG  
REMARK    3  A    between atoms: CG   and  CD  
REMARK    4  A    between atoms: CD   and  CE  
ROOT
ATOM      1  CA  LYS A 131      29.867  25.555  16.977  1.00 20.52     0.186 C 
ENDROOT
BRANCH   1   2
ATOM      2  CB  LYS A 131      28.345  25.722  17.026  1.00 20.94     0.034 C 
BRANCH   2   3
ATOM      3  CG  LYS A 131      27.599  24.424  16.757  1.00 22.96     0.005 C 
BRANCH   3   4
ATOM      4  CD  LYS A 131      26.918  23.896  17.989  1.00 24.33     0.041 C 
BRANCH   4   5
ATOM      5  CE  LYS A 131      25.596  23.244  17.600  1.00 26.91     0.338 C 
ATOM      6  NZ  LYS A 131      24.726  24.214  16.894  1.00 27.40     0.618 N 
ENDBRANCH   4   5
ENDBRANCH   3   4
ENDBRANCH   2   3
ENDBRANCH   1   2
END_RES LYS A 131
BEGIN_RES LYS A 135
REMARK  4 active torsions:
REMARK  status: ('A' for Active; 'I' for Inactive)
REMARK    5  A    between atoms: CA   and  CB  
REMARK    6  A    between atoms: CB   and  CG  
REMARK    7  A    between atoms: CG   and  CD  
REMARK    8  A    between atoms: CD   and  CE  
ROOT
ATOM      7  CA  LYS A 135      33.193  34.663   9.290  1.00 25.02     0.186 C 
ENDROOT
BRANCH   7   8
ATOM      8  CB  LYS A 135      32.060  35.360  10.034  1.00 26.63     0.034 C 
BRANCH   8   9
ATOM      9  CG  LYS A 135      30.707  34.747   9.782  1.00 29.45     0.005 C 
BRANCH   9  10
ATOM     10  CD  LYS A 135      30.502  34.491   8.297  1.00 32.00     0.041 C 
BRANCH  10  11
ATOM     11  CE  LYS A 135      29.134  34.974   7.856  1.00 34.25     0.338 C 
ATOM     12  NZ  LYS A 135      28.303  35.373   9.027  1.00 35.99     0.618 N 
ENDBRANCH  10  11
ENDBRANCH   9  10
ENDBRANCH   8   9
ENDBRANCH   7   8
END_RES LYS A 135
