REMARK VINA RESULT:    -5.240      4.820     10.829
REMARK INTER + INTRA:         -17.052
REMARK INTER:                 -10.754
REMARK INTRA:                  -6.299
REMARK UNBOUND:                -6.299
REMARK SMILES CC(=O)N[C@@H]1[C@@H](O)C[C@](O)(C(=O)O)O[C@H]1C(O)[C@H](O)CNC(=O)OCc1cn(C[C@@H](C(=O)O)C(c2ccccc2)c2ccccc2)nn1
REMARK SMILES IDX 21 1 22 2 23 3 20 5 18 6 16 7 15 8 9 9 8 10 14 11 6 12 5 13
REMARK SMILES IDX 10 14 11 16 12 17 13 18 7 20 4 22 2 23 1 25 3 26 17 27 19 29
REMARK SMILES IDX 24 31 25 32 26 33 27 34 48 35 28 36 47 37 29 38 30 39 31 40
REMARK SMILES IDX 32 41 33 42 34 44 35 45 36 46 40 47 37 48 39 49 38 50 41 51
REMARK SMILES IDX 42 52 46 53 43 54 45 55 44 56
REMARK H PARENT 21 4 10 15 13 19 7 21 4 24 17 28 19 30 33 43
REMARK Flexibility Score: inf
ROOT
ATOM      1  N   UNL     1      26.468  36.721   8.601  1.00  0.00    -0.319 N 
ATOM      2  C   UNL     1      25.410  36.293   9.445  1.00  0.00     0.407 C 
ATOM      3  O   UNL     1      24.237  36.199   8.980  1.00  0.00    -0.225 OA
ATOM      4  H   UNL     1      27.421  36.774   9.068  1.00  0.00     0.167 HD
ENDROOT
BRANCH   1   5
ATOM      5  C   UNL     1      26.289  37.062   7.211  1.00  0.00     0.154 C 
BRANCH   5   6
ATOM      6  C   UNL     1      27.618  37.274   6.484  1.00  0.00     0.165 C 
BRANCH   6   7
ATOM      7  C   UNL     1      28.256  38.473   7.118  1.00  0.00     0.176 C 
BRANCH   7   8
ATOM      8  C   UNL     1      29.068  39.296   6.159  1.00  0.00     0.178 C 
ATOM      9  C   UNL     1      31.112  40.384   6.050  1.00  0.00     0.269 C 
ATOM     10  C   UNL     1      30.638  40.903   4.717  1.00  0.00     0.112 C 
ATOM     11  O   UNL     1      30.372  39.356   6.565  1.00  0.00    -0.332 OA
ATOM     12  C   UNL     1      29.183  41.226   4.692  1.00  0.00     0.145 C 
ATOM     13  C   UNL     1      28.528  40.693   5.965  1.00  0.00     0.142 C 
BRANCH   9  14
ATOM     14  O   UNL     1      31.155  41.467   6.935  1.00  0.00    -0.357 OA
ATOM     15  H   UNL     1      30.243  41.698   7.259  1.00  0.00     0.214 HD
ENDBRANCH   9  14
BRANCH   9  16
ATOM     16  C   UNL     1      32.501  39.902   5.858  1.00  0.00     0.364 C 
ATOM     17  O   UNL     1      33.129  40.234   4.824  1.00  0.00    -0.246 OA
BRANCH  16  18
ATOM     18  O   UNL     1      33.127  39.096   6.785  1.00  0.00    -0.477 OA
ATOM     19  H   UNL     1      33.213  39.413   7.761  1.00  0.00     0.296 HD
ENDBRANCH  16  18
ENDBRANCH   9  16
BRANCH  12  20
ATOM     20  O   UNL     1      28.882  42.545   4.460  1.00  0.00    -0.391 OA
ATOM     21  H   UNL     1      27.930  42.653   4.203  1.00  0.00     0.211 HD
ENDBRANCH  12  20
BRANCH  13  22
ATOM     22  N   UNL     1      27.081  40.680   5.806  1.00  0.00    -0.348 N 
ATOM     23  C   UNL     1      26.332  41.752   6.347  1.00  0.00     0.217 C 
ATOM     24  H   UNL     1      26.638  39.894   5.305  1.00  0.00     0.163 HD
ATOM     25  C   UNL     1      24.860  41.791   6.214  1.00  0.00     0.114 C 
ATOM     26  O   UNL     1      26.908  42.691   6.950  1.00  0.00    -0.275 OA
ENDBRANCH  13  22
ENDBRANCH   7   8
BRANCH   7  27
ATOM     27  O   UNL     1      28.943  38.111   8.257  1.00  0.00    -0.388 OA
ATOM     28  H   UNL     1      28.399  38.212   9.089  1.00  0.00     0.211 HD
ENDBRANCH   7  27
ENDBRANCH   6   7
BRANCH   6  29
ATOM     29  O   UNL     1      27.283  37.532   5.143  1.00  0.00    -0.388 OA
ATOM     30  H   UNL     1      26.714  38.357   5.184  1.00  0.00     0.211 HD
ENDBRANCH   6  29
ENDBRANCH   5   6
ENDBRANCH   1   5
BRANCH   2  31
ATOM     31  O   UNL     1      25.631  35.977  10.771  1.00  0.00    -0.443 OA
BRANCH  31  32
ATOM     32  C   UNL     1      25.914  36.989  11.745  1.00  0.00     0.294 C 
BRANCH  32  33
ATOM     33  C   UNL     1      27.371  37.220  11.853  1.00  0.00     0.120 A 
ATOM     34  C   UNL     1      28.166  36.870  12.955  1.00  0.00     0.138 A 
ATOM     35  N   UNL     1      28.230  37.777  10.992  1.00  0.00    -0.132 NA
ATOM     36  N   UNL     1      29.435  37.213  12.733  1.00  0.00    -0.251 N 
ATOM     37  N   UNL     1      29.448  37.776  11.504  1.00  0.00    -0.067 NA
BRANCH  36  38
ATOM     38  C   UNL     1      30.642  37.075  13.496  1.00  0.00     0.162 C 
BRANCH  38  39
ATOM     39  C   UNL     1      31.403  35.804  13.320  1.00  0.00     0.132 C 
BRANCH  39  40
ATOM     40  C   UNL     1      32.542  35.982  12.419  1.00  0.00     0.309 C 
ATOM     41  O   UNL     1      32.696  36.911  11.608  1.00  0.00    -0.252 OA
BRANCH  40  42
ATOM     42  O   UNL     1      33.590  35.036  12.435  1.00  0.00    -0.481 OA
ATOM     43  H   UNL     1      34.386  35.197  13.058  1.00  0.00     0.296 HD
ENDBRANCH  40  42
ENDBRANCH  39  40
BRANCH  39  44
ATOM     44  C   UNL     1      31.810  35.197  14.651  1.00  0.00     0.065 C 
BRANCH  44  45
ATOM     45  C   UNL     1      31.005  33.995  14.971  1.00  0.00    -0.040 A 
ATOM     46  C   UNL     1      31.554  32.917  15.676  1.00  0.00     0.004 A 
ATOM     47  C   UNL     1      29.681  33.878  14.594  1.00  0.00     0.004 A 
ATOM     48  C   UNL     1      30.805  31.800  15.975  1.00  0.00     0.000 A 
ATOM     49  C   UNL     1      28.923  32.773  14.884  1.00  0.00     0.000 A 
ATOM     50  C   UNL     1      29.470  31.723  15.575  1.00  0.00     0.000 A 
ENDBRANCH  44  45
BRANCH  44  51
ATOM     51  C   UNL     1      31.729  36.131  15.778  1.00  0.00    -0.040 A 
ATOM     52  C   UNL     1      32.848  36.933  16.037  1.00  0.00     0.004 A 
ATOM     53  C   UNL     1      30.623  36.264  16.588  1.00  0.00     0.004 A 
ATOM     54  C   UNL     1      32.810  37.823  17.085  1.00  0.00     0.000 A 
ATOM     55  C   UNL     1      30.582  37.154  17.638  1.00  0.00     0.000 A 
ATOM     56  C   UNL     1      31.689  37.954  17.903  1.00  0.00     0.000 A 
ENDBRANCH  44  51
ENDBRANCH  39  44
ENDBRANCH  38  39
ENDBRANCH  36  38
ENDBRANCH  32  33
ENDBRANCH  31  32
ENDBRANCH   2  31
TORSDOF 21
BEGIN_RES LYS A 131
REMARK  4 active torsions:
REMARK  status: ('A' for Active; 'I' for Inactive)
REMARK    1  A    between atoms: CA   and  CB  
REMARK    2  A    between atoms: CB   and  CG  
REMARK    3  A    between atoms: CG   and  CD  
REMARK    4  A    between atoms: CD   and  CE  
ROOT
ATOM      1  CA  LYS A 131      29.867  25.555  16.977  1.00 20.52     0.186 C 
ENDROOT
BRANCH   1   2
ATOM      2  CB  LYS A 131      28.345  25.722  17.026  1.00 20.94     0.034 C 
BRANCH   2   3
ATOM      3  CG  LYS A 131      27.605  24.393  17.040  1.00 22.96     0.005 C 
BRANCH   3   4
ATOM      4  CD  LYS A 131      26.395  24.429  17.932  1.00 24.33     0.041 C 
BRANCH   4   5
ATOM      5  CE  LYS A 131      25.235  23.715  17.244  1.00 26.91     0.338 C 
ATOM      6  NZ  LYS A 131      24.167  24.679  16.892  1.00 27.40     0.618 N 
ENDBRANCH   4   5
ENDBRANCH   3   4
ENDBRANCH   2   3
ENDBRANCH   1   2
END_RES LYS A 131
BEGIN_RES LYS A 135
REMARK  4 active torsions:
REMARK  status: ('A' for Active; 'I' for Inactive)
REMARK    5  A    between atoms: CA   and  CB  
REMARK    6  A    between atoms: CB   and  CG  
REMARK    7  A    between atoms: CG   and  CD  
REMARK    8  A    between atoms: CD   and  CE  
ROOT
ATOM      7  CA  LYS A 135      33.193  34.663   9.290  1.00 25.02     0.186 C 
ENDROOT
BRANCH   7   8
ATOM      8  CB  LYS A 135      32.060  35.360  10.034  1.00 26.63     0.034 C 
BRANCH   8   9
ATOM      9  CG  LYS A 135      30.790  35.470   9.231  1.00 29.45     0.005 C 
BRANCH   9  10
ATOM     10  CD  LYS A 135      30.190  34.095   8.983  1.00 32.00     0.041 C 
BRANCH  10  11
ATOM     11  CE  LYS A 135      28.717  34.209   8.643  1.00 34.25     0.338 C 
ATOM     12  NZ  LYS A 135      27.871  33.632   9.724  1.00 35.99     0.618 N 
ENDBRANCH  10  11
ENDBRANCH   9  10
ENDBRANCH   8   9
ENDBRANCH   7   8
END_RES LYS A 135
