REMARK VINA RESULT:    -4.476      1.570      3.139
REMARK INTER + INTRA:         -14.302
REMARK INTER:                  -7.900
REMARK INTRA:                  -6.402
REMARK UNBOUND:                -6.555
REMARK SMILES CC(=O)N[C@@H]1[C@@H](O)C[C@](O)(C(=O)O)O[C@H]1C(O)[C@H](O)CNC(=O)OCc1cn([C@H]2C[C@H]3CC[C@@H](C2)N3C)nn1
REMARK SMILES IDX 20 1 18 2 16 3 15 4 9 5 8 6 14 7 6 8 5 9 10 10 11 12 12 13
REMARK SMILES IDX 13 14 7 16 4 18 2 19 1 21 3 22 17 23 19 25 21 27 22 28 23 30
REMARK SMILES IDX 24 31 25 32 26 33 27 34 39 35 28 36 38 37 29 38 35 39 30 40
REMARK SMILES IDX 34 41 31 42 36 43 33 44 32 45 37 46
REMARK H PARENT 10 11 13 15 7 17 4 20 17 24 19 26 21 29
REMARK Flexibility Score: inf
ROOT
ATOM      1  C   UNL     1      25.763  28.257  19.448  1.00  0.00     0.154 C 
ENDROOT
BRANCH   1   2
ATOM      2  C   UNL     1      27.240  28.334  19.634  1.00  0.00     0.165 C 
BRANCH   2   3
ATOM      3  C   UNL     1      27.733  29.687  20.040  1.00  0.00     0.176 C 
BRANCH   3   4
ATOM      4  C   UNL     1      29.237  29.745  20.179  1.00  0.00     0.178 C 
ATOM      5  C   UNL     1      30.981  28.838  21.397  1.00  0.00     0.269 C 
ATOM      6  C   UNL     1      31.724  29.875  20.599  1.00  0.00     0.112 C 
ATOM      7  O   UNL     1      29.643  28.740  21.046  1.00  0.00    -0.332 OA
ATOM      8  C   UNL     1      31.094  31.233  20.645  1.00  0.00     0.145 C 
ATOM      9  C   UNL     1      29.610  31.065  20.823  1.00  0.00     0.142 C 
BRANCH   5  10
ATOM     10  O   UNL     1      31.120  29.020  22.772  1.00  0.00    -0.357 OA
ATOM     11  H   UNL     1      31.957  28.609  23.091  1.00  0.00     0.214 HD
ENDBRANCH   5  10
BRANCH   5  12
ATOM     12  C   UNL     1      31.604  27.514  21.079  1.00  0.00     0.364 C 
ATOM     13  O   UNL     1      31.837  26.666  22.004  1.00  0.00    -0.246 OA
BRANCH  12  14
ATOM     14  O   UNL     1      31.953  27.138  19.803  1.00  0.00    -0.477 OA
ATOM     15  H   UNL     1      31.824  26.152  19.543  1.00  0.00     0.296 HD
ENDBRANCH  12  14
ENDBRANCH   5  12
BRANCH   8  16
ATOM     16  O   UNL     1      31.673  32.085  21.555  1.00  0.00    -0.391 OA
ATOM     17  H   UNL     1      32.659  32.006  21.461  1.00  0.00     0.211 HD
ENDBRANCH   8  16
BRANCH   9  18
ATOM     18  N   UNL     1      28.844  32.167  20.299  1.00  0.00    -0.348 N 
ATOM     19  C   UNL     1      28.512  33.312  21.086  1.00  0.00     0.217 C 
ATOM     20  H   UNL     1      28.502  32.162  19.312  1.00  0.00     0.163 HD
ATOM     21  C   UNL     1      27.724  34.409  20.490  1.00  0.00     0.114 C 
ATOM     22  O   UNL     1      28.912  33.338  22.273  1.00  0.00    -0.275 OA
ENDBRANCH   9  18
ENDBRANCH   3   4
BRANCH   3  23
ATOM     23  O   UNL     1      27.176  30.023  21.273  1.00  0.00    -0.388 OA
ATOM     24  H   UNL     1      26.205  30.079  21.237  1.00  0.00     0.211 HD
ENDBRANCH   3  23
ENDBRANCH   2   3
BRANCH   2  25
ATOM     25  O   UNL     1      27.919  27.961  18.451  1.00  0.00    -0.388 OA
ATOM     26  H   UNL     1      28.121  28.822  17.988  1.00  0.00     0.211 HD
ENDBRANCH   2  25
ENDBRANCH   1   2
BRANCH   1  27
ATOM     27  N   UNL     1      25.361  28.575  18.099  1.00  0.00    -0.319 N 
ATOM     28  C   UNL     1      24.814  29.852  17.809  1.00  0.00     0.407 C 
ATOM     29  H   UNL     1      25.453  27.899  17.303  1.00  0.00     0.167 HD
ATOM     30  O   UNL     1      24.653  30.748  18.682  1.00  0.00    -0.225 OA
BRANCH  28  31
ATOM     31  O   UNL     1      24.410  30.212  16.523  1.00  0.00    -0.443 OA
BRANCH  31  32
ATOM     32  C   UNL     1      25.115  31.153  15.738  1.00  0.00     0.294 C 
BRANCH  32  33
ATOM     33  C   UNL     1      26.575  30.873  15.798  1.00  0.00     0.120 A 
ATOM     34  C   UNL     1      27.569  31.822  15.691  1.00  0.00     0.138 A 
ATOM     35  N   UNL     1      27.217  29.703  15.961  1.00  0.00    -0.132 NA
ATOM     36  N   UNL     1      28.783  31.211  15.791  1.00  0.00    -0.249 N 
ATOM     37  N   UNL     1      28.510  29.928  15.953  1.00  0.00    -0.067 NA
BRANCH  36  38
ATOM     38  C   UNL     1      30.096  31.846  15.730  1.00  0.00     0.112 C 
ATOM     39  C   UNL     1      30.501  32.200  17.112  1.00  0.00     0.046 C 
ATOM     40  C   UNL     1      30.007  32.984  14.776  1.00  0.00     0.046 C 
ATOM     41  C   UNL     1      31.329  33.428  17.245  1.00  0.00     0.058 C 
ATOM     42  C   UNL     1      30.655  34.252  15.266  1.00  0.00     0.058 C 
ATOM     43  N   UNL     1      31.863  33.870  15.977  1.00  0.00    -0.300 NA
ATOM     44  C   UNL     1      30.409  34.578  17.621  1.00  0.00     0.021 C 
ATOM     45  C   UNL     1      29.744  34.878  16.292  1.00  0.00     0.021 C 
ATOM     46  C   UNL     1      32.754  34.986  16.174  1.00  0.00     0.105 C 
ENDBRANCH  36  38
ENDBRANCH  32  33
ENDBRANCH  31  32
ENDBRANCH  28  31
ENDBRANCH   1  27
TORSDOF 15
BEGIN_RES LYS A 131
REMARK  4 active torsions:
REMARK  status: ('A' for Active; 'I' for Inactive)
REMARK    1  A    between atoms: CA   and  CB  
REMARK    2  A    between atoms: CB   and  CG  
REMARK    3  A    between atoms: CG   and  CD  
REMARK    4  A    between atoms: CD   and  CE  
ROOT
ATOM      1  CA  LYS A 131      29.867  25.555  16.977  1.00 20.52     0.186 C 
ENDROOT
BRANCH   1   2
ATOM      2  CB  LYS A 131      28.345  25.722  17.026  1.00 20.94     0.034 C 
BRANCH   2   3
ATOM      3  CG  LYS A 131      27.602  24.398  16.934  1.00 22.96     0.005 C 
BRANCH   3   4
ATOM      4  CD  LYS A 131      26.568  24.252  18.015  1.00 24.33     0.041 C 
BRANCH   4   5
ATOM      5  CE  LYS A 131      25.226  24.774  17.511  1.00 26.91     0.338 C 
ATOM      6  NZ  LYS A 131      24.407  23.663  16.972  1.00 27.40     0.618 N 
ENDBRANCH   4   5
ENDBRANCH   3   4
ENDBRANCH   2   3
ENDBRANCH   1   2
END_RES LYS A 131
BEGIN_RES LYS A 135
REMARK  4 active torsions:
REMARK  status: ('A' for Active; 'I' for Inactive)
REMARK    5  A    between atoms: CA   and  CB  
REMARK    6  A    between atoms: CB   and  CG  
REMARK    7  A    between atoms: CG   and  CD  
REMARK    8  A    between atoms: CD   and  CE  
ROOT
ATOM      7  CA  LYS A 135      33.193  34.663   9.290  1.00 25.02     0.186 C 
ENDROOT
BRANCH   7   8
ATOM      8  CB  LYS A 135      32.060  35.360  10.034  1.00 26.63     0.034 C 
BRANCH   8   9
ATOM      9  CG  LYS A 135      30.810  35.526   9.209  1.00 29.45     0.005 C 
BRANCH   9  10
ATOM     10  CD  LYS A 135      30.015  34.230   9.172  1.00 32.00     0.041 C 
BRANCH  10  11
ATOM     11  CE  LYS A 135      28.801  34.323  10.076  1.00 34.25     0.338 C 
ATOM     12  NZ  LYS A 135      27.608  33.702   9.437  1.00 35.99     0.618 N 
ENDBRANCH  10  11
ENDBRANCH   9  10
ENDBRANCH   8   9
ENDBRANCH   7   8
END_RES LYS A 135
