REMARK VINA RESULT:    -4.707      8.314     14.524
REMARK INTER + INTRA:         -13.942
REMARK INTER:                  -8.524
REMARK INTRA:                  -5.418
REMARK UNBOUND:                -5.796
REMARK SMILES CC(=O)N[C@@H]1[C@@H](O)C[C@](O)(C(=O)O)O[C@H]1C(O)[C@H](O)CNC(=O)OCc1cn(C2CCCCC2)nn1
REMARK SMILES IDX 20 1 18 2 16 3 15 4 9 5 8 6 14 7 6 8 5 9 10 10 11 12 12 13
REMARK SMILES IDX 13 14 7 16 4 18 2 19 1 21 3 22 17 23 19 25 21 27 22 28 23 30
REMARK SMILES IDX 24 31 25 32 26 33 27 34 36 35 28 36 35 37 29 38 30 39 34 40
REMARK SMILES IDX 31 41 33 42 32 43
REMARK H PARENT 10 11 13 15 7 17 4 20 17 24 19 26 21 29
REMARK Flexibility Score: inf
ROOT
ATOM      1  C   UNL     1      29.662  41.175   6.962  1.00  0.00     0.154 C 
ENDROOT
BRANCH   1   2
ATOM      2  C   UNL     1      29.983  40.170   8.058  1.00  0.00     0.165 C 
BRANCH   2   3
ATOM      3  C   UNL     1      29.637  38.812   7.528  1.00  0.00     0.176 C 
BRANCH   3   4
ATOM      4  C   UNL     1      28.844  37.940   8.476  1.00  0.00     0.178 C 
ATOM      5  C   UNL     1      29.113  35.673   7.902  1.00  0.00     0.269 C 
ATOM      6  C   UNL     1      27.612  35.444   7.965  1.00  0.00     0.112 C 
ATOM      7  O   UNL     1      29.433  36.724   8.693  1.00  0.00    -0.332 OA
ATOM      8  C   UNL     1      26.855  36.678   7.548  1.00  0.00     0.145 C 
ATOM      9  C   UNL     1      27.375  37.923   8.238  1.00  0.00     0.142 C 
BRANCH   5  10
ATOM     10  O   UNL     1      29.544  35.759   6.579  1.00  0.00    -0.357 OA
ATOM     11  H   UNL     1      29.334  36.689   6.248  1.00  0.00     0.214 HD
ENDBRANCH   5  10
BRANCH   5  12
ATOM     12  C   UNL     1      29.719  34.452   8.503  1.00  0.00     0.364 C 
ATOM     13  O   UNL     1      29.009  33.660   9.162  1.00  0.00    -0.246 OA
BRANCH  12  14
ATOM     14  O   UNL     1      31.049  34.200   8.332  1.00  0.00    -0.477 OA
ATOM     15  H   UNL     1      31.753  34.906   8.155  1.00  0.00     0.296 HD
ENDBRANCH  12  14
ENDBRANCH   5  12
BRANCH   8  16
ATOM     16  O   UNL     1      26.849  36.817   6.166  1.00  0.00    -0.391 OA
ATOM     17  H   UNL     1      26.688  35.942   5.738  1.00  0.00     0.211 HD
ENDBRANCH   8  16
BRANCH   9  18
ATOM     18  N   UNL     1      26.633  38.119   9.485  1.00  0.00    -0.348 N 
ATOM     19  C   UNL     1      26.281  39.433   9.858  1.00  0.00     0.217 C 
ATOM     20  H   UNL     1      26.364  37.321  10.092  1.00  0.00     0.163 HD
ATOM     21  C   UNL     1      25.524  39.735  11.113  1.00  0.00     0.114 C 
ATOM     22  O   UNL     1      26.583  40.448   9.154  1.00  0.00    -0.275 OA
ENDBRANCH   9  18
ENDBRANCH   3   4
BRANCH   3  23
ATOM     23  O   UNL     1      29.188  38.831   6.234  1.00  0.00    -0.388 OA
ATOM     24  H   UNL     1      29.212  39.750   5.817  1.00  0.00     0.211 HD
ENDBRANCH   3  23
ENDBRANCH   2   3
BRANCH   2  25
ATOM     25  O   UNL     1      29.309  40.553   9.192  1.00  0.00    -0.388 OA
ATOM     26  H   UNL     1      28.513  41.049   8.945  1.00  0.00     0.211 HD
ENDBRANCH   2  25
ENDBRANCH   1   2
BRANCH   1  27
ATOM     27  N   UNL     1      28.268  41.537   7.076  1.00  0.00    -0.319 N 
ATOM     28  C   UNL     1      27.328  41.514   6.017  1.00  0.00     0.407 C 
ATOM     29  H   UNL     1      27.869  41.853   8.013  1.00  0.00     0.167 HD
ATOM     30  O   UNL     1      27.699  41.158   4.872  1.00  0.00    -0.225 OA
BRANCH  28  31
ATOM     31  O   UNL     1      26.000  41.877   6.216  1.00  0.00    -0.443 OA
BRANCH  31  32
ATOM     32  C   UNL     1      24.972  41.078   5.688  1.00  0.00     0.294 C 
BRANCH  32  33
ATOM     33  C   UNL     1      24.116  40.618   6.813  1.00  0.00     0.120 A 
ATOM     34  C   UNL     1      23.909  39.289   7.205  1.00  0.00     0.138 A 
ATOM     35  N   UNL     1      23.369  41.328   7.679  1.00  0.00    -0.132 NA
ATOM     36  N   UNL     1      23.074  39.257   8.258  1.00  0.00    -0.249 N 
ATOM     37  N   UNL     1      22.761  40.513   8.523  1.00  0.00    -0.067 NA
BRANCH  36  38
ATOM     38  C   UNL     1      22.606  38.072   8.964  1.00  0.00     0.109 C 
ATOM     39  C   UNL     1      21.137  37.866   8.667  1.00  0.00     0.027 C 
ATOM     40  C   UNL     1      23.359  36.853   8.480  1.00  0.00     0.027 C 
ATOM     41  C   UNL     1      20.921  36.736   7.678  1.00  0.00     0.002 C 
ATOM     42  C   UNL     1      22.659  35.642   9.073  1.00  0.00     0.002 C 
ATOM     43  C   UNL     1      21.385  35.436   8.278  1.00  0.00     0.000 C 
ENDBRANCH  36  38
ENDBRANCH  32  33
ENDBRANCH  31  32
ENDBRANCH  28  31
ENDBRANCH   1  27
TORSDOF 15
BEGIN_RES LYS A 131
REMARK  4 active torsions:
REMARK  status: ('A' for Active; 'I' for Inactive)
REMARK    1  A    between atoms: CA   and  CB  
REMARK    2  A    between atoms: CB   and  CG  
REMARK    3  A    between atoms: CG   and  CD  
REMARK    4  A    between atoms: CD   and  CE  
ROOT
ATOM      1  CA  LYS A 131      29.867  25.555  16.977  1.00 20.52     0.186 C 
ENDROOT
BRANCH   1   2
ATOM      2  CB  LYS A 131      28.345  25.722  17.026  1.00 20.94     0.034 C 
BRANCH   2   3
ATOM      3  CG  LYS A 131      27.601  24.402  16.896  1.00 22.96     0.005 C 
BRANCH   3   4
ATOM      4  CD  LYS A 131      26.157  24.523  17.297  1.00 24.33     0.041 C 
BRANCH   4   5
ATOM      5  CE  LYS A 131      25.807  23.412  18.281  1.00 26.91     0.338 C 
ATOM      6  NZ  LYS A 131      25.020  22.352  17.609  1.00 27.40     0.618 N 
ENDBRANCH   4   5
ENDBRANCH   3   4
ENDBRANCH   2   3
ENDBRANCH   1   2
END_RES LYS A 131
BEGIN_RES LYS A 135
REMARK  4 active torsions:
REMARK  status: ('A' for Active; 'I' for Inactive)
REMARK    5  A    between atoms: CA   and  CB  
REMARK    6  A    between atoms: CB   and  CG  
REMARK    7  A    between atoms: CG   and  CD  
REMARK    8  A    between atoms: CD   and  CE  
ROOT
ATOM      7  CA  LYS A 135      33.193  34.663   9.290  1.00 25.02     0.186 C 
ENDROOT
BRANCH   7   8
ATOM      8  CB  LYS A 135      32.060  35.360  10.034  1.00 26.63     0.034 C 
BRANCH   8   9
ATOM      9  CG  LYS A 135      32.521  36.146  11.234  1.00 29.45     0.005 C 
BRANCH   9  10
ATOM     10  CD  LYS A 135      31.551  35.974  12.393  1.00 32.00     0.041 C 
BRANCH  10  11
ATOM     11  CE  LYS A 135      30.614  34.810  12.135  1.00 34.25     0.338 C 
ATOM     12  NZ  LYS A 135      29.191  35.229  12.258  1.00 35.99     0.618 N 
ENDBRANCH  10  11
ENDBRANCH   9  10
ENDBRANCH   8   9
ENDBRANCH   7   8
END_RES LYS A 135
