REMARK VINA RESULT:    -4.246      9.720     14.367
REMARK INTER + INTRA:         -14.356
REMARK INTER:                  -7.184
REMARK INTRA:                  -7.172
REMARK UNBOUND:                -7.007
REMARK SMILES CC(=O)N[C@@H]1[C@@H](O)C[C@](O)(C(=O)O)O[C@H]1C(O)[C@H](O)CNC(=O)OCc1cn(-c2ccc(Cl)cc2)nn1
REMARK SMILES IDX 20 1 18 2 16 3 15 4 9 5 8 6 14 7 6 8 5 9 10 10 11 12 12 13
REMARK SMILES IDX 13 14 7 16 4 18 2 19 1 21 3 22 17 23 19 25 21 27 22 28 23 30
REMARK SMILES IDX 24 31 25 32 26 33 27 34 37 35 28 36 36 37 29 38 30 39 35 40
REMARK SMILES IDX 31 41 34 42 32 43 33 44
REMARK H PARENT 10 11 13 15 7 17 4 20 17 24 19 26 21 29
REMARK Flexibility Score: inf
ROOT
ATOM      1  C   UNL     1      23.007  40.006   7.512  1.00  0.00     0.154 C 
ENDROOT
BRANCH   1   2
ATOM      2  C   UNL     1      24.431  39.853   7.079  1.00  0.00     0.165 C 
BRANCH   2   3
ATOM      3  C   UNL     1      25.321  40.044   8.317  1.00  0.00     0.176 C 
BRANCH   3   4
ATOM      4  C   UNL     1      26.800  40.022   7.936  1.00  0.00     0.178 C 
ATOM      5  C   UNL     1      27.484  37.961   7.044  1.00  0.00     0.269 C 
ATOM      6  C   UNL     1      28.875  37.989   7.640  1.00  0.00     0.112 C 
ATOM      7  O   UNL     1      26.907  39.169   6.856  1.00  0.00    -0.332 OA
ATOM      8  C   UNL     1      29.025  39.219   8.461  1.00  0.00     0.145 C 
ATOM      9  C   UNL     1      27.671  39.582   9.039  1.00  0.00     0.142 C 
BRANCH   5  10
ATOM     10  O   UNL     1      26.744  37.077   7.826  1.00  0.00    -0.357 OA
ATOM     11  H   UNL     1      26.528  36.307   7.242  1.00  0.00     0.214 HD
ENDBRANCH   5  10
BRANCH   5  12
ATOM     12  C   UNL     1      27.635  37.330   5.707  1.00  0.00     0.364 C 
ATOM     13  O   UNL     1      27.877  36.102   5.660  1.00  0.00    -0.246 OA
BRANCH  12  14
ATOM     14  O   UNL     1      27.517  38.045   4.548  1.00  0.00    -0.477 OA
ATOM     15  H   UNL     1      27.476  39.067   4.586  1.00  0.00     0.296 HD
ENDBRANCH  12  14
ENDBRANCH   5  12
BRANCH   8  16
ATOM     16  O   UNL     1      30.002  39.114   9.444  1.00  0.00    -0.391 OA
ATOM     17  H   UNL     1      30.392  38.216   9.454  1.00  0.00     0.211 HD
ENDBRANCH   8  16
BRANCH   9  18
ATOM     18  N   UNL     1      27.893  40.487  10.113  1.00  0.00    -0.348 N 
ATOM     19  C   UNL     1      27.452  40.249  11.437  1.00  0.00     0.217 C 
ATOM     20  H   UNL     1      28.417  41.369   9.866  1.00  0.00     0.163 HD
ATOM     21  C   UNL     1      27.701  41.214  12.528  1.00  0.00     0.114 C 
ATOM     22  O   UNL     1      26.838  39.159  11.597  1.00  0.00    -0.275 OA
ENDBRANCH   9  18
ENDBRANCH   3   4
BRANCH   3  23
ATOM     23  O   UNL     1      25.056  39.035   9.248  1.00  0.00    -0.388 OA
ATOM     24  H   UNL     1      24.166  38.612   9.086  1.00  0.00     0.211 HD
ENDBRANCH   3  23
ENDBRANCH   2   3
BRANCH   2  25
ATOM     25  O   UNL     1      24.790  40.718   6.071  1.00  0.00    -0.388 OA
ATOM     26  H   UNL     1      25.069  40.317   5.229  1.00  0.00     0.211 HD
ENDBRANCH   2  25
ENDBRANCH   1   2
BRANCH   1  27
ATOM     27  N   UNL     1      22.276  38.803   7.725  1.00  0.00    -0.319 N 
ATOM     28  C   UNL     1      21.779  38.363   8.978  1.00  0.00     0.407 C 
ATOM     29  H   UNL     1      22.076  38.173   6.899  1.00  0.00     0.167 HD
ATOM     30  O   UNL     1      21.945  39.024  10.016  1.00  0.00    -0.225 OA
BRANCH  28  31
ATOM     31  O   UNL     1      21.076  37.146   9.070  1.00  0.00    -0.443 OA
BRANCH  31  32
ATOM     32  C   UNL     1      21.665  35.931   8.616  1.00  0.00     0.294 C 
BRANCH  32  33
ATOM     33  C   UNL     1      22.959  35.791   9.327  1.00  0.00     0.121 A 
ATOM     34  C   UNL     1      23.147  35.205  10.545  1.00  0.00     0.144 A 
ATOM     35  N   UNL     1      24.144  36.207   8.905  1.00  0.00    -0.131 NA
ATOM     36  N   UNL     1      24.464  35.289  10.825  1.00  0.00    -0.220 N 
ATOM     37  N   UNL     1      25.058  35.902   9.817  1.00  0.00    -0.062 NA
BRANCH  36  38
ATOM     38  C   UNL     1      25.041  34.777  12.030  1.00  0.00     0.066 A 
ATOM     39  C   UNL     1      26.260  35.252  12.450  1.00  0.00     0.030 A 
ATOM     40  C   UNL     1      24.339  33.822  12.720  1.00  0.00     0.030 A 
ATOM     41  C   UNL     1      26.781  34.731  13.619  1.00  0.00     0.023 A 
ATOM     42  C   UNL     1      24.888  33.322  13.885  1.00  0.00     0.023 A 
ATOM     43  C   UNL     1      26.103  33.764  14.346  1.00  0.00     0.041 A 
ATOM     44  Cl  UNL     1      26.741  33.092  15.822  1.00  0.00    -0.084 Cl
ENDBRANCH  36  38
ENDBRANCH  32  33
ENDBRANCH  31  32
ENDBRANCH  28  31
ENDBRANCH   1  27
TORSDOF 15
BEGIN_RES LYS A 131
REMARK  4 active torsions:
REMARK  status: ('A' for Active; 'I' for Inactive)
REMARK    1  A    between atoms: CA   and  CB  
REMARK    2  A    between atoms: CB   and  CG  
REMARK    3  A    between atoms: CG   and  CD  
REMARK    4  A    between atoms: CD   and  CE  
ROOT
ATOM      1  CA  LYS A 131      29.867  25.555  16.977  1.00 20.52     0.186 C 
ENDROOT
BRANCH   1   2
ATOM      2  CB  LYS A 131      28.345  25.722  17.026  1.00 20.94     0.034 C 
BRANCH   2   3
ATOM      3  CG  LYS A 131      27.601  24.402  16.894  1.00 22.96     0.005 C 
BRANCH   3   4
ATOM      4  CD  LYS A 131      26.163  24.518  17.316  1.00 24.33     0.041 C 
BRANCH   4   5
ATOM      5  CE  LYS A 131      25.925  23.659  18.554  1.00 26.91     0.338 C 
ATOM      6  NZ  LYS A 131      25.551  24.508  19.710  1.00 27.40     0.618 N 
ENDBRANCH   4   5
ENDBRANCH   3   4
ENDBRANCH   2   3
ENDBRANCH   1   2
END_RES LYS A 131
BEGIN_RES LYS A 135
REMARK  4 active torsions:
REMARK  status: ('A' for Active; 'I' for Inactive)
REMARK    5  A    between atoms: CA   and  CB  
REMARK    6  A    between atoms: CB   and  CG  
REMARK    7  A    between atoms: CG   and  CD  
REMARK    8  A    between atoms: CD   and  CE  
ROOT
ATOM      7  CA  LYS A 135      33.193  34.663   9.290  1.00 25.02     0.186 C 
ENDROOT
BRANCH   7   8
ATOM      8  CB  LYS A 135      32.060  35.360  10.034  1.00 26.63     0.034 C 
BRANCH   8   9
ATOM      9  CG  LYS A 135      30.800  35.500   9.219  1.00 29.45     0.005 C 
BRANCH   9  10
ATOM     10  CD  LYS A 135      30.157  34.141   8.987  1.00 32.00     0.041 C 
BRANCH  10  11
ATOM     11  CE  LYS A 135      28.691  34.299   8.633  1.00 34.25     0.338 C 
ATOM     12  NZ  LYS A 135      27.821  33.640   9.646  1.00 35.99     0.618 N 
ENDBRANCH  10  11
ENDBRANCH   9  10
ENDBRANCH   8   9
ENDBRANCH   7   8
END_RES LYS A 135
