REMARK VINA RESULT:    -4.727      3.450      8.005
REMARK INTER + INTRA:         -16.196
REMARK INTER:                 -11.921
REMARK INTRA:                  -4.276
REMARK UNBOUND:                -6.771
REMARK SMILES CC(=O)N[C@@H]1[C@@H](O)C[C@](O)(C(=O)O)O[C@H]1C(O)[C@H](O)CNC(=O)OCc1cn(CC(O)CCc2ccccc2)nn1
REMARK SMILES IDX 24 1 22 2 21 3 23 5 20 6 18 7 16 8 15 9 9 10 8 11 14 12 6 13
REMARK SMILES IDX 5 14 10 15 11 17 12 18 13 19 7 21 4 23 2 24 1 26 3 27 17 28
REMARK SMILES IDX 19 30 25 32 26 33 27 34 41 35 28 36 40 37 29 38 30 39 31 40
REMARK SMILES IDX 32 42 33 43 34 44 35 45 39 46 36 47 38 48 37 49
REMARK H PARENT 21 4 10 16 13 20 7 22 4 25 17 29 19 31 31 41
REMARK Flexibility Score: inf
ROOT
ATOM      1  O   UNL     1      24.750  35.287  10.972  1.00  0.00    -0.443 OA
ENDROOT
BRANCH   1   2
ATOM      2  C   UNL     1      25.352  35.668  12.158  1.00  0.00     0.407 C 
ATOM      3  N   UNL     1      26.599  35.132  12.539  1.00  0.00    -0.319 N 
ATOM      4  H   UNL     1      27.065  34.445  11.918  1.00  0.00     0.167 HD
ATOM      5  O   UNL     1      24.788  36.497  12.908  1.00  0.00    -0.225 OA
BRANCH   3   6
ATOM      6  C   UNL     1      27.267  35.507  13.777  1.00  0.00     0.154 C 
BRANCH   6   7
ATOM      7  C   UNL     1      28.535  36.291  13.492  1.00  0.00     0.165 C 
BRANCH   7   8
ATOM      8  C   UNL     1      29.721  35.366  13.711  1.00  0.00     0.176 C 
BRANCH   8   9
ATOM      9  C   UNL     1      29.949  35.147  15.209  1.00  0.00     0.178 C 
ATOM     10  C   UNL     1      32.199  35.464  15.748  1.00  0.00     0.269 C 
ATOM     11  C   UNL     1      32.428  34.087  15.231  1.00  0.00     0.112 C 
ATOM     12  O   UNL     1      30.928  35.915  15.731  1.00  0.00    -0.332 OA
ATOM     13  C   UNL     1      31.379  33.109  15.625  1.00  0.00     0.145 C 
ATOM     14  C   UNL     1      29.992  33.678  15.498  1.00  0.00     0.142 C 
BRANCH  10  15
ATOM     15  O   UNL     1      32.984  36.337  14.956  1.00  0.00    -0.357 OA
ATOM     16  H   UNL     1      33.108  35.940  14.056  1.00  0.00     0.214 HD
ENDBRANCH  10  15
BRANCH  10  17
ATOM     17  C   UNL     1      32.791  35.535  17.132  1.00  0.00     0.364 C 
ATOM     18  O   UNL     1      32.133  35.281  18.167  1.00  0.00    -0.246 OA
BRANCH  17  19
ATOM     19  O   UNL     1      34.129  35.895  17.326  1.00  0.00    -0.477 OA
ATOM     20  H   UNL     1      34.364  36.809  17.737  1.00  0.00     0.296 HD
ENDBRANCH  17  19
ENDBRANCH  10  17
BRANCH  13  21
ATOM     21  O   UNL     1      31.539  31.943  14.841  1.00  0.00    -0.391 OA
ATOM     22  H   UNL     1      31.401  32.155  13.870  1.00  0.00     0.211 HD
ENDBRANCH  13  21
BRANCH  14  23
ATOM     23  N   UNL     1      29.176  33.363  16.673  1.00  0.00    -0.348 N 
ATOM     24  C   UNL     1      28.497  32.143  16.795  1.00  0.00     0.217 C 
ATOM     25  H   UNL     1      29.130  34.114  17.424  1.00  0.00     0.163 HD
ATOM     26  C   UNL     1      27.687  31.872  17.996  1.00  0.00     0.114 C 
ATOM     27  O   UNL     1      28.571  31.283  15.896  1.00  0.00    -0.275 OA
ENDBRANCH  14  23
ENDBRANCH   8   9
BRANCH   8  28
ATOM     28  O   UNL     1      29.308  34.113  13.225  1.00  0.00    -0.388 OA
ATOM     29  H   UNL     1      28.944  33.534  13.960  1.00  0.00     0.211 HD
ENDBRANCH   8  28
ENDBRANCH   7   8
BRANCH   7  30
ATOM     30  O   UNL     1      28.620  37.387  14.341  1.00  0.00    -0.388 OA
ATOM     31  H   UNL     1      28.808  37.042  15.246  1.00  0.00     0.211 HD
ENDBRANCH   7  30
ENDBRANCH   6   7
ENDBRANCH   3   6
ENDBRANCH   1   2
BRANCH   1  32
ATOM     32  C   UNL     1      23.646  36.097  10.536  1.00  0.00     0.294 C 
BRANCH  32  33
ATOM     33  C   UNL     1      24.047  36.919   9.373  1.00  0.00     0.120 A 
ATOM     34  C   UNL     1      25.223  37.594   9.146  1.00  0.00     0.138 A 
ATOM     35  N   UNL     1      23.271  37.141   8.297  1.00  0.00    -0.132 NA
ATOM     36  N   UNL     1      25.134  38.201   7.954  1.00  0.00    -0.250 N 
ATOM     37  N   UNL     1      23.968  37.922   7.462  1.00  0.00    -0.067 NA
BRANCH  36  38
ATOM     38  C   UNL     1      26.154  39.043   7.288  1.00  0.00     0.177 C 
BRANCH  38  39
ATOM     39  C   UNL     1      27.387  38.217   7.095  1.00  0.00     0.136 C 
BRANCH  39  40
ATOM     40  O   UNL     1      28.552  38.996   7.143  1.00  0.00    -0.391 OA
ATOM     41  H   UNL     1      29.327  38.364   7.147  1.00  0.00     0.211 HD
ENDBRANCH  39  40
BRANCH  39  42
ATOM     42  C   UNL     1      27.334  37.145   6.127  1.00  0.00     0.038 C 
BRANCH  42  43
ATOM     43  C   UNL     1      28.399  36.135   6.100  1.00  0.00     0.038 C 
BRANCH  43  44
ATOM     44  C   UNL     1      28.501  35.302   7.287  1.00  0.00    -0.048 A 
ATOM     45  C   UNL     1      27.315  34.881   7.902  1.00  0.00     0.004 A 
ATOM     46  C   UNL     1      29.657  34.943   7.907  1.00  0.00     0.004 A 
ATOM     47  C   UNL     1      27.339  34.149   9.065  1.00  0.00     0.000 A 
ATOM     48  C   UNL     1      29.702  34.206   9.078  1.00  0.00     0.000 A 
ATOM     49  C   UNL     1      28.524  33.800   9.670  1.00  0.00     0.000 A 
ENDBRANCH  43  44
ENDBRANCH  42  43
ENDBRANCH  39  42
ENDBRANCH  38  39
ENDBRANCH  36  38
ENDBRANCH  32  33
ENDBRANCH   1  32
TORSDOF 20
BEGIN_RES LYS A 131
REMARK  4 active torsions:
REMARK  status: ('A' for Active; 'I' for Inactive)
REMARK    1  A    between atoms: CA   and  CB  
REMARK    2  A    between atoms: CB   and  CG  
REMARK    3  A    between atoms: CG   and  CD  
REMARK    4  A    between atoms: CD   and  CE  
ROOT
ATOM      1  CA  LYS A 131      29.867  25.555  16.977  1.00 20.52     0.186 C 
ENDROOT
BRANCH   1   2
ATOM      2  CB  LYS A 131      28.345  25.722  17.026  1.00 20.94     0.034 C 
BRANCH   2   3
ATOM      3  CG  LYS A 131      27.602  24.399  16.926  1.00 22.96     0.005 C 
BRANCH   3   4
ATOM      4  CD  LYS A 131      26.412  24.346  17.844  1.00 24.33     0.041 C 
BRANCH   4   5
ATOM      5  CE  LYS A 131      25.930  25.764  18.134  1.00 26.91     0.338 C 
ATOM      6  NZ  LYS A 131      24.529  25.938  17.684  1.00 27.40     0.618 N 
ENDBRANCH   4   5
ENDBRANCH   3   4
ENDBRANCH   2   3
ENDBRANCH   1   2
END_RES LYS A 131
BEGIN_RES LYS A 135
REMARK  4 active torsions:
REMARK  status: ('A' for Active; 'I' for Inactive)
REMARK    5  A    between atoms: CA   and  CB  
REMARK    6  A    between atoms: CB   and  CG  
REMARK    7  A    between atoms: CG   and  CD  
REMARK    8  A    between atoms: CD   and  CE  
ROOT
ATOM      7  CA  LYS A 135      33.193  34.663   9.290  1.00 25.02     0.186 C 
ENDROOT
BRANCH   7   8
ATOM      8  CB  LYS A 135      32.060  35.360  10.034  1.00 26.63     0.034 C 
BRANCH   8   9
ATOM      9  CG  LYS A 135      32.495  36.010  11.322  1.00 29.45     0.005 C 
BRANCH   9  10
ATOM     10  CD  LYS A 135      31.858  37.383  11.472  1.00 32.00     0.041 C 
BRANCH  10  11
ATOM     11  CE  LYS A 135      31.453  37.933  10.118  1.00 34.25     0.338 C 
ATOM     12  NZ  LYS A 135      31.395  39.421  10.139  1.00 35.99     0.618 N 
ENDBRANCH  10  11
ENDBRANCH   9  10
ENDBRANCH   8   9
ENDBRANCH   7   8
END_RES LYS A 135
