REMARK VINA RESULT:    -4.351      3.821      8.655
REMARK INTER + INTRA:         -13.816
REMARK INTER:                  -8.992
REMARK INTRA:                  -4.823
REMARK UNBOUND:                -6.285
REMARK SMILES CC(=O)N[C@@H]1[C@@H](O)C[C@](O)(C(=O)O)O[C@H]1C(O)[C@H](O)CNC(=O)OCc1cn(-c2ccccc2I)nn1
REMARK SMILES IDX 20 1 18 2 16 3 15 4 9 5 8 6 14 7 6 8 5 9 10 10 11 12 12 13
REMARK SMILES IDX 13 14 7 16 4 18 2 19 1 21 3 22 17 23 19 25 21 27 22 28 23 30
REMARK SMILES IDX 24 31 25 32 26 33 27 34 37 35 28 36 36 37 29 38 30 39 34 40
REMARK SMILES IDX 31 41 33 42 35 43 32 44
REMARK H PARENT 10 11 13 15 7 17 4 20 17 24 19 26 21 29
REMARK Flexibility Score: inf
ROOT
ATOM      1  C   UNL     1      29.517  31.112  15.794  1.00  0.00     0.154 C 
ENDROOT
BRANCH   1   2
ATOM      2  C   UNL     1      30.572  32.185  15.929  1.00  0.00     0.165 C 
BRANCH   2   3
ATOM      3  C   UNL     1      29.986  33.534  15.706  1.00  0.00     0.176 C 
BRANCH   3   4
ATOM      4  C   UNL     1      29.831  33.955  14.267  1.00  0.00     0.178 C 
ATOM      5  C   UNL     1      31.438  35.565  13.654  1.00  0.00     0.269 C 
ATOM      6  C   UNL     1      30.353  36.502  13.165  1.00  0.00     0.112 C 
ATOM      7  O   UNL     1      31.062  34.279  13.804  1.00  0.00    -0.332 OA
ATOM      8  C   UNL     1      29.166  36.311  14.073  1.00  0.00     0.145 C 
ATOM      9  C   UNL     1      28.719  34.876  13.960  1.00  0.00     0.142 C 
BRANCH   5  10
ATOM     10  O   UNL     1      31.832  36.061  14.897  1.00  0.00    -0.357 OA
ATOM     11  H   UNL     1      31.186  35.688  15.569  1.00  0.00     0.214 HD
ENDBRANCH   5  10
BRANCH   5  12
ATOM     12  C   UNL     1      32.600  35.729  12.725  1.00  0.00     0.364 C 
ATOM     13  O   UNL     1      32.709  36.686  11.928  1.00  0.00    -0.246 OA
BRANCH  12  14
ATOM     14  O   UNL     1      33.596  34.776  12.751  1.00  0.00    -0.477 OA
ATOM     15  H   UNL     1      33.658  34.056  13.474  1.00  0.00     0.296 HD
ENDBRANCH  12  14
ENDBRANCH   5  12
BRANCH   8  16
ATOM     16  O   UNL     1      29.588  36.648  15.361  1.00  0.00    -0.391 OA
ATOM     17  H   UNL     1      29.191  36.061  16.050  1.00  0.00     0.211 HD
ENDBRANCH   8  16
BRANCH   9  18
ATOM     18  N   UNL     1      28.278  34.687  12.566  1.00  0.00    -0.348 N 
ATOM     19  C   UNL     1      26.927  34.862  12.178  1.00  0.00     0.217 C 
ATOM     20  H   UNL     1      28.967  34.416  11.837  1.00  0.00     0.163 HD
ATOM     21  C   UNL     1      26.565  34.654  10.758  1.00  0.00     0.114 C 
ATOM     22  O   UNL     1      26.040  35.189  13.021  1.00  0.00    -0.275 OA
ENDBRANCH   9  18
ENDBRANCH   3   4
BRANCH   3  23
ATOM     23  O   UNL     1      28.864  33.773  16.488  1.00  0.00    -0.388 OA
ATOM     24  H   UNL     1      28.023  33.707  15.955  1.00  0.00     0.211 HD
ENDBRANCH   3  23
ENDBRANCH   2   3
BRANCH   2  25
ATOM     25  O   UNL     1      31.548  31.877  14.945  1.00  0.00    -0.388 OA
ATOM     26  H   UNL     1      31.115  31.883  14.048  1.00  0.00     0.211 HD
ENDBRANCH   2  25
ENDBRANCH   1   2
BRANCH   1  27
ATOM     27  N   UNL     1      29.242  30.405  17.025  1.00  0.00    -0.319 N 
ATOM     28  C   UNL     1      27.968  30.581  17.652  1.00  0.00     0.407 C 
ATOM     29  H   UNL     1      29.972  29.785  17.416  1.00  0.00     0.167 HD
ATOM     30  O   UNL     1      27.144  31.338  17.113  1.00  0.00    -0.225 OA
BRANCH  28  31
ATOM     31  O   UNL     1      27.731  29.892  18.830  1.00  0.00    -0.443 OA
BRANCH  31  32
ATOM     32  C   UNL     1      28.392  30.300  19.999  1.00  0.00     0.294 C 
BRANCH  32  33
ATOM     33  C   UNL     1      29.064  29.115  20.586  1.00  0.00     0.121 A 
ATOM     34  C   UNL     1      29.981  29.176  21.641  1.00  0.00     0.144 A 
ATOM     35  N   UNL     1      28.959  27.820  20.267  1.00  0.00    -0.131 NA
ATOM     36  N   UNL     1      30.348  27.910  21.866  1.00  0.00    -0.219 N 
ATOM     37  N   UNL     1      29.737  27.082  21.041  1.00  0.00    -0.062 NA
BRANCH  36  38
ATOM     38  C   UNL     1      31.272  27.501  22.859  1.00  0.00     0.080 A 
ATOM     39  C   UNL     1      32.632  27.499  22.553  1.00  0.00     0.029 A 
ATOM     40  C   UNL     1      30.813  27.120  24.089  1.00  0.00     0.039 A 
ATOM     41  C   UNL     1      33.539  27.102  23.513  1.00  0.00     0.002 A 
ATOM     42  C   UNL     1      31.738  26.726  25.039  1.00  0.00     0.017 A 
ATOM     43  I   UNL     1      28.769  27.107  24.597  1.00  0.00    -0.042 I 
ATOM     44  C   UNL     1      33.092  26.715  24.758  1.00  0.00     0.001 A 
ENDBRANCH  36  38
ENDBRANCH  32  33
ENDBRANCH  31  32
ENDBRANCH  28  31
ENDBRANCH   1  27
TORSDOF 15
BEGIN_RES LYS A 131
REMARK  4 active torsions:
REMARK  status: ('A' for Active; 'I' for Inactive)
REMARK    1  A    between atoms: CA   and  CB  
REMARK    2  A    between atoms: CB   and  CG  
REMARK    3  A    between atoms: CG   and  CD  
REMARK    4  A    between atoms: CD   and  CE  
ROOT
ATOM      1  CA  LYS A 131      29.867  25.555  16.977  1.00 20.52     0.186 C 
ENDROOT
BRANCH   1   2
ATOM      2  CB  LYS A 131      28.345  25.722  17.026  1.00 20.94     0.034 C 
BRANCH   2   3
ATOM      3  CG  LYS A 131      27.602  24.399  16.918  1.00 22.96     0.005 C 
BRANCH   3   4
ATOM      4  CD  LYS A 131      26.524  24.269  17.958  1.00 24.33     0.041 C 
BRANCH   4   5
ATOM      5  CE  LYS A 131      25.226  23.823  17.292  1.00 26.91     0.338 C 
ATOM      6  NZ  LYS A 131      24.165  24.839  17.490  1.00 27.40     0.618 N 
ENDBRANCH   4   5
ENDBRANCH   3   4
ENDBRANCH   2   3
ENDBRANCH   1   2
END_RES LYS A 131
BEGIN_RES LYS A 135
REMARK  4 active torsions:
REMARK  status: ('A' for Active; 'I' for Inactive)
REMARK    5  A    between atoms: CA   and  CB  
REMARK    6  A    between atoms: CB   and  CG  
REMARK    7  A    between atoms: CG   and  CD  
REMARK    8  A    between atoms: CD   and  CE  
ROOT
ATOM      7  CA  LYS A 135      33.193  34.663   9.290  1.00 25.02     0.186 C 
ENDROOT
BRANCH   7   8
ATOM      8  CB  LYS A 135      32.060  35.360  10.034  1.00 26.63     0.034 C 
BRANCH   8   9
ATOM      9  CG  LYS A 135      30.711  34.729   9.805  1.00 29.45     0.005 C 
BRANCH   9  10
ATOM     10  CD  LYS A 135      30.459  34.526   8.319  1.00 32.00     0.041 C 
BRANCH  10  11
ATOM     11  CE  LYS A 135      29.011  34.825   7.978  1.00 34.25     0.338 C 
ATOM     12  NZ  LYS A 135      28.904  35.548   6.681  1.00 35.99     0.618 N 
ENDBRANCH  10  11
ENDBRANCH   9  10
ENDBRANCH   8   9
ENDBRANCH   7   8
END_RES LYS A 135
