REMARK VINA RESULT:    -5.615      3.624      7.728
REMARK INTER + INTRA:         -15.864
REMARK INTER:                  -9.980
REMARK INTRA:                  -5.885
REMARK UNBOUND:                -5.490
REMARK SMILES CC(=O)N[C@@H]1[C@@H](O)C[C@](O)(C(=O)O)O[C@H]1C(O)[C@H](O)CNC(=O)OCc1cn(C(c2ccccc2)c2ccccc2)nn1
REMARK SMILES IDX 21 1 22 2 23 3 20 5 18 6 16 7 15 8 9 9 8 10 14 11 6 12 5 13
REMARK SMILES IDX 10 14 11 16 12 17 13 18 7 20 4 22 2 23 1 25 3 26 17 27 19 29
REMARK SMILES IDX 24 31 25 32 26 33 27 34 43 35 28 36 42 37 29 38 30 39 31 40
REMARK SMILES IDX 35 41 32 42 34 43 33 44 36 45 37 46 41 47 38 48 40 49 39 50
REMARK H PARENT 21 4 10 15 13 19 7 21 4 24 17 28 19 30
REMARK Flexibility Score: inf
ROOT
ATOM      1  N   UNL     1      26.584  30.393  18.461  1.00  0.00    -0.319 N 
ATOM      2  C   UNL     1      26.515  31.781  18.215  1.00  0.00     0.407 C 
ATOM      3  O   UNL     1      26.871  32.596  19.099  1.00  0.00    -0.225 OA
ATOM      4  H   UNL     1      26.279  29.743  17.709  1.00  0.00     0.167 HD
ENDROOT
BRANCH   1   5
ATOM      5  C   UNL     1      27.058  29.874  19.706  1.00  0.00     0.154 C 
BRANCH   5   6
ATOM      6  C   UNL     1      27.887  28.619  19.432  1.00  0.00     0.165 C 
BRANCH   6   7
ATOM      7  C   UNL     1      29.323  29.002  19.751  1.00  0.00     0.176 C 
BRANCH   7   8
ATOM      8  C   UNL     1      29.559  29.437  21.170  1.00  0.00     0.178 C 
ATOM      9  C   UNL     1      31.882  29.089  21.338  1.00  0.00     0.269 C 
ATOM     10  C   UNL     1      31.668  27.902  22.251  1.00  0.00     0.112 C 
ATOM     11  O   UNL     1      30.841  29.947  21.225  1.00  0.00    -0.332 OA
ATOM     12  C   UNL     1      30.319  27.271  22.083  1.00  0.00     0.145 C 
ATOM     13  C   UNL     1      29.298  28.367  22.155  1.00  0.00     0.142 C 
BRANCH   9  14
ATOM     14  O   UNL     1      32.148  28.547  20.079  1.00  0.00    -0.357 OA
ATOM     15  H   UNL     1      33.114  28.719  19.894  1.00  0.00     0.214 HD
ENDBRANCH   9  14
BRANCH   9  16
ATOM     16  C   UNL     1      33.142  29.795  21.772  1.00  0.00     0.364 C 
ATOM     17  O   UNL     1      33.227  31.026  21.770  1.00  0.00    -0.246 OA
BRANCH  16  18
ATOM     18  O   UNL     1      34.210  29.027  22.175  1.00  0.00    -0.477 OA
ATOM     19  H   UNL     1      34.204  28.621  23.118  1.00  0.00     0.296 HD
ENDBRANCH  16  18
ENDBRANCH   9  16
BRANCH  12  20
ATOM     20  O   UNL     1      30.313  26.560  20.917  1.00  0.00    -0.391 OA
ATOM     21  H   UNL     1      29.497  25.995  20.836  1.00  0.00     0.211 HD
ENDBRANCH  12  20
BRANCH  13  22
ATOM     22  N   UNL     1      29.336  28.895  23.533  1.00  0.00    -0.348 N 
ATOM     23  C   UNL     1      28.168  29.231  24.239  1.00  0.00     0.217 C 
ATOM     24  H   UNL     1      30.268  29.018  23.983  1.00  0.00     0.163 HD
ATOM     25  C   UNL     1      28.250  29.760  25.625  1.00  0.00     0.114 C 
ATOM     26  O   UNL     1      27.034  29.088  23.704  1.00  0.00    -0.275 OA
ENDBRANCH  13  22
ENDBRANCH   7   8
BRANCH   7  27
ATOM     27  O   UNL     1      29.578  30.143  18.904  1.00  0.00    -0.388 OA
ATOM     28  H   UNL     1      30.055  30.833  19.391  1.00  0.00     0.211 HD
ENDBRANCH   7  27
ENDBRANCH   6   7
BRANCH   6  29
ATOM     29  O   UNL     1      27.700  28.344  18.086  1.00  0.00    -0.388 OA
ATOM     30  H   UNL     1      27.632  27.389  17.891  1.00  0.00     0.211 HD
ENDBRANCH   6  29
ENDBRANCH   5   6
ENDBRANCH   1   5
BRANCH   2  31
ATOM     31  O   UNL     1      26.059  32.290  17.005  1.00  0.00    -0.443 OA
BRANCH  31  32
ATOM     32  C   UNL     1      26.614  31.803  15.813  1.00  0.00     0.294 C 
BRANCH  32  33
ATOM     33  C   UNL     1      28.091  31.742  15.958  1.00  0.00     0.120 A 
ATOM     34  C   UNL     1      28.937  32.851  16.056  1.00  0.00     0.139 A 
ATOM     35  N   UNL     1      28.920  30.686  16.020  1.00  0.00    -0.132 NA
ATOM     36  N   UNL     1      30.197  32.425  16.170  1.00  0.00    -0.240 N 
ATOM     37  N   UNL     1      30.169  31.119  16.146  1.00  0.00    -0.066 NA
BRANCH  36  38
ATOM     38  C   UNL     1      31.405  33.228  16.297  1.00  0.00     0.169 C 
BRANCH  38  39
ATOM     39  C   UNL     1      31.684  33.979  15.072  1.00  0.00    -0.019 A 
ATOM     40  C   UNL     1      32.958  34.482  14.782  1.00  0.00     0.006 A 
ATOM     41  C   UNL     1      30.679  34.193  14.150  1.00  0.00     0.006 A 
ATOM     42  C   UNL     1      33.196  35.170  13.612  1.00  0.00     0.000 A 
ATOM     43  C   UNL     1      30.944  34.886  12.985  1.00  0.00     0.000 A 
ATOM     44  C   UNL     1      32.194  35.387  12.688  1.00  0.00     0.000 A 
ENDBRANCH  38  39
BRANCH  38  45
ATOM     45  C   UNL     1      31.477  33.981  17.551  1.00  0.00    -0.019 A 
ATOM     46  C   UNL     1      31.417  33.313  18.787  1.00  0.00     0.006 A 
ATOM     47  C   UNL     1      31.612  35.348  17.542  1.00  0.00     0.006 A 
ATOM     48  C   UNL     1      31.492  34.013  19.964  1.00  0.00     0.000 A 
ATOM     49  C   UNL     1      31.687  36.052  18.749  1.00  0.00     0.000 A 
ATOM     50  C   UNL     1      31.628  35.384  19.950  1.00  0.00     0.000 A 
ENDBRANCH  38  45
ENDBRANCH  36  38
ENDBRANCH  32  33
ENDBRANCH  31  32
ENDBRANCH   2  31
TORSDOF 17
BEGIN_RES LYS A 131
REMARK  4 active torsions:
REMARK  status: ('A' for Active; 'I' for Inactive)
REMARK    1  A    between atoms: CA   and  CB  
REMARK    2  A    between atoms: CB   and  CG  
REMARK    3  A    between atoms: CG   and  CD  
REMARK    4  A    between atoms: CD   and  CE  
ROOT
ATOM      1  CA  LYS A 131      29.867  25.555  16.977  1.00 20.52     0.186 C 
ENDROOT
BRANCH   1   2
ATOM      2  CB  LYS A 131      28.345  25.722  17.026  1.00 20.94     0.034 C 
BRANCH   2   3
ATOM      3  CG  LYS A 131      27.602  24.399  16.923  1.00 22.96     0.005 C 
BRANCH   3   4
ATOM      4  CD  LYS A 131      26.148  24.537  17.281  1.00 24.33     0.041 C 
BRANCH   4   5
ATOM      5  CE  LYS A 131      26.000  24.590  18.799  1.00 26.91     0.338 C 
ATOM      6  NZ  LYS A 131      25.463  25.905  19.222  1.00 27.40     0.618 N 
ENDBRANCH   4   5
ENDBRANCH   3   4
ENDBRANCH   2   3
ENDBRANCH   1   2
END_RES LYS A 131
BEGIN_RES LYS A 135
REMARK  4 active torsions:
REMARK  status: ('A' for Active; 'I' for Inactive)
REMARK    5  A    between atoms: CA   and  CB  
REMARK    6  A    between atoms: CB   and  CG  
REMARK    7  A    between atoms: CG   and  CD  
REMARK    8  A    between atoms: CD   and  CE  
ROOT
ATOM      7  CA  LYS A 135      33.193  34.663   9.290  1.00 25.02     0.186 C 
ENDROOT
BRANCH   7   8
ATOM      8  CB  LYS A 135      32.060  35.360  10.034  1.00 26.63     0.034 C 
BRANCH   8   9
ATOM      9  CG  LYS A 135      30.788  35.466   9.233  1.00 29.45     0.005 C 
BRANCH   9  10
ATOM     10  CD  LYS A 135      30.168  34.092   9.027  1.00 32.00     0.041 C 
BRANCH  10  11
ATOM     11  CE  LYS A 135      28.708  34.101   9.436  1.00 34.25     0.338 C 
ATOM     12  NZ  LYS A 135      27.843  34.601   8.331  1.00 35.99     0.618 N 
ENDBRANCH  10  11
ENDBRANCH   9  10
ENDBRANCH   8   9
ENDBRANCH   7   8
END_RES LYS A 135
