REMARK VINA RESULT:    -4.189      2.929      4.757
REMARK INTER + INTRA:         -15.304
REMARK INTER:                  -7.081
REMARK INTRA:                  -8.224
REMARK UNBOUND:                -7.565
REMARK SMILES CC(=O)N[C@@H]1[C@@H](O)C[C@](O)(C(=O)O)O[C@H]1C(O)[C@H](O)CNC(=O)OCc1cn(CC(=O)Nc2ncccn2)nn1
REMARK SMILES IDX 21 1 22 2 23 3 20 5 18 6 16 7 15 8 9 9 8 10 14 11 6 12 5 13
REMARK SMILES IDX 10 14 11 16 12 17 13 18 7 20 4 22 2 23 1 25 3 26 17 27 19 29
REMARK SMILES IDX 24 31 25 32 26 33 27 34 40 35 28 36 39 37 29 38 30 39 31 40
REMARK SMILES IDX 32 41 33 43 34 44 38 45 35 46 37 47 36 48
REMARK H PARENT 21 4 10 15 13 19 7 21 4 24 17 28 19 30 32 42
REMARK Flexibility Score: inf
ROOT
ATOM      1  N   UNL     1      29.723  30.714  17.872  1.00  0.00    -0.319 N 
ATOM      2  C   UNL     1      29.081  31.307  19.013  1.00  0.00     0.407 C 
ATOM      3  O   UNL     1      29.204  32.531  19.261  1.00  0.00    -0.225 OA
ATOM      4  H   UNL     1      29.608  29.705  17.684  1.00  0.00     0.167 HD
ENDROOT
BRANCH   1   5
ATOM      5  C   UNL     1      30.509  31.571  17.028  1.00  0.00     0.154 C 
BRANCH   5   6
ATOM      6  C   UNL     1      30.118  31.501  15.572  1.00  0.00     0.165 C 
BRANCH   6   7
ATOM      7  C   UNL     1      29.524  32.839  15.203  1.00  0.00     0.176 C 
BRANCH   7   8
ATOM      8  C   UNL     1      28.138  33.019  15.826  1.00  0.00     0.178 C 
ATOM      9  C   UNL     1      25.950  32.543  15.540  1.00  0.00     0.269 C 
ATOM     10  C   UNL     1      25.594  33.755  16.322  1.00  0.00     0.112 C 
ATOM     11  O   UNL     1      27.161  32.674  14.924  1.00  0.00    -0.332 OA
ATOM     12  C   UNL     1      26.553  34.915  16.204  1.00  0.00     0.145 C 
ATOM     13  C   UNL     1      27.991  34.481  16.216  1.00  0.00     0.142 C 
BRANCH   9  14
ATOM     14  O   UNL     1      25.012  32.404  14.462  1.00  0.00    -0.357 OA
ATOM     15  H   UNL     1      24.960  31.440  14.215  1.00  0.00     0.214 HD
ENDBRANCH   9  14
BRANCH   9  16
ATOM     16  C   UNL     1      25.789  31.290  16.334  1.00  0.00     0.364 C 
ATOM     17  O   UNL     1      25.262  31.307  17.447  1.00  0.00    -0.246 OA
BRANCH  16  18
ATOM     18  O   UNL     1      26.229  30.056  15.848  1.00  0.00    -0.477 OA
ATOM     19  H   UNL     1      27.182  29.753  15.942  1.00  0.00     0.296 HD
ENDBRANCH  16  18
ENDBRANCH   9  16
BRANCH  12  20
ATOM     20  O   UNL     1      26.232  35.583  15.019  1.00  0.00    -0.391 OA
ATOM     21  H   UNL     1      26.972  36.188  14.726  1.00  0.00     0.211 HD
ENDBRANCH  12  20
BRANCH  13  22
ATOM     22  N   UNL     1      28.678  34.703  17.440  1.00  0.00    -0.348 N 
ATOM     23  C   UNL     1      29.257  35.936  17.836  1.00  0.00     0.217 C 
ATOM     24  H   UNL     1      28.781  33.913  18.123  1.00  0.00     0.163 HD
ATOM     25  C   UNL     1      29.971  36.097  19.140  1.00  0.00     0.114 C 
ATOM     26  O   UNL     1      29.156  36.898  17.055  1.00  0.00    -0.275 OA
ENDBRANCH  13  22
ENDBRANCH   7   8
BRANCH   7  27
ATOM     27  O   UNL     1      30.355  33.888  15.547  1.00  0.00    -0.388 OA
ATOM     28  H   UNL     1      31.142  33.510  16.046  1.00  0.00     0.211 HD
ENDBRANCH   7  27
ENDBRANCH   6   7
BRANCH   6  29
ATOM     29  O   UNL     1      29.191  30.471  15.432  1.00  0.00    -0.388 OA
ATOM     30  H   UNL     1      28.305  30.896  15.276  1.00  0.00     0.211 HD
ENDBRANCH   6  29
ENDBRANCH   5   6
ENDBRANCH   1   5
BRANCH   2  31
ATOM     31  O   UNL     1      28.312  30.554  19.870  1.00  0.00    -0.443 OA
BRANCH  31  32
ATOM     32  C   UNL     1      28.301  29.160  19.963  1.00  0.00     0.294 C 
BRANCH  32  33
ATOM     33  C   UNL     1      27.217  28.600  19.128  1.00  0.00     0.120 A 
ATOM     34  C   UNL     1      25.888  28.418  19.447  1.00  0.00     0.138 A 
ATOM     35  N   UNL     1      27.373  28.170  17.866  1.00  0.00    -0.132 NA
ATOM     36  N   UNL     1      25.294  27.891  18.378  1.00  0.00    -0.243 N 
ATOM     37  N   UNL     1      26.216  27.754  17.442  1.00  0.00    -0.067 NA
BRANCH  36  38
ATOM     38  C   UNL     1      23.869  27.554  18.300  1.00  0.00     0.246 C 
BRANCH  38  39
ATOM     39  C   UNL     1      23.397  27.677  16.889  1.00  0.00     0.248 C 
ATOM     40  O   UNL     1      23.013  26.722  16.194  1.00  0.00    -0.272 OA
ATOM     41  N   UNL     1      23.387  28.983  16.300  1.00  0.00    -0.293 N 
ATOM     42  H   UNL     1      23.705  29.806  16.861  1.00  0.00     0.173 HD
BRANCH  41  43
ATOM     43  C   UNL     1      22.952  29.202  14.972  1.00  0.00     0.229 A 
ATOM     44  N   UNL     1      23.793  29.402  13.939  1.00  0.00    -0.221 NA
ATOM     45  N   UNL     1      21.635  29.217  14.688  1.00  0.00    -0.221 NA
ATOM     46  C   UNL     1      23.349  29.606  12.683  1.00  0.00     0.117 A 
ATOM     47  C   UNL     1      21.135  29.412  13.471  1.00  0.00     0.117 A 
ATOM     48  C   UNL     1      21.996  29.618  12.412  1.00  0.00     0.040 A 
ENDBRANCH  41  43
ENDBRANCH  38  39
ENDBRANCH  36  38
ENDBRANCH  32  33
ENDBRANCH  31  32
ENDBRANCH   2  31
TORSDOF 17
BEGIN_RES LYS A 131
REMARK  4 active torsions:
REMARK  status: ('A' for Active; 'I' for Inactive)
REMARK    1  A    between atoms: CA   and  CB  
REMARK    2  A    between atoms: CB   and  CG  
REMARK    3  A    between atoms: CG   and  CD  
REMARK    4  A    between atoms: CD   and  CE  
ROOT
ATOM      1  CA  LYS A 131      29.867  25.555  16.977  1.00 20.52     0.186 C 
ENDROOT
BRANCH   1   2
ATOM      2  CB  LYS A 131      28.345  25.722  17.026  1.00 20.94     0.034 C 
BRANCH   2   3
ATOM      3  CG  LYS A 131      27.601  24.401  16.900  1.00 22.96     0.005 C 
BRANCH   3   4
ATOM      4  CD  LYS A 131      26.558  24.234  17.970  1.00 24.33     0.041 C 
BRANCH   4   5
ATOM      5  CE  LYS A 131      25.176  24.177  17.329  1.00 26.91     0.338 C 
ATOM      6  NZ  LYS A 131      24.653  22.790  17.346  1.00 27.40     0.618 N 
ENDBRANCH   4   5
ENDBRANCH   3   4
ENDBRANCH   2   3
ENDBRANCH   1   2
END_RES LYS A 131
BEGIN_RES LYS A 135
REMARK  4 active torsions:
REMARK  status: ('A' for Active; 'I' for Inactive)
REMARK    5  A    between atoms: CA   and  CB  
REMARK    6  A    between atoms: CB   and  CG  
REMARK    7  A    between atoms: CG   and  CD  
REMARK    8  A    between atoms: CD   and  CE  
ROOT
ATOM      7  CA  LYS A 135      33.193  34.663   9.290  1.00 25.02     0.186 C 
ENDROOT
BRANCH   7   8
ATOM      8  CB  LYS A 135      32.060  35.360  10.034  1.00 26.63     0.034 C 
BRANCH   8   9
ATOM      9  CG  LYS A 135      30.800  35.498   9.220  1.00 29.45     0.005 C 
BRANCH   9  10
ATOM     10  CD  LYS A 135      30.182  34.135   8.951  1.00 32.00     0.041 C 
BRANCH  10  11
ATOM     11  CE  LYS A 135      28.698  34.269   8.668  1.00 34.25     0.338 C 
ATOM     12  NZ  LYS A 135      27.886  33.761   9.808  1.00 35.99     0.618 N 
ENDBRANCH  10  11
ENDBRANCH   9  10
ENDBRANCH   8   9
ENDBRANCH   7   8
END_RES LYS A 135
