REMARK VINA RESULT:    -4.618      0.000      0.000
REMARK INTER + INTRA:         -14.312
REMARK INTER:                  -7.384
REMARK INTRA:                  -6.928
REMARK UNBOUND:                -5.644
REMARK SMILES CC(=O)N[C@@H]1[C@@H](O)C[C@](O)(C(=O)O)O[C@H]1C(O)[C@H](O)CNC(=O)OCc1cn(CCC(=O)O)nn1
REMARK SMILES IDX 21 1 22 2 23 3 20 5 18 6 16 7 15 8 9 9 8 10 14 11 6 12 5 13
REMARK SMILES IDX 10 14 11 16 12 17 13 18 7 20 4 22 2 23 1 25 3 26 17 27 19 29
REMARK SMILES IDX 24 31 25 32 26 33 27 34 35 35 28 36 34 37 29 38 30 39 31 40
REMARK SMILES IDX 32 41 33 42
REMARK H PARENT 21 4 10 15 13 19 7 21 4 24 17 28 19 30 33 43
REMARK Flexibility Score: inf
ROOT
ATOM      1  N   UNL     1      31.145  33.599  19.824  1.00  0.00    -0.319 N 
ATOM      2  C   UNL     1      30.205  34.488  19.245  1.00  0.00     0.407 C 
ATOM      3  O   UNL     1      29.134  34.796  19.849  1.00  0.00    -0.225 OA
ATOM      4  H   UNL     1      32.012  33.372  19.298  1.00  0.00     0.167 HD
ENDROOT
BRANCH   1   5
ATOM      5  C   UNL     1      30.929  33.001  21.119  1.00  0.00     0.154 C 
BRANCH   5   6
ATOM      6  C   UNL     1      30.390  31.598  21.058  1.00  0.00     0.165 C 
BRANCH   6   7
ATOM      7  C   UNL     1      31.155  30.762  20.032  1.00  0.00     0.176 C 
BRANCH   7   8
ATOM      8  C   UNL     1      31.074  29.292  20.401  1.00  0.00     0.178 C 
ATOM      9  C   UNL     1      29.558  27.959  21.575  1.00  0.00     0.269 C 
ATOM     10  C   UNL     1      30.626  26.919  21.768  1.00  0.00     0.112 C 
ATOM     11  O   UNL     1      29.805  28.833  20.539  1.00  0.00    -0.332 OA
ATOM     12  C   UNL     1      32.018  27.401  21.570  1.00  0.00     0.145 C 
ATOM     13  C   UNL     1      31.974  28.937  21.556  1.00  0.00     0.142 C 
BRANCH   9  14
ATOM     14  O   UNL     1      29.350  28.606  22.788  1.00  0.00    -0.357 OA
ATOM     15  H   UNL     1      28.869  29.450  22.565  1.00  0.00     0.214 HD
ENDBRANCH   9  14
BRANCH   9  16
ATOM     16  C   UNL     1      28.315  27.230  21.234  1.00  0.00     0.364 C 
ATOM     17  O   UNL     1      27.354  27.093  22.022  1.00  0.00    -0.246 OA
BRANCH  16  18
ATOM     18  O   UNL     1      28.190  26.660  19.980  1.00  0.00    -0.477 OA
ATOM     19  H   UNL     1      28.928  26.135  19.528  1.00  0.00     0.296 HD
ENDBRANCH  16  18
ENDBRANCH   9  16
BRANCH  12  20
ATOM     20  O   UNL     1      32.901  26.949  22.547  1.00  0.00    -0.391 OA
ATOM     21  H   UNL     1      33.485  27.678  22.894  1.00  0.00     0.211 HD
ENDBRANCH  12  20
BRANCH  13  22
ATOM     22  N   UNL     1      33.308  29.477  21.384  1.00  0.00    -0.348 N 
ATOM     23  C   UNL     1      33.838  30.403  22.326  1.00  0.00     0.217 C 
ATOM     24  H   UNL     1      33.919  29.214  20.575  1.00  0.00     0.163 HD
ATOM     25  C   UNL     1      35.214  30.989  22.189  1.00  0.00     0.114 C 
ATOM     26  O   UNL     1      33.141  30.761  23.329  1.00  0.00    -0.275 OA
ENDBRANCH  13  22
ENDBRANCH   7   8
BRANCH   7  27
ATOM     27  O   UNL     1      30.555  30.953  18.790  1.00  0.00    -0.388 OA
ATOM     28  H   UNL     1      29.561  30.896  18.835  1.00  0.00     0.211 HD
ENDBRANCH   7  27
ENDBRANCH   6   7
BRANCH   6  29
ATOM     29  O   UNL     1      29.042  31.691  20.702  1.00  0.00    -0.388 OA
ATOM     30  H   UNL     1      28.922  32.484  20.121  1.00  0.00     0.211 HD
ENDBRANCH   6  29
ENDBRANCH   5   6
ENDBRANCH   1   5
BRANCH   2  31
ATOM     31  O   UNL     1      30.464  35.025  18.005  1.00  0.00    -0.443 OA
BRANCH  31  32
ATOM     32  C   UNL     1      29.670  34.767  16.860  1.00  0.00     0.294 C 
BRANCH  32  33
ATOM     33  C   UNL     1      29.784  33.321  16.469  1.00  0.00     0.120 A 
ATOM     34  C   UNL     1      28.758  32.461  16.176  1.00  0.00     0.138 A 
ATOM     35  N   UNL     1      30.939  32.637  16.352  1.00  0.00    -0.132 NA
ATOM     36  N   UNL     1      29.316  31.261  15.885  1.00  0.00    -0.252 N 
ATOM     37  N   UNL     1      30.629  31.400  15.999  1.00  0.00    -0.067 NA
BRANCH  36  38
ATOM     38  C   UNL     1      28.560  30.083  15.518  1.00  0.00     0.158 C 
BRANCH  38  39
ATOM     39  C   UNL     1      27.240  30.121  16.285  1.00  0.00     0.146 C 
BRANCH  39  40
ATOM     40  C   UNL     1      27.493  29.457  17.599  1.00  0.00     0.305 C 
ATOM     41  O   UNL     1      27.691  30.084  18.647  1.00  0.00    -0.252 OA
BRANCH  40  42
ATOM     42  O   UNL     1      27.496  28.062  17.601  1.00  0.00    -0.481 OA
ATOM     43  H   UNL     1      27.688  27.560  18.466  1.00  0.00     0.296 HD
ENDBRANCH  40  42
ENDBRANCH  39  40
ENDBRANCH  38  39
ENDBRANCH  36  38
ENDBRANCH  32  33
ENDBRANCH  31  32
ENDBRANCH   2  31
TORSDOF 18
BEGIN_RES LYS A 131
REMARK  4 active torsions:
REMARK  status: ('A' for Active; 'I' for Inactive)
REMARK    1  A    between atoms: CA   and  CB  
REMARK    2  A    between atoms: CB   and  CG  
REMARK    3  A    between atoms: CG   and  CD  
REMARK    4  A    between atoms: CD   and  CE  
ROOT
ATOM      1  CA  LYS A 131      29.867  25.555  16.977  1.00 20.52     0.186 C 
ENDROOT
BRANCH   1   2
ATOM      2  CB  LYS A 131      28.345  25.722  17.026  1.00 20.94     0.034 C 
BRANCH   2   3
ATOM      3  CG  LYS A 131      27.601  24.402  16.891  1.00 22.96     0.005 C 
BRANCH   3   4
ATOM      4  CD  LYS A 131      26.159  24.521  17.298  1.00 24.33     0.041 C 
BRANCH   4   5
ATOM      5  CE  LYS A 131      25.972  23.925  18.690  1.00 26.91     0.338 C 
ATOM      6  NZ  LYS A 131      25.298  24.897  19.583  1.00 27.40     0.618 N 
ENDBRANCH   4   5
ENDBRANCH   3   4
ENDBRANCH   2   3
ENDBRANCH   1   2
END_RES LYS A 131
BEGIN_RES LYS A 135
REMARK  4 active torsions:
REMARK  status: ('A' for Active; 'I' for Inactive)
REMARK    5  A    between atoms: CA   and  CB  
REMARK    6  A    between atoms: CB   and  CG  
REMARK    7  A    between atoms: CG   and  CD  
REMARK    8  A    between atoms: CD   and  CE  
ROOT
ATOM      7  CA  LYS A 135      33.193  34.663   9.290  1.00 25.02     0.186 C 
ENDROOT
BRANCH   7   8
ATOM      8  CB  LYS A 135      32.060  35.360  10.034  1.00 26.63     0.034 C 
BRANCH   8   9
ATOM      9  CG  LYS A 135      30.776  35.428   9.249  1.00 29.45     0.005 C 
BRANCH   9  10
ATOM     10  CD  LYS A 135      30.225  34.033   8.997  1.00 32.00     0.041 C 
BRANCH  10  11
ATOM     11  CE  LYS A 135      28.728  34.000   9.236  1.00 34.25     0.338 C 
ATOM     12  NZ  LYS A 135      27.995  34.698   8.143  1.00 35.99     0.618 N 
ENDBRANCH  10  11
ENDBRANCH   9  10
ENDBRANCH   8   9
ENDBRANCH   7   8
END_RES LYS A 135
