REMARK VINA RESULT:    -4.095      6.230     11.418
REMARK INTER + INTRA:         -13.463
REMARK INTER:                  -8.190
REMARK INTRA:                  -5.274
REMARK UNBOUND:                -6.136
REMARK SMILES CC(=O)N[C@@H]1[C@@H](O)C[C@](O)(C(=O)O)O[C@H]1C(O)[C@H](O)CNC(=O)OCc1cn(Cc2ccsc2)nn1
REMARK SMILES IDX 21 1 22 2 23 3 20 5 18 6 16 7 15 8 9 9 8 10 14 11 6 12 5 13
REMARK SMILES IDX 10 14 11 16 12 17 13 18 7 20 4 22 2 23 1 25 3 26 17 27 19 29
REMARK SMILES IDX 24 31 25 32 26 33 27 34 36 35 28 36 35 37 29 38 30 39 31 40
REMARK SMILES IDX 34 41 32 42 33 43
REMARK H PARENT 21 4 10 15 13 19 7 21 4 24 17 28 19 30
REMARK Flexibility Score: inf
ROOT
ATOM      1  N   UNL     1      27.145  31.209  17.178  1.00  0.00    -0.319 N 
ATOM      2  C   UNL     1      28.427  30.914  16.660  1.00  0.00     0.407 C 
ATOM      3  O   UNL     1      28.558  29.956  15.864  1.00  0.00    -0.225 OA
ATOM      4  H   UNL     1      27.093  32.038  17.849  1.00  0.00     0.167 HD
ENDROOT
BRANCH   1   5
ATOM      5  C   UNL     1      25.941  30.473  16.859  1.00  0.00     0.154 C 
BRANCH   5   6
ATOM      6  C   UNL     1      25.398  29.862  18.110  1.00  0.00     0.165 C 
BRANCH   6   7
ATOM      7  C   UNL     1      25.862  28.442  18.354  1.00  0.00     0.176 C 
BRANCH   7   8
ATOM      8  C   UNL     1      26.683  28.405  19.599  1.00  0.00     0.178 C 
ATOM      9  C   UNL     1      28.825  28.136  20.428  1.00  0.00     0.269 C 
ATOM     10  C   UNL     1      28.114  28.214  21.758  1.00  0.00     0.112 C 
ATOM     11  O   UNL     1      28.037  28.559  19.375  1.00  0.00    -0.332 OA
ATOM     12  C   UNL     1      26.860  27.406  21.804  1.00  0.00     0.145 C 
ATOM     13  C   UNL     1      26.424  27.111  20.384  1.00  0.00     0.142 C 
BRANCH   9  14
ATOM     14  O   UNL     1      29.394  26.880  20.213  1.00  0.00    -0.357 OA
ATOM     15  H   UNL     1      29.196  26.576  19.298  1.00  0.00     0.214 HD
ENDBRANCH   9  14
BRANCH   9  16
ATOM     16  C   UNL     1      29.974  29.107  20.514  1.00  0.00     0.364 C 
ATOM     17  O   UNL     1      30.598  29.326  21.560  1.00  0.00    -0.246 OA
BRANCH  16  18
ATOM     18  O   UNL     1      30.358  29.797  19.365  1.00  0.00    -0.477 OA
ATOM     19  H   UNL     1      31.181  29.558  18.826  1.00  0.00     0.296 HD
ENDBRANCH  16  18
ENDBRANCH   9  16
BRANCH  12  20
ATOM     20  O   UNL     1      26.948  26.271  22.579  1.00  0.00    -0.391 OA
ATOM     21  H   UNL     1      27.611  25.613  22.204  1.00  0.00     0.211 HD
ENDBRANCH  12  20
BRANCH  13  22
ATOM     22  N   UNL     1      25.033  26.750  20.292  1.00  0.00    -0.348 N 
ATOM     23  C   UNL     1      24.617  25.387  20.435  1.00  0.00     0.217 C 
ATOM     24  H   UNL     1      24.285  27.456  20.118  1.00  0.00     0.163 HD
ATOM     25  C   UNL     1      23.224  24.941  20.354  1.00  0.00     0.114 C 
ATOM     26  O   UNL     1      25.515  24.507  20.648  1.00  0.00    -0.275 OA
ENDBRANCH  13  22
ENDBRANCH   7   8
BRANCH   7  27
ATOM     27  O   UNL     1      26.645  28.089  17.253  1.00  0.00    -0.388 OA
ATOM     28  H   UNL     1      27.568  28.415  17.387  1.00  0.00     0.211 HD
ENDBRANCH   7  27
ENDBRANCH   6   7
BRANCH   6  29
ATOM     29  O   UNL     1      24.002  29.803  17.977  1.00  0.00    -0.388 OA
ATOM     30  H   UNL     1      23.531  29.975  18.821  1.00  0.00     0.211 HD
ENDBRANCH   6  29
ENDBRANCH   5   6
ENDBRANCH   1   5
BRANCH   2  31
ATOM     31  O   UNL     1      29.531  31.701  17.046  1.00  0.00    -0.443 OA
BRANCH  31  32
ATOM     32  C   UNL     1      30.712  31.500  16.281  1.00  0.00     0.294 C 
BRANCH  32  33
ATOM     33  C   UNL     1      30.893  32.667  15.406  1.00  0.00     0.120 A 
ATOM     34  C   UNL     1      31.945  33.568  15.396  1.00  0.00     0.138 A 
ATOM     35  N   UNL     1      30.043  33.069  14.438  1.00  0.00    -0.132 NA
ATOM     36  N   UNL     1      31.674  34.457  14.431  1.00  0.00    -0.248 N 
ATOM     37  N   UNL     1      30.528  34.161  13.848  1.00  0.00    -0.067 NA
BRANCH  36  38
ATOM     38  C   UNL     1      32.508  35.572  14.078  1.00  0.00     0.182 C 
BRANCH  38  39
ATOM     39  C   UNL     1      31.968  36.861  14.695  1.00  0.00    -0.016 A 
ATOM     40  C   UNL     1      32.255  37.217  15.942  1.00  0.00     0.017 A 
ATOM     41  C   UNL     1      31.164  37.660  13.914  1.00  0.00     0.070 A 
ATOM     42  C   UNL     1      31.750  38.382  16.453  1.00  0.00     0.065 A 
ATOM     43  S   UNL     1      30.793  39.031  15.067  1.00  0.00    -0.152 S 
ENDBRANCH  38  39
ENDBRANCH  36  38
ENDBRANCH  32  33
ENDBRANCH  31  32
ENDBRANCH   2  31
TORSDOF 16
BEGIN_RES LYS A 131
REMARK  4 active torsions:
REMARK  status: ('A' for Active; 'I' for Inactive)
REMARK    1  A    between atoms: CA   and  CB  
REMARK    2  A    between atoms: CB   and  CG  
REMARK    3  A    between atoms: CG   and  CD  
REMARK    4  A    between atoms: CD   and  CE  
ROOT
ATOM      1  CA  LYS A 131      29.867  25.555  16.977  1.00 20.52     0.186 C 
ENDROOT
BRANCH   1   2
ATOM      2  CB  LYS A 131      28.345  25.722  17.026  1.00 20.94     0.034 C 
BRANCH   2   3
ATOM      3  CG  LYS A 131      27.603  24.395  16.976  1.00 22.96     0.005 C 
BRANCH   3   4
ATOM      4  CD  LYS A 131      26.124  24.565  17.189  1.00 24.33     0.041 C 
BRANCH   4   5
ATOM      5  CE  LYS A 131      25.490  23.205  17.463  1.00 26.91     0.338 C 
ATOM      6  NZ  LYS A 131      24.037  23.242  17.173  1.00 27.40     0.618 N 
ENDBRANCH   4   5
ENDBRANCH   3   4
ENDBRANCH   2   3
ENDBRANCH   1   2
END_RES LYS A 131
BEGIN_RES LYS A 135
REMARK  4 active torsions:
REMARK  status: ('A' for Active; 'I' for Inactive)
REMARK    5  A    between atoms: CA   and  CB  
REMARK    6  A    between atoms: CB   and  CG  
REMARK    7  A    between atoms: CG   and  CD  
REMARK    8  A    between atoms: CD   and  CE  
ROOT
ATOM      7  CA  LYS A 135      33.193  34.663   9.290  1.00 25.02     0.186 C 
ENDROOT
BRANCH   7   8
ATOM      8  CB  LYS A 135      32.060  35.360  10.034  1.00 26.63     0.034 C 
BRANCH   8   9
ATOM      9  CG  LYS A 135      30.707  34.746   9.783  1.00 29.45     0.005 C 
BRANCH   9  10
ATOM     10  CD  LYS A 135      30.508  34.473   8.300  1.00 32.00     0.041 C 
BRANCH  10  11
ATOM     11  CE  LYS A 135      29.295  35.220   7.780  1.00 34.25     0.338 C 
ATOM     12  NZ  LYS A 135      28.033  34.610   8.282  1.00 35.99     0.618 N 
ENDBRANCH  10  11
ENDBRANCH   9  10
ENDBRANCH   8   9
ENDBRANCH   7   8
END_RES LYS A 135
