REMARK VINA RESULT:    -5.473      4.022      6.909
REMARK INTER + INTRA:         -14.542
REMARK INTER:                  -8.799
REMARK INTRA:                  -5.742
REMARK UNBOUND:                -4.749
REMARK SMILES CC(=O)N[C@@H]1[C@@H](O)C[C@](O)(C(=O)O)O[C@H]1C(O)[C@H](O)CNC(=O)OCc1cn(-c2ccc([N+](=O)[O-])cc2)nn1
REMARK SMILES IDX 21 1 22 2 23 3 20 5 18 6 16 7 15 8 9 9 8 10 14 11 6 12 5 13
REMARK SMILES IDX 10 14 11 16 12 17 13 18 7 20 4 22 2 23 1 25 3 26 17 27 19 29
REMARK SMILES IDX 24 31 25 32 26 33 27 34 39 35 28 36 38 37 29 38 30 39 37 40
REMARK SMILES IDX 31 41 36 42 32 43 33 44 34 45 35 46
REMARK H PARENT 21 4 10 15 13 19 7 21 4 24 17 28 19 30
REMARK Flexibility Score: inf
ROOT
ATOM      1  N   UNL     1      29.668  33.060  17.310  1.00  0.00    -0.319 N 
ATOM      2  C   UNL     1      29.892  32.838  15.939  1.00  0.00     0.407 C 
ATOM      3  O   UNL     1      30.973  32.428  15.481  1.00  0.00    -0.225 OA
ATOM      4  H   UNL     1      28.678  33.389  17.581  1.00  0.00     0.167 HD
ENDROOT
BRANCH   1   5
ATOM      5  C   UNL     1      30.632  32.887  18.326  1.00  0.00     0.154 C 
BRANCH   5   6
ATOM      6  C   UNL     1      30.587  31.703  19.207  1.00  0.00     0.165 C 
BRANCH   6   7
ATOM      7  C   UNL     1      29.422  30.830  19.304  1.00  0.00     0.176 C 
BRANCH   7   8
ATOM      8  C   UNL     1      29.551  29.805  20.436  1.00  0.00     0.178 C 
ATOM      9  C   UNL     1      31.013  28.122  21.100  1.00  0.00     0.269 C 
ATOM     10  C   UNL     1      29.993  27.949  22.202  1.00  0.00     0.112 C 
ATOM     11  O   UNL     1      30.861  29.284  20.380  1.00  0.00    -0.332 OA
ATOM     12  C   UNL     1      28.584  27.979  21.699  1.00  0.00     0.145 C 
ATOM     13  C   UNL     1      28.621  28.653  20.315  1.00  0.00     0.142 C 
BRANCH   9  14
ATOM     14  O   UNL     1      30.968  26.983  20.314  1.00  0.00    -0.357 OA
ATOM     15  H   UNL     1      30.347  27.130  19.572  1.00  0.00     0.214 HD
ENDBRANCH   9  14
BRANCH   9  16
ATOM     16  C   UNL     1      32.343  28.182  21.760  1.00  0.00     0.364 C 
ATOM     17  O   UNL     1      32.921  29.284  21.945  1.00  0.00    -0.246 OA
BRANCH  16  18
ATOM     18  O   UNL     1      32.980  27.030  22.190  1.00  0.00    -0.477 OA
ATOM     19  H   UNL     1      33.731  27.050  22.884  1.00  0.00     0.296 HD
ENDBRANCH  16  18
ENDBRANCH   9  16
BRANCH  12  20
ATOM     20  O   UNL     1      27.972  26.748  21.638  1.00  0.00    -0.391 OA
ATOM     21  H   UNL     1      28.154  26.270  22.485  1.00  0.00     0.211 HD
ENDBRANCH  12  20
BRANCH  13  22
ATOM     22  N   UNL     1      27.245  29.000  20.026  1.00  0.00    -0.348 N 
ATOM     23  C   UNL     1      26.584  28.458  18.874  1.00  0.00     0.217 C 
ATOM     24  H   UNL     1      26.685  29.638  20.622  1.00  0.00     0.163 HD
ATOM     25  C   UNL     1      25.182  28.768  18.518  1.00  0.00     0.114 C 
ATOM     26  O   UNL     1      27.242  27.687  18.144  1.00  0.00    -0.275 OA
ENDBRANCH  13  22
ENDBRANCH   7   8
BRANCH   7  27
ATOM     27  O   UNL     1      29.136  30.219  18.111  1.00  0.00    -0.388 OA
ATOM     28  H   UNL     1      29.421  30.692  17.298  1.00  0.00     0.211 HD
ENDBRANCH   7  27
ENDBRANCH   6   7
BRANCH   6  29
ATOM     29  O   UNL     1      31.038  32.168  20.476  1.00  0.00    -0.388 OA
ATOM     30  H   UNL     1      31.370  33.099  20.392  1.00  0.00     0.211 HD
ENDBRANCH   6  29
ENDBRANCH   5   6
ENDBRANCH   1   5
BRANCH   2  31
ATOM     31  O   UNL     1      28.819  33.102  15.057  1.00  0.00    -0.443 OA
BRANCH  31  32
ATOM     32  C   UNL     1      27.556  33.307  15.657  1.00  0.00     0.294 C 
BRANCH  32  33
ATOM     33  C   UNL     1      26.684  32.102  15.445  1.00  0.00     0.121 A 
ATOM     34  C   UNL     1      25.503  32.036  14.738  1.00  0.00     0.144 A 
ATOM     35  N   UNL     1      26.880  30.842  15.903  1.00  0.00    -0.131 NA
ATOM     36  N   UNL     1      25.013  30.773  14.776  1.00  0.00    -0.220 N 
ATOM     37  N   UNL     1      25.883  30.094  15.493  1.00  0.00    -0.062 NA
BRANCH  36  38
ATOM     38  C   UNL     1      23.813  30.301  14.168  1.00  0.00     0.067 A 
ATOM     39  C   UNL     1      23.818  29.596  12.984  1.00  0.00     0.035 A 
ATOM     40  C   UNL     1      22.580  30.534  14.749  1.00  0.00     0.035 A 
ATOM     41  C   UNL     1      22.644  29.147  12.413  1.00  0.00     0.088 A 
ATOM     42  C   UNL     1      21.404  30.086  14.179  1.00  0.00     0.088 A 
ATOM     43  C   UNL     1      21.406  29.380  12.995  1.00  0.00     0.269 A 
BRANCH  43  44
ATOM     44  N   UNL     1      20.199  28.923  12.418  1.00  0.00     0.062 N 
ATOM     45  O   UNL     1      19.568  29.691  11.672  1.00  0.00    -0.258 OA
ATOM     46  O   UNL     1      19.679  27.678  12.631  1.00  0.00    -0.258 OA
ENDBRANCH  43  44
ENDBRANCH  36  38
ENDBRANCH  32  33
ENDBRANCH  31  32
ENDBRANCH   2  31
TORSDOF 16
BEGIN_RES LYS A 131
REMARK  4 active torsions:
REMARK  status: ('A' for Active; 'I' for Inactive)
REMARK    1  A    between atoms: CA   and  CB  
REMARK    2  A    between atoms: CB   and  CG  
REMARK    3  A    between atoms: CG   and  CD  
REMARK    4  A    between atoms: CD   and  CE  
ROOT
ATOM      1  CA  LYS A 131      29.867  25.555  16.977  1.00 20.52     0.186 C 
ENDROOT
BRANCH   1   2
ATOM      2  CB  LYS A 131      28.345  25.722  17.026  1.00 20.94     0.034 C 
BRANCH   2   3
ATOM      3  CG  LYS A 131      27.601  24.402  16.889  1.00 22.96     0.005 C 
BRANCH   3   4
ATOM      4  CD  LYS A 131      26.567  24.221  17.966  1.00 24.33     0.041 C 
BRANCH   4   5
ATOM      5  CE  LYS A 131      25.228  23.862  17.330  1.00 26.91     0.338 C 
ATOM      6  NZ  LYS A 131      24.855  22.466  17.658  1.00 27.40     0.618 N 
ENDBRANCH   4   5
ENDBRANCH   3   4
ENDBRANCH   2   3
ENDBRANCH   1   2
END_RES LYS A 131
BEGIN_RES LYS A 135
REMARK  4 active torsions:
REMARK  status: ('A' for Active; 'I' for Inactive)
REMARK    5  A    between atoms: CA   and  CB  
REMARK    6  A    between atoms: CB   and  CG  
REMARK    7  A    between atoms: CG   and  CD  
REMARK    8  A    between atoms: CD   and  CE  
ROOT
ATOM      7  CA  LYS A 135      33.193  34.663   9.290  1.00 25.02     0.186 C 
ENDROOT
BRANCH   7   8
ATOM      8  CB  LYS A 135      32.060  35.360  10.034  1.00 26.63     0.034 C 
BRANCH   8   9
ATOM      9  CG  LYS A 135      30.811  35.530   9.208  1.00 29.45     0.005 C 
BRANCH   9  10
ATOM     10  CD  LYS A 135      30.063  34.212   9.089  1.00 32.00     0.041 C 
BRANCH  10  11
ATOM     11  CE  LYS A 135      28.637  34.448   8.628  1.00 34.25     0.338 C 
ATOM     12  NZ  LYS A 135      27.668  33.696   9.473  1.00 35.99     0.618 N 
ENDBRANCH  10  11
ENDBRANCH   9  10
ENDBRANCH   8   9
ENDBRANCH   7   8
END_RES LYS A 135
