REMARK VINA RESULT:    -5.389      3.852      7.236
REMARK INTER + INTRA:         -17.833
REMARK INTER:                 -12.848
REMARK INTRA:                  -4.984
REMARK UNBOUND:                -7.717
REMARK SMILES CC(=O)N[C@@H]1[C@@H](O)C[C@](O)(C(=O)O)O[C@H]1C(O)[C@H](O)CNC(=O)OCc1cn(-c2ccc(-c3c4ccc(=O)cc-4oc4cc(O)ccc34)c(C(=O)[O-])c2)nn1
REMARK SMILES IDX 21 1 22 2 23 3 20 5 18 6 16 7 15 8 9 9 8 10 14 11 6 12 5 13
REMARK SMILES IDX 10 14 11 16 12 17 13 18 7 20 4 22 2 23 1 25 3 26 17 27 19 29
REMARK SMILES IDX 24 31 25 32 26 33 27 34 55 35 28 36 54 37 29 38 53 39 30 40
REMARK SMILES IDX 49 41 31 42 32 43 50 44 51 45 52 46 33 47 48 48 34 49 47 50
REMARK SMILES IDX 42 51 40 52 35 53 46 54 43 55 41 56 39 57 36 58 44 59 37 60
REMARK SMILES IDX 38 61 45 62
REMARK H PARENT 21 4 10 15 13 19 7 21 4 24 17 28 19 30 45 63
REMARK Flexibility Score: inf
ROOT
ATOM      1  N   UNL     1      30.635  30.394  19.736  1.00  0.00    -0.319 N 
ATOM      2  C   UNL     1      29.985  31.341  18.872  1.00  0.00     0.407 C 
ATOM      3  O   UNL     1      28.732  31.441  18.980  1.00  0.00    -0.225 OA
ATOM      4  H   UNL     1      31.662  30.270  19.690  1.00  0.00     0.167 HD
ENDROOT
BRANCH   1   5
ATOM      5  C   UNL     1      29.880  29.602  20.678  1.00  0.00     0.154 C 
BRANCH   5   6
ATOM      6  C   UNL     1      29.673  28.235  20.114  1.00  0.00     0.165 C 
BRANCH   6   7
ATOM      7  C   UNL     1      28.433  27.559  20.698  1.00  0.00     0.176 C 
BRANCH   7   8
ATOM      8  C   UNL     1      27.525  27.064  19.583  1.00  0.00     0.178 C 
ATOM      9  C   UNL     1      26.758  28.600  18.009  1.00  0.00     0.269 C 
ATOM     10  C   UNL     1      25.558  27.745  17.669  1.00  0.00     0.112 C 
ATOM     11  O   UNL     1      27.782  27.813  18.470  1.00  0.00    -0.332 OA
ATOM     12  C   UNL     1      25.137  26.931  18.839  1.00  0.00     0.145 C 
ATOM     13  C   UNL     1      26.097  26.995  20.001  1.00  0.00     0.142 C 
BRANCH   9  14
ATOM     14  O   UNL     1      26.345  29.572  18.885  1.00  0.00    -0.357 OA
ATOM     15  H   UNL     1      26.743  29.516  19.772  1.00  0.00     0.214 HD
ENDBRANCH   9  14
BRANCH   9  16
ATOM     16  C   UNL     1      27.206  29.231  16.744  1.00  0.00     0.364 C 
ATOM     17  O   UNL     1      26.415  29.954  16.089  1.00  0.00    -0.246 OA
BRANCH  16  18
ATOM     18  O   UNL     1      28.481  29.065  16.227  1.00  0.00    -0.477 OA
ATOM     19  H   UNL     1      28.847  28.132  15.983  1.00  0.00     0.296 HD
ENDBRANCH  16  18
ENDBRANCH   9  16
BRANCH  12  20
ATOM     20  O   UNL     1      23.877  27.297  19.304  1.00  0.00    -0.391 OA
ATOM     21  H   UNL     1      23.155  26.708  18.992  1.00  0.00     0.211 HD
ENDBRANCH  12  20
BRANCH  13  22
ATOM     22  N   UNL     1      25.859  25.774  20.784  1.00  0.00    -0.348 N 
ATOM     23  C   UNL     1      25.570  25.777  22.161  1.00  0.00     0.217 C 
ATOM     24  H   UNL     1      25.911  24.866  20.268  1.00  0.00     0.163 HD
ATOM     25  C   UNL     1      25.342  24.504  22.881  1.00  0.00     0.114 C 
ATOM     26  O   UNL     1      25.519  26.915  22.733  1.00  0.00    -0.275 OA
ENDBRANCH  13  22
ENDBRANCH   7   8
BRANCH   7  27
ATOM     27  O   UNL     1      27.793  28.536  21.469  1.00  0.00    -0.388 OA
ATOM     28  H   UNL     1      28.491  29.199  21.717  1.00  0.00     0.211 HD
ENDBRANCH   7  27
ENDBRANCH   6   7
BRANCH   6  29
ATOM     29  O   UNL     1      30.797  27.429  20.275  1.00  0.00    -0.388 OA
ATOM     30  H   UNL     1      31.436  27.799  20.930  1.00  0.00     0.211 HD
ENDBRANCH   6  29
ENDBRANCH   5   6
ENDBRANCH   1   5
BRANCH   2  31
ATOM     31  O   UNL     1      30.654  32.111  17.969  1.00  0.00    -0.443 OA
BRANCH  31  32
ATOM     32  C   UNL     1      30.535  31.898  16.582  1.00  0.00     0.294 C 
BRANCH  32  33
ATOM     33  C   UNL     1      29.984  33.117  15.957  1.00  0.00     0.121 A 
ATOM     34  C   UNL     1      29.734  33.327  14.599  1.00  0.00     0.144 A 
ATOM     35  N   UNL     1      29.625  34.258  16.562  1.00  0.00    -0.131 NA
ATOM     36  N   UNL     1      29.240  34.568  14.437  1.00  0.00    -0.220 N 
ATOM     37  N   UNL     1      29.187  35.103  15.638  1.00  0.00    -0.062 NA
BRANCH  36  38
ATOM     38  C   UNL     1      28.880  35.113  13.178  1.00  0.00     0.067 A 
ATOM     39  C   UNL     1      28.923  34.441  11.993  1.00  0.00     0.039 A 
ATOM     40  C   UNL     1      28.449  36.443  13.145  1.00  0.00     0.029 A 
ATOM     41  C   UNL     1      28.562  35.019  10.780  1.00  0.00     0.007 A 
ATOM     42  C   UNL     1      28.088  37.033  11.965  1.00  0.00     0.012 A 
ATOM     43  C   UNL     1      28.145  36.314  10.771  1.00  0.00    -0.008 A 
BRANCH  41  44
ATOM     44  C   UNL     1      28.621  34.266   9.529  1.00  0.00     0.072 C 
ATOM     45  O   UNL     1      29.711  34.142   8.887  1.00  0.00    -0.545 OA
ATOM     46  O   UNL     1      27.495  33.675   9.022  1.00  0.00    -0.545 OA
ENDBRANCH  41  44
BRANCH  43  47
ATOM     47  C   UNL     1      27.741  37.031   9.572  1.00  0.00     0.004 A 
ATOM     48  C   UNL     1      26.454  37.064   9.081  1.00  0.00     0.026 A 
ATOM     49  C   UNL     1      28.707  37.732   8.869  1.00  0.00     0.026 A 
ATOM     50  C   UNL     1      25.463  36.377   9.754  1.00  0.00     0.016 A 
ATOM     51  C   UNL     1      26.130  37.771   7.929  1.00  0.00     0.139 A 
ATOM     52  C   UNL     1      28.318  38.456   7.669  1.00  0.00     0.139 A 
ATOM     53  C   UNL     1      30.023  37.762   9.274  1.00  0.00     0.016 A 
ATOM     54  C   UNL     1      24.152  36.382   9.299  1.00  0.00     0.047 A 
ATOM     55  C   UNL     1      24.840  37.795   7.452  1.00  0.00     0.093 A 
ATOM     56  O   UNL     1      27.049  38.433   7.268  1.00  0.00    -0.456 OA
ATOM     57  C   UNL     1      29.262  39.150   6.971  1.00  0.00     0.099 A 
ATOM     58  C   UNL     1      30.931  38.471   8.541  1.00  0.00     0.053 A 
ATOM     59  C   UNL     1      23.861  37.093   8.152  1.00  0.00     0.119 A 
ATOM     60  C   UNL     1      30.573  39.167   7.396  1.00  0.00     0.182 A 
ATOM     61  O   UNL     1      31.448  39.806   6.754  1.00  0.00    -0.290 OA
BRANCH  59  62
ATOM     62  O   UNL     1      22.556  37.102   7.689  1.00  0.00    -0.508 OA
ATOM     63  H   UNL     1      22.243  37.624   6.892  1.00  0.00     0.293 HD
ENDBRANCH  59  62
ENDBRANCH  43  47
ENDBRANCH  36  38
ENDBRANCH  32  33
ENDBRANCH  31  32
ENDBRANCH   2  31
TORSDOF 18
BEGIN_RES LYS A 131
REMARK  4 active torsions:
REMARK  status: ('A' for Active; 'I' for Inactive)
REMARK    1  A    between atoms: CA   and  CB  
REMARK    2  A    between atoms: CB   and  CG  
REMARK    3  A    between atoms: CG   and  CD  
REMARK    4  A    between atoms: CD   and  CE  
ROOT
ATOM      1  CA  LYS A 131      29.867  25.555  16.977  1.00 20.52     0.186 C 
ENDROOT
BRANCH   1   2
ATOM      2  CB  LYS A 131      28.345  25.722  17.026  1.00 20.94     0.034 C 
BRANCH   2   3
ATOM      3  CG  LYS A 131      27.599  24.449  16.658  1.00 22.96     0.005 C 
BRANCH   3   4
ATOM      4  CD  LYS A 131      26.927  23.822  17.848  1.00 24.33     0.041 C 
BRANCH   4   5
ATOM      5  CE  LYS A 131      25.472  23.516  17.509  1.00 26.91     0.338 C 
ATOM      6  NZ  LYS A 131      24.743  23.059  18.715  1.00 27.40     0.618 N 
ENDBRANCH   4   5
ENDBRANCH   3   4
ENDBRANCH   2   3
ENDBRANCH   1   2
END_RES LYS A 131
BEGIN_RES LYS A 135
REMARK  4 active torsions:
REMARK  status: ('A' for Active; 'I' for Inactive)
REMARK    5  A    between atoms: CA   and  CB  
REMARK    6  A    between atoms: CB   and  CG  
REMARK    7  A    between atoms: CG   and  CD  
REMARK    8  A    between atoms: CD   and  CE  
ROOT
ATOM      7  CA  LYS A 135      33.193  34.663   9.290  1.00 25.02     0.186 C 
ENDROOT
BRANCH   7   8
ATOM      8  CB  LYS A 135      32.060  35.360  10.034  1.00 26.63     0.034 C 
BRANCH   8   9
ATOM      9  CG  LYS A 135      32.278  35.442  11.523  1.00 29.45     0.005 C 
BRANCH   9  10
ATOM     10  CD  LYS A 135      32.055  36.862  12.020  1.00 32.00     0.041 C 
BRANCH  10  11
ATOM     11  CE  LYS A 135      32.049  36.900  13.537  1.00 34.25     0.338 C 
ATOM     12  NZ  LYS A 135      32.593  35.637  14.107  1.00 35.99     0.618 N 
ENDBRANCH  10  11
ENDBRANCH   9  10
ENDBRANCH   8   9
ENDBRANCH   7   8
END_RES LYS A 135
