REMARK VINA RESULT:    -6.439      3.816      8.608
REMARK INTER + INTRA:         -16.675
REMARK INTER:                  -9.420
REMARK INTRA:                  -7.255
REMARK UNBOUND:                -4.777
REMARK SMILES CC(=O)N[C@@H]1[C@@H](O)C[C@](O)(C(=O)O)O[C@H]1C(O)[C@H](O)CNC(=O)OCc1cn(C(C)(C)C(=O)c2c[nH]c3ccccc23)nn1
REMARK SMILES IDX 21 1 22 2 23 3 20 5 18 6 16 7 15 8 9 9 8 10 14 11 6 12 5 13
REMARK SMILES IDX 10 14 11 16 12 17 13 18 7 20 4 22 2 23 1 25 3 26 17 27 19 29
REMARK SMILES IDX 24 31 25 32 26 33 27 34 44 35 28 36 43 37 29 38 30 39 31 40
REMARK SMILES IDX 32 41 33 42 34 43 35 44 42 45 36 46 37 47 41 48 38 50 40 51
REMARK SMILES IDX 39 52
REMARK H PARENT 21 4 10 15 13 19 7 21 4 24 17 28 19 30 36 49
REMARK Flexibility Score: inf
ROOT
ATOM      1  N   UNL     1      29.614  30.387  17.895  1.00  0.00    -0.319 N 
ATOM      2  C   UNL     1      28.382  30.274  18.583  1.00  0.00     0.407 C 
ATOM      3  O   UNL     1      27.869  31.248  19.138  1.00  0.00    -0.225 OA
ATOM      4  H   UNL     1      29.966  29.477  17.442  1.00  0.00     0.167 HD
ENDROOT
BRANCH   1   5
ATOM      5  C   UNL     1      30.402  31.581  17.763  1.00  0.00     0.154 C 
BRANCH   5   6
ATOM      6  C   UNL     1      30.441  32.188  16.410  1.00  0.00     0.165 C 
BRANCH   6   7
ATOM      7  C   UNL     1      29.523  33.391  16.255  1.00  0.00     0.176 C 
BRANCH   7   8
ATOM      8  C   UNL     1      29.631  34.000  14.881  1.00  0.00     0.178 C 
ATOM      9  C   UNL     1      31.564  35.208  14.464  1.00  0.00     0.269 C 
ATOM     10  C   UNL     1      30.857  36.304  13.696  1.00  0.00     0.112 C 
ATOM     11  O   UNL     1      30.896  33.993  14.369  1.00  0.00    -0.332 OA
ATOM     12  C   UNL     1      29.390  35.985  13.497  1.00  0.00     0.145 C 
ATOM     13  C   UNL     1      28.930  35.339  14.805  1.00  0.00     0.142 C 
BRANCH   9  14
ATOM     14  O   UNL     1      31.790  35.548  15.797  1.00  0.00    -0.357 OA
ATOM     15  H   UNL     1      32.743  35.816  15.938  1.00  0.00     0.214 HD
ENDBRANCH   9  14
BRANCH   9  16
ATOM     16  C   UNL     1      32.898  35.024  13.832  1.00  0.00     0.364 C 
ATOM     17  O   UNL     1      33.929  34.918  14.569  1.00  0.00    -0.246 OA
BRANCH  16  18
ATOM     18  O   UNL     1      33.090  34.961  12.471  1.00  0.00    -0.477 OA
ATOM     19  H   UNL     1      33.200  34.091  11.965  1.00  0.00     0.296 HD
ENDBRANCH  16  18
ENDBRANCH   9  16
BRANCH  12  20
ATOM     20  O   UNL     1      28.644  37.099  13.193  1.00  0.00    -0.391 OA
ATOM     21  H   UNL     1      28.039  36.864  12.420  1.00  0.00     0.211 HD
ENDBRANCH  12  20
BRANCH  13  22
ATOM     22  N   UNL     1      27.506  35.145  14.826  1.00  0.00    -0.348 N 
ATOM     23  C   UNL     1      26.618  36.079  15.469  1.00  0.00     0.217 C 
ATOM     24  H   UNL     1      27.028  34.323  14.381  1.00  0.00     0.163 HD
ATOM     25  C   UNL     1      25.164  35.918  15.513  1.00  0.00     0.114 C 
ATOM     26  O   UNL     1      27.171  37.086  16.017  1.00  0.00    -0.275 OA
ENDBRANCH  13  22
ENDBRANCH   7   8
BRANCH   7  27
ATOM     27  O   UNL     1      28.229  32.900  16.450  1.00  0.00    -0.388 OA
ATOM     28  H   UNL     1      28.124  31.976  16.152  1.00  0.00     0.211 HD
ENDBRANCH   7  27
ENDBRANCH   6   7
BRANCH   6  29
ATOM     29  O   UNL     1      30.054  31.274  15.448  1.00  0.00    -0.388 OA
ATOM     30  H   UNL     1      30.167  30.367  15.833  1.00  0.00     0.211 HD
ENDBRANCH   6  29
ENDBRANCH   5   6
ENDBRANCH   1   5
BRANCH   2  31
ATOM     31  O   UNL     1      27.691  29.063  18.666  1.00  0.00    -0.443 OA
BRANCH  31  32
ATOM     32  C   UNL     1      27.234  28.417  17.514  1.00  0.00     0.294 C 
BRANCH  32  33
ATOM     33  C   UNL     1      26.521  29.374  16.629  1.00  0.00     0.120 A 
ATOM     34  C   UNL     1      25.146  29.487  16.487  1.00  0.00     0.139 A 
ATOM     35  N   UNL     1      27.026  30.312  15.802  1.00  0.00    -0.132 NA
ATOM     36  N   UNL     1      24.869  30.463  15.601  1.00  0.00    -0.239 N 
ATOM     37  N   UNL     1      26.034  30.944  15.202  1.00  0.00    -0.066 NA
BRANCH  36  38
ATOM     38  C   UNL     1      23.523  30.892  15.174  1.00  0.00     0.122 C 
ATOM     39  C   UNL     1      22.513  29.938  15.710  1.00  0.00     0.046 C 
ATOM     40  C   UNL     1      23.365  32.278  15.827  1.00  0.00     0.046 C 
BRANCH  38  41
ATOM     41  C   UNL     1      23.560  31.065  13.724  1.00  0.00     0.192 C 
ATOM     42  O   UNL     1      24.071  30.167  12.966  1.00  0.00    -0.291 OA
BRANCH  41  43
ATOM     43  C   UNL     1      23.049  32.226  13.004  1.00  0.00     0.045 A 
ATOM     44  C   UNL     1      21.711  32.434  12.673  1.00  0.00     0.095 A 
ATOM     45  C   UNL     1      23.808  33.263  12.526  1.00  0.00     0.010 A 
ATOM     46  N   UNL     1      21.666  33.583  12.003  1.00  0.00    -0.360 N 
ATOM     47  C   UNL     1      22.901  34.117  11.891  1.00  0.00     0.046 A 
ATOM     48  C   UNL     1      25.161  33.589  12.562  1.00  0.00     0.011 A 
ATOM     49  H   UNL     1      20.816  34.019  11.618  1.00  0.00     0.166 HD
ATOM     50  C   UNL     1      23.390  35.270  11.310  1.00  0.00     0.027 A 
ATOM     51  C   UNL     1      25.608  34.738  11.978  1.00  0.00     0.001 A 
ATOM     52  C   UNL     1      24.730  35.574  11.355  1.00  0.00     0.002 A 
ENDBRANCH  41  43
ENDBRANCH  38  41
ENDBRANCH  36  38
ENDBRANCH  32  33
ENDBRANCH  31  32
ENDBRANCH   2  31
TORSDOF 17
BEGIN_RES LYS A 131
REMARK  4 active torsions:
REMARK  status: ('A' for Active; 'I' for Inactive)
REMARK    1  A    between atoms: CA   and  CB  
REMARK    2  A    between atoms: CB   and  CG  
REMARK    3  A    between atoms: CG   and  CD  
REMARK    4  A    between atoms: CD   and  CE  
ROOT
ATOM      1  CA  LYS A 131      29.867  25.555  16.977  1.00 20.52     0.186 C 
ENDROOT
BRANCH   1   2
ATOM      2  CB  LYS A 131      28.345  25.722  17.026  1.00 20.94     0.034 C 
BRANCH   2   3
ATOM      3  CG  LYS A 131      27.602  24.399  16.924  1.00 22.96     0.005 C 
BRANCH   3   4
ATOM      4  CD  LYS A 131      26.144  24.540  17.266  1.00 24.33     0.041 C 
BRANCH   4   5
ATOM      5  CE  LYS A 131      25.595  23.192  17.721  1.00 26.91     0.338 C 
ATOM      6  NZ  LYS A 131      25.494  23.144  19.198  1.00 27.40     0.618 N 
ENDBRANCH   4   5
ENDBRANCH   3   4
ENDBRANCH   2   3
ENDBRANCH   1   2
END_RES LYS A 131
BEGIN_RES LYS A 135
REMARK  4 active torsions:
REMARK  status: ('A' for Active; 'I' for Inactive)
REMARK    5  A    between atoms: CA   and  CB  
REMARK    6  A    between atoms: CB   and  CG  
REMARK    7  A    between atoms: CG   and  CD  
REMARK    8  A    between atoms: CD   and  CE  
ROOT
ATOM      7  CA  LYS A 135      33.193  34.663   9.290  1.00 25.02     0.186 C 
ENDROOT
BRANCH   7   8
ATOM      8  CB  LYS A 135      32.060  35.360  10.034  1.00 26.63     0.034 C 
BRANCH   8   9
ATOM      9  CG  LYS A 135      30.780  35.443   9.242  1.00 29.45     0.005 C 
BRANCH   9  10
ATOM     10  CD  LYS A 135      30.178  34.059   9.050  1.00 32.00     0.041 C 
BRANCH  10  11
ATOM     11  CE  LYS A 135      28.729  34.043   9.496  1.00 34.25     0.338 C 
ATOM     12  NZ  LYS A 135      28.145  35.413   9.475  1.00 35.99     0.618 N 
ENDBRANCH  10  11
ENDBRANCH   9  10
ENDBRANCH   8   9
ENDBRANCH   7   8
END_RES LYS A 135
