REMARK VINA RESULT:    -3.731      3.781      5.856
REMARK INTER + INTRA:         -17.046
REMARK INTER:                  -9.592
REMARK INTRA:                  -7.454
REMARK UNBOUND:                -8.298
REMARK SMILES CC(=O)N[C@@H]1[C@@H](O)C[C@](O)(C(=O)O)O[C@H]1C(O)[C@H](O)CNC(=O)OCc1cn(CCCCCCCCCCC(=O)O)nn1
REMARK SMILES IDX 29 1 28 2 26 3 27 4 43 5 42 6 25 7 24 8 22 9 21 10 23 12
REMARK SMILES IDX 20 13 18 14 16 15 15 16 9 17 8 18 14 19 6 20 5 21 10 22
REMARK SMILES IDX 11 24 12 25 13 26 7 28 4 30 2 31 1 33 3 34 17 35 19 37 30 39
REMARK SMILES IDX 31 40 32 41 33 42 34 43 35 44 36 45 37 46 38 47 39 48 40 49
REMARK SMILES IDX 41 50
REMARK H PARENT 21 11 10 23 13 27 7 29 4 32 17 36 19 38 41 51
REMARK Flexibility Score: inf
ROOT
ATOM      1  C   UNL     1      34.277  36.002  16.193  1.00  0.00     0.146 C 
ENDROOT
BRANCH   1   2
ATOM      2  N   UNL     1      33.125  35.521  15.479  1.00  0.00    -0.252 N 
ATOM      3  C   UNL     1      31.379  35.282  14.172  1.00  0.00     0.120 A 
ATOM      4  C   UNL     1      32.353  36.164  14.557  1.00  0.00     0.138 A 
ATOM      5  N   UNL     1      31.578  34.136  14.859  1.00  0.00    -0.132 NA
ATOM      6  N   UNL     1      32.621  34.313  15.624  1.00  0.00    -0.067 NA
BRANCH   3   7
ATOM      7  C   UNL     1      30.319  35.565  13.183  1.00  0.00     0.294 C 
BRANCH   7   8
ATOM      8  O   UNL     1      29.192  34.747  13.413  1.00  0.00    -0.443 OA
BRANCH   8   9
ATOM      9  C   UNL     1      28.221  35.119  14.333  1.00  0.00     0.407 C 
ATOM     10  N   UNL     1      28.535  35.332  15.702  1.00  0.00    -0.319 N 
ATOM     11  H   UNL     1      29.511  35.210  16.045  1.00  0.00     0.167 HD
ATOM     12  O   UNL     1      27.022  35.270  13.916  1.00  0.00    -0.225 OA
BRANCH  10  13
ATOM     13  C   UNL     1      27.505  35.716  16.616  1.00  0.00     0.154 C 
BRANCH  13  14
ATOM     14  C   UNL     1      27.464  34.840  17.850  1.00  0.00     0.165 C 
BRANCH  14  15
ATOM     15  C   UNL     1      26.656  33.608  17.578  1.00  0.00     0.176 C 
BRANCH  15  16
ATOM     16  C   UNL     1      27.569  32.405  17.468  1.00  0.00     0.178 C 
ATOM     17  C   UNL     1      29.791  31.801  17.726  1.00  0.00     0.269 C 
ATOM     18  C   UNL     1      29.406  30.672  16.797  1.00  0.00     0.112 C 
ATOM     19  O   UNL     1      28.845  32.813  17.750  1.00  0.00    -0.332 OA
ATOM     20  C   UNL     1      28.729  31.265  15.591  1.00  0.00     0.145 C 
ATOM     21  C   UNL     1      27.389  31.827  16.087  1.00  0.00     0.142 C 
BRANCH  17  22
ATOM     22  O   UNL     1      30.964  32.353  17.218  1.00  0.00    -0.357 OA
ATOM     23  H   UNL     1      31.321  33.049  17.815  1.00  0.00     0.214 HD
ENDBRANCH  17  22
BRANCH  17  24
ATOM     24  C   UNL     1      30.064  31.225  19.043  1.00  0.00     0.364 C 
ATOM     25  O   UNL     1      29.678  31.832  20.071  1.00  0.00    -0.246 OA
BRANCH  24  26
ATOM     26  O   UNL     1      30.734  30.026  19.244  1.00  0.00    -0.477 OA
ATOM     27  H   UNL     1      31.742  30.058  19.463  1.00  0.00     0.296 HD
ENDBRANCH  24  26
ENDBRANCH  17  24
BRANCH  20  28
ATOM     28  O   UNL     1      29.512  32.238  15.007  1.00  0.00    -0.391 OA
ATOM     29  H   UNL     1      29.190  33.120  15.320  1.00  0.00     0.211 HD
ENDBRANCH  20  28
BRANCH  21  30
ATOM     30  N   UNL     1      26.479  30.702  16.104  1.00  0.00    -0.348 N 
ATOM     31  C   UNL     1      25.352  30.732  15.248  1.00  0.00     0.217 C 
ATOM     32  H   UNL     1      26.631  29.870  16.727  1.00  0.00     0.163 HD
ATOM     33  C   UNL     1      24.388  29.589  15.236  1.00  0.00     0.114 C 
ATOM     34  O   UNL     1      25.159  31.711  14.502  1.00  0.00    -0.275 OA
ENDBRANCH  21  30
ENDBRANCH  15  16
BRANCH  15  35
ATOM     35  O   UNL     1      25.925  33.822  16.406  1.00  0.00    -0.388 OA
ATOM     36  H   UNL     1      25.258  33.135  16.234  1.00  0.00     0.211 HD
ENDBRANCH  15  35
ENDBRANCH  14  15
BRANCH  14  37
ATOM     37  O   UNL     1      26.886  35.507  18.930  1.00  0.00    -0.388 OA
ATOM     38  H   UNL     1      25.914  35.426  18.921  1.00  0.00     0.211 HD
ENDBRANCH  14  37
ENDBRANCH  13  14
ENDBRANCH  10  13
ENDBRANCH   8   9
ENDBRANCH   7   8
ENDBRANCH   3   7
ENDBRANCH   1   2
BRANCH   1  39
ATOM     39  C   UNL     1      33.846  37.079  17.152  1.00  0.00     0.024 C 
BRANCH  39  40
ATOM     40  C   UNL     1      35.002  37.751  17.836  1.00  0.00     0.002 C 
BRANCH  40  41
ATOM     41  C   UNL     1      36.247  37.764  16.985  1.00  0.00     0.000 C 
BRANCH  41  42
ATOM     42  C   UNL     1      37.427  37.235  17.796  1.00  0.00     0.000 C 
BRANCH  42  43
ATOM     43  C   UNL     1      38.367  36.511  16.870  1.00  0.00     0.000 C 
BRANCH  43  44
ATOM     44  C   UNL     1      37.838  35.158  16.490  1.00  0.00     0.000 C 
BRANCH  44  45
ATOM     45  C   UNL     1      38.838  34.413  15.670  1.00  0.00     0.001 C 
BRANCH  45  46
ATOM     46  C   UNL     1      38.584  34.613  14.179  1.00  0.00     0.012 C 
BRANCH  46  47
ATOM     47  C   UNL     1      37.375  33.854  13.703  1.00  0.00     0.122 C 
BRANCH  47  48
ATOM     48  C   UNL     1      37.768  33.191  12.420  1.00  0.00     0.303 C 
ATOM     49  O   UNL     1      38.597  32.260  12.353  1.00  0.00    -0.252 OA
BRANCH  48  50
ATOM     50  O   UNL     1      37.184  33.623  11.228  1.00  0.00    -0.481 OA
ATOM     51  H   UNL     1      37.497  34.486  10.818  1.00  0.00     0.296 HD
ENDBRANCH  48  50
ENDBRANCH  47  48
ENDBRANCH  46  47
ENDBRANCH  45  46
ENDBRANCH  44  45
ENDBRANCH  43  44
ENDBRANCH  42  43
ENDBRANCH  41  42
ENDBRANCH  40  41
ENDBRANCH  39  40
ENDBRANCH   1  39
TORSDOF 26
BEGIN_RES LYS A 131
REMARK  4 active torsions:
REMARK  status: ('A' for Active; 'I' for Inactive)
REMARK    1  A    between atoms: CA   and  CB  
REMARK    2  A    between atoms: CB   and  CG  
REMARK    3  A    between atoms: CG   and  CD  
REMARK    4  A    between atoms: CD   and  CE  
ROOT
ATOM      1  CA  LYS A 131      29.867  25.555  16.977  1.00 20.52     0.186 C 
ENDROOT
BRANCH   1   2
ATOM      2  CB  LYS A 131      28.345  25.722  17.026  1.00 20.94     0.034 C 
BRANCH   2   3
ATOM      3  CG  LYS A 131      27.601  24.401  16.901  1.00 22.96     0.005 C 
BRANCH   3   4
ATOM      4  CD  LYS A 131      26.273  24.430  17.605  1.00 24.33     0.041 C 
BRANCH   4   5
ATOM      5  CE  LYS A 131      26.073  25.794  18.258  1.00 26.91     0.338 C 
ATOM      6  NZ  LYS A 131      24.853  26.448  17.728  1.00 27.40     0.618 N 
ENDBRANCH   4   5
ENDBRANCH   3   4
ENDBRANCH   2   3
ENDBRANCH   1   2
END_RES LYS A 131
BEGIN_RES LYS A 135
REMARK  4 active torsions:
REMARK  status: ('A' for Active; 'I' for Inactive)
REMARK    5  A    between atoms: CA   and  CB  
REMARK    6  A    between atoms: CB   and  CG  
REMARK    7  A    between atoms: CG   and  CD  
REMARK    8  A    between atoms: CD   and  CE  
ROOT
ATOM      7  CA  LYS A 135      33.193  34.663   9.290  1.00 25.02     0.186 C 
ENDROOT
BRANCH   7   8
ATOM      8  CB  LYS A 135      32.060  35.360  10.034  1.00 26.63     0.034 C 
BRANCH   8   9
ATOM      9  CG  LYS A 135      30.705  34.757   9.769  1.00 29.45     0.005 C 
BRANCH   9  10
ATOM     10  CD  LYS A 135      30.476  34.588   8.275  1.00 32.00     0.041 C 
BRANCH  10  11
ATOM     11  CE  LYS A 135      29.021  34.838   7.927  1.00 34.25     0.338 C 
ATOM     12  NZ  LYS A 135      28.895  35.560   6.631  1.00 35.99     0.618 N 
ENDBRANCH  10  11
ENDBRANCH   9  10
ENDBRANCH   8   9
ENDBRANCH   7   8
END_RES LYS A 135
