REMARK VINA RESULT:    -8.012      1.793      2.397
REMARK INTER + INTRA:         -13.645
REMARK INTER:                  -7.968
REMARK INTRA:                  -5.678
REMARK UNBOUND:                 3.032
REMARK SMILES CC(=O)N[C@@H]1[C@@H](O)C[C@](O)(C(=O)O)O[C@H]1C(O)[C@H](O)CNC(=O)OCc1cn(C2CC(O)C=C[C@@H](O)C2)nn1
REMARK SMILES IDX 21 1 22 2 23 3 20 5 18 6 16 7 15 8 9 9 8 10 14 11 6 12 5 13
REMARK SMILES IDX 10 14 11 16 12 17 13 18 7 20 4 22 2 23 1 25 3 26 17 27 19 29
REMARK SMILES IDX 24 31 25 32 26 33 27 34 39 35 28 36 38 37 29 38 30 39 31 40
REMARK SMILES IDX 32 42 37 44 35 45 34 46 33 47 36 49
REMARK H PARENT 21 4 10 15 13 19 7 21 4 24 17 28 19 30 32 43 36 50
REMARK Flexibility Score: 90.00
ROOT
ATOM      1  N   UNL     1      28.361  31.318  15.812  1.00  0.00    -0.319 N 
ATOM      2  C   UNL     1      27.229  30.491  16.076  1.00  0.00     0.407 C 
ATOM      3  O   UNL     1      27.299  29.438  16.761  1.00  0.00    -0.225 OA
ATOM      4  H   UNL     1      28.274  32.186  15.240  1.00  0.00     0.167 HD
ENDROOT
BRANCH   1   5
ATOM      5  C   UNL     1      29.630  30.871  16.387  1.00  0.00     0.154 C 
BRANCH   5   6
ATOM      6  C   UNL     1      30.598  32.032  16.251  1.00  0.00     0.165 C 
BRANCH   6   7
ATOM      7  C   UNL     1      29.894  33.363  16.111  1.00  0.00     0.176 C 
BRANCH   7   8
ATOM      8  C   UNL     1      30.572  34.266  15.130  1.00  0.00     0.178 C 
ATOM      9  C   UNL     1      32.431  35.451  14.549  1.00  0.00     0.269 C 
ATOM     10  C   UNL     1      31.598  35.637  13.298  1.00  0.00     0.112 C 
ATOM     11  O   UNL     1      31.897  34.487  15.394  1.00  0.00    -0.332 OA
ATOM     12  C   UNL     1      30.194  36.107  13.622  1.00  0.00     0.145 C 
ATOM     13  C   UNL     1      29.882  35.607  15.003  1.00  0.00     0.142 C 
BRANCH   9  14
ATOM     14  O   UNL     1      32.642  36.661  15.201  1.00  0.00    -0.357 OA
ATOM     15  H   UNL     1      31.823  37.223  15.216  1.00  0.00     0.214 HD
ENDBRANCH   9  14
BRANCH   9  16
ATOM     16  C   UNL     1      33.752  34.944  14.105  1.00  0.00     0.364 C 
ATOM     17  O   UNL     1      34.753  34.899  14.870  1.00  0.00    -0.246 OA
BRANCH  16  18
ATOM     18  O   UNL     1      33.902  34.501  12.810  1.00  0.00    -0.477 OA
ATOM     19  H   UNL     1      33.787  33.536  12.515  1.00  0.00     0.296 HD
ENDBRANCH  16  18
ENDBRANCH   9  16
BRANCH  12  20
ATOM     20  O   UNL     1      30.176  37.477  13.506  1.00  0.00    -0.391 OA
ATOM     21  H   UNL     1      30.657  37.711  12.652  1.00  0.00     0.211 HD
ENDBRANCH  12  20
BRANCH  13  22
ATOM     22  N   UNL     1      28.508  35.576  15.343  1.00  0.00    -0.348 N 
ATOM     23  C   UNL     1      27.763  36.660  15.880  1.00  0.00     0.217 C 
ATOM     24  H   UNL     1      27.985  34.687  15.191  1.00  0.00     0.163 HD
ATOM     25  C   UNL     1      26.312  36.525  16.207  1.00  0.00     0.114 C 
ATOM     26  O   UNL     1      28.366  37.734  16.070  1.00  0.00    -0.275 OA
ENDBRANCH  13  22
ENDBRANCH   7   8
BRANCH   7  27
ATOM     27  O   UNL     1      29.633  33.935  17.332  1.00  0.00    -0.388 OA
ATOM     28  H   UNL     1      28.665  34.089  17.406  1.00  0.00     0.211 HD
ENDBRANCH   7  27
ENDBRANCH   6   7
BRANCH   6  29
ATOM     29  O   UNL     1      31.345  31.875  15.060  1.00  0.00    -0.388 OA
ATOM     30  H   UNL     1      30.928  31.187  14.468  1.00  0.00     0.211 HD
ENDBRANCH   6  29
ENDBRANCH   5   6
ENDBRANCH   1   5
BRANCH   2  31
ATOM     31  O   UNL     1      26.001  30.844  15.571  1.00  0.00    -0.443 OA
BRANCH  31  32
ATOM     32  C   UNL     1      25.261  31.976  15.991  1.00  0.00     0.294 C 
BRANCH  32  33
ATOM     33  C   UNL     1      25.306  32.994  14.916  1.00  0.00     0.120 A 
ATOM     34  C   UNL     1      24.268  33.639  14.281  1.00  0.00     0.138 A 
ATOM     35  N   UNL     1      26.442  33.468  14.368  1.00  0.00    -0.132 NA
ATOM     36  N   UNL     1      24.789  34.482  13.370  1.00  0.00    -0.249 N 
ATOM     37  N   UNL     1      26.115  34.347  13.456  1.00  0.00    -0.067 NA
BRANCH  36  38
ATOM     38  C   UNL     1      24.037  35.362  12.475  1.00  0.00     0.115 C 
BRANCH  38  39
ATOM     39  C   UNL     1      23.100  34.512  11.686  1.00  0.00     0.063 C 
BRANCH  39  40
ATOM     40  C   UNL     1      22.102  35.263  10.878  1.00  0.00     0.139 CG0
ATOM     41  G   UNL     1      22.665  35.868   9.660  1.00  0.00     0.000 G0
BRANCH  40  42
ATOM     42  O   UNL     1      20.942  34.502  10.609  1.00  0.00    -0.389 OA
ATOM     43  H   UNL     1      20.788  34.502   9.641  1.00  0.00     0.211 HD
ENDBRANCH  40  42
ENDBRANCH  39  40
ENDBRANCH  38  39
BRANCH  38  44
ATOM     44  C   UNL     1      25.021  36.122  11.654  1.00  0.00     0.063 C 
BRANCH  44  45
ATOM     45  C   UNL     1      25.138  35.658  10.234  1.00  0.00     0.139 C 
BRANCH  45  46
ATOM     46  C   UNL     1      23.974  36.017   9.394  1.00  0.00     0.002 C 
ATOM     47  C   UNL     1      22.697  35.850   9.659  1.00  0.00     0.002 CG0
ATOM     48  G   UNL     1      22.069  35.264  10.854  1.00  0.00     0.000 G0
ENDBRANCH  45  46
BRANCH  45  49
ATOM     49  O   UNL     1      26.333  36.056   9.637  1.00  0.00    -0.389 OA
ATOM     50  H   UNL     1      26.173  36.654   8.864  1.00  0.00     0.211 HD
ENDBRANCH  45  49
ENDBRANCH  44  45
ENDBRANCH  38  44
ENDBRANCH  36  38
ENDBRANCH  32  33
ENDBRANCH  31  32
ENDBRANCH   2  31
TORSDOF 17
BEGIN_RES LYS A 131
REMARK  4 active torsions:
REMARK  status: ('A' for Active; 'I' for Inactive)
REMARK    1  A    between atoms: CA   and  CB  
REMARK    2  A    between atoms: CB   and  CG  
REMARK    3  A    between atoms: CG   and  CD  
REMARK    4  A    between atoms: CD   and  CE  
ROOT
ATOM      1  CA  LYS A 131      29.867  25.555  16.977  1.00 20.52     0.186 C 
ENDROOT
BRANCH   1   2
ATOM      2  CB  LYS A 131      28.345  25.722  17.026  1.00 20.94     0.034 C 
BRANCH   2   3
ATOM      3  CG  LYS A 131      27.602  24.398  16.935  1.00 22.96     0.005 C 
BRANCH   3   4
ATOM      4  CD  LYS A 131      26.597  24.235  18.041  1.00 24.33     0.041 C 
BRANCH   4   5
ATOM      5  CE  LYS A 131      26.075  25.605  18.460  1.00 26.91     0.338 C 
ATOM      6  NZ  LYS A 131      25.860  25.652  19.926  1.00 27.40     0.618 N 
ENDBRANCH   4   5
ENDBRANCH   3   4
ENDBRANCH   2   3
ENDBRANCH   1   2
END_RES LYS A 131
BEGIN_RES LYS A 135
REMARK  4 active torsions:
REMARK  status: ('A' for Active; 'I' for Inactive)
REMARK    5  A    between atoms: CA   and  CB  
REMARK    6  A    between atoms: CB   and  CG  
REMARK    7  A    between atoms: CG   and  CD  
REMARK    8  A    between atoms: CD   and  CE  
ROOT
ATOM      7  CA  LYS A 135      33.193  34.663   9.290  1.00 25.02     0.186 C 
ENDROOT
BRANCH   7   8
ATOM      8  CB  LYS A 135      32.060  35.360  10.034  1.00 26.63     0.034 C 
BRANCH   8   9
ATOM      9  CG  LYS A 135      30.709  34.738   9.794  1.00 29.45     0.005 C 
BRANCH   9  10
ATOM     10  CD  LYS A 135      30.483  34.501   8.308  1.00 32.00     0.041 C 
BRANCH  10  11
ATOM     11  CE  LYS A 135      29.026  34.724   7.949  1.00 34.25     0.338 C 
ATOM     12  NZ  LYS A 135      28.873  35.877   7.019  1.00 35.99     0.618 N 
ENDBRANCH  10  11
ENDBRANCH   9  10
ENDBRANCH   8   9
ENDBRANCH   7   8
END_RES LYS A 135
