REMARK VINA RESULT:    -5.434      2.913      7.109
REMARK INTER + INTRA:         -13.800
REMARK INTER:                  -8.384
REMARK INTRA:                  -5.416
REMARK UNBOUND:                -4.396
REMARK SMILES CC(=O)N[C@@H]1[C@@H](O)C[C@](O)(C(=O)O)O[C@H]1C(O)[C@H](O)CNC(=O)OCc1cn(-c2ccccc2Br)nn1
REMARK SMILES IDX 20 1 18 2 16 3 15 4 9 5 8 6 14 7 6 8 5 9 10 10 11 12 12 13
REMARK SMILES IDX 13 14 7 16 4 18 2 19 1 21 3 22 17 23 19 25 21 27 22 28 23 30
REMARK SMILES IDX 24 31 25 32 26 33 27 34 37 35 28 36 36 37 29 38 30 39 34 40
REMARK SMILES IDX 31 41 33 42 35 43 32 44
REMARK H PARENT 10 11 13 15 7 17 4 20 17 24 19 26 21 29
REMARK Flexibility Score: inf
ROOT
ATOM      1  C   UNL     1      27.265  29.899  16.238  1.00  0.00     0.154 C 
ENDROOT
BRANCH   1   2
ATOM      2  C   UNL     1      27.360  31.393  16.405  1.00  0.00     0.165 C 
BRANCH   2   3
ATOM      3  C   UNL     1      28.523  31.877  15.597  1.00  0.00     0.176 C 
BRANCH   3   4
ATOM      4  C   UNL     1      29.186  33.140  16.093  1.00  0.00     0.178 C 
ATOM      5  C   UNL     1      29.896  34.407  14.252  1.00  0.00     0.269 C 
ATOM      6  C   UNL     1      30.997  35.060  15.089  1.00  0.00     0.112 C 
ATOM      7  O   UNL     1      28.909  34.100  15.128  1.00  0.00    -0.332 OA
ATOM      8  C   UNL     1      31.590  33.948  15.906  1.00  0.00     0.145 C 
ATOM      9  C   UNL     1      30.583  33.013  16.522  1.00  0.00     0.142 C 
BRANCH   5  10
ATOM     10  O   UNL     1      30.477  33.368  13.570  1.00  0.00    -0.357 OA
ATOM     11  H   UNL     1      29.751  32.786  13.233  1.00  0.00     0.214 HD
ENDBRANCH   5  10
BRANCH   5  12
ATOM     12  C   UNL     1      29.391  35.397  13.262  1.00  0.00     0.364 C 
ATOM     13  O   UNL     1      28.188  35.342  12.904  1.00  0.00    -0.246 OA
BRANCH  12  14
ATOM     14  O   UNL     1      30.218  36.378  12.726  1.00  0.00    -0.477 OA
ATOM     15  H   UNL     1      29.885  37.105  12.098  1.00  0.00     0.296 HD
ENDBRANCH  12  14
ENDBRANCH   5  12
BRANCH   8  16
ATOM     16  O   UNL     1      32.429  33.233  15.050  1.00  0.00    -0.391 OA
ATOM     17  H   UNL     1      33.007  33.824  14.537  1.00  0.00     0.211 HD
ENDBRANCH   8  16
BRANCH   9  18
ATOM     18  N   UNL     1      30.633  33.185  17.989  1.00  0.00    -0.348 N 
ATOM     19  C   UNL     1      30.489  32.086  18.864  1.00  0.00     0.217 C 
ATOM     20  H   UNL     1      30.781  34.148  18.408  1.00  0.00     0.163 HD
ATOM     21  C   UNL     1      30.530  32.255  20.357  1.00  0.00     0.114 C 
ATOM     22  O   UNL     1      30.322  30.946  18.362  1.00  0.00    -0.275 OA
ENDBRANCH   9  18
ENDBRANCH   3   4
BRANCH   3  23
ATOM     23  O   UNL     1      29.378  30.844  15.308  1.00  0.00    -0.388 OA
ATOM     24  H   UNL     1      30.094  30.726  16.003  1.00  0.00     0.211 HD
ENDBRANCH   3  23
ENDBRANCH   2   3
BRANCH   2  25
ATOM     25  O   UNL     1      27.514  31.713  17.730  1.00  0.00    -0.388 OA
ATOM     26  H   UNL     1      28.461  31.901  17.975  1.00  0.00     0.211 HD
ENDBRANCH   2  25
ENDBRANCH   1   2
BRANCH   1  27
ATOM     27  N   UNL     1      27.833  29.100  17.271  1.00  0.00    -0.319 N 
ATOM     28  C   UNL     1      27.113  28.151  18.029  1.00  0.00     0.407 C 
ATOM     29  H   UNL     1      28.873  29.198  17.517  1.00  0.00     0.167 HD
ATOM     30  O   UNL     1      25.890  27.927  17.874  1.00  0.00    -0.225 OA
BRANCH  28  31
ATOM     31  O   UNL     1      27.800  27.419  19.010  1.00  0.00    -0.443 OA
BRANCH  31  32
ATOM     32  C   UNL     1      27.243  27.387  20.303  1.00  0.00     0.294 C 
BRANCH  32  33
ATOM     33  C   UNL     1      28.239  27.953  21.245  1.00  0.00     0.121 A 
ATOM     34  C   UNL     1      29.381  27.275  21.693  1.00  0.00     0.144 A 
ATOM     35  N   UNL     1      28.308  29.139  21.861  1.00  0.00    -0.131 NA
ATOM     36  N   UNL     1      30.074  28.056  22.539  1.00  0.00    -0.219 N 
ATOM     37  N   UNL     1      29.396  29.187  22.623  1.00  0.00    -0.062 NA
BRANCH  36  38
ATOM     38  C   UNL     1      31.292  27.713  23.199  1.00  0.00     0.081 A 
ATOM     39  C   UNL     1      31.304  26.963  24.354  1.00  0.00     0.029 A 
ATOM     40  C   UNL     1      32.511  28.121  22.701  1.00  0.00     0.043 A 
ATOM     41  C   UNL     1      32.505  26.636  24.987  1.00  0.00     0.002 A 
ATOM     42  C   UNL     1      33.706  27.798  23.326  1.00  0.00     0.018 A 
ATOM     43  Br  UNL     1      32.506  29.166  21.091  1.00  0.00    -0.048 Br
ATOM     44  C   UNL     1      33.721  27.047  24.482  1.00  0.00     0.001 A 
ENDBRANCH  36  38
ENDBRANCH  32  33
ENDBRANCH  31  32
ENDBRANCH  28  31
ENDBRANCH   1  27
TORSDOF 15
BEGIN_RES LYS A 131
REMARK  4 active torsions:
REMARK  status: ('A' for Active; 'I' for Inactive)
REMARK    1  A    between atoms: CA   and  CB  
REMARK    2  A    between atoms: CB   and  CG  
REMARK    3  A    between atoms: CG   and  CD  
REMARK    4  A    between atoms: CD   and  CE  
ROOT
ATOM      1  CA  LYS A 131      29.867  25.555  16.977  1.00 20.52     0.186 C 
ENDROOT
BRANCH   1   2
ATOM      2  CB  LYS A 131      28.345  25.722  17.026  1.00 20.94     0.034 C 
BRANCH   2   3
ATOM      3  CG  LYS A 131      27.603  24.396  16.954  1.00 22.96     0.005 C 
BRANCH   3   4
ATOM      4  CD  LYS A 131      26.150  24.541  17.315  1.00 24.33     0.041 C 
BRANCH   4   5
ATOM      5  CE  LYS A 131      25.949  24.161  18.778  1.00 26.91     0.338 C 
ATOM      6  NZ  LYS A 131      24.710  24.778  19.309  1.00 27.40     0.618 N 
ENDBRANCH   4   5
ENDBRANCH   3   4
ENDBRANCH   2   3
ENDBRANCH   1   2
END_RES LYS A 131
BEGIN_RES LYS A 135
REMARK  4 active torsions:
REMARK  status: ('A' for Active; 'I' for Inactive)
REMARK    5  A    between atoms: CA   and  CB  
REMARK    6  A    between atoms: CB   and  CG  
REMARK    7  A    between atoms: CG   and  CD  
REMARK    8  A    between atoms: CD   and  CE  
ROOT
ATOM      7  CA  LYS A 135      33.193  34.663   9.290  1.00 25.02     0.186 C 
ENDROOT
BRANCH   7   8
ATOM      8  CB  LYS A 135      32.060  35.360  10.034  1.00 26.63     0.034 C 
BRANCH   8   9
ATOM      9  CG  LYS A 135      30.802  35.505   9.217  1.00 29.45     0.005 C 
BRANCH   9  10
ATOM     10  CD  LYS A 135      30.148  34.150   8.993  1.00 32.00     0.041 C 
BRANCH  10  11
ATOM     11  CE  LYS A 135      28.682  34.318   8.645  1.00 34.25     0.338 C 
ATOM     12  NZ  LYS A 135      27.810  33.697   9.681  1.00 35.99     0.618 N 
ENDBRANCH  10  11
ENDBRANCH   9  10
ENDBRANCH   8   9
ENDBRANCH   7   8
END_RES LYS A 135
