REMARK VINA RESULT:    -4.861      4.454      7.444
REMARK INTER + INTRA:         -14.194
REMARK INTER:                  -8.023
REMARK INTRA:                  -6.171
REMARK UNBOUND:                -5.212
REMARK SMILES CC(=O)N[C@@H]1[C@@H](O)C[C@](O)(C(=O)O)O[C@H]1C(O)[C@H](O)CNC(=O)OCc1cn(Cc2cccc(C#N)c2)nn1
REMARK SMILES IDX 21 1 22 2 23 3 20 5 18 6 16 7 15 8 9 9 8 10 14 11 6 12 5 13
REMARK SMILES IDX 10 14 11 16 12 17 13 18 7 20 4 22 2 23 1 25 3 26 17 27 19 29
REMARK SMILES IDX 24 31 25 32 26 33 27 34 39 35 28 36 38 37 29 38 30 39 31 40
REMARK SMILES IDX 37 41 32 42 34 43 33 44 35 45 36 46
REMARK H PARENT 21 4 10 15 13 19 7 21 4 24 17 28 19 30
REMARK Flexibility Score: inf
ROOT
ATOM      1  N   UNL     1      25.825  28.628  19.075  1.00  0.00    -0.319 N 
ATOM      2  C   UNL     1      26.147  28.702  17.715  1.00  0.00     0.407 C 
ATOM      3  O   UNL     1      26.887  27.847  17.186  1.00  0.00    -0.225 OA
ATOM      4  H   UNL     1      25.185  29.389  19.453  1.00  0.00     0.167 HD
ENDROOT
BRANCH   1   5
ATOM      5  C   UNL     1      26.306  27.599  19.959  1.00  0.00     0.154 C 
BRANCH   5   6
ATOM      6  C   UNL     1      27.753  27.768  20.327  1.00  0.00     0.165 C 
BRANCH   6   7
ATOM      7  C   UNL     1      28.259  29.158  20.336  1.00  0.00     0.176 C 
BRANCH   7   8
ATOM      8  C   UNL     1      29.619  29.352  21.026  1.00  0.00     0.178 C 
ATOM      9  C   UNL     1      31.190  28.217  22.223  1.00  0.00     0.269 C 
ATOM     10  C   UNL     1      30.954  29.091  23.438  1.00  0.00     0.112 C 
ATOM     11  O   UNL     1      30.019  28.172  21.513  1.00  0.00    -0.332 OA
ATOM     12  C   UNL     1      30.601  30.498  23.037  1.00  0.00     0.145 C 
ATOM     13  C   UNL     1      29.630  30.552  21.894  1.00  0.00     0.142 C 
BRANCH   9  14
ATOM     14  O   UNL     1      31.501  26.915  22.690  1.00  0.00    -0.357 OA
ATOM     15  H   UNL     1      30.612  26.465  22.766  1.00  0.00     0.214 HD
ENDBRANCH   9  14
BRANCH   9  16
ATOM     16  C   UNL     1      32.376  28.691  21.502  1.00  0.00     0.364 C 
ATOM     17  O   UNL     1      33.308  29.297  22.079  1.00  0.00    -0.246 OA
BRANCH  16  18
ATOM     18  O   UNL     1      32.562  28.509  20.116  1.00  0.00    -0.477 OA
ATOM     19  H   UNL     1      31.907  27.857  19.677  1.00  0.00     0.296 HD
ENDBRANCH  16  18
ENDBRANCH   9  16
BRANCH  12  20
ATOM     20  O   UNL     1      30.066  31.133  24.157  1.00  0.00    -0.391 OA
ATOM     21  H   UNL     1      30.755  31.519  24.736  1.00  0.00     0.211 HD
ENDBRANCH  12  20
BRANCH  13  22
ATOM     22  N   UNL     1      29.887  31.751  21.121  1.00  0.00    -0.348 N 
ATOM     23  C   UNL     1      29.304  33.027  21.457  1.00  0.00     0.217 C 
ATOM     24  H   UNL     1      30.503  31.785  20.270  1.00  0.00     0.163 HD
ATOM     25  C   UNL     1      29.597  34.238  20.627  1.00  0.00     0.114 C 
ATOM     26  O   UNL     1      28.550  33.129  22.445  1.00  0.00    -0.275 OA
ENDBRANCH  13  22
ENDBRANCH   7   8
BRANCH   7  27
ATOM     27  O   UNL     1      27.382  30.060  20.941  1.00  0.00    -0.388 OA
ATOM     28  H   UNL     1      27.410  30.959  20.530  1.00  0.00     0.211 HD
ENDBRANCH   7  27
ENDBRANCH   6   7
BRANCH   6  29
ATOM     29  O   UNL     1      28.496  26.861  19.573  1.00  0.00    -0.388 OA
ATOM     30  H   UNL     1      28.591  26.032  20.104  1.00  0.00     0.211 HD
ENDBRANCH   6  29
ENDBRANCH   5   6
ENDBRANCH   1   5
BRANCH   2  31
ATOM     31  O   UNL     1      25.672  29.715  16.882  1.00  0.00    -0.443 OA
BRANCH  31  32
ATOM     32  C   UNL     1      25.877  31.051  17.266  1.00  0.00     0.294 C 
BRANCH  32  33
ATOM     33  C   UNL     1      27.328  31.325  17.288  1.00  0.00     0.120 A 
ATOM     34  C   UNL     1      28.246  31.139  16.278  1.00  0.00     0.138 A 
ATOM     35  N   UNL     1      28.021  31.820  18.330  1.00  0.00    -0.132 NA
ATOM     36  N   UNL     1      29.455  31.523  16.728  1.00  0.00    -0.248 N 
ATOM     37  N   UNL     1      29.271  31.929  17.979  1.00  0.00    -0.067 NA
BRANCH  36  38
ATOM     38  C   UNL     1      30.735  31.540  16.073  1.00  0.00     0.181 C 
BRANCH  38  39
ATOM     39  C   UNL     1      30.948  32.844  15.361  1.00  0.00    -0.025 A 
ATOM     40  C   UNL     1      32.058  33.607  15.646  1.00  0.00     0.006 A 
ATOM     41  C   UNL     1      30.066  33.304  14.420  1.00  0.00     0.025 A 
ATOM     42  C   UNL     1      32.267  34.821  14.981  1.00  0.00     0.002 A 
ATOM     43  C   UNL     1      30.240  34.494  13.744  1.00  0.00     0.052 A 
ATOM     44  C   UNL     1      31.350  35.255  14.029  1.00  0.00     0.019 A 
BRANCH  43  45
ATOM     45  C   UNL     1      29.332  34.995  12.756  1.00  0.00     0.099 C 
ATOM     46  N   UNL     1      28.587  35.417  11.962  1.00  0.00    -0.192 NA
ENDBRANCH  43  45
ENDBRANCH  38  39
ENDBRANCH  36  38
ENDBRANCH  32  33
ENDBRANCH  31  32
ENDBRANCH   2  31
TORSDOF 17
BEGIN_RES LYS A 131
REMARK  4 active torsions:
REMARK  status: ('A' for Active; 'I' for Inactive)
REMARK    1  A    between atoms: CA   and  CB  
REMARK    2  A    between atoms: CB   and  CG  
REMARK    3  A    between atoms: CG   and  CD  
REMARK    4  A    between atoms: CD   and  CE  
ROOT
ATOM      1  CA  LYS A 131      29.867  25.555  16.977  1.00 20.52     0.186 C 
ENDROOT
BRANCH   1   2
ATOM      2  CB  LYS A 131      28.345  25.722  17.026  1.00 20.94     0.034 C 
BRANCH   2   3
ATOM      3  CG  LYS A 131      27.601  24.403  16.882  1.00 22.96     0.005 C 
BRANCH   3   4
ATOM      4  CD  LYS A 131      26.164  24.514  17.311  1.00 24.33     0.041 C 
BRANCH   4   5
ATOM      5  CE  LYS A 131      25.610  23.122  17.599  1.00 26.91     0.338 C 
ATOM      6  NZ  LYS A 131      24.214  23.009  17.116  1.00 27.40     0.618 N 
ENDBRANCH   4   5
ENDBRANCH   3   4
ENDBRANCH   2   3
ENDBRANCH   1   2
END_RES LYS A 131
BEGIN_RES LYS A 135
REMARK  4 active torsions:
REMARK  status: ('A' for Active; 'I' for Inactive)
REMARK    5  A    between atoms: CA   and  CB  
REMARK    6  A    between atoms: CB   and  CG  
REMARK    7  A    between atoms: CG   and  CD  
REMARK    8  A    between atoms: CD   and  CE  
ROOT
ATOM      7  CA  LYS A 135      33.193  34.663   9.290  1.00 25.02     0.186 C 
ENDROOT
BRANCH   7   8
ATOM      8  CB  LYS A 135      32.060  35.360  10.034  1.00 26.63     0.034 C 
BRANCH   8   9
ATOM      9  CG  LYS A 135      30.867  35.664   9.166  1.00 29.45     0.005 C 
BRANCH   9  10
ATOM     10  CD  LYS A 135      30.226  34.379   8.664  1.00 32.00     0.041 C 
BRANCH  10  11
ATOM     11  CE  LYS A 135      28.896  34.672   7.996  1.00 34.25     0.338 C 
ATOM     12  NZ  LYS A 135      27.759  34.209   8.839  1.00 35.99     0.618 N 
ENDBRANCH  10  11
ENDBRANCH   9  10
ENDBRANCH   8   9
ENDBRANCH   7   8
END_RES LYS A 135
