REMARK VINA RESULT:    -4.560      2.381      4.406
REMARK INTER + INTRA:         -14.900
REMARK INTER:                  -8.352
REMARK INTRA:                  -6.547
REMARK UNBOUND:                -7.007
REMARK SMILES CC(=O)N[C@@H]1[C@@H](O)C[C@](O)(C(=O)O)O[C@H]1C(O)[C@H](O)CNC(=O)OCc1cn(-c2ccc(Cl)cc2)nn1
REMARK SMILES IDX 20 1 18 2 16 3 15 4 9 5 8 6 14 7 6 8 5 9 10 10 11 12 12 13
REMARK SMILES IDX 13 14 7 16 4 18 2 19 1 21 3 22 17 23 19 25 21 27 22 28 23 30
REMARK SMILES IDX 24 31 25 32 26 33 27 34 37 35 28 36 36 37 29 38 30 39 35 40
REMARK SMILES IDX 31 41 34 42 32 43 33 44
REMARK H PARENT 10 11 13 15 7 17 4 20 17 24 19 26 21 29
REMARK Flexibility Score: inf
ROOT
ATOM      1  C   UNL     1      26.593  27.723  19.684  1.00  0.00     0.154 C 
ENDROOT
BRANCH   1   2
ATOM      2  C   UNL     1      26.991  28.035  21.092  1.00  0.00     0.165 C 
BRANCH   2   3
ATOM      3  C   UNL     1      28.526  27.996  21.167  1.00  0.00     0.176 C 
BRANCH   3   4
ATOM      4  C   UNL     1      29.091  29.372  21.513  1.00  0.00     0.178 C 
ATOM      5  C   UNL     1      29.090  30.848  19.687  1.00  0.00     0.269 C 
ATOM      6  C   UNL     1      30.375  31.555  20.060  1.00  0.00     0.112 C 
ATOM      7  O   UNL     1      28.422  30.276  20.714  1.00  0.00    -0.332 OA
ATOM      8  C   UNL     1      30.934  30.930  21.287  1.00  0.00     0.145 C 
ATOM      9  C   UNL     1      30.547  29.464  21.302  1.00  0.00     0.142 C 
BRANCH   5  10
ATOM     10  O   UNL     1      29.411  29.979  18.647  1.00  0.00    -0.357 OA
ATOM     11  H   UNL     1      28.624  29.390  18.526  1.00  0.00     0.214 HD
ENDBRANCH   5  10
BRANCH   5  12
ATOM     12  C   UNL     1      28.207  31.897  19.115  1.00  0.00     0.364 C 
ATOM     13  O   UNL     1      28.745  32.922  18.637  1.00  0.00    -0.246 OA
BRANCH  12  14
ATOM     14  O   UNL     1      26.846  31.773  19.098  1.00  0.00    -0.477 OA
ATOM     15  H   UNL     1      26.297  32.317  18.428  1.00  0.00     0.296 HD
ENDBRANCH  12  14
ENDBRANCH   5  12
BRANCH   8  16
ATOM     16  O   UNL     1      32.304  31.111  21.428  1.00  0.00    -0.391 OA
ATOM     17  H   UNL     1      32.798  30.486  20.858  1.00  0.00     0.211 HD
ENDBRANCH   8  16
BRANCH   9  18
ATOM     18  N   UNL     1      31.397  28.806  22.234  1.00  0.00    -0.348 N 
ATOM     19  C   UNL     1      32.053  27.582  21.960  1.00  0.00     0.217 C 
ATOM     20  H   UNL     1      31.516  29.290  23.163  1.00  0.00     0.163 HD
ATOM     21  C   UNL     1      32.929  26.928  22.953  1.00  0.00     0.114 C 
ATOM     22  O   UNL     1      31.825  27.110  20.813  1.00  0.00    -0.275 OA
ENDBRANCH   9  18
ENDBRANCH   3   4
BRANCH   3  23
ATOM     23  O   UNL     1      29.046  27.563  19.943  1.00  0.00    -0.388 OA
ATOM     24  H   UNL     1      29.294  26.597  19.972  1.00  0.00     0.211 HD
ENDBRANCH   3  23
ENDBRANCH   2   3
BRANCH   2  25
ATOM     25  O   UNL     1      26.427  27.187  22.017  1.00  0.00    -0.388 OA
ATOM     26  H   UNL     1      25.511  26.904  21.852  1.00  0.00     0.211 HD
ENDBRANCH   2  25
ENDBRANCH   1   2
BRANCH   1  27
ATOM     27  N   UNL     1      26.355  28.839  18.830  1.00  0.00    -0.319 N 
ATOM     28  C   UNL     1      25.161  29.066  18.102  1.00  0.00     0.407 C 
ATOM     29  H   UNL     1      27.114  29.567  18.717  1.00  0.00     0.167 HD
ATOM     30  O   UNL     1      24.198  28.284  18.163  1.00  0.00    -0.225 OA
BRANCH  28  31
ATOM     31  O   UNL     1      25.042  30.203  17.279  1.00  0.00    -0.443 OA
BRANCH  31  32
ATOM     32  C   UNL     1      25.399  30.143  15.901  1.00  0.00     0.294 C 
BRANCH  32  33
ATOM     33  C   UNL     1      26.855  30.418  15.824  1.00  0.00     0.121 A 
ATOM     34  C   UNL     1      27.430  31.614  15.509  1.00  0.00     0.144 A 
ATOM     35  N   UNL     1      27.837  29.557  16.047  1.00  0.00    -0.131 NA
ATOM     36  N   UNL     1      28.767  31.433  15.552  1.00  0.00    -0.220 N 
ATOM     37  N   UNL     1      28.998  30.175  15.881  1.00  0.00    -0.062 NA
BRANCH  36  38
ATOM     38  C   UNL     1      29.706  32.476  15.275  1.00  0.00     0.066 A 
ATOM     39  C   UNL     1      29.299  33.582  14.568  1.00  0.00     0.030 A 
ATOM     40  C   UNL     1      30.989  32.321  15.735  1.00  0.00     0.030 A 
ATOM     41  C   UNL     1      30.238  34.565  14.323  1.00  0.00     0.023 A 
ATOM     42  C   UNL     1      31.903  33.323  15.473  1.00  0.00     0.023 A 
ATOM     43  C   UNL     1      31.546  34.447  14.771  1.00  0.00     0.041 A 
ATOM     44  Cl  UNL     1      32.747  35.673  14.473  1.00  0.00    -0.084 Cl
ENDBRANCH  36  38
ENDBRANCH  32  33
ENDBRANCH  31  32
ENDBRANCH  28  31
ENDBRANCH   1  27
TORSDOF 15
BEGIN_RES LYS A 131
REMARK  4 active torsions:
REMARK  status: ('A' for Active; 'I' for Inactive)
REMARK    1  A    between atoms: CA   and  CB  
REMARK    2  A    between atoms: CB   and  CG  
REMARK    3  A    between atoms: CG   and  CD  
REMARK    4  A    between atoms: CD   and  CE  
ROOT
ATOM      1  CA  LYS A 131      29.867  25.555  16.977  1.00 20.52     0.186 C 
ENDROOT
BRANCH   1   2
ATOM      2  CB  LYS A 131      28.345  25.722  17.026  1.00 20.94     0.034 C 
BRANCH   2   3
ATOM      3  CG  LYS A 131      27.602  24.398  16.932  1.00 22.96     0.005 C 
BRANCH   3   4
ATOM      4  CD  LYS A 131      26.161  24.527  17.343  1.00 24.33     0.041 C 
BRANCH   4   5
ATOM      5  CE  LYS A 131      25.809  23.409  18.319  1.00 26.91     0.338 C 
ATOM      6  NZ  LYS A 131      25.459  23.970  19.646  1.00 27.40     0.618 N 
ENDBRANCH   4   5
ENDBRANCH   3   4
ENDBRANCH   2   3
ENDBRANCH   1   2
END_RES LYS A 131
BEGIN_RES LYS A 135
REMARK  4 active torsions:
REMARK  status: ('A' for Active; 'I' for Inactive)
REMARK    5  A    between atoms: CA   and  CB  
REMARK    6  A    between atoms: CB   and  CG  
REMARK    7  A    between atoms: CG   and  CD  
REMARK    8  A    between atoms: CD   and  CE  
ROOT
ATOM      7  CA  LYS A 135      33.193  34.663   9.290  1.00 25.02     0.186 C 
ENDROOT
BRANCH   7   8
ATOM      8  CB  LYS A 135      32.060  35.360  10.034  1.00 26.63     0.034 C 
BRANCH   8   9
ATOM      9  CG  LYS A 135      30.695  35.061   9.470  1.00 29.45     0.005 C 
BRANCH   9  10
ATOM     10  CD  LYS A 135      29.688  34.841  10.589  1.00 32.00     0.041 C 
BRANCH  10  11
ATOM     11  CE  LYS A 135      28.864  36.093  10.817  1.00 34.25     0.338 C 
ATOM     12  NZ  LYS A 135      28.094  36.459   9.596  1.00 35.99     0.618 N 
ENDBRANCH  10  11
ENDBRANCH   9  10
ENDBRANCH   8   9
ENDBRANCH   7   8
END_RES LYS A 135
