REMARK VINA RESULT:    -4.174      6.318     10.119
REMARK INTER + INTRA:         -14.320
REMARK INTER:                  -7.891
REMARK INTRA:                  -6.429
REMARK UNBOUND:                -5.875
REMARK SMILES CC[N+](C)(CC)CCCn1cc(COC(=O)NC[C@@H](O)C(O)[C@@H]2O[C@@](O)(C(=O)O)C[C@H](O)[C@H]2NC(C)=O)nn1
REMARK SMILES IDX 14 1 15 2 17 3 16 5 18 6 19 7 21 8 23 9 25 10 30 11 24 12
REMARK SMILES IDX 31 13 33 14 26 15 27 17 28 18 29 19 32 21 34 23 35 24 36 26
REMARK SMILES IDX 37 27 22 28 20 30 13 32 12 33 11 34 38 35 10 36 39 37 9 38
REMARK SMILES IDX 8 39 7 40 3 41 4 42 2 43 1 44 5 45 6 46
REMARK H PARENT 17 4 26 16 29 20 32 22 34 25 22 29 20 31
REMARK Flexibility Score: inf
ROOT
ATOM      1  O   UNL     1      23.766  37.100   8.603  1.00  0.00    -0.443 OA
ENDROOT
BRANCH   1   2
ATOM      2  C   UNL     1      24.989  37.642   8.944  1.00  0.00     0.407 C 
ATOM      3  N   UNL     1      26.047  36.851   9.497  1.00  0.00    -0.319 N 
ATOM      4  H   UNL     1      25.846  35.852   9.616  1.00  0.00     0.167 HD
ATOM      5  O   UNL     1      25.175  38.868   8.764  1.00  0.00    -0.225 OA
BRANCH   3   6
ATOM      6  C   UNL     1      27.273  37.480   9.822  1.00  0.00     0.154 C 
BRANCH   6   7
ATOM      7  C   UNL     1      27.750  37.338  11.229  1.00  0.00     0.165 C 
BRANCH   7   8
ATOM      8  C   UNL     1      28.124  35.951  11.651  1.00  0.00     0.176 C 
BRANCH   8   9
ATOM      9  C   UNL     1      29.094  35.874  12.791  1.00  0.00     0.178 C 
ATOM     10  C   UNL     1      31.178  35.081  13.353  1.00  0.00     0.269 C 
ATOM     11  C   UNL     1      30.888  35.979  14.540  1.00  0.00     0.112 C 
ATOM     12  O   UNL     1      30.203  35.169  12.388  1.00  0.00    -0.332 OA
ATOM     13  C   UNL     1      29.579  35.617  15.171  1.00  0.00     0.145 C 
ATOM     14  C   UNL     1      28.557  35.329  14.068  1.00  0.00     0.142 C 
BRANCH  10  15
ATOM     15  O   UNL     1      31.205  33.759  13.835  1.00  0.00    -0.357 OA
ATOM     16  H   UNL     1      30.987  33.185  13.055  1.00  0.00     0.214 HD
ENDBRANCH  10  15
BRANCH  10  17
ATOM     17  C   UNL     1      32.500  35.403  12.795  1.00  0.00     0.364 C 
ATOM     18  O   UNL     1      32.661  36.439  12.090  1.00  0.00    -0.246 OA
BRANCH  17  19
ATOM     19  O   UNL     1      33.597  34.597  13.020  1.00  0.00    -0.477 OA
ATOM     20  H   UNL     1      33.759  34.175  13.915  1.00  0.00     0.296 HD
ENDBRANCH  17  19
ENDBRANCH  10  17
BRANCH  13  21
ATOM     21  O   UNL     1      29.766  34.481  15.971  1.00  0.00    -0.391 OA
ATOM     22  H   UNL     1      29.790  33.682  15.402  1.00  0.00     0.211 HD
ENDBRANCH  13  21
BRANCH  14  23
ATOM     23  N   UNL     1      27.352  36.043  14.500  1.00  0.00    -0.348 N 
ATOM     24  C   UNL     1      26.429  35.425  15.378  1.00  0.00     0.217 C 
ATOM     25  H   UNL     1      27.184  37.013  14.150  1.00  0.00     0.163 HD
ATOM     26  C   UNL     1      25.200  36.165  15.808  1.00  0.00     0.114 C 
ATOM     27  O   UNL     1      26.584  34.252  15.836  1.00  0.00    -0.275 OA
ENDBRANCH  14  23
ENDBRANCH   8   9
BRANCH   8  28
ATOM     28  O   UNL     1      26.954  35.239  11.956  1.00  0.00    -0.388 OA
ATOM     29  H   UNL     1      26.198  35.718  11.517  1.00  0.00     0.211 HD
ENDBRANCH   8  28
ENDBRANCH   7   8
BRANCH   7  30
ATOM     30  O   UNL     1      26.718  37.830  12.057  1.00  0.00    -0.388 OA
ATOM     31  H   UNL     1      26.192  37.113  12.465  1.00  0.00     0.211 HD
ENDBRANCH   7  30
ENDBRANCH   6   7
ENDBRANCH   3   6
ENDBRANCH   1   2
BRANCH   1  32
ATOM     32  C   UNL     1      22.722  37.100   9.566  1.00  0.00     0.294 C 
BRANCH  32  33
ATOM     33  C   UNL     1      23.059  36.182  10.677  1.00  0.00     0.120 A 
ATOM     34  C   UNL     1      22.600  34.911  10.944  1.00  0.00     0.138 A 
ATOM     35  N   UNL     1      23.923  36.449  11.680  1.00  0.00    -0.132 NA
ATOM     36  N   UNL     1      23.174  34.440  12.069  1.00  0.00    -0.252 N 
ATOM     37  N   UNL     1      23.969  35.404  12.483  1.00  0.00    -0.067 NA
BRANCH  36  38
ATOM     38  C   UNL     1      22.993  33.183  12.718  1.00  0.00     0.152 C 
BRANCH  38  39
ATOM     39  C   UNL     1      24.175  32.713  13.476  1.00  0.00     0.085 C 
BRANCH  39  40
ATOM     40  C   UNL     1      24.483  31.274  13.488  1.00  0.00     0.265 C 
BRANCH  40  41
ATOM     41  N   UNL     1      24.246  30.492  14.631  1.00  0.00    -0.326 N 
ATOM     42  C   UNL     1      23.259  30.973  15.560  1.00  0.00     0.334 C 
BRANCH  41  43
ATOM     43  C   UNL     1      23.695  29.214  14.136  1.00  0.00     0.260 C 
ATOM     44  C   UNL     1      23.367  29.206  12.693  1.00  0.00     0.071 C 
ENDBRANCH  41  43
BRANCH  41  45
ATOM     45  C   UNL     1      25.432  30.154  15.366  1.00  0.00     0.260 C 
ATOM     46  C   UNL     1      25.641  30.926  16.618  1.00  0.00     0.071 C 
ENDBRANCH  41  45
ENDBRANCH  40  41
ENDBRANCH  39  40
ENDBRANCH  38  39
ENDBRANCH  36  38
ENDBRANCH  32  33
ENDBRANCH   1  32
TORSDOF 20
BEGIN_RES LYS A 131
REMARK  4 active torsions:
REMARK  status: ('A' for Active; 'I' for Inactive)
REMARK    1  A    between atoms: CA   and  CB  
REMARK    2  A    between atoms: CB   and  CG  
REMARK    3  A    between atoms: CG   and  CD  
REMARK    4  A    between atoms: CD   and  CE  
ROOT
ATOM      1  CA  LYS A 131      29.867  25.555  16.977  1.00 20.52     0.186 C 
ENDROOT
BRANCH   1   2
ATOM      2  CB  LYS A 131      28.345  25.722  17.026  1.00 20.94     0.034 C 
BRANCH   2   3
ATOM      3  CG  LYS A 131      27.601  24.404  16.874  1.00 22.96     0.005 C 
BRANCH   3   4
ATOM      4  CD  LYS A 131      26.510  24.249  17.897  1.00 24.33     0.041 C 
BRANCH   4   5
ATOM      5  CE  LYS A 131      25.156  24.210  17.195  1.00 26.91     0.338 C 
ATOM      6  NZ  LYS A 131      24.434  25.490  17.390  1.00 27.40     0.618 N 
ENDBRANCH   4   5
ENDBRANCH   3   4
ENDBRANCH   2   3
ENDBRANCH   1   2
END_RES LYS A 131
BEGIN_RES LYS A 135
REMARK  4 active torsions:
REMARK  status: ('A' for Active; 'I' for Inactive)
REMARK    5  A    between atoms: CA   and  CB  
REMARK    6  A    between atoms: CB   and  CG  
REMARK    7  A    between atoms: CG   and  CD  
REMARK    8  A    between atoms: CD   and  CE  
ROOT
ATOM      7  CA  LYS A 135      33.193  34.663   9.290  1.00 25.02     0.186 C 
ENDROOT
BRANCH   7   8
ATOM      8  CB  LYS A 135      32.060  35.360  10.034  1.00 26.63     0.034 C 
BRANCH   8   9
ATOM      9  CG  LYS A 135      30.828  35.572   9.193  1.00 29.45     0.005 C 
BRANCH   9  10
ATOM     10  CD  LYS A 135      30.134  34.247   8.915  1.00 32.00     0.041 C 
BRANCH  10  11
ATOM     11  CE  LYS A 135      28.789  34.479   8.253  1.00 34.25     0.338 C 
ATOM     12  NZ  LYS A 135      28.916  35.394   7.085  1.00 35.99     0.618 N 
ENDBRANCH  10  11
ENDBRANCH   9  10
ENDBRANCH   8   9
ENDBRANCH   7   8
END_RES LYS A 135
