REMARK VINA RESULT:    -5.207      5.659     10.578
REMARK INTER + INTRA:         -14.652
REMARK INTER:                  -9.316
REMARK INTRA:                  -5.337
REMARK UNBOUND:                -5.337
REMARK SMILES CC(=O)N[C@@H]1[C@@H](O)C[C@](O)(C(=O)O)O[C@H]1C(O)[C@H](O)CNC(=O)OCc1cn(CC2=CC[C@H]3C[C@@H]2C3(C)C)nn1
REMARK SMILES IDX 21 1 22 2 23 3 20 5 18 6 16 7 15 8 9 9 8 10 14 11 6 12 5 13
REMARK SMILES IDX 10 14 11 16 12 17 13 18 7 20 4 22 2 23 1 25 3 26 17 27 19 29
REMARK SMILES IDX 24 31 25 32 26 33 27 34 40 35 28 36 39 37 29 38 30 39 31 40
REMARK SMILES IDX 35 41 32 42 34 43 36 44 33 45 37 46 38 47
REMARK H PARENT 21 4 10 15 13 19 7 21 4 24 17 28 19 30
REMARK Flexibility Score: inf
ROOT
ATOM      1  N   UNL     1      25.081  33.066  13.325  1.00  0.00    -0.319 N 
ATOM      2  C   UNL     1      24.389  31.972  13.948  1.00  0.00     0.407 C 
ATOM      3  O   UNL     1      23.218  32.162  14.366  1.00  0.00    -0.225 OA
ATOM      4  H   UNL     1      26.052  32.914  12.977  1.00  0.00     0.167 HD
ENDROOT
BRANCH   1   5
ATOM      5  C   UNL     1      24.425  34.350  13.193  1.00  0.00     0.154 C 
BRANCH   5   6
ATOM      6  C   UNL     1      23.770  34.404  11.843  1.00  0.00     0.165 C 
BRANCH   6   7
ATOM      7  C   UNL     1      23.953  35.746  11.169  1.00  0.00     0.176 C 
BRANCH   7   8
ATOM      8  C   UNL     1      23.825  35.521   9.681  1.00  0.00     0.178 C 
ATOM      9  C   UNL     1      25.004  37.245   8.679  1.00  0.00     0.269 C 
ATOM     10  C   UNL     1      23.793  37.795   7.960  1.00  0.00     0.112 C 
ATOM     11  O   UNL     1      24.917  35.903   8.958  1.00  0.00    -0.332 OA
ATOM     12  C   UNL     1      22.799  36.672   7.799  1.00  0.00     0.145 C 
ATOM     13  C   UNL     1      22.527  36.115   9.182  1.00  0.00     0.142 C 
BRANCH   9  14
ATOM     14  O   UNL     1      25.260  38.018   9.816  1.00  0.00    -0.357 OA
ATOM     15  H   UNL     1      26.243  37.961   9.965  1.00  0.00     0.214 HD
ENDBRANCH   9  14
BRANCH   9  16
ATOM     16  C   UNL     1      26.168  37.436   7.764  1.00  0.00     0.364 C 
ATOM     17  O   UNL     1      27.262  37.896   8.239  1.00  0.00    -0.246 OA
BRANCH  16  18
ATOM     18  O   UNL     1      26.121  37.137   6.420  1.00  0.00    -0.477 OA
ATOM     19  H   UNL     1      25.633  37.731   5.755  1.00  0.00     0.296 HD
ENDBRANCH  16  18
ENDBRANCH   9  16
BRANCH  12  20
ATOM     20  O   UNL     1      21.602  37.099   7.257  1.00  0.00    -0.391 OA
ATOM     21  H   UNL     1      21.462  36.598   6.414  1.00  0.00     0.211 HD
ENDBRANCH  12  20
BRANCH  13  22
ATOM     22  N   UNL     1      21.441  35.169   9.173  1.00  0.00    -0.348 N 
ATOM     23  C   UNL     1      20.128  35.535   9.565  1.00  0.00     0.217 C 
ATOM     24  H   UNL     1      21.645  34.193   8.866  1.00  0.00     0.163 HD
ATOM     25  C   UNL     1      19.066  34.494   9.525  1.00  0.00     0.114 C 
ATOM     26  O   UNL     1      19.877  36.709   9.935  1.00  0.00    -0.275 OA
ENDBRANCH  13  22
ENDBRANCH   7   8
BRANCH   7  27
ATOM     27  O   UNL     1      22.950  36.633  11.552  1.00  0.00    -0.388 OA
ATOM     28  H   UNL     1      23.228  37.259  12.241  1.00  0.00     0.211 HD
ENDBRANCH   7  27
ENDBRANCH   6   7
BRANCH   6  29
ATOM     29  O   UNL     1      22.389  34.205  12.059  1.00  0.00    -0.388 OA
ATOM     30  H   UNL     1      21.897  35.067  11.957  1.00  0.00     0.211 HD
ENDBRANCH   6  29
ENDBRANCH   5   6
ENDBRANCH   1   5
BRANCH   2  31
ATOM     31  O   UNL     1      24.946  30.732  14.107  1.00  0.00    -0.443 OA
BRANCH  31  32
ATOM     32  C   UNL     1      25.026  30.050  15.346  1.00  0.00     0.294 C 
BRANCH  32  33
ATOM     33  C   UNL     1      26.168  30.555  16.133  1.00  0.00     0.120 A 
ATOM     34  C   UNL     1      27.503  30.253  16.005  1.00  0.00     0.138 A 
ATOM     35  N   UNL     1      26.086  31.430  17.146  1.00  0.00    -0.132 NA
ATOM     36  N   UNL     1      28.210  30.951  16.944  1.00  0.00    -0.248 N 
ATOM     37  N   UNL     1      27.314  31.656  17.619  1.00  0.00    -0.067 NA
BRANCH  36  38
ATOM     38  C   UNL     1      29.640  30.891  17.117  1.00  0.00     0.177 C 
BRANCH  38  39
ATOM     39  C   UNL     1      30.288  32.188  16.715  1.00  0.00    -0.049 C 
ATOM     40  C   UNL     1      30.772  33.029  17.625  1.00  0.00    -0.025 C 
ATOM     41  C   UNL     1      30.409  32.575  15.296  1.00  0.00     0.023 C 
ATOM     42  C   UNL     1      31.614  34.167  17.165  1.00  0.00     0.031 C 
ATOM     43  C   UNL     1      31.893  32.900  15.070  1.00  0.00     0.013 C 
ATOM     44  C   UNL     1      30.152  34.062  15.159  1.00  0.00    -0.026 C 
ATOM     45  C   UNL     1      31.587  34.262  15.671  1.00  0.00    -0.000 C 
ATOM     46  C   UNL     1      30.047  34.536  13.737  1.00  0.00     0.012 C 
ATOM     47  C   UNL     1      29.089  34.625  16.040  1.00  0.00     0.012 C 
ENDBRANCH  38  39
ENDBRANCH  36  38
ENDBRANCH  32  33
ENDBRANCH  31  32
ENDBRANCH   2  31
TORSDOF 16
BEGIN_RES LYS A 131
REMARK  4 active torsions:
REMARK  status: ('A' for Active; 'I' for Inactive)
REMARK    1  A    between atoms: CA   and  CB  
REMARK    2  A    between atoms: CB   and  CG  
REMARK    3  A    between atoms: CG   and  CD  
REMARK    4  A    between atoms: CD   and  CE  
ROOT
ATOM      1  CA  LYS A 131      29.867  25.555  16.977  1.00 20.52     0.186 C 
ENDROOT
BRANCH   1   2
ATOM      2  CB  LYS A 131      28.345  25.722  17.026  1.00 20.94     0.034 C 
BRANCH   2   3
ATOM      3  CG  LYS A 131      27.601  24.403  16.887  1.00 22.96     0.005 C 
BRANCH   3   4
ATOM      4  CD  LYS A 131      26.421  24.317  17.815  1.00 24.33     0.041 C 
BRANCH   4   5
ATOM      5  CE  LYS A 131      25.669  23.015  17.563  1.00 26.91     0.338 C 
ATOM      6  NZ  LYS A 131      24.276  23.293  17.141  1.00 27.40     0.618 N 
ENDBRANCH   4   5
ENDBRANCH   3   4
ENDBRANCH   2   3
ENDBRANCH   1   2
END_RES LYS A 131
BEGIN_RES LYS A 135
REMARK  4 active torsions:
REMARK  status: ('A' for Active; 'I' for Inactive)
REMARK    5  A    between atoms: CA   and  CB  
REMARK    6  A    between atoms: CB   and  CG  
REMARK    7  A    between atoms: CG   and  CD  
REMARK    8  A    between atoms: CD   and  CE  
ROOT
ATOM      7  CA  LYS A 135      33.193  34.663   9.290  1.00 25.02     0.186 C 
ENDROOT
BRANCH   7   8
ATOM      8  CB  LYS A 135      32.060  35.360  10.034  1.00 26.63     0.034 C 
BRANCH   8   9
ATOM      9  CG  LYS A 135      30.786  35.459   9.235  1.00 29.45     0.005 C 
BRANCH   9  10
ATOM     10  CD  LYS A 135      30.195  34.078   8.994  1.00 32.00     0.041 C 
BRANCH  10  11
ATOM     11  CE  LYS A 135      28.712  34.071   9.311  1.00 34.25     0.338 C 
ATOM     12  NZ  LYS A 135      28.369  35.129  10.301  1.00 35.99     0.618 N 
ENDBRANCH  10  11
ENDBRANCH   9  10
ENDBRANCH   8   9
ENDBRANCH   7   8
END_RES LYS A 135
