REMARK VINA RESULT:    -5.288      2.307      4.829
REMARK INTER + INTRA:         -17.151
REMARK INTER:                 -11.673
REMARK INTRA:                  -5.478
REMARK UNBOUND:                -6.299
REMARK SMILES CC(=O)N[C@@H]1[C@@H](O)C[C@](O)(C(=O)O)O[C@H]1C(O)[C@H](O)CNC(=O)OCc1cn(C[C@@H](C(=O)O)C(c2ccccc2)c2ccccc2)nn1
REMARK SMILES IDX 21 1 22 2 23 3 20 5 18 6 16 7 15 8 9 9 8 10 14 11 6 12 5 13
REMARK SMILES IDX 10 14 11 16 12 17 13 18 7 20 4 22 2 23 1 25 3 26 17 27 19 29
REMARK SMILES IDX 24 31 25 32 26 33 27 34 48 35 28 36 47 37 29 38 30 39 31 40
REMARK SMILES IDX 32 41 33 42 34 44 35 45 36 46 40 47 37 48 39 49 38 50 41 51
REMARK SMILES IDX 42 52 46 53 43 54 45 55 44 56
REMARK H PARENT 21 4 10 15 13 19 7 21 4 24 17 28 19 30 33 43
REMARK Flexibility Score: inf
ROOT
ATOM      1  N   UNL     1      26.643  35.350  16.085  1.00  0.00    -0.319 N 
ATOM      2  C   UNL     1      27.845  36.009  16.450  1.00  0.00     0.407 C 
ATOM      3  O   UNL     1      28.627  35.468  17.286  1.00  0.00    -0.225 OA
ATOM      4  H   UNL     1      26.043  35.870  15.379  1.00  0.00     0.167 HD
ENDROOT
BRANCH   1   5
ATOM      5  C   UNL     1      26.242  34.070  16.617  1.00  0.00     0.154 C 
BRANCH   5   6
ATOM      6  C   UNL     1      26.219  32.973  15.551  1.00  0.00     0.165 C 
BRANCH   6   7
ATOM      7  C   UNL     1      26.570  31.698  16.254  1.00  0.00     0.176 C 
BRANCH   7   8
ATOM      8  C   UNL     1      27.847  31.780  17.041  1.00  0.00     0.178 C 
ATOM      9  C   UNL     1      30.139  31.847  16.696  1.00  0.00     0.269 C 
ATOM     10  C   UNL     1      30.253  31.760  18.196  1.00  0.00     0.112 C 
ATOM     11  O   UNL     1      28.887  32.140  16.229  1.00  0.00    -0.332 OA
ATOM     12  C   UNL     1      29.230  30.872  18.817  1.00  0.00     0.145 C 
ATOM     13  C   UNL     1      28.184  30.499  17.767  1.00  0.00     0.142 C 
BRANCH   9  14
ATOM     14  O   UNL     1      30.604  30.639  16.166  1.00  0.00    -0.357 OA
ATOM     15  H   UNL     1      31.054  30.092  16.865  1.00  0.00     0.214 HD
ENDBRANCH   9  14
BRANCH   9  16
ATOM     16  C   UNL     1      31.060  32.921  16.253  1.00  0.00     0.364 C 
ATOM     17  O   UNL     1      31.885  32.683  15.338  1.00  0.00    -0.246 OA
BRANCH  16  18
ATOM     18  O   UNL     1      31.037  34.178  16.817  1.00  0.00    -0.477 OA
ATOM     19  H   UNL     1      31.207  35.004  16.227  1.00  0.00     0.296 HD
ENDBRANCH  16  18
ENDBRANCH   9  16
BRANCH  12  20
ATOM     20  O   UNL     1      29.729  29.776  19.474  1.00  0.00    -0.391 OA
ATOM     21  H   UNL     1      30.456  29.348  18.951  1.00  0.00     0.211 HD
ENDBRANCH  12  20
BRANCH  13  22
ATOM     22  N   UNL     1      27.009  29.939  18.419  1.00  0.00    -0.348 N 
ATOM     23  C   UNL     1      26.575  28.648  18.036  1.00  0.00     0.217 C 
ATOM     24  H   UNL     1      26.523  30.494  19.140  1.00  0.00     0.163 HD
ATOM     25  C   UNL     1      25.388  28.030  18.665  1.00  0.00     0.114 C 
ATOM     26  O   UNL     1      27.193  28.004  17.153  1.00  0.00    -0.275 OA
ENDBRANCH  13  22
ENDBRANCH   7   8
BRANCH   7  27
ATOM     27  O   UNL     1      26.528  30.633  15.377  1.00  0.00    -0.388 OA
ATOM     28  H   UNL     1      26.060  30.851  14.522  1.00  0.00     0.211 HD
ENDBRANCH   7  27
ENDBRANCH   6   7
BRANCH   6  29
ATOM     29  O   UNL     1      27.211  33.325  14.619  1.00  0.00    -0.388 OA
ATOM     30  H   UNL     1      26.719  33.390  13.746  1.00  0.00     0.211 HD
ENDBRANCH   6  29
ENDBRANCH   5   6
ENDBRANCH   1   5
BRANCH   2  31
ATOM     31  O   UNL     1      28.186  37.234  15.912  1.00  0.00    -0.443 OA
BRANCH  31  32
ATOM     32  C   UNL     1      29.285  37.372  15.002  1.00  0.00     0.294 C 
BRANCH  32  33
ATOM     33  C   UNL     1      29.270  36.288  13.995  1.00  0.00     0.120 A 
ATOM     34  C   UNL     1      28.550  36.313  12.790  1.00  0.00     0.138 A 
ATOM     35  N   UNL     1      29.891  35.103  13.982  1.00  0.00    -0.132 NA
ATOM     36  N   UNL     1      28.753  35.184  12.111  1.00  0.00    -0.251 N 
ATOM     37  N   UNL     1      29.592  34.447  12.874  1.00  0.00    -0.067 NA
BRANCH  36  38
ATOM     38  C   UNL     1      28.291  34.700  10.842  1.00  0.00     0.162 C 
BRANCH  38  39
ATOM     39  C   UNL     1      28.729  35.461   9.636  1.00  0.00     0.132 C 
BRANCH  39  40
ATOM     40  C   UNL     1      29.918  34.863   9.027  1.00  0.00     0.309 C 
ATOM     41  O   UNL     1      30.229  33.660   9.057  1.00  0.00    -0.252 OA
BRANCH  40  42
ATOM     42  O   UNL     1      30.828  35.688   8.331  1.00  0.00    -0.481 OA
ATOM     43  H   UNL     1      30.780  35.716   7.309  1.00  0.00     0.296 HD
ENDBRANCH  40  42
ENDBRANCH  39  40
BRANCH  39  44
ATOM     44  C   UNL     1      27.600  35.642   8.637  1.00  0.00     0.065 C 
BRANCH  44  45
ATOM     45  C   UNL     1      27.942  36.649   7.605  1.00  0.00    -0.040 A 
ATOM     46  C   UNL     1      28.350  37.941   7.955  1.00  0.00     0.004 A 
ATOM     47  C   UNL     1      27.876  36.366   6.254  1.00  0.00     0.004 A 
ATOM     48  C   UNL     1      28.669  38.877   6.997  1.00  0.00     0.000 A 
ATOM     49  C   UNL     1      28.190  37.286   5.288  1.00  0.00     0.000 A 
ATOM     50  C   UNL     1      28.589  38.549   5.642  1.00  0.00     0.000 A 
ENDBRANCH  44  45
BRANCH  44  51
ATOM     51  C   UNL     1      26.320  36.012   9.250  1.00  0.00    -0.040 A 
ATOM     52  C   UNL     1      25.204  35.220   8.949  1.00  0.00     0.004 A 
ATOM     53  C   UNL     1      26.156  37.086  10.098  1.00  0.00     0.004 A 
ATOM     54  C   UNL     1      23.987  35.535   9.505  1.00  0.00     0.000 A 
ATOM     55  C   UNL     1      24.938  37.402  10.656  1.00  0.00     0.000 A 
ATOM     56  C   UNL     1      23.825  36.622  10.363  1.00  0.00     0.000 A 
ENDBRANCH  44  51
ENDBRANCH  39  44
ENDBRANCH  38  39
ENDBRANCH  36  38
ENDBRANCH  32  33
ENDBRANCH  31  32
ENDBRANCH   2  31
TORSDOF 21
BEGIN_RES LYS A 131
REMARK  4 active torsions:
REMARK  status: ('A' for Active; 'I' for Inactive)
REMARK    1  A    between atoms: CA   and  CB  
REMARK    2  A    between atoms: CB   and  CG  
REMARK    3  A    between atoms: CG   and  CD  
REMARK    4  A    between atoms: CD   and  CE  
ROOT
ATOM      1  CA  LYS A 131      29.867  25.555  16.977  1.00 20.52     0.186 C 
ENDROOT
BRANCH   1   2
ATOM      2  CB  LYS A 131      28.345  25.722  17.026  1.00 20.94     0.034 C 
BRANCH   2   3
ATOM      3  CG  LYS A 131      27.601  24.402  16.889  1.00 22.96     0.005 C 
BRANCH   3   4
ATOM      4  CD  LYS A 131      26.153  24.526  17.273  1.00 24.33     0.041 C 
BRANCH   4   5
ATOM      5  CE  LYS A 131      25.569  23.138  17.513  1.00 26.91     0.338 C 
ATOM      6  NZ  LYS A 131      24.130  23.112  17.162  1.00 27.40     0.618 N 
ENDBRANCH   4   5
ENDBRANCH   3   4
ENDBRANCH   2   3
ENDBRANCH   1   2
END_RES LYS A 131
BEGIN_RES LYS A 135
REMARK  4 active torsions:
REMARK  status: ('A' for Active; 'I' for Inactive)
REMARK    5  A    between atoms: CA   and  CB  
REMARK    6  A    between atoms: CB   and  CG  
REMARK    7  A    between atoms: CG   and  CD  
REMARK    8  A    between atoms: CD   and  CE  
ROOT
ATOM      7  CA  LYS A 135      33.193  34.663   9.290  1.00 25.02     0.186 C 
ENDROOT
BRANCH   7   8
ATOM      8  CB  LYS A 135      32.060  35.360  10.034  1.00 26.63     0.034 C 
BRANCH   8   9
ATOM      9  CG  LYS A 135      32.496  36.013  11.320  1.00 29.45     0.005 C 
BRANCH   9  10
ATOM     10  CD  LYS A 135      31.792  37.348  11.510  1.00 32.00     0.041 C 
BRANCH  10  11
ATOM     11  CE  LYS A 135      32.008  38.241  10.303  1.00 34.25     0.338 C 
ATOM     12  NZ  LYS A 135      30.913  39.241  10.172  1.00 35.99     0.618 N 
ENDBRANCH  10  11
ENDBRANCH   9  10
ENDBRANCH   8   9
ENDBRANCH   7   8
END_RES LYS A 135
