REMARK VINA RESULT:    -4.240      8.092     14.182
REMARK INTER + INTRA:         -14.764
REMARK INTER:                  -7.595
REMARK INTRA:                  -7.169
REMARK UNBOUND:                -5.938
REMARK SMILES CCOC(CCn1cc(COC(=O)NC[C@@H](O)C(O)[C@@H]2O[C@@](O)(C(=O)O)C[C@H](O)[C@H]2NC(C)=O)nn1)OCC
REMARK SMILES IDX 11 1 12 2 14 3 13 5 15 6 16 7 18 8 20 9 22 10 27 11 21 12
REMARK SMILES IDX 28 13 30 14 23 15 24 17 25 18 26 19 29 21 31 23 32 24 33 26
REMARK SMILES IDX 34 27 19 28 17 30 10 32 9 33 8 34 35 35 7 36 36 37 6 38 5 39
REMARK SMILES IDX 4 40 3 41 2 42 1 43 37 44 38 45 39 46
REMARK H PARENT 14 4 23 16 26 20 29 22 31 25 19 29 17 31
REMARK Flexibility Score: inf
ROOT
ATOM      1  O   UNL     1      24.780  41.049   7.756  1.00  0.00    -0.443 OA
ENDROOT
BRANCH   1   2
ATOM      2  C   UNL     1      25.927  40.891   6.964  1.00  0.00     0.407 C 
ATOM      3  N   UNL     1      25.927  40.084   5.807  1.00  0.00    -0.319 N 
ATOM      4  H   UNL     1      24.990  39.620   5.577  1.00  0.00     0.167 HD
ATOM      5  O   UNL     1      26.949  41.485   7.316  1.00  0.00    -0.225 OA
BRANCH   3   6
ATOM      6  C   UNL     1      27.019  39.826   4.923  1.00  0.00     0.154 C 
BRANCH   6   7
ATOM      7  C   UNL     1      27.691  38.523   5.247  1.00  0.00     0.165 C 
BRANCH   7   8
ATOM      8  C   UNL     1      29.044  38.887   5.854  1.00  0.00     0.176 C 
BRANCH   8   9
ATOM      9  C   UNL     1      29.184  38.374   7.253  1.00  0.00     0.178 C 
ATOM     10  C   UNL     1      28.280  38.739   9.357  1.00  0.00     0.269 C 
ATOM     11  C   UNL     1      29.471  38.047   9.934  1.00  0.00     0.112 C 
ATOM     12  O   UNL     1      28.057  38.489   8.011  1.00  0.00    -0.332 OA
ATOM     13  C   UNL     1      30.720  38.142   9.106  1.00  0.00     0.145 C 
ATOM     14  C   UNL     1      30.405  39.010   7.908  1.00  0.00     0.142 C 
BRANCH  10  15
ATOM     15  O   UNL     1      28.327  40.108   9.630  1.00  0.00    -0.357 OA
ATOM     16  H   UNL     1      28.876  40.526   8.901  1.00  0.00     0.214 HD
ENDBRANCH  10  15
BRANCH  10  17
ATOM     17  C   UNL     1      27.089  38.196  10.072  1.00  0.00     0.364 C 
ATOM     18  O   UNL     1      26.843  38.520  11.253  1.00  0.00    -0.246 OA
BRANCH  17  19
ATOM     19  O   UNL     1      26.240  37.304   9.391  1.00  0.00    -0.477 OA
ATOM     20  H   UNL     1      26.217  37.411   8.378  1.00  0.00     0.296 HD
ENDBRANCH  17  19
ENDBRANCH  10  17
BRANCH  13  21
ATOM     21  O   UNL     1      31.822  38.596   9.820  1.00  0.00    -0.391 OA
ATOM     22  H   UNL     1      32.423  37.815   9.931  1.00  0.00     0.211 HD
ENDBRANCH  13  21
BRANCH  14  23
ATOM     23  N   UNL     1      31.476  39.005   6.933  1.00  0.00    -0.348 N 
ATOM     24  C   UNL     1      32.458  40.031   6.972  1.00  0.00     0.217 C 
ATOM     25  H   UNL     1      31.579  38.290   6.193  1.00  0.00     0.163 HD
ATOM     26  C   UNL     1      33.584  40.105   6.019  1.00  0.00     0.114 C 
ATOM     27  O   UNL     1      32.364  40.920   7.862  1.00  0.00    -0.275 OA
ENDBRANCH  14  23
ENDBRANCH   8   9
BRANCH   8  28
ATOM     28  O   UNL     1      29.204  40.261   5.776  1.00  0.00    -0.388 OA
ATOM     29  H   UNL     1      30.158  40.533   5.692  1.00  0.00     0.211 HD
ENDBRANCH   8  28
ENDBRANCH   7   8
BRANCH   7  30
ATOM     30  O   UNL     1      27.946  37.807   4.105  1.00  0.00    -0.388 OA
ATOM     31  H   UNL     1      27.669  38.278   3.278  1.00  0.00     0.211 HD
ENDBRANCH   7  30
ENDBRANCH   6   7
ENDBRANCH   3   6
ENDBRANCH   1   2
BRANCH   1  32
ATOM     32  C   UNL     1      23.581  40.352   7.430  1.00  0.00     0.294 C 
BRANCH  32  33
ATOM     33  C   UNL     1      23.404  39.224   8.362  1.00  0.00     0.120 A 
ATOM     34  C   UNL     1      22.911  37.985   7.943  1.00  0.00     0.138 A 
ATOM     35  N   UNL     1      23.627  39.086   9.661  1.00  0.00    -0.132 NA
ATOM     36  N   UNL     1      22.861  37.160   9.010  1.00  0.00    -0.252 N 
ATOM     37  N   UNL     1      23.296  37.842  10.030  1.00  0.00    -0.067 NA
BRANCH  36  38
ATOM     38  C   UNL     1      22.399  35.802   8.951  1.00  0.00     0.151 C 
BRANCH  38  39
ATOM     39  C   UNL     1      21.296  35.595   7.940  1.00  0.00     0.086 C 
BRANCH  39  40
ATOM     40  C   UNL     1      19.927  35.667   8.543  1.00  0.00     0.251 C 
BRANCH  40  41
ATOM     41  O   UNL     1      19.219  34.537   8.152  1.00  0.00    -0.353 OA
BRANCH  41  42
ATOM     42  C   UNL     1      18.411  34.084   9.202  1.00  0.00     0.160 C 
ATOM     43  C   UNL     1      19.153  34.089  10.513  1.00  0.00     0.035 C 
ENDBRANCH  41  42
ENDBRANCH  40  41
BRANCH  40  44
ATOM     44  O   UNL     1      19.234  36.785   8.158  1.00  0.00    -0.353 OA
BRANCH  44  45
ATOM     45  C   UNL     1      19.018  37.666   9.217  1.00  0.00     0.160 C 
ATOM     46  C   UNL     1      19.598  39.027   8.846  1.00  0.00     0.035 C 
ENDBRANCH  44  45
ENDBRANCH  40  44
ENDBRANCH  39  40
ENDBRANCH  38  39
ENDBRANCH  36  38
ENDBRANCH  32  33
ENDBRANCH   1  32
TORSDOF 21
BEGIN_RES LYS A 131
REMARK  4 active torsions:
REMARK  status: ('A' for Active; 'I' for Inactive)
REMARK    1  A    between atoms: CA   and  CB  
REMARK    2  A    between atoms: CB   and  CG  
REMARK    3  A    between atoms: CG   and  CD  
REMARK    4  A    between atoms: CD   and  CE  
ROOT
ATOM      1  CA  LYS A 131      29.867  25.555  16.977  1.00 20.52     0.186 C 
ENDROOT
BRANCH   1   2
ATOM      2  CB  LYS A 131      28.345  25.722  17.026  1.00 20.94     0.034 C 
BRANCH   2   3
ATOM      3  CG  LYS A 131      27.601  24.403  16.888  1.00 22.96     0.005 C 
BRANCH   3   4
ATOM      4  CD  LYS A 131      26.519  24.252  17.921  1.00 24.33     0.041 C 
BRANCH   4   5
ATOM      5  CE  LYS A 131      25.167  24.121  17.227  1.00 26.91     0.338 C 
ATOM      6  NZ  LYS A 131      24.604  22.767  17.437  1.00 27.40     0.618 N 
ENDBRANCH   4   5
ENDBRANCH   3   4
ENDBRANCH   2   3
ENDBRANCH   1   2
END_RES LYS A 131
BEGIN_RES LYS A 135
REMARK  4 active torsions:
REMARK  status: ('A' for Active; 'I' for Inactive)
REMARK    5  A    between atoms: CA   and  CB  
REMARK    6  A    between atoms: CB   and  CG  
REMARK    7  A    between atoms: CG   and  CD  
REMARK    8  A    between atoms: CD   and  CE  
ROOT
ATOM      7  CA  LYS A 135      33.193  34.663   9.290  1.00 25.02     0.186 C 
ENDROOT
BRANCH   7   8
ATOM      8  CB  LYS A 135      32.060  35.360  10.034  1.00 26.63     0.034 C 
BRANCH   8   9
ATOM      9  CG  LYS A 135      30.744  34.631   9.947  1.00 29.45     0.005 C 
BRANCH   9  10
ATOM     10  CD  LYS A 135      30.299  34.499   8.499  1.00 32.00     0.041 C 
BRANCH  10  11
ATOM     11  CE  LYS A 135      28.791  34.626   8.391  1.00 34.25     0.338 C 
ATOM     12  NZ  LYS A 135      28.109  33.826   9.445  1.00 35.99     0.618 N 
ENDBRANCH  10  11
ENDBRANCH   9  10
ENDBRANCH   8   9
ENDBRANCH   7   8
END_RES LYS A 135
