REMARK VINA RESULT:    -5.824      0.000      0.000
REMARK INTER + INTRA:         -18.251
REMARK INTER:                 -12.054
REMARK INTRA:                  -6.197
REMARK UNBOUND:                -6.299
REMARK SMILES CC(=O)N[C@@H]1[C@@H](O)C[C@](O)(C(=O)O)O[C@H]1C(O)[C@H](O)CNC(=O)OCc1cn(C[C@@H](C(=O)O)C(c2ccccc2)c2ccccc2)nn1
REMARK SMILES IDX 21 1 22 2 23 3 20 5 18 6 16 7 15 8 9 9 8 10 14 11 6 12 5 13
REMARK SMILES IDX 10 14 11 16 12 17 13 18 7 20 4 22 2 23 1 25 3 26 17 27 19 29
REMARK SMILES IDX 24 31 25 32 26 33 27 34 48 35 28 36 47 37 29 38 30 39 31 40
REMARK SMILES IDX 32 41 33 42 34 44 35 45 36 46 40 47 37 48 39 49 38 50 41 51
REMARK SMILES IDX 42 52 46 53 43 54 45 55 44 56
REMARK H PARENT 21 4 10 15 13 19 7 21 4 24 17 28 19 30 33 43
REMARK Flexibility Score: inf
ROOT
ATOM      1  N   UNL     1      31.370  33.074  15.818  1.00  0.00    -0.319 N 
ATOM      2  C   UNL     1      32.209  34.216  15.753  1.00  0.00     0.407 C 
ATOM      3  O   UNL     1      32.233  35.032  16.720  1.00  0.00    -0.225 OA
ATOM      4  H   UNL     1      31.407  32.440  14.966  1.00  0.00     0.167 HD
ENDROOT
BRANCH   1   5
ATOM      5  C   UNL     1      30.521  32.773  16.945  1.00  0.00     0.154 C 
BRANCH   5   6
ATOM      6  C   UNL     1      29.101  32.391  16.524  1.00  0.00     0.165 C 
BRANCH   6   7
ATOM      7  C   UNL     1      29.187  31.002  15.970  1.00  0.00     0.176 C 
BRANCH   7   8
ATOM      8  C   UNL     1      28.024  30.132  16.351  1.00  0.00     0.178 C 
ATOM      9  C   UNL     1      25.706  30.167  16.333  1.00  0.00     0.269 C 
ATOM     10  C   UNL     1      25.793  28.862  17.083  1.00  0.00     0.112 C 
ATOM     11  O   UNL     1      26.876  30.581  15.760  1.00  0.00    -0.332 OA
ATOM     12  C   UNL     1      26.914  28.817  18.063  1.00  0.00     0.145 C 
ATOM     13  C   UNL     1      27.822  30.026  17.844  1.00  0.00     0.142 C 
BRANCH   9  14
ATOM     14  O   UNL     1      25.209  31.130  17.217  1.00  0.00    -0.357 OA
ATOM     15  H   UNL     1      25.853  31.301  17.957  1.00  0.00     0.214 HD
ENDBRANCH   9  14
BRANCH   9  16
ATOM     16  C   UNL     1      24.704  29.981  15.256  1.00  0.00     0.364 C 
ATOM     17  O   UNL     1      23.566  29.539  15.545  1.00  0.00    -0.246 OA
BRANCH  16  18
ATOM     18  O   UNL     1      24.986  30.282  13.940  1.00  0.00    -0.477 OA
ATOM     19  H   UNL     1      24.215  30.409  13.270  1.00  0.00     0.296 HD
ENDBRANCH  16  18
ENDBRANCH   9  16
BRANCH  12  20
ATOM     20  O   UNL     1      26.537  28.674  19.375  1.00  0.00    -0.391 OA
ATOM     21  H   UNL     1      25.590  28.385  19.444  1.00  0.00     0.211 HD
ENDBRANCH  12  20
BRANCH  13  22
ATOM     22  N   UNL     1      29.089  29.823  18.533  1.00  0.00    -0.348 N 
ATOM     23  C   UNL     1      29.363  30.597  19.685  1.00  0.00     0.217 C 
ATOM     24  H   UNL     1      29.751  29.122  18.167  1.00  0.00     0.163 HD
ATOM     25  C   UNL     1      30.633  30.432  20.424  1.00  0.00     0.114 C 
ATOM     26  O   UNL     1      28.530  31.441  20.099  1.00  0.00    -0.275 OA
ENDBRANCH  13  22
ENDBRANCH   7   8
BRANCH   7  27
ATOM     27  O   UNL     1      30.415  30.441  16.256  1.00  0.00    -0.388 OA
ATOM     28  H   UNL     1      30.357  29.689  16.910  1.00  0.00     0.211 HD
ENDBRANCH   7  27
ENDBRANCH   6   7
BRANCH   6  29
ATOM     29  O   UNL     1      28.739  33.311  15.524  1.00  0.00    -0.388 OA
ATOM     30  H   UNL     1      29.594  33.492  15.032  1.00  0.00     0.211 HD
ENDBRANCH   6  29
ENDBRANCH   5   6
ENDBRANCH   1   5
BRANCH   2  31
ATOM     31  O   UNL     1      33.006  34.461  14.652  1.00  0.00    -0.443 OA
BRANCH  31  32
ATOM     32  C   UNL     1      32.618  35.401  13.642  1.00  0.00     0.294 C 
BRANCH  32  33
ATOM     33  C   UNL     1      31.180  35.263  13.322  1.00  0.00     0.120 A 
ATOM     34  C   UNL     1      30.272  36.326  13.202  1.00  0.00     0.138 A 
ATOM     35  N   UNL     1      30.442  34.172  13.086  1.00  0.00    -0.132 NA
ATOM     36  N   UNL     1      29.058  35.862  12.906  1.00  0.00    -0.251 N 
ATOM     37  N   UNL     1      29.191  34.517  12.838  1.00  0.00    -0.067 NA
BRANCH  36  38
ATOM     38  C   UNL     1      27.794  36.493  12.657  1.00  0.00     0.162 C 
BRANCH  38  39
ATOM     39  C   UNL     1      26.575  35.669  12.907  1.00  0.00     0.132 C 
BRANCH  39  40
ATOM     40  C   UNL     1      26.009  35.937  14.229  1.00  0.00     0.309 C 
ATOM     41  O   UNL     1      25.298  36.909  14.538  1.00  0.00    -0.252 OA
BRANCH  40  42
ATOM     42  O   UNL     1      26.266  35.038  15.287  1.00  0.00    -0.481 OA
ATOM     43  H   UNL     1      25.548  34.351  15.532  1.00  0.00     0.296 HD
ENDBRANCH  40  42
ENDBRANCH  39  40
BRANCH  39  44
ATOM     44  C   UNL     1      25.548  35.825  11.799  1.00  0.00     0.065 C 
BRANCH  44  45
ATOM     45  C   UNL     1      24.354  34.982  12.041  1.00  0.00    -0.040 A 
ATOM     46  C   UNL     1      24.460  33.727  12.653  1.00  0.00     0.004 A 
ATOM     47  C   UNL     1      23.084  35.388  11.679  1.00  0.00     0.004 A 
ATOM     48  C   UNL     1      23.350  32.943  12.879  1.00  0.00     0.000 A 
ATOM     49  C   UNL     1      21.969  34.620  11.897  1.00  0.00     0.000 A 
ATOM     50  C   UNL     1      22.085  33.392  12.498  1.00  0.00     0.000 A 
ENDBRANCH  44  45
BRANCH  44  51
ATOM     51  C   UNL     1      26.070  35.528  10.461  1.00  0.00    -0.040 A 
ATOM     52  C   UNL     1      26.826  34.359  10.305  1.00  0.00     0.004 A 
ATOM     53  C   UNL     1      25.860  36.328   9.359  1.00  0.00     0.004 A 
ATOM     54  C   UNL     1      27.331  34.045   9.065  1.00  0.00     0.000 A 
ATOM     55  C   UNL     1      26.366  36.016   8.117  1.00  0.00     0.000 A 
ATOM     56  C   UNL     1      27.117  34.858   7.952  1.00  0.00     0.000 A 
ENDBRANCH  44  51
ENDBRANCH  39  44
ENDBRANCH  38  39
ENDBRANCH  36  38
ENDBRANCH  32  33
ENDBRANCH  31  32
ENDBRANCH   2  31
TORSDOF 21
BEGIN_RES LYS A 131
REMARK  4 active torsions:
REMARK  status: ('A' for Active; 'I' for Inactive)
REMARK    1  A    between atoms: CA   and  CB  
REMARK    2  A    between atoms: CB   and  CG  
REMARK    3  A    between atoms: CG   and  CD  
REMARK    4  A    between atoms: CD   and  CE  
ROOT
ATOM      1  CA  LYS A 131      29.867  25.555  16.977  1.00 20.52     0.186 C 
ENDROOT
BRANCH   1   2
ATOM      2  CB  LYS A 131      28.345  25.722  17.026  1.00 20.94     0.034 C 
BRANCH   2   3
ATOM      3  CG  LYS A 131      27.599  24.423  16.763  1.00 22.96     0.005 C 
BRANCH   3   4
ATOM      4  CD  LYS A 131      26.927  23.895  18.001  1.00 24.33     0.041 C 
BRANCH   4   5
ATOM      5  CE  LYS A 131      25.560  23.327  17.634  1.00 26.91     0.338 C 
ATOM      6  NZ  LYS A 131      24.760  24.334  16.898  1.00 27.40     0.618 N 
ENDBRANCH   4   5
ENDBRANCH   3   4
ENDBRANCH   2   3
ENDBRANCH   1   2
END_RES LYS A 131
BEGIN_RES LYS A 135
REMARK  4 active torsions:
REMARK  status: ('A' for Active; 'I' for Inactive)
REMARK    5  A    between atoms: CA   and  CB  
REMARK    6  A    between atoms: CB   and  CG  
REMARK    7  A    between atoms: CG   and  CD  
REMARK    8  A    between atoms: CD   and  CE  
ROOT
ATOM      7  CA  LYS A 135      33.193  34.663   9.290  1.00 25.02     0.186 C 
ENDROOT
BRANCH   7   8
ATOM      8  CB  LYS A 135      32.060  35.360  10.034  1.00 26.63     0.034 C 
BRANCH   8   9
ATOM      9  CG  LYS A 135      30.728  35.255   9.338  1.00 29.45     0.005 C 
BRANCH   9  10
ATOM     10  CD  LYS A 135      30.352  36.580   8.694  1.00 32.00     0.041 C 
BRANCH  10  11
ATOM     11  CE  LYS A 135      29.449  37.381   9.612  1.00 34.25     0.338 C 
ATOM     12  NZ  LYS A 135      30.199  38.485  10.274  1.00 35.99     0.618 N 
ENDBRANCH  10  11
ENDBRANCH   9  10
ENDBRANCH   8   9
ENDBRANCH   7   8
END_RES LYS A 135
