REMARK VINA RESULT:    -5.743      3.294      6.844
REMARK INTER + INTRA:         -16.101
REMARK INTER:                 -10.357
REMARK INTRA:                  -5.744
REMARK UNBOUND:                -5.490
REMARK SMILES CC(=O)N[C@@H]1[C@@H](O)C[C@](O)(C(=O)O)O[C@H]1C(O)[C@H](O)CNC(=O)OCc1cn(C(c2ccccc2)c2ccccc2)nn1
REMARK SMILES IDX 21 1 22 2 23 3 20 5 18 6 16 7 15 8 9 9 8 10 14 11 6 12 5 13
REMARK SMILES IDX 10 14 11 16 12 17 13 18 7 20 4 22 2 23 1 25 3 26 17 27 19 29
REMARK SMILES IDX 24 31 25 32 26 33 27 34 43 35 28 36 42 37 29 38 30 39 31 40
REMARK SMILES IDX 35 41 32 42 34 43 33 44 36 45 37 46 41 47 38 48 40 49 39 50
REMARK H PARENT 21 4 10 15 13 19 7 21 4 24 17 28 19 30
REMARK Flexibility Score: inf
ROOT
ATOM      1  N   UNL     1      30.066  32.213  17.248  1.00  0.00    -0.319 N 
ATOM      2  C   UNL     1      28.948  32.600  18.019  1.00  0.00     0.407 C 
ATOM      3  O   UNL     1      28.823  33.790  18.395  1.00  0.00    -0.225 OA
ATOM      4  H   UNL     1      30.142  31.218  16.955  1.00  0.00     0.167 HD
ENDROOT
BRANCH   1   5
ATOM      5  C   UNL     1      31.076  33.150  16.870  1.00  0.00     0.154 C 
BRANCH   5   6
ATOM      6  C   UNL     1      31.524  32.842  15.441  1.00  0.00     0.165 C 
BRANCH   6   7
ATOM      7  C   UNL     1      30.832  33.875  14.566  1.00  0.00     0.176 C 
BRANCH   7   8
ATOM      8  C   UNL     1      31.055  35.302  14.979  1.00  0.00     0.178 C 
ATOM      9  C   UNL     1      30.077  36.428  13.157  1.00  0.00     0.269 C 
ATOM     10  C   UNL     1      31.436  36.870  12.663  1.00  0.00     0.112 C 
ATOM     11  O   UNL     1      30.013  36.040  14.453  1.00  0.00    -0.332 OA
ATOM     12  C   UNL     1      32.547  35.978  13.130  1.00  0.00     0.145 C 
ATOM     13  C   UNL     1      32.393  35.809  14.612  1.00  0.00     0.142 C 
BRANCH   9  14
ATOM     14  O   UNL     1      29.721  35.344  12.352  1.00  0.00    -0.357 OA
ATOM     15  H   UNL     1      28.780  35.505  12.058  1.00  0.00     0.214 HD
ENDBRANCH   9  14
BRANCH   9  16
ATOM     16  C   UNL     1      29.087  37.525  12.855  1.00  0.00     0.364 C 
ATOM     17  O   UNL     1      28.171  37.803  13.635  1.00  0.00    -0.246 OA
BRANCH  16  18
ATOM     18  O   UNL     1      29.227  38.219  11.676  1.00  0.00    -0.477 OA
ATOM     19  H   UNL     1      28.405  38.679  11.267  1.00  0.00     0.296 HD
ENDBRANCH  16  18
ENDBRANCH   9  16
BRANCH  12  20
ATOM     20  O   UNL     1      32.502  34.816  12.415  1.00  0.00    -0.391 OA
ATOM     21  H   UNL     1      32.108  34.072  12.948  1.00  0.00     0.211 HD
ENDBRANCH  12  20
BRANCH  13  22
ATOM     22  N   UNL     1      32.644  37.132  15.220  1.00  0.00    -0.348 N 
ATOM     23  C   UNL     1      33.341  37.279  16.431  1.00  0.00     0.217 C 
ATOM     24  H   UNL     1      32.282  37.973  14.723  1.00  0.00     0.163 HD
ATOM     25  C   UNL     1      33.572  38.629  17.009  1.00  0.00     0.114 C 
ATOM     26  O   UNL     1      33.781  36.267  17.044  1.00  0.00    -0.275 OA
ENDBRANCH  13  22
ENDBRANCH   7   8
BRANCH   7  27
ATOM     27  O   UNL     1      29.426  33.593  14.736  1.00  0.00    -0.388 OA
ATOM     28  H   UNL     1      28.973  33.571  13.879  1.00  0.00     0.211 HD
ENDBRANCH   7  27
ENDBRANCH   6   7
BRANCH   6  29
ATOM     29  O   UNL     1      31.079  31.553  15.189  1.00  0.00    -0.388 OA
ATOM     30  H   UNL     1      30.744  31.429  14.280  1.00  0.00     0.211 HD
ENDBRANCH   6  29
ENDBRANCH   5   6
ENDBRANCH   1   5
BRANCH   2  31
ATOM     31  O   UNL     1      27.961  31.693  18.386  1.00  0.00    -0.443 OA
BRANCH  31  32
ATOM     32  C   UNL     1      27.754  30.559  17.589  1.00  0.00     0.294 C 
BRANCH  32  33
ATOM     33  C   UNL     1      26.558  30.779  16.736  1.00  0.00     0.120 A 
ATOM     34  C   UNL     1      26.584  31.233  15.414  1.00  0.00     0.139 A 
ATOM     35  N   UNL     1      25.252  30.612  17.004  1.00  0.00    -0.132 NA
ATOM     36  N   UNL     1      25.332  31.317  14.960  1.00  0.00    -0.240 N 
ATOM     37  N   UNL     1      24.541  30.940  15.930  1.00  0.00    -0.066 NA
BRANCH  36  38
ATOM     38  C   UNL     1      24.884  31.744  13.643  1.00  0.00     0.169 C 
BRANCH  38  39
ATOM     39  C   UNL     1      23.751  30.945  13.174  1.00  0.00    -0.019 A 
ATOM     40  C   UNL     1      22.490  31.508  12.941  1.00  0.00     0.006 A 
ATOM     41  C   UNL     1      23.911  29.596  12.929  1.00  0.00     0.006 A 
ATOM     42  C   UNL     1      21.446  30.736  12.483  1.00  0.00     0.000 A 
ATOM     43  C   UNL     1      22.848  28.844  12.471  1.00  0.00     0.000 A 
ATOM     44  C   UNL     1      21.601  29.386  12.237  1.00  0.00     0.000 A 
ENDBRANCH  38  39
BRANCH  38  45
ATOM     45  C   UNL     1      24.754  33.197  13.512  1.00  0.00    -0.019 A 
ATOM     46  C   UNL     1      24.188  33.958  14.550  1.00  0.00     0.006 A 
ATOM     47  C   UNL     1      25.189  33.840  12.378  1.00  0.00     0.006 A 
ATOM     48  C   UNL     1      24.071  35.319  14.435  1.00  0.00     0.000 A 
ATOM     49  C   UNL     1      25.063  35.230  12.272  1.00  0.00     0.000 A 
ATOM     50  C   UNL     1      24.508  35.960  13.297  1.00  0.00     0.000 A 
ENDBRANCH  38  45
ENDBRANCH  36  38
ENDBRANCH  32  33
ENDBRANCH  31  32
ENDBRANCH   2  31
TORSDOF 17
BEGIN_RES LYS A 131
REMARK  4 active torsions:
REMARK  status: ('A' for Active; 'I' for Inactive)
REMARK    1  A    between atoms: CA   and  CB  
REMARK    2  A    between atoms: CB   and  CG  
REMARK    3  A    between atoms: CG   and  CD  
REMARK    4  A    between atoms: CD   and  CE  
ROOT
ATOM      1  CA  LYS A 131      29.867  25.555  16.977  1.00 20.52     0.186 C 
ENDROOT
BRANCH   1   2
ATOM      2  CB  LYS A 131      28.345  25.722  17.026  1.00 20.94     0.034 C 
BRANCH   2   3
ATOM      3  CG  LYS A 131      27.601  24.403  16.883  1.00 22.96     0.005 C 
BRANCH   3   4
ATOM      4  CD  LYS A 131      26.162  24.516  17.306  1.00 24.33     0.041 C 
BRANCH   4   5
ATOM      5  CE  LYS A 131      26.055  25.455  18.503  1.00 26.91     0.338 C 
ATOM      6  NZ  LYS A 131      25.466  24.749  19.665  1.00 27.40     0.618 N 
ENDBRANCH   4   5
ENDBRANCH   3   4
ENDBRANCH   2   3
ENDBRANCH   1   2
END_RES LYS A 131
BEGIN_RES LYS A 135
REMARK  4 active torsions:
REMARK  status: ('A' for Active; 'I' for Inactive)
REMARK    5  A    between atoms: CA   and  CB  
REMARK    6  A    between atoms: CB   and  CG  
REMARK    7  A    between atoms: CG   and  CD  
REMARK    8  A    between atoms: CD   and  CE  
ROOT
ATOM      7  CA  LYS A 135      33.193  34.663   9.290  1.00 25.02     0.186 C 
ENDROOT
BRANCH   7   8
ATOM      8  CB  LYS A 135      32.060  35.360  10.034  1.00 26.63     0.034 C 
BRANCH   8   9
ATOM      9  CG  LYS A 135      30.815  35.540   9.204  1.00 29.45     0.005 C 
BRANCH   9  10
ATOM     10  CD  LYS A 135      30.136  34.202   8.959  1.00 32.00     0.041 C 
BRANCH  10  11
ATOM     11  CE  LYS A 135      28.735  34.408   8.414  1.00 34.25     0.338 C 
ATOM     12  NZ  LYS A 135      28.674  35.605   7.530  1.00 35.99     0.618 N 
ENDBRANCH  10  11
ENDBRANCH   9  10
ENDBRANCH   8   9
ENDBRANCH   7   8
END_RES LYS A 135
