REMARK VINA RESULT:    -4.458      3.081      6.616
REMARK INTER + INTRA:         -14.503
REMARK INTER:                  -8.861
REMARK INTRA:                  -5.642
REMARK UNBOUND:                -5.744
REMARK SMILES CC(=O)N[C@@H]1[C@@H](O)C[C@](O)(C(=O)O)O[C@H]1C(O)[C@H](O)CNC(=O)OCc1cn([C@@H](CC(=O)O)C(=O)O)nn1
REMARK SMILES IDX 21 1 22 2 23 3 20 5 18 6 16 7 15 8 9 9 8 10 14 11 6 12 5 13
REMARK SMILES IDX 10 14 11 16 12 17 13 18 7 20 4 22 2 23 1 25 3 26 17 27 19 29
REMARK SMILES IDX 24 31 25 32 26 33 27 34 38 35 28 36 37 37 29 38 30 39 31 40
REMARK SMILES IDX 32 41 33 42 34 44 35 45 36 46
REMARK H PARENT 21 4 10 15 13 19 7 21 4 24 17 28 19 30 33 43 36 47
REMARK Flexibility Score: inf
ROOT
ATOM      1  N   UNL     1      27.874  29.177  17.350  1.00  0.00    -0.319 N 
ATOM      2  C   UNL     1      27.118  28.095  17.893  1.00  0.00     0.407 C 
ATOM      3  O   UNL     1      25.941  27.959  17.541  1.00  0.00    -0.225 OA
ATOM      4  H   UNL     1      28.868  29.230  17.696  1.00  0.00     0.167 HD
ENDROOT
BRANCH   1   5
ATOM      5  C   UNL     1      27.371  30.132  16.413  1.00  0.00     0.154 C 
BRANCH   5   6
ATOM      6  C   UNL     1      27.874  31.524  16.738  1.00  0.00     0.165 C 
BRANCH   6   7
ATOM      7  C   UNL     1      29.087  31.878  15.897  1.00  0.00     0.176 C 
BRANCH   7   8
ATOM      8  C   UNL     1      28.915  33.091  15.055  1.00  0.00     0.178 C 
ATOM      9  C   UNL     1      31.187  33.571  15.022  1.00  0.00     0.269 C 
ATOM     10  C   UNL     1      31.065  34.291  16.298  1.00  0.00     0.112 C 
ATOM     11  O   UNL     1      30.050  33.362  14.286  1.00  0.00    -0.332 OA
ATOM     12  C   UNL     1      29.731  34.759  16.728  1.00  0.00     0.145 C 
ATOM     13  C   UNL     1      28.586  34.316  15.862  1.00  0.00     0.142 C 
BRANCH   9  14
ATOM     14  O   UNL     1      31.755  32.285  15.213  1.00  0.00    -0.357 OA
ATOM     15  H   UNL     1      31.392  31.736  14.468  1.00  0.00     0.214 HD
ENDBRANCH   9  14
BRANCH   9  16
ATOM     16  C   UNL     1      32.149  34.256  14.115  1.00  0.00     0.364 C 
ATOM     17  O   UNL     1      33.275  34.678  14.468  1.00  0.00    -0.246 OA
BRANCH  16  18
ATOM     18  O   UNL     1      31.770  34.435  12.794  1.00  0.00    -0.477 OA
ATOM     19  H   UNL     1      31.098  33.811  12.327  1.00  0.00     0.296 HD
ENDBRANCH  16  18
ENDBRANCH   9  16
BRANCH  12  20
ATOM     20  O   UNL     1      29.485  34.391  18.048  1.00  0.00    -0.391 OA
ATOM     21  H   UNL     1      30.142  33.784  18.428  1.00  0.00     0.211 HD
ENDBRANCH  12  20
BRANCH  13  22
ATOM     22  N   UNL     1      28.204  35.405  14.929  1.00  0.00    -0.348 N 
ATOM     23  C   UNL     1      26.848  35.651  14.618  1.00  0.00     0.217 C 
ATOM     24  H   UNL     1      28.922  36.012  14.480  1.00  0.00     0.163 HD
ATOM     25  C   UNL     1      26.418  36.733  13.685  1.00  0.00     0.114 C 
ATOM     26  O   UNL     1      25.977  34.930  15.149  1.00  0.00    -0.275 OA
ENDBRANCH  13  22
ENDBRANCH   7   8
BRANCH   7  27
ATOM     27  O   UNL     1      29.233  30.736  15.058  1.00  0.00    -0.388 OA
ATOM     28  H   UNL     1      29.257  29.913  15.600  1.00  0.00     0.211 HD
ENDBRANCH   7  27
ENDBRANCH   6   7
BRANCH   6  29
ATOM     29  O   UNL     1      28.104  31.594  18.105  1.00  0.00    -0.388 OA
ATOM     30  H   UNL     1      29.021  31.885  18.335  1.00  0.00     0.211 HD
ENDBRANCH   6  29
ENDBRANCH   5   6
ENDBRANCH   1   5
BRANCH   2  31
ATOM     31  O   UNL     1      27.654  27.195  18.798  1.00  0.00    -0.443 OA
BRANCH  31  32
ATOM     32  C   UNL     1      27.741  27.530  20.161  1.00  0.00     0.294 C 
BRANCH  32  33
ATOM     33  C   UNL     1      29.128  27.831  20.589  1.00  0.00     0.120 A 
ATOM     34  C   UNL     1      29.688  29.081  20.471  1.00  0.00     0.139 A 
ATOM     35  N   UNL     1      30.055  27.045  21.130  1.00  0.00    -0.132 NA
ATOM     36  N   UNL     1      30.956  29.013  20.952  1.00  0.00    -0.237 N 
ATOM     37  N   UNL     1      31.135  27.781  21.334  1.00  0.00    -0.066 NA
BRANCH  36  38
ATOM     38  C   UNL     1      31.849  30.168  20.981  1.00  0.00     0.229 C 
BRANCH  38  39
ATOM     39  C   UNL     1      31.059  31.404  21.311  1.00  0.00     0.161 C 
BRANCH  39  40
ATOM     40  C   UNL     1      31.077  32.392  20.221  1.00  0.00     0.306 C 
ATOM     41  O   UNL     1      31.338  33.590  20.492  1.00  0.00    -0.252 OA
BRANCH  40  42
ATOM     42  O   UNL     1      30.806  31.978  18.926  1.00  0.00    -0.481 OA
ATOM     43  H   UNL     1      30.549  30.993  18.761  1.00  0.00     0.296 HD
ENDBRANCH  40  42
ENDBRANCH  39  40
ENDBRANCH  38  39
BRANCH  38  44
ATOM     44  C   UNL     1      32.832  29.970  22.081  1.00  0.00     0.329 C 
ATOM     45  O   UNL     1      32.899  30.701  23.101  1.00  0.00    -0.250 OA
BRANCH  44  46
ATOM     46  O   UNL     1      33.727  28.920  21.975  1.00  0.00    -0.480 OA
ATOM     47  H   UNL     1      33.876  28.413  21.111  1.00  0.00     0.296 HD
ENDBRANCH  44  46
ENDBRANCH  38  44
ENDBRANCH  36  38
ENDBRANCH  32  33
ENDBRANCH  31  32
ENDBRANCH   2  31
TORSDOF 20
BEGIN_RES LYS A 131
REMARK  4 active torsions:
REMARK  status: ('A' for Active; 'I' for Inactive)
REMARK    1  A    between atoms: CA   and  CB  
REMARK    2  A    between atoms: CB   and  CG  
REMARK    3  A    between atoms: CG   and  CD  
REMARK    4  A    between atoms: CD   and  CE  
ROOT
ATOM      1  CA  LYS A 131      29.867  25.555  16.977  1.00 20.52     0.186 C 
ENDROOT
BRANCH   1   2
ATOM      2  CB  LYS A 131      28.345  25.722  17.026  1.00 20.94     0.034 C 
BRANCH   2   3
ATOM      3  CG  LYS A 131      27.599  24.477  16.570  1.00 22.96     0.005 C 
BRANCH   3   4
ATOM      4  CD  LYS A 131      27.008  23.716  17.724  1.00 24.33     0.041 C 
BRANCH   4   5
ATOM      5  CE  LYS A 131      25.710  24.386  18.164  1.00 26.91     0.338 C 
ATOM      6  NZ  LYS A 131      24.548  23.748  17.503  1.00 27.40     0.618 N 
ENDBRANCH   4   5
ENDBRANCH   3   4
ENDBRANCH   2   3
ENDBRANCH   1   2
END_RES LYS A 131
BEGIN_RES LYS A 135
REMARK  4 active torsions:
REMARK  status: ('A' for Active; 'I' for Inactive)
REMARK    5  A    between atoms: CA   and  CB  
REMARK    6  A    between atoms: CB   and  CG  
REMARK    7  A    between atoms: CG   and  CD  
REMARK    8  A    between atoms: CD   and  CE  
ROOT
ATOM      7  CA  LYS A 135      33.193  34.663   9.290  1.00 25.02     0.186 C 
ENDROOT
BRANCH   7   8
ATOM      8  CB  LYS A 135      32.060  35.360  10.034  1.00 26.63     0.034 C 
BRANCH   8   9
ATOM      9  CG  LYS A 135      30.700  35.102   9.439  1.00 29.45     0.005 C 
BRANCH   9  10
ATOM     10  CD  LYS A 135      29.754  36.254   9.740  1.00 32.00     0.041 C 
BRANCH  10  11
ATOM     11  CE  LYS A 135      29.166  36.110  11.131  1.00 34.25     0.338 C 
ATOM     12  NZ  LYS A 135      28.689  34.720  11.370  1.00 35.99     0.618 N 
ENDBRANCH  10  11
ENDBRANCH   9  10
ENDBRANCH   8   9
ENDBRANCH   7   8
END_RES LYS A 135
