REMARK VINA RESULT:    -5.239      3.762      8.760
REMARK INTER + INTRA:         -15.322
REMARK INTER:                  -9.592
REMARK INTRA:                  -5.730
REMARK UNBOUND:                -5.794
REMARK SMILES CC(=O)N[C@@H]1[C@@H](O)C[C@](O)(C(=O)O)O[C@H]1C(O)[C@H](O)CNC(=O)OCc1cn(Cc2cc(Br)cc(Br)c2O)nn1
REMARK SMILES IDX 21 1 22 2 23 3 20 5 18 6 16 7 15 8 9 9 8 10 14 11 6 12 5 13
REMARK SMILES IDX 10 14 11 16 12 17 13 18 7 20 4 22 2 23 1 25 3 26 17 27 19 29
REMARK SMILES IDX 24 31 25 32 26 33 27 34 40 35 28 36 39 37 29 38 30 39 31 40
REMARK SMILES IDX 37 41 32 42 35 43 33 44 34 45 36 46 38 47
REMARK H PARENT 21 4 10 15 13 19 7 21 4 24 17 28 19 30 38 48
REMARK Flexibility Score: inf
ROOT
ATOM      1  N   UNL     1      28.244  31.964  17.019  1.00  0.00    -0.319 N 
ATOM      2  C   UNL     1      27.938  30.752  17.701  1.00  0.00     0.407 C 
ATOM      3  O   UNL     1      27.672  29.729  17.030  1.00  0.00    -0.225 OA
ATOM      4  H   UNL     1      28.460  32.795  17.597  1.00  0.00     0.167 HD
ENDROOT
BRANCH   1   5
ATOM      5  C   UNL     1      28.257  32.051  15.584  1.00  0.00     0.154 C 
BRANCH   5   6
ATOM      6  C   UNL     1      28.700  33.411  15.128  1.00  0.00     0.165 C 
BRANCH   6   7
ATOM      7  C   UNL     1      30.039  33.370  14.424  1.00  0.00     0.176 C 
BRANCH   7   8
ATOM      8  C   UNL     1      30.824  34.654  14.747  1.00  0.00     0.178 C 
ATOM      9  C   UNL     1      32.070  35.897  13.184  1.00  0.00     0.269 C 
ATOM     10  C   UNL     1      32.984  36.249  14.367  1.00  0.00     0.112 C 
ATOM     11  O   UNL     1      30.902  35.366  13.617  1.00  0.00    -0.332 OA
ATOM     12  C   UNL     1      33.326  34.892  14.963  1.00  0.00     0.145 C 
ATOM     13  C   UNL     1      32.043  34.328  15.501  1.00  0.00     0.142 C 
BRANCH   9  14
ATOM     14  O   UNL     1      32.819  35.074  12.367  1.00  0.00    -0.357 OA
ATOM     15  H   UNL     1      32.677  35.231  11.402  1.00  0.00     0.214 HD
ENDBRANCH   9  14
BRANCH   9  16
ATOM     16  C   UNL     1      31.755  37.139  12.435  1.00  0.00     0.364 C 
ATOM     17  O   UNL     1      32.324  37.339  11.333  1.00  0.00    -0.246 OA
BRANCH  16  18
ATOM     18  O   UNL     1      30.854  38.087  12.909  1.00  0.00    -0.477 OA
ATOM     19  H   UNL     1      30.051  37.708  13.432  1.00  0.00     0.296 HD
ENDBRANCH  16  18
ENDBRANCH   9  16
BRANCH  12  20
ATOM     20  O   UNL     1      33.909  34.064  14.006  1.00  0.00    -0.391 OA
ATOM     21  H   UNL     1      33.228  33.424  13.714  1.00  0.00     0.211 HD
ENDBRANCH  12  20
BRANCH  13  22
ATOM     22  N   UNL     1      31.969  34.715  16.909  1.00  0.00    -0.348 N 
ATOM     23  C   UNL     1      31.470  33.862  17.924  1.00  0.00     0.217 C 
ATOM     24  H   UNL     1      32.296  35.670  17.228  1.00  0.00     0.163 HD
ATOM     25  C   UNL     1      31.413  34.299  19.352  1.00  0.00     0.114 C 
ATOM     26  O   UNL     1      31.062  32.711  17.621  1.00  0.00    -0.275 OA
ENDBRANCH  13  22
ENDBRANCH   7   8
BRANCH   7  27
ATOM     27  O   UNL     1      30.768  32.234  14.672  1.00  0.00    -0.388 OA
ATOM     28  H   UNL     1      31.084  31.799  13.853  1.00  0.00     0.211 HD
ENDBRANCH   7  27
ENDBRANCH   6   7
BRANCH   6  29
ATOM     29  O   UNL     1      28.641  34.308  16.172  1.00  0.00    -0.388 OA
ATOM     30  H   UNL     1      28.834  35.231  15.924  1.00  0.00     0.211 HD
ENDBRANCH   6  29
ENDBRANCH   5   6
ENDBRANCH   1   5
BRANCH   2  31
ATOM     31  O   UNL     1      27.933  30.700  19.073  1.00  0.00    -0.443 OA
BRANCH  31  32
ATOM     32  C   UNL     1      28.863  31.427  19.855  1.00  0.00     0.294 C 
BRANCH  32  33
ATOM     33  C   UNL     1      29.981  30.521  20.229  1.00  0.00     0.120 A 
ATOM     34  C   UNL     1      29.921  29.142  20.382  1.00  0.00     0.138 A 
ATOM     35  N   UNL     1      31.266  30.822  20.494  1.00  0.00    -0.132 NA
ATOM     36  N   UNL     1      31.133  28.680  20.724  1.00  0.00    -0.248 N 
ATOM     37  N   UNL     1      31.954  29.741  20.788  1.00  0.00    -0.067 NA
BRANCH  36  38
ATOM     38  C   UNL     1      31.521  27.320  20.978  1.00  0.00     0.185 C 
BRANCH  38  39
ATOM     39  C   UNL     1      31.515  26.975  22.423  1.00  0.00     0.018 A 
ATOM     40  C   UNL     1      30.372  26.412  22.954  1.00  0.00     0.025 A 
ATOM     41  C   UNL     1      32.589  27.189  23.254  1.00  0.00     0.134 A 
ATOM     42  C   UNL     1      30.257  26.055  24.280  1.00  0.00     0.019 A 
ATOM     43  C   UNL     1      32.499  26.836  24.605  1.00  0.00     0.061 A 
ATOM     44  Br  UNL     1      28.671  25.280  24.983  1.00  0.00    -0.051 Br
ATOM     45  C   UNL     1      31.349  26.277  25.108  1.00  0.00     0.035 A 
ATOM     46  Br  UNL     1      34.044  27.169  25.694  1.00  0.00    -0.047 Br
BRANCH  41  47
ATOM     47  O   UNL     1      33.749  27.751  22.754  1.00  0.00    -0.506 OA
ATOM     48  H   UNL     1      34.165  28.536  23.236  1.00  0.00     0.293 HD
ENDBRANCH  41  47
ENDBRANCH  38  39
ENDBRANCH  36  38
ENDBRANCH  32  33
ENDBRANCH  31  32
ENDBRANCH   2  31
TORSDOF 17
BEGIN_RES LYS A 131
REMARK  4 active torsions:
REMARK  status: ('A' for Active; 'I' for Inactive)
REMARK    1  A    between atoms: CA   and  CB  
REMARK    2  A    between atoms: CB   and  CG  
REMARK    3  A    between atoms: CG   and  CD  
REMARK    4  A    between atoms: CD   and  CE  
ROOT
ATOM      1  CA  LYS A 131      29.867  25.555  16.977  1.00 20.52     0.186 C 
ENDROOT
BRANCH   1   2
ATOM      2  CB  LYS A 131      28.345  25.722  17.026  1.00 20.94     0.034 C 
BRANCH   2   3
ATOM      3  CG  LYS A 131      27.601  24.406  16.858  1.00 22.96     0.005 C 
BRANCH   3   4
ATOM      4  CD  LYS A 131      26.160  24.513  17.276  1.00 24.33     0.041 C 
BRANCH   4   5
ATOM      5  CE  LYS A 131      25.825  23.382  18.242  1.00 26.91     0.338 C 
ATOM      6  NZ  LYS A 131      25.499  23.923  19.582  1.00 27.40     0.618 N 
ENDBRANCH   4   5
ENDBRANCH   3   4
ENDBRANCH   2   3
ENDBRANCH   1   2
END_RES LYS A 131
BEGIN_RES LYS A 135
REMARK  4 active torsions:
REMARK  status: ('A' for Active; 'I' for Inactive)
REMARK    5  A    between atoms: CA   and  CB  
REMARK    6  A    between atoms: CB   and  CG  
REMARK    7  A    between atoms: CG   and  CD  
REMARK    8  A    between atoms: CD   and  CE  
ROOT
ATOM      7  CA  LYS A 135      33.193  34.663   9.290  1.00 25.02     0.186 C 
ENDROOT
BRANCH   7   8
ATOM      8  CB  LYS A 135      32.060  35.360  10.034  1.00 26.63     0.034 C 
BRANCH   8   9
ATOM      9  CG  LYS A 135      30.697  34.801   9.717  1.00 29.45     0.005 C 
BRANCH   9  10
ATOM     10  CD  LYS A 135      30.586  34.464   8.238  1.00 32.00     0.041 C 
BRANCH  10  11
ATOM     11  CE  LYS A 135      29.340  35.088   7.641  1.00 34.25     0.338 C 
ATOM     12  NZ  LYS A 135      28.824  36.187   8.504  1.00 35.99     0.618 N 
ENDBRANCH  10  11
ENDBRANCH   9  10
ENDBRANCH   8   9
ENDBRANCH   7   8
END_RES LYS A 135
