REMARK VINA RESULT:    -4.649      5.118      8.408
REMARK INTER + INTRA:         -13.918
REMARK INTER:                  -8.425
REMARK INTRA:                  -5.493
REMARK UNBOUND:                -4.785
REMARK SMILES C=CCCCCn1cc(COC(=O)NC[C@@H](O)C(O)[C@@H]2O[C@@](O)(C(=O)O)C[C@H](O)[C@H]2NC(C)=O)nn1
REMARK SMILES IDX 11 1 12 2 14 3 13 5 15 6 16 7 18 8 20 9 22 10 27 11 21 12
REMARK SMILES IDX 28 13 30 14 23 15 24 17 25 18 26 19 29 21 31 23 32 24 33 26
REMARK SMILES IDX 34 27 19 28 17 30 10 32 9 33 8 34 35 35 7 36 36 37 6 38 5 39
REMARK SMILES IDX 4 40 3 41 2 42 1 43
REMARK H PARENT 14 4 23 16 26 20 29 22 31 25 19 29 17 31
REMARK Flexibility Score: inf
ROOT
ATOM      1  O   UNL     1      24.410  34.677  12.252  1.00  0.00    -0.443 OA
ENDROOT
BRANCH   1   2
ATOM      2  C   UNL     1      23.465  35.484  11.648  1.00  0.00     0.407 C 
ATOM      3  N   UNL     1      22.478  34.839  10.832  1.00  0.00    -0.319 N 
ATOM      4  H   UNL     1      22.518  33.806  10.732  1.00  0.00     0.167 HD
ATOM      5  O   UNL     1      23.461  36.747  11.806  1.00  0.00    -0.225 OA
BRANCH   3   6
ATOM      6  C   UNL     1      21.459  35.574  10.164  1.00  0.00     0.154 C 
BRANCH   6   7
ATOM      7  C   UNL     1      21.618  35.606   8.642  1.00  0.00     0.165 C 
BRANCH   7   8
ATOM      8  C   UNL     1      22.161  36.974   8.315  1.00  0.00     0.176 C 
BRANCH   8   9
ATOM      9  C   UNL     1      23.565  36.967   7.806  1.00  0.00     0.178 C 
ATOM     10  C   UNL     1      25.626  36.421   8.722  1.00  0.00     0.269 C 
ATOM     11  C   UNL     1      26.176  37.164   7.522  1.00  0.00     0.112 C 
ATOM     12  O   UNL     1      24.313  36.048   8.492  1.00  0.00    -0.332 OA
ATOM     13  C   UNL     1      25.513  38.523   7.492  1.00  0.00     0.145 C 
ATOM     14  C   UNL     1      24.097  38.393   8.001  1.00  0.00     0.142 C 
BRANCH  10  15
ATOM     15  O   UNL     1      25.770  37.169   9.886  1.00  0.00    -0.357 OA
ATOM     16  H   UNL     1      25.030  36.979  10.505  1.00  0.00     0.214 HD
ENDBRANCH  10  15
BRANCH  10  17
ATOM     17  C   UNL     1      26.454  35.199   8.886  1.00  0.00     0.364 C 
ATOM     18  O   UNL     1      26.887  34.544   7.903  1.00  0.00    -0.246 OA
BRANCH  17  19
ATOM     19  O   UNL     1      26.803  34.699  10.151  1.00  0.00    -0.477 OA
ATOM     20  H   UNL     1      27.309  33.818  10.182  1.00  0.00     0.296 HD
ENDBRANCH  17  19
ENDBRANCH  10  17
BRANCH  13  21
ATOM     21  O   UNL     1      26.191  39.372   8.346  1.00  0.00    -0.391 OA
ATOM     22  H   UNL     1      26.895  39.856   7.848  1.00  0.00     0.211 HD
ENDBRANCH  13  21
BRANCH  14  23
ATOM     23  N   UNL     1      23.193  39.296   7.311  1.00  0.00    -0.348 N 
ATOM     24  C   UNL     1      22.967  40.640   7.724  1.00  0.00     0.217 C 
ATOM     25  H   UNL     1      22.650  38.994   6.453  1.00  0.00     0.163 HD
ATOM     26  C   UNL     1      22.033  41.559   7.007  1.00  0.00     0.114 C 
ATOM     27  O   UNL     1      23.598  41.032   8.744  1.00  0.00    -0.275 OA
ENDBRANCH  14  23
ENDBRANCH   8   9
BRANCH   8  28
ATOM     28  O   UNL     1      22.015  37.739   9.485  1.00  0.00    -0.388 OA
ATOM     29  H   UNL     1      21.692  37.190  10.244  1.00  0.00     0.211 HD
ENDBRANCH   8  28
ENDBRANCH   7   8
BRANCH   7  30
ATOM     30  O   UNL     1      20.436  35.303   8.000  1.00  0.00    -0.388 OA
ATOM     31  H   UNL     1      20.514  35.090   7.055  1.00  0.00     0.211 HD
ENDBRANCH   7  30
ENDBRANCH   6   7
ENDBRANCH   3   6
ENDBRANCH   1   2
BRANCH   1  32
ATOM     32  C   UNL     1      24.983  35.049  13.477  1.00  0.00     0.294 C 
BRANCH  32  33
ATOM     33  C   UNL     1      26.436  35.314  13.210  1.00  0.00     0.120 A 
ATOM     34  C   UNL     1      27.463  34.495  13.651  1.00  0.00     0.138 A 
ATOM     35  N   UNL     1      27.024  36.310  12.548  1.00  0.00    -0.132 NA
ATOM     36  N   UNL     1      28.626  35.018  13.244  1.00  0.00    -0.252 N 
ATOM     37  N   UNL     1      28.330  36.117  12.578  1.00  0.00    -0.067 NA
BRANCH  36  38
ATOM     38  C   UNL     1      29.983  34.534  13.453  1.00  0.00     0.146 C 
BRANCH  38  39
ATOM     39  C   UNL     1      30.309  34.544  14.923  1.00  0.00     0.024 C 
BRANCH  39  40
ATOM     40  C   UNL     1      31.638  33.886  15.197  1.00  0.00     0.006 C 
BRANCH  40  41
ATOM     41  C   UNL     1      31.506  32.403  15.425  1.00  0.00     0.027 C 
BRANCH  41  42
ATOM     42  C   UNL     1      30.345  32.124  16.299  1.00  0.00    -0.035 C 
ATOM     43  C   UNL     1      29.654  31.007  16.233  1.00  0.00     0.004 C 
ENDBRANCH  41  42
ENDBRANCH  40  41
ENDBRANCH  39  40
ENDBRANCH  38  39
ENDBRANCH  36  38
ENDBRANCH  32  33
ENDBRANCH   1  32
TORSDOF 19
BEGIN_RES LYS A 131
REMARK  4 active torsions:
REMARK  status: ('A' for Active; 'I' for Inactive)
REMARK    1  A    between atoms: CA   and  CB  
REMARK    2  A    between atoms: CB   and  CG  
REMARK    3  A    between atoms: CG   and  CD  
REMARK    4  A    between atoms: CD   and  CE  
ROOT
ATOM      1  CA  LYS A 131      29.867  25.555  16.977  1.00 20.52     0.186 C 
ENDROOT
BRANCH   1   2
ATOM      2  CB  LYS A 131      28.345  25.722  17.026  1.00 20.94     0.034 C 
BRANCH   2   3
ATOM      3  CG  LYS A 131      27.842  26.161  18.393  1.00 22.96     0.005 C 
BRANCH   3   4
ATOM      4  CD  LYS A 131      26.543  25.498  18.758  1.00 24.33     0.041 C 
BRANCH   4   5
ATOM      5  CE  LYS A 131      26.547  24.058  18.256  1.00 26.91     0.338 C 
ATOM      6  NZ  LYS A 131      25.601  23.231  19.042  1.00 27.40     0.618 N 
ENDBRANCH   4   5
ENDBRANCH   3   4
ENDBRANCH   2   3
ENDBRANCH   1   2
END_RES LYS A 131
BEGIN_RES LYS A 135
REMARK  4 active torsions:
REMARK  status: ('A' for Active; 'I' for Inactive)
REMARK    5  A    between atoms: CA   and  CB  
REMARK    6  A    between atoms: CB   and  CG  
REMARK    7  A    between atoms: CG   and  CD  
REMARK    8  A    between atoms: CD   and  CE  
ROOT
ATOM      7  CA  LYS A 135      33.193  34.663   9.290  1.00 25.02     0.186 C 
ENDROOT
BRANCH   7   8
ATOM      8  CB  LYS A 135      32.060  35.360  10.034  1.00 26.63     0.034 C 
BRANCH   8   9
ATOM      9  CG  LYS A 135      30.696  34.812   9.704  1.00 29.45     0.005 C 
BRANCH   9  10
ATOM     10  CD  LYS A 135      30.099  35.541   8.510  1.00 32.00     0.041 C 
BRANCH  10  11
ATOM     11  CE  LYS A 135      30.257  37.041   8.668  1.00 34.25     0.338 C 
ATOM     12  NZ  LYS A 135      29.162  37.611   9.501  1.00 35.99     0.618 N 
ENDBRANCH  10  11
ENDBRANCH   9  10
ENDBRANCH   8   9
ENDBRANCH   7   8
END_RES LYS A 135
