REMARK VINA RESULT:    -4.656      3.827      8.808
REMARK INTER + INTRA:         -15.809
REMARK INTER:                  -9.681
REMARK INTRA:                  -6.128
REMARK UNBOUND:                -6.934
REMARK SMILES CC(=O)N[C@@H]1[C@@H](O)C[C@](O)(C(=O)O)O[C@H]1C(O)[C@H](O)CNC(=O)OCc1cn(C(C)CC(=O)c2ccccc2)nn1
REMARK SMILES IDX 21 1 22 2 23 3 20 5 18 6 16 7 15 8 9 9 8 10 14 11 6 12 5 13
REMARK SMILES IDX 10 14 11 16 12 17 13 18 7 20 4 22 2 23 1 25 3 26 17 27 19 29
REMARK SMILES IDX 24 31 25 32 26 33 27 34 41 35 28 36 40 37 29 38 30 39 31 40
REMARK SMILES IDX 32 41 33 42 34 43 35 44 39 45 36 46 38 47 37 48
REMARK H PARENT 21 4 10 15 13 19 7 21 4 24 17 28 19 30
REMARK Flexibility Score: inf
ROOT
ATOM      1  N   UNL     1      29.770  31.985  17.913  1.00  0.00    -0.319 N 
ATOM      2  C   UNL     1      28.609  31.426  18.520  1.00  0.00     0.407 C 
ATOM      3  O   UNL     1      28.026  30.490  17.944  1.00  0.00    -0.225 OA
ATOM      4  H   UNL     1      30.213  32.780  18.468  1.00  0.00     0.167 HD
ENDROOT
BRANCH   1   5
ATOM      5  C   UNL     1      30.329  31.541  16.655  1.00  0.00     0.154 C 
BRANCH   5   6
ATOM      6  C   UNL     1      30.747  32.703  15.781  1.00  0.00     0.165 C 
BRANCH   6   7
ATOM      7  C   UNL     1      29.554  33.486  15.276  1.00  0.00     0.176 C 
BRANCH   7   8
ATOM      8  C   UNL     1      29.625  33.783  13.808  1.00  0.00     0.178 C 
ATOM      9  C   UNL     1      30.955  35.689  13.608  1.00  0.00     0.269 C 
ATOM     10  C   UNL     1      29.782  36.543  13.197  1.00  0.00     0.112 C 
ATOM     11  O   UNL     1      30.806  34.350  13.411  1.00  0.00    -0.332 OA
ATOM     12  C   UNL     1      28.470  36.015  13.693  1.00  0.00     0.145 C 
ATOM     13  C   UNL     1      28.409  34.550  13.322  1.00  0.00     0.142 C 
BRANCH   9  14
ATOM     14  O   UNL     1      31.343  36.033  14.922  1.00  0.00    -0.357 OA
ATOM     15  H   UNL     1      31.467  35.248  15.489  1.00  0.00     0.214 HD
ENDBRANCH   9  14
BRANCH   9  16
ATOM     16  C   UNL     1      32.100  36.130  12.729  1.00  0.00     0.364 C 
ATOM     17  O   UNL     1      32.230  37.284  12.301  1.00  0.00    -0.246 OA
BRANCH  16  18
ATOM     18  O   UNL     1      33.029  35.120  12.426  1.00  0.00    -0.477 OA
ATOM     19  H   UNL     1      33.810  35.303  11.815  1.00  0.00     0.296 HD
ENDBRANCH  16  18
ENDBRANCH   9  16
BRANCH  12  20
ATOM     20  O   UNL     1      28.269  36.234  15.035  1.00  0.00    -0.391 OA
ATOM     21  H   UNL     1      27.401  36.682  15.177  1.00  0.00     0.211 HD
ENDBRANCH  12  20
BRANCH  13  22
ATOM     22  N   UNL     1      28.482  34.516  11.851  1.00  0.00    -0.348 N 
ATOM     23  C   UNL     1      27.284  34.348  11.104  1.00  0.00     0.217 C 
ATOM     24  H   UNL     1      29.380  34.612  11.341  1.00  0.00     0.163 HD
ATOM     25  C   UNL     1      27.375  34.318   9.622  1.00  0.00     0.114 C 
ATOM     26  O   UNL     1      26.200  34.233  11.719  1.00  0.00    -0.275 OA
ENDBRANCH  13  22
ENDBRANCH   7   8
BRANCH   7  27
ATOM     27  O   UNL     1      28.419  32.735  15.589  1.00  0.00    -0.388 OA
ATOM     28  H   UNL     1      27.621  33.158  15.153  1.00  0.00     0.211 HD
ENDBRANCH   7  27
ENDBRANCH   6   7
BRANCH   6  29
ATOM     29  O   UNL     1      31.496  32.205  14.695  1.00  0.00    -0.388 OA
ATOM     30  H   UNL     1      30.974  31.563  14.153  1.00  0.00     0.211 HD
ENDBRANCH   6  29
ENDBRANCH   5   6
ENDBRANCH   1   5
BRANCH   2  31
ATOM     31  O   UNL     1      28.106  31.876  19.719  1.00  0.00    -0.443 OA
BRANCH  31  32
ATOM     32  C   UNL     1      27.317  33.032  19.898  1.00  0.00     0.294 C 
BRANCH  32  33
ATOM     33  C   UNL     1      26.822  33.632  18.656  1.00  0.00     0.120 A 
ATOM     34  C   UNL     1      25.603  33.334  18.032  1.00  0.00     0.138 A 
ATOM     35  N   UNL     1      27.399  34.571  17.864  1.00  0.00    -0.132 NA
ATOM     36  N   UNL     1      25.504  34.072  16.943  1.00  0.00    -0.249 N 
ATOM     37  N   UNL     1      26.578  34.801  16.857  1.00  0.00    -0.067 NA
BRANCH  36  38
ATOM     38  C   UNL     1      24.346  34.052  15.994  1.00  0.00     0.114 C 
ATOM     39  C   UNL     1      23.913  35.493  15.913  1.00  0.00     0.034 C 
BRANCH  38  40
ATOM     40  C   UNL     1      24.848  33.529  14.731  1.00  0.00     0.108 C 
BRANCH  40  41
ATOM     41  C   UNL     1      24.761  32.134  14.431  1.00  0.00     0.164 C 
ATOM     42  O   UNL     1      25.780  31.440  14.949  1.00  0.00    -0.294 OA
BRANCH  41  43
ATOM     43  C   UNL     1      23.836  31.324  13.704  1.00  0.00     0.018 A 
ATOM     44  C   UNL     1      24.208  29.995  13.383  1.00  0.00     0.012 A 
ATOM     45  C   UNL     1      22.584  31.712  13.293  1.00  0.00     0.012 A 
ATOM     46  C   UNL     1      23.362  29.157  12.702  1.00  0.00     0.001 A 
ATOM     47  C   UNL     1      21.755  30.838  12.605  1.00  0.00     0.001 A 
ATOM     48  C   UNL     1      22.115  29.567  12.299  1.00  0.00     0.000 A 
ENDBRANCH  41  43
ENDBRANCH  40  41
ENDBRANCH  38  40
ENDBRANCH  36  38
ENDBRANCH  32  33
ENDBRANCH  31  32
ENDBRANCH   2  31
TORSDOF 18
BEGIN_RES LYS A 131
REMARK  4 active torsions:
REMARK  status: ('A' for Active; 'I' for Inactive)
REMARK    1  A    between atoms: CA   and  CB  
REMARK    2  A    between atoms: CB   and  CG  
REMARK    3  A    between atoms: CG   and  CD  
REMARK    4  A    between atoms: CD   and  CE  
ROOT
ATOM      1  CA  LYS A 131      29.867  25.555  16.977  1.00 20.52     0.186 C 
ENDROOT
BRANCH   1   2
ATOM      2  CB  LYS A 131      28.345  25.722  17.026  1.00 20.94     0.034 C 
BRANCH   2   3
ATOM      3  CG  LYS A 131      27.602  24.398  16.929  1.00 22.96     0.005 C 
BRANCH   3   4
ATOM      4  CD  LYS A 131      26.154  24.532  17.312  1.00 24.33     0.041 C 
BRANCH   4   5
ATOM      5  CE  LYS A 131      26.051  25.124  18.714  1.00 26.91     0.338 C 
ATOM      6  NZ  LYS A 131      24.676  25.611  18.972  1.00 27.40     0.618 N 
ENDBRANCH   4   5
ENDBRANCH   3   4
ENDBRANCH   2   3
ENDBRANCH   1   2
END_RES LYS A 131
BEGIN_RES LYS A 135
REMARK  4 active torsions:
REMARK  status: ('A' for Active; 'I' for Inactive)
REMARK    5  A    between atoms: CA   and  CB  
REMARK    6  A    between atoms: CB   and  CG  
REMARK    7  A    between atoms: CG   and  CD  
REMARK    8  A    between atoms: CD   and  CE  
ROOT
ATOM      7  CA  LYS A 135      33.193  34.663   9.290  1.00 25.02     0.186 C 
ENDROOT
BRANCH   7   8
ATOM      8  CB  LYS A 135      32.060  35.360  10.034  1.00 26.63     0.034 C 
BRANCH   8   9
ATOM      9  CG  LYS A 135      30.783  35.449   9.240  1.00 29.45     0.005 C 
BRANCH   9  10
ATOM     10  CD  LYS A 135      30.098  36.787   9.472  1.00 32.00     0.041 C 
BRANCH  10  11
ATOM     11  CE  LYS A 135      29.708  37.422   8.151  1.00 34.25     0.338 C 
ATOM     12  NZ  LYS A 135      28.998  36.448   7.276  1.00 35.99     0.618 N 
ENDBRANCH  10  11
ENDBRANCH   9  10
ENDBRANCH   8   9
ENDBRANCH   7   8
END_RES LYS A 135
