REMARK VINA RESULT:    -4.284      3.270      7.600
REMARK INTER + INTRA:         -14.707
REMARK INTER:                  -8.048
REMARK INTRA:                  -6.660
REMARK UNBOUND:                -7.042
REMARK SMILES CC(=O)N[C@@H]1[C@@H](O)C[C@](O)(C(=O)O)O[C@H]1C(O)[C@H](O)CNC(=O)OCc1cn(-c2ncccc2C#N)nn1
REMARK SMILES IDX 21 1 22 2 23 3 20 5 18 6 16 7 15 8 9 9 8 10 14 11 6 12 5 13
REMARK SMILES IDX 10 14 11 16 12 17 13 18 7 20 4 22 2 23 1 25 3 26 17 27 19 29
REMARK SMILES IDX 24 31 25 32 26 33 27 34 38 35 28 36 37 37 29 38 30 39 34 40
REMARK SMILES IDX 31 41 33 42 32 43 35 44 36 45
REMARK H PARENT 21 4 10 15 13 19 7 21 4 24 17 28 19 30
REMARK Flexibility Score: inf
ROOT
ATOM      1  N   UNL     1      29.397  39.381  15.496  1.00  0.00    -0.319 N 
ATOM      2  C   UNL     1      28.266  39.453  14.613  1.00  0.00     0.407 C 
ATOM      3  O   UNL     1      27.164  38.997  14.935  1.00  0.00    -0.225 OA
ATOM      4  H   UNL     1      30.274  39.841  15.082  1.00  0.00     0.167 HD
ENDROOT
BRANCH   1   5
ATOM      5  C   UNL     1      29.385  38.832  16.766  1.00  0.00     0.154 C 
BRANCH   5   6
ATOM      6  C   UNL     1      30.320  37.630  17.049  1.00  0.00     0.165 C 
BRANCH   6   7
ATOM      7  C   UNL     1      30.234  36.810  15.820  1.00  0.00     0.176 C 
BRANCH   7   8
ATOM      8  C   UNL     1      31.413  36.697  14.922  1.00  0.00     0.178 C 
ATOM      9  C   UNL     1      31.196  37.385  12.684  1.00  0.00     0.269 C 
ATOM     10  C   UNL     1      32.367  36.567  12.198  1.00  0.00     0.112 C 
ATOM     11  O   UNL     1      31.351  37.788  14.012  1.00  0.00    -0.332 OA
ATOM     12  C   UNL     1      32.921  35.700  13.347  1.00  0.00     0.145 C 
ATOM     13  C   UNL     1      31.672  35.441  14.225  1.00  0.00     0.142 C 
BRANCH   9  14
ATOM     14  O   UNL     1      30.003  36.725  12.429  1.00  0.00    -0.357 OA
ATOM     15  H   UNL     1      30.099  35.858  12.009  1.00  0.00     0.214 HD
ENDBRANCH   9  14
BRANCH   9  16
ATOM     16  C   UNL     1      31.243  38.649  11.920  1.00  0.00     0.364 C 
ATOM     17  O   UNL     1      31.239  38.873  10.771  1.00  0.00    -0.246 OA
BRANCH  16  18
ATOM     18  O   UNL     1      31.303  39.827  12.811  1.00  0.00    -0.477 OA
ATOM     19  H   UNL     1      32.227  40.036  13.198  1.00  0.00     0.296 HD
ENDBRANCH  16  18
ENDBRANCH   9  16
BRANCH  12  20
ATOM     20  O   UNL     1      33.457  34.531  12.872  1.00  0.00    -0.391 OA
ATOM     21  H   UNL     1      33.223  34.375  11.940  1.00  0.00     0.211 HD
ENDBRANCH  12  20
BRANCH  13  22
ATOM     22  N   UNL     1      32.011  34.321  15.115  1.00  0.00    -0.348 N 
ATOM     23  C   UNL     1      31.172  33.196  15.125  1.00  0.00     0.217 C 
ATOM     24  H   UNL     1      32.836  34.367  15.681  1.00  0.00     0.163 HD
ATOM     25  C   UNL     1      31.164  31.944  15.786  1.00  0.00     0.114 C 
ATOM     26  O   UNL     1      30.141  33.413  14.259  1.00  0.00    -0.275 OA
ENDBRANCH  13  22
ENDBRANCH   7   8
BRANCH   7  27
ATOM     27  O   UNL     1      29.481  35.689  16.013  1.00  0.00    -0.388 OA
ATOM     28  H   UNL     1      29.622  35.280  16.907  1.00  0.00     0.211 HD
ENDBRANCH   7  27
ENDBRANCH   6   7
BRANCH   6  29
ATOM     29  O   UNL     1      29.872  37.096  18.224  1.00  0.00    -0.388 OA
ATOM     30  H   UNL     1      29.765  36.118  18.125  1.00  0.00     0.211 HD
ENDBRANCH   6  29
ENDBRANCH   5   6
ENDBRANCH   1   5
BRANCH   2  31
ATOM     31  O   UNL     1      28.428  40.060  13.366  1.00  0.00    -0.443 OA
BRANCH  31  32
ATOM     32  C   UNL     1      27.294  40.300  12.505  1.00  0.00     0.294 C 
BRANCH  32  33
ATOM     33  C   UNL     1      27.473  39.262  11.425  1.00  0.00     0.121 A 
ATOM     34  C   UNL     1      27.612  39.495  10.088  1.00  0.00     0.146 A 
ATOM     35  N   UNL     1      27.609  37.954  11.642  1.00  0.00    -0.131 NA
ATOM     36  N   UNL     1      27.844  38.270   9.524  1.00  0.00    -0.201 N 
ATOM     37  N   UNL     1      27.835  37.359  10.507  1.00  0.00    -0.060 NA
BRANCH  36  38
ATOM     38  C   UNL     1      28.077  37.994   8.181  1.00  0.00     0.173 A 
ATOM     39  N   UNL     1      29.225  38.481   7.548  1.00  0.00    -0.236 NA
ATOM     40  C   UNL     1      27.213  37.337   7.330  1.00  0.00     0.097 A 
ATOM     41  C   UNL     1      29.392  38.305   6.305  1.00  0.00     0.113 A 
ATOM     42  C   UNL     1      27.400  37.164   6.032  1.00  0.00     0.025 A 
ATOM     43  C   UNL     1      28.560  37.651   5.361  1.00  0.00     0.022 A 
BRANCH  40  44
ATOM     44  C   UNL     1      25.907  36.837   7.909  1.00  0.00     0.103 C 
ATOM     45  N   UNL     1      25.027  36.518   8.289  1.00  0.00    -0.192 NA
ENDBRANCH  40  44
ENDBRANCH  36  38
ENDBRANCH  32  33
ENDBRANCH  31  32
ENDBRANCH   2  31
TORSDOF 16
BEGIN_RES LYS A 131
REMARK  4 active torsions:
REMARK  status: ('A' for Active; 'I' for Inactive)
REMARK    1  A    between atoms: CA   and  CB  
REMARK    2  A    between atoms: CB   and  CG  
REMARK    3  A    between atoms: CG   and  CD  
REMARK    4  A    between atoms: CD   and  CE  
ROOT
ATOM      1  CA  LYS A 131      29.867  25.555  16.977  1.00 20.52     0.186 C 
ENDROOT
BRANCH   1   2
ATOM      2  CB  LYS A 131      28.345  25.722  17.026  1.00 20.94     0.034 C 
BRANCH   2   3
ATOM      3  CG  LYS A 131      27.603  24.395  16.973  1.00 22.96     0.005 C 
BRANCH   3   4
ATOM      4  CD  LYS A 131      26.704  24.201  18.162  1.00 24.33     0.041 C 
BRANCH   4   5
ATOM      5  CE  LYS A 131      25.282  23.922  17.685  1.00 26.91     0.338 C 
ATOM      6  NZ  LYS A 131      25.080  22.468  17.481  1.00 27.40     0.618 N 
ENDBRANCH   4   5
ENDBRANCH   3   4
ENDBRANCH   2   3
ENDBRANCH   1   2
END_RES LYS A 131
BEGIN_RES LYS A 135
REMARK  4 active torsions:
REMARK  status: ('A' for Active; 'I' for Inactive)
REMARK    5  A    between atoms: CA   and  CB  
REMARK    6  A    between atoms: CB   and  CG  
REMARK    7  A    between atoms: CG   and  CD  
REMARK    8  A    between atoms: CD   and  CE  
ROOT
ATOM      7  CA  LYS A 135      33.193  34.663   9.290  1.00 25.02     0.186 C 
ENDROOT
BRANCH   7   8
ATOM      8  CB  LYS A 135      32.060  35.360  10.034  1.00 26.63     0.034 C 
BRANCH   8   9
ATOM      9  CG  LYS A 135      30.791  35.474   9.229  1.00 29.45     0.005 C 
BRANCH   9  10
ATOM     10  CD  LYS A 135      30.037  34.153   9.225  1.00 32.00     0.041 C 
BRANCH  10  11
ATOM     11  CE  LYS A 135      28.653  34.332   8.631  1.00 34.25     0.338 C 
ATOM     12  NZ  LYS A 135      27.605  33.792   9.541  1.00 35.99     0.618 N 
ENDBRANCH  10  11
ENDBRANCH   9  10
ENDBRANCH   8   9
ENDBRANCH   7   8
END_RES LYS A 135
