REMARK VINA RESULT:    -5.402      8.717     12.553
REMARK INTER + INTRA:         -13.835
REMARK INTER:                  -9.001
REMARK INTRA:                  -4.834
REMARK UNBOUND:                -4.485
REMARK SMILES CC(=O)N[C@@H]1[C@@H](O)C[C@](O)(C(=O)O)O[C@H]1C(O)[C@H](O)CNC(=O)OCc1cn(-c2ccccc2)nn1
REMARK SMILES IDX 20 1 18 2 16 3 15 4 9 5 8 6 14 7 6 8 5 9 10 10 11 12 12 13
REMARK SMILES IDX 13 14 7 16 4 18 2 19 1 21 3 22 17 23 19 25 21 27 22 28 23 30
REMARK SMILES IDX 24 31 25 32 26 33 27 34 36 35 28 36 35 37 29 38 30 39 34 40
REMARK SMILES IDX 31 41 33 42 32 43
REMARK H PARENT 10 11 13 15 7 17 4 20 17 24 19 26 21 29
REMARK Flexibility Score: inf
ROOT
ATOM      1  C   UNL     1      29.375  31.537  15.891  1.00  0.00     0.154 C 
ENDROOT
BRANCH   1   2
ATOM      2  C   UNL     1      30.847  31.861  16.053  1.00  0.00     0.165 C 
BRANCH   2   3
ATOM      3  C   UNL     1      31.059  33.143  16.828  1.00  0.00     0.176 C 
BRANCH   3   4
ATOM      4  C   UNL     1      30.479  34.335  16.142  1.00  0.00     0.178 C 
ATOM      5  C   UNL     1      32.052  35.123  14.586  1.00  0.00     0.269 C 
ATOM      6  C   UNL     1      32.549  36.186  15.501  1.00  0.00     0.112 C 
ATOM      7  O   UNL     1      30.877  34.540  14.874  1.00  0.00    -0.332 OA
ATOM      8  C   UNL     1      31.987  36.136  16.891  1.00  0.00     0.145 C 
ATOM      9  C   UNL     1      30.591  35.600  16.943  1.00  0.00     0.142 C 
BRANCH   5  10
ATOM     10  O   UNL     1      33.045  34.119  14.564  1.00  0.00    -0.357 OA
ATOM     11  H   UNL     1      33.927  34.587  14.586  1.00  0.00     0.214 HD
ENDBRANCH   5  10
BRANCH   5  12
ATOM     12  C   UNL     1      31.990  35.644  13.194  1.00  0.00     0.364 C 
ATOM     13  O   UNL     1      31.216  36.565  12.852  1.00  0.00    -0.246 OA
BRANCH  12  14
ATOM     14  O   UNL     1      32.809  35.106  12.226  1.00  0.00    -0.477 OA
ATOM     15  H   UNL     1      33.110  35.596  11.392  1.00  0.00     0.296 HD
ENDBRANCH  12  14
ENDBRANCH   5  12
BRANCH   8  16
ATOM     16  O   UNL     1      32.823  35.373  17.725  1.00  0.00    -0.391 OA
ATOM     17  H   UNL     1      32.655  35.537  18.674  1.00  0.00     0.211 HD
ENDBRANCH   8  16
BRANCH   9  18
ATOM     18  N   UNL     1      29.717  36.591  16.310  1.00  0.00    -0.348 N 
ATOM     19  C   UNL     1      28.393  36.823  16.772  1.00  0.00     0.217 C 
ATOM     20  H   UNL     1      30.042  37.157  15.498  1.00  0.00     0.163 HD
ATOM     21  C   UNL     1      27.491  37.824  16.144  1.00  0.00     0.114 C 
ATOM     22  O   UNL     1      27.928  36.175  17.750  1.00  0.00    -0.275 OA
ENDBRANCH   9  18
ENDBRANCH   3   4
BRANCH   3  23
ATOM     23  O   UNL     1      30.444  32.928  18.072  1.00  0.00    -0.388 OA
ATOM     24  H   UNL     1      30.479  33.821  18.528  1.00  0.00     0.211 HD
ENDBRANCH   3  23
ENDBRANCH   2   3
BRANCH   2  25
ATOM     25  O   UNL     1      31.510  31.831  14.839  1.00  0.00    -0.388 OA
ATOM     26  H   UNL     1      31.437  30.970  14.379  1.00  0.00     0.211 HD
ENDBRANCH   2  25
ENDBRANCH   1   2
BRANCH   1  27
ATOM     27  N   UNL     1      28.967  30.356  16.583  1.00  0.00    -0.319 N 
ATOM     28  C   UNL     1      28.191  30.367  17.774  1.00  0.00     0.407 C 
ATOM     29  H   UNL     1      29.238  29.412  16.219  1.00  0.00     0.167 HD
ATOM     30  O   UNL     1      27.816  31.428  18.288  1.00  0.00    -0.225 OA
BRANCH  28  31
ATOM     31  O   UNL     1      27.823  29.187  18.408  1.00  0.00    -0.443 OA
BRANCH  31  32
ATOM     32  C   UNL     1      27.658  29.162  19.818  1.00  0.00     0.294 C 
BRANCH  32  33
ATOM     33  C   UNL     1      28.902  28.608  20.399  1.00  0.00     0.121 A 
ATOM     34  C   UNL     1      29.991  29.312  20.861  1.00  0.00     0.144 A 
ATOM     35  N   UNL     1      29.173  27.299  20.570  1.00  0.00    -0.131 NA
ATOM     36  N   UNL     1      30.873  28.396  21.292  1.00  0.00    -0.220 N 
ATOM     37  N   UNL     1      30.370  27.193  21.112  1.00  0.00    -0.062 NA
BRANCH  36  38
ATOM     38  C   UNL     1      32.147  28.696  21.852  1.00  0.00     0.066 A 
ATOM     39  C   UNL     1      32.677  27.855  22.815  1.00  0.00     0.028 A 
ATOM     40  C   UNL     1      32.851  29.813  21.445  1.00  0.00     0.028 A 
ATOM     41  C   UNL     1      33.916  28.175  23.338  1.00  0.00     0.002 A 
ATOM     42  C   UNL     1      34.080  30.116  21.975  1.00  0.00     0.002 A 
ATOM     43  C   UNL     1      34.614  29.282  22.933  1.00  0.00     0.000 A 
ENDBRANCH  36  38
ENDBRANCH  32  33
ENDBRANCH  31  32
ENDBRANCH  28  31
ENDBRANCH   1  27
TORSDOF 15
BEGIN_RES LYS A 131
REMARK  4 active torsions:
REMARK  status: ('A' for Active; 'I' for Inactive)
REMARK    1  A    between atoms: CA   and  CB  
REMARK    2  A    between atoms: CB   and  CG  
REMARK    3  A    between atoms: CG   and  CD  
REMARK    4  A    between atoms: CD   and  CE  
ROOT
ATOM      1  CA  LYS A 131      29.867  25.555  16.977  1.00 20.52     0.186 C 
ENDROOT
BRANCH   1   2
ATOM      2  CB  LYS A 131      28.345  25.722  17.026  1.00 20.94     0.034 C 
BRANCH   2   3
ATOM      3  CG  LYS A 131      27.602  24.397  16.949  1.00 22.96     0.005 C 
BRANCH   3   4
ATOM      4  CD  LYS A 131      26.610  24.238  18.067  1.00 24.33     0.041 C 
BRANCH   4   5
ATOM      5  CE  LYS A 131      25.965  25.587  18.371  1.00 26.91     0.338 C 
ATOM      6  NZ  LYS A 131      25.997  25.861  19.827  1.00 27.40     0.618 N 
ENDBRANCH   4   5
ENDBRANCH   3   4
ENDBRANCH   2   3
ENDBRANCH   1   2
END_RES LYS A 131
BEGIN_RES LYS A 135
REMARK  4 active torsions:
REMARK  status: ('A' for Active; 'I' for Inactive)
REMARK    5  A    between atoms: CA   and  CB  
REMARK    6  A    between atoms: CB   and  CG  
REMARK    7  A    between atoms: CG   and  CD  
REMARK    8  A    between atoms: CD   and  CE  
ROOT
ATOM      7  CA  LYS A 135      33.193  34.663   9.290  1.00 25.02     0.186 C 
ENDROOT
BRANCH   7   8
ATOM      8  CB  LYS A 135      32.060  35.360  10.034  1.00 26.63     0.034 C 
BRANCH   8   9
ATOM      9  CG  LYS A 135      30.740  35.304   9.310  1.00 29.45     0.005 C 
BRANCH   9  10
ATOM     10  CD  LYS A 135      29.693  34.595  10.157  1.00 32.00     0.041 C 
BRANCH  10  11
ATOM     11  CE  LYS A 135      28.599  34.019   9.279  1.00 34.25     0.338 C 
ATOM     12  NZ  LYS A 135      28.551  34.709   7.959  1.00 35.99     0.618 N 
ENDBRANCH  10  11
ENDBRANCH   9  10
ENDBRANCH   8   9
ENDBRANCH   7   8
END_RES LYS A 135
