REMARK VINA RESULT:    -5.159      3.780      7.720
REMARK INTER + INTRA:         -14.092
REMARK INTER:                  -8.535
REMARK INTRA:                  -5.557
REMARK UNBOUND:                -5.164
REMARK SMILES CC(=O)N[C@@H]1[C@@H](O)C[C@](O)(C(=O)O)O[C@H]1C(O)[C@H](O)CNC(=O)OCc1cn(-c2cccnc2)nn1
REMARK SMILES IDX 20 1 18 2 16 3 15 4 9 5 8 6 14 7 6 8 5 9 10 10 11 12 12 13
REMARK SMILES IDX 13 14 7 16 4 18 2 19 1 21 3 22 17 23 19 25 21 27 22 28 23 30
REMARK SMILES IDX 24 31 25 32 26 33 27 34 36 35 28 36 35 37 29 38 30 39 34 40
REMARK SMILES IDX 31 41 33 42 32 43
REMARK H PARENT 10 11 13 15 7 17 4 20 17 24 19 26 21 29
REMARK Flexibility Score: inf
ROOT
ATOM      1  C   UNL     1      30.456  31.865  17.224  1.00  0.00     0.154 C 
ENDROOT
BRANCH   1   2
ATOM      2  C   UNL     1      30.349  32.243  15.793  1.00  0.00     0.165 C 
BRANCH   2   3
ATOM      3  C   UNL     1      29.504  33.435  15.549  1.00  0.00     0.176 C 
BRANCH   3   4
ATOM      4  C   UNL     1      30.041  34.521  14.684  1.00  0.00     0.178 C 
ATOM      5  C   UNL     1      31.701  36.016  14.298  1.00  0.00     0.269 C 
ATOM      6  C   UNL     1      30.891  36.678  13.241  1.00  0.00     0.112 C 
ATOM      7  O   UNL     1      31.005  35.293  15.248  1.00  0.00    -0.332 OA
ATOM      8  C   UNL     1      29.633  35.998  12.827  1.00  0.00     0.145 C 
ATOM      9  C   UNL     1      28.959  35.371  14.081  1.00  0.00     0.142 C 
BRANCH   5  10
ATOM     10  O   UNL     1      32.315  37.086  15.024  1.00  0.00    -0.357 OA
ATOM     11  H   UNL     1      32.973  36.636  15.602  1.00  0.00     0.214 HD
ENDBRANCH   5  10
BRANCH   5  12
ATOM     12  C   UNL     1      32.822  35.217  13.753  1.00  0.00     0.364 C 
ATOM     13  O   UNL     1      33.698  34.765  14.531  1.00  0.00    -0.246 OA
BRANCH  12  14
ATOM     14  O   UNL     1      32.997  34.913  12.410  1.00  0.00    -0.477 OA
ATOM     15  H   UNL     1      33.090  35.716  11.778  1.00  0.00     0.296 HD
ENDBRANCH  12  14
ENDBRANCH   5  12
BRANCH   8  16
ATOM     16  O   UNL     1      28.704  36.918  12.342  1.00  0.00    -0.391 OA
ATOM     17  H   UNL     1      27.896  36.901  12.912  1.00  0.00     0.211 HD
ENDBRANCH   8  16
BRANCH   9  18
ATOM     18  N   UNL     1      27.929  34.513  13.562  1.00  0.00    -0.348 N 
ATOM     19  C   UNL     1      26.557  34.852  13.536  1.00  0.00     0.217 C 
ATOM     20  H   UNL     1      28.198  33.571  13.172  1.00  0.00     0.163 HD
ATOM     21  C   UNL     1      25.571  33.898  12.979  1.00  0.00     0.114 C 
ATOM     22  O   UNL     1      26.188  35.960  13.986  1.00  0.00    -0.275 OA
ENDBRANCH   9  18
ENDBRANCH   3   4
BRANCH   3  23
ATOM     23  O   UNL     1      28.781  33.863  16.646  1.00  0.00    -0.388 OA
ATOM     24  H   UNL     1      28.863  34.800  16.884  1.00  0.00     0.211 HD
ENDBRANCH   3  23
ENDBRANCH   2   3
BRANCH   2  25
ATOM     25  O   UNL     1      29.755  31.184  15.063  1.00  0.00    -0.388 OA
ATOM     26  H   UNL     1      30.179  30.356  15.367  1.00  0.00     0.211 HD
ENDBRANCH   2  25
ENDBRANCH   1   2
BRANCH   1  27
ATOM     27  N   UNL     1      29.582  30.829  17.687  1.00  0.00    -0.319 N 
ATOM     28  C   UNL     1      28.458  30.997  18.487  1.00  0.00     0.407 C 
ATOM     29  H   UNL     1      29.805  29.827  17.397  1.00  0.00     0.167 HD
ATOM     30  O   UNL     1      28.108  32.113  18.891  1.00  0.00    -0.225 OA
BRANCH  28  31
ATOM     31  O   UNL     1      27.642  29.926  18.892  1.00  0.00    -0.443 OA
BRANCH  31  32
ATOM     32  C   UNL     1      27.232  28.944  17.968  1.00  0.00     0.294 C 
BRANCH  32  33
ATOM     33  C   UNL     1      26.544  29.537  16.807  1.00  0.00     0.121 A 
ATOM     34  C   UNL     1      25.281  29.144  16.393  1.00  0.00     0.144 A 
ATOM     35  N   UNL     1      26.916  30.493  15.955  1.00  0.00    -0.131 NA
ATOM     36  N   UNL     1      24.935  29.869  15.316  1.00  0.00    -0.219 N 
ATOM     37  N   UNL     1      25.931  30.678  15.063  1.00  0.00    -0.062 NA
BRANCH  36  38
ATOM     38  C   UNL     1      23.714  29.786  14.572  1.00  0.00     0.085 A 
ATOM     39  C   UNL     1      23.709  29.825  13.189  1.00  0.00     0.031 A 
ATOM     40  C   UNL     1      22.511  29.665  15.237  1.00  0.00     0.139 A 
ATOM     41  C   UNL     1      22.492  29.740  12.508  1.00  0.00     0.022 A 
ATOM     42  N   UNL     1      21.339  29.585  14.547  1.00  0.00    -0.262 NA
ATOM     43  C   UNL     1      21.303  29.620  13.203  1.00  0.00     0.111 A 
ENDBRANCH  36  38
ENDBRANCH  32  33
ENDBRANCH  31  32
ENDBRANCH  28  31
ENDBRANCH   1  27
TORSDOF 15
BEGIN_RES LYS A 131
REMARK  4 active torsions:
REMARK  status: ('A' for Active; 'I' for Inactive)
REMARK    1  A    between atoms: CA   and  CB  
REMARK    2  A    between atoms: CB   and  CG  
REMARK    3  A    between atoms: CG   and  CD  
REMARK    4  A    between atoms: CD   and  CE  
ROOT
ATOM      1  CA  LYS A 131      29.867  25.555  16.977  1.00 20.52     0.186 C 
ENDROOT
BRANCH   1   2
ATOM      2  CB  LYS A 131      28.345  25.722  17.026  1.00 20.94     0.034 C 
BRANCH   2   3
ATOM      3  CG  LYS A 131      27.601  24.401  16.898  1.00 22.96     0.005 C 
BRANCH   3   4
ATOM      4  CD  LYS A 131      26.149  24.531  17.267  1.00 24.33     0.041 C 
BRANCH   4   5
ATOM      5  CE  LYS A 131      25.627  23.185  17.757  1.00 26.91     0.338 C 
ATOM      6  NZ  LYS A 131      25.538  23.170  19.236  1.00 27.40     0.618 N 
ENDBRANCH   4   5
ENDBRANCH   3   4
ENDBRANCH   2   3
ENDBRANCH   1   2
END_RES LYS A 131
BEGIN_RES LYS A 135
REMARK  4 active torsions:
REMARK  status: ('A' for Active; 'I' for Inactive)
REMARK    5  A    between atoms: CA   and  CB  
REMARK    6  A    between atoms: CB   and  CG  
REMARK    7  A    between atoms: CG   and  CD  
REMARK    8  A    between atoms: CD   and  CE  
ROOT
ATOM      7  CA  LYS A 135      33.193  34.663   9.290  1.00 25.02     0.186 C 
ENDROOT
BRANCH   7   8
ATOM      8  CB  LYS A 135      32.060  35.360  10.034  1.00 26.63     0.034 C 
BRANCH   8   9
ATOM      9  CG  LYS A 135      30.796  35.487   9.224  1.00 29.45     0.005 C 
BRANCH   9  10
ATOM     10  CD  LYS A 135      30.046  34.164   9.188  1.00 32.00     0.041 C 
BRANCH  10  11
ATOM     11  CE  LYS A 135      28.607  34.379   8.760  1.00 34.25     0.338 C 
ATOM     12  NZ  LYS A 135      27.666  33.659   9.662  1.00 35.99     0.618 N 
ENDBRANCH  10  11
ENDBRANCH   9  10
ENDBRANCH   8   9
ENDBRANCH   7   8
END_RES LYS A 135
