REMARK VINA RESULT:    -3.094      7.048     11.210
REMARK INTER + INTRA:         -13.197
REMARK INTER:                  -7.216
REMARK INTRA:                  -5.982
REMARK UNBOUND:                -7.572
REMARK SMILES CC(=O)N[C@@H]1[C@@H](O)C[C@](O)(C(=O)O)O[C@H]1C(O)[C@H](O)CNC(=O)OCc1cn(CCO)nn1
REMARK SMILES IDX 21 1 22 2 23 3 20 5 18 6 16 7 15 8 9 9 8 10 14 11 6 12 5 13
REMARK SMILES IDX 10 14 11 16 12 17 13 18 7 20 4 22 2 23 1 25 3 26 17 27 19 29
REMARK SMILES IDX 24 31 25 32 26 33 27 34 33 35 28 36 32 37 29 38 30 39 31 40
REMARK H PARENT 21 4 10 15 13 19 7 21 4 24 17 28 19 30 31 41
REMARK Flexibility Score: inf
ROOT
ATOM      1  N   UNL     1      26.467  31.685  15.520  1.00  0.00    -0.319 N 
ATOM      2  C   UNL     1      26.170  32.898  16.151  1.00  0.00     0.407 C 
ATOM      3  O   UNL     1      25.692  32.905  17.282  1.00  0.00    -0.225 OA
ATOM      4  H   UNL     1      26.879  31.786  14.533  1.00  0.00     0.167 HD
ENDROOT
BRANCH   1   5
ATOM      5  C   UNL     1      26.306  30.361  15.985  1.00  0.00     0.154 C 
BRANCH   5   6
ATOM      6  C   UNL     1      27.360  29.808  16.892  1.00  0.00     0.165 C 
BRANCH   6   7
ATOM      7  C   UNL     1      28.530  30.732  17.039  1.00  0.00     0.176 C 
BRANCH   7   8
ATOM      8  C   UNL     1      29.278  30.743  18.304  1.00  0.00     0.178 C 
ATOM      9  C   UNL     1      29.591  29.753  20.362  1.00  0.00     0.269 C 
ATOM     10  C   UNL     1      30.933  30.446  20.253  1.00  0.00     0.112 C 
ATOM     11  O   UNL     1      28.864  29.763  19.172  1.00  0.00    -0.332 OA
ATOM     12  C   UNL     1      30.745  31.903  19.852  1.00  0.00     0.145 C 
ATOM     13  C   UNL     1      29.446  32.033  19.031  1.00  0.00     0.142 C 
BRANCH   9  14
ATOM     14  O   UNL     1      28.794  30.377  21.317  1.00  0.00    -0.357 OA
ATOM     15  H   UNL     1      29.239  30.457  22.192  1.00  0.00     0.214 HD
ENDBRANCH   9  14
BRANCH   9  16
ATOM     16  C   UNL     1      29.754  28.329  20.733  1.00  0.00     0.364 C 
ATOM     17  O   UNL     1      30.337  27.959  21.784  1.00  0.00    -0.246 OA
BRANCH  16  18
ATOM     18  O   UNL     1      29.248  27.353  19.894  1.00  0.00    -0.477 OA
ATOM     19  H   UNL     1      29.890  26.804  19.303  1.00  0.00     0.296 HD
ENDBRANCH  16  18
ENDBRANCH   9  16
BRANCH  12  20
ATOM     20  O   UNL     1      30.679  32.684  20.997  1.00  0.00    -0.391 OA
ATOM     21  H   UNL     1      29.788  33.121  20.998  1.00  0.00     0.211 HD
ENDBRANCH  12  20
BRANCH  13  22
ATOM     22  N   UNL     1      29.561  33.195  18.173  1.00  0.00    -0.348 N 
ATOM     23  C   UNL     1      28.985  34.417  18.603  1.00  0.00     0.217 C 
ATOM     24  H   UNL     1      30.057  33.156  17.249  1.00  0.00     0.163 HD
ATOM     25  C   UNL     1      29.051  35.661  17.789  1.00  0.00     0.114 C 
ATOM     26  O   UNL     1      28.394  34.465  19.706  1.00  0.00    -0.275 OA
ENDBRANCH  13  22
ENDBRANCH   7   8
BRANCH   7  27
ATOM     27  O   UNL     1      29.404  30.330  15.961  1.00  0.00    -0.388 OA
ATOM     28  H   UNL     1      29.004  30.618  15.122  1.00  0.00     0.211 HD
ENDBRANCH   7  27
ENDBRANCH   6   7
BRANCH   6  29
ATOM     29  O   UNL     1      27.702  28.540  16.559  1.00  0.00    -0.388 OA
ATOM     30  H   UNL     1      28.658  28.334  16.561  1.00  0.00     0.211 HD
ENDBRANCH   6  29
ENDBRANCH   5   6
ENDBRANCH   1   5
BRANCH   2  31
ATOM     31  O   UNL     1      26.404  34.122  15.526  1.00  0.00    -0.443 OA
BRANCH  31  32
ATOM     32  C   UNL     1      27.038  34.206  14.267  1.00  0.00     0.294 C 
BRANCH  32  33
ATOM     33  C   UNL     1      28.506  34.287  14.457  1.00  0.00     0.120 A 
ATOM     34  C   UNL     1      29.324  35.357  14.191  1.00  0.00     0.138 A 
ATOM     35  N   UNL     1      29.284  33.321  14.924  1.00  0.00    -0.132 NA
ATOM     36  N   UNL     1      30.567  34.964  14.520  1.00  0.00    -0.250 N 
ATOM     37  N   UNL     1      30.552  33.720  14.968  1.00  0.00    -0.067 NA
BRANCH  36  38
ATOM     38  C   UNL     1      31.745  35.799  14.393  1.00  0.00     0.174 C 
BRANCH  38  39
ATOM     39  C   UNL     1      32.196  35.785  12.935  1.00  0.00     0.179 C 
BRANCH  39  40
ATOM     40  O   UNL     1      31.897  34.521  12.386  1.00  0.00    -0.394 OA
ATOM     41  H   UNL     1      32.106  34.522  11.403  1.00  0.00     0.210 HD
ENDBRANCH  39  40
ENDBRANCH  38  39
ENDBRANCH  36  38
ENDBRANCH  32  33
ENDBRANCH  31  32
ENDBRANCH   2  31
TORSDOF 17
BEGIN_RES LYS A 131
REMARK  4 active torsions:
REMARK  status: ('A' for Active; 'I' for Inactive)
REMARK    1  A    between atoms: CA   and  CB  
REMARK    2  A    between atoms: CB   and  CG  
REMARK    3  A    between atoms: CG   and  CD  
REMARK    4  A    between atoms: CD   and  CE  
ROOT
ATOM      1  CA  LYS A 131      29.867  25.555  16.977  1.00 20.52     0.186 C 
ENDROOT
BRANCH   1   2
ATOM      2  CB  LYS A 131      28.345  25.722  17.026  1.00 20.94     0.034 C 
BRANCH   2   3
ATOM      3  CG  LYS A 131      27.601  24.401  16.898  1.00 22.96     0.005 C 
BRANCH   3   4
ATOM      4  CD  LYS A 131      26.528  24.253  17.940  1.00 24.33     0.041 C 
BRANCH   4   5
ATOM      5  CE  LYS A 131      25.464  25.326  17.732  1.00 26.91     0.338 C 
ATOM      6  NZ  LYS A 131      24.345  24.796  16.917  1.00 27.40     0.618 N 
ENDBRANCH   4   5
ENDBRANCH   3   4
ENDBRANCH   2   3
ENDBRANCH   1   2
END_RES LYS A 131
BEGIN_RES LYS A 135
REMARK  4 active torsions:
REMARK  status: ('A' for Active; 'I' for Inactive)
REMARK    5  A    between atoms: CA   and  CB  
REMARK    6  A    between atoms: CB   and  CG  
REMARK    7  A    between atoms: CG   and  CD  
REMARK    8  A    between atoms: CD   and  CE  
ROOT
ATOM      7  CA  LYS A 135      33.193  34.663   9.290  1.00 25.02     0.186 C 
ENDROOT
BRANCH   7   8
ATOM      8  CB  LYS A 135      32.060  35.360  10.034  1.00 26.63     0.034 C 
BRANCH   8   9
ATOM      9  CG  LYS A 135      30.790  35.472   9.230  1.00 29.45     0.005 C 
BRANCH   9  10
ATOM     10  CD  LYS A 135      30.199  34.096   8.966  1.00 32.00     0.041 C 
BRANCH  10  11
ATOM     11  CE  LYS A 135      28.726  34.071   9.328  1.00 34.25     0.338 C 
ATOM     12  NZ  LYS A 135      28.518  34.445  10.754  1.00 35.99     0.618 N 
ENDBRANCH  10  11
ENDBRANCH   9  10
ENDBRANCH   8   9
ENDBRANCH   7   8
END_RES LYS A 135
