REMARK VINA RESULT:    -5.637      8.119     13.474
REMARK INTER + INTRA:         -15.423
REMARK INTER:                  -8.661
REMARK INTRA:                  -6.762
REMARK UNBOUND:                -5.337
REMARK SMILES CC(=O)N[C@@H]1[C@@H](O)C[C@](O)(C(=O)O)O[C@H]1C(O)[C@H](O)CNC(=O)OCc1cn(CC2=CC[C@H]3C[C@@H]2C3(C)C)nn1
REMARK SMILES IDX 21 1 22 2 23 3 20 5 18 6 16 7 15 8 9 9 8 10 14 11 6 12 5 13
REMARK SMILES IDX 10 14 11 16 12 17 13 18 7 20 4 22 2 23 1 25 3 26 17 27 19 29
REMARK SMILES IDX 24 31 25 32 26 33 27 34 40 35 28 36 39 37 29 38 30 39 31 40
REMARK SMILES IDX 35 41 32 42 34 43 36 44 33 45 37 46 38 47
REMARK H PARENT 21 4 10 15 13 19 7 21 4 24 17 28 19 30
REMARK Flexibility Score: inf
ROOT
ATOM      1  N   UNL     1      27.248  37.166   5.310  1.00  0.00    -0.319 N 
ATOM      2  C   UNL     1      28.135  38.224   4.911  1.00  0.00     0.407 C 
ATOM      3  O   UNL     1      29.327  38.190   5.311  1.00  0.00    -0.225 OA
ATOM      4  H   UNL     1      26.259  37.188   4.981  1.00  0.00     0.167 HD
ENDROOT
BRANCH   1   5
ATOM      5  C   UNL     1      27.737  36.099   6.156  1.00  0.00     0.154 C 
BRANCH   5   6
ATOM      6  C   UNL     1      27.324  36.395   7.570  1.00  0.00     0.165 C 
BRANCH   6   7
ATOM      7  C   UNL     1      25.975  37.075   7.644  1.00  0.00     0.176 C 
BRANCH   7   8
ATOM      8  C   UNL     1      25.244  36.491   8.830  1.00  0.00     0.178 C 
ATOM      9  C   UNL     1      23.009  37.011   8.510  1.00  0.00     0.269 C 
ATOM     10  C   UNL     1      22.910  37.826   9.781  1.00  0.00     0.112 C 
ATOM     11  O   UNL     1      23.985  36.045   8.550  1.00  0.00    -0.332 OA
ATOM     12  C   UNL     1      23.982  37.343  10.726  1.00  0.00     0.145 C 
ATOM     13  C   UNL     1      25.304  37.452   9.995  1.00  0.00     0.142 C 
BRANCH   9  14
ATOM     14  O   UNL     1      23.144  37.871   7.416  1.00  0.00    -0.357 OA
ATOM     15  H   UNL     1      22.656  38.703   7.665  1.00  0.00     0.214 HD
ENDBRANCH   9  14
BRANCH   9  16
ATOM     16  C   UNL     1      21.699  36.315   8.345  1.00  0.00     0.364 C 
ATOM     17  O   UNL     1      21.234  35.629   9.318  1.00  0.00    -0.246 OA
BRANCH  16  18
ATOM     18  O   UNL     1      20.959  36.377   7.184  1.00  0.00    -0.477 OA
ATOM     19  H   UNL     1      20.690  37.264   6.766  1.00  0.00     0.296 HD
ENDBRANCH  16  18
ENDBRANCH   9  16
BRANCH  12  20
ATOM     20  O   UNL     1      24.054  38.106  11.876  1.00  0.00    -0.391 OA
ATOM     21  H   UNL     1      24.460  37.542  12.582  1.00  0.00     0.211 HD
ENDBRANCH  12  20
BRANCH  13  22
ATOM     22  N   UNL     1      26.420  37.206  10.871  1.00  0.00    -0.348 N 
ATOM     23  C   UNL     1      27.491  38.127  10.994  1.00  0.00     0.217 C 
ATOM     24  H   UNL     1      26.424  36.320  11.423  1.00  0.00     0.163 HD
ATOM     25  C   UNL     1      28.605  37.793  11.923  1.00  0.00     0.114 C 
ATOM     26  O   UNL     1      27.493  39.195  10.332  1.00  0.00    -0.275 OA
ENDBRANCH  13  22
ENDBRANCH   7   8
BRANCH   7  27
ATOM     27  O   UNL     1      26.121  38.442   7.868  1.00  0.00    -0.388 OA
ATOM     28  H   UNL     1      25.947  38.984   7.081  1.00  0.00     0.211 HD
ENDBRANCH   7  27
ENDBRANCH   6   7
BRANCH   6  29
ATOM     29  O   UNL     1      28.292  37.279   8.093  1.00  0.00    -0.388 OA
ATOM     30  H   UNL     1      28.030  37.574   9.010  1.00  0.00     0.211 HD
ENDBRANCH   6  29
ENDBRANCH   5   6
ENDBRANCH   1   5
BRANCH   2  31
ATOM     31  O   UNL     1      27.743  39.263   4.113  1.00  0.00    -0.443 OA
BRANCH  31  32
ATOM     32  C   UNL     1      26.875  40.302   4.532  1.00  0.00     0.294 C 
BRANCH  32  33
ATOM     33  C   UNL     1      27.361  40.893   5.795  1.00  0.00     0.120 A 
ATOM     34  C   UNL     1      28.595  41.431   6.075  1.00  0.00     0.138 A 
ATOM     35  N   UNL     1      26.647  41.007   6.925  1.00  0.00    -0.132 NA
ATOM     36  N   UNL     1      28.609  41.863   7.371  1.00  0.00    -0.248 N 
ATOM     37  N   UNL     1      27.407  41.588   7.856  1.00  0.00    -0.067 NA
BRANCH  36  38
ATOM     38  C   UNL     1      29.734  42.485   8.025  1.00  0.00     0.177 C 
BRANCH  38  39
ATOM     39  C   UNL     1      30.644  41.451   8.632  1.00  0.00    -0.049 C 
ATOM     40  C   UNL     1      30.542  41.108   9.913  1.00  0.00    -0.025 C 
ATOM     41  C   UNL     1      31.684  40.781   7.828  1.00  0.00     0.023 C 
ATOM     42  C   UNL     1      31.293  39.917  10.394  1.00  0.00     0.031 C 
ATOM     43  C   UNL     1      31.464  39.273   8.021  1.00  0.00     0.013 C 
ATOM     44  C   UNL     1      32.936  40.616   8.666  1.00  0.00    -0.026 C 
ATOM     45  C   UNL     1      32.224  39.427   9.328  1.00  0.00    -0.000 C 
ATOM     46  C   UNL     1      34.130  40.130   7.893  1.00  0.00     0.012 C 
ATOM     47  C   UNL     1      33.259  41.744   9.587  1.00  0.00     0.012 C 
ENDBRANCH  38  39
ENDBRANCH  36  38
ENDBRANCH  32  33
ENDBRANCH  31  32
ENDBRANCH   2  31
TORSDOF 16
BEGIN_RES LYS A 131
REMARK  4 active torsions:
REMARK  status: ('A' for Active; 'I' for Inactive)
REMARK    1  A    between atoms: CA   and  CB  
REMARK    2  A    between atoms: CB   and  CG  
REMARK    3  A    between atoms: CG   and  CD  
REMARK    4  A    between atoms: CD   and  CE  
ROOT
ATOM      1  CA  LYS A 131      29.867  25.555  16.977  1.00 20.52     0.186 C 
ENDROOT
BRANCH   1   2
ATOM      2  CB  LYS A 131      28.345  25.722  17.026  1.00 20.94     0.034 C 
BRANCH   2   3
ATOM      3  CG  LYS A 131      27.599  24.441  16.687  1.00 22.96     0.005 C 
BRANCH   3   4
ATOM      4  CD  LYS A 131      26.698  23.997  17.806  1.00 24.33     0.041 C 
BRANCH   4   5
ATOM      5  CE  LYS A 131      25.242  24.129  17.370  1.00 26.91     0.338 C 
ATOM      6  NZ  LYS A 131      24.376  24.421  18.537  1.00 27.40     0.618 N 
ENDBRANCH   4   5
ENDBRANCH   3   4
ENDBRANCH   2   3
ENDBRANCH   1   2
END_RES LYS A 131
BEGIN_RES LYS A 135
REMARK  4 active torsions:
REMARK  status: ('A' for Active; 'I' for Inactive)
REMARK    5  A    between atoms: CA   and  CB  
REMARK    6  A    between atoms: CB   and  CG  
REMARK    7  A    between atoms: CG   and  CD  
REMARK    8  A    between atoms: CD   and  CE  
ROOT
ATOM      7  CA  LYS A 135      33.193  34.663   9.290  1.00 25.02     0.186 C 
ENDROOT
BRANCH   7   8
ATOM      8  CB  LYS A 135      32.060  35.360  10.034  1.00 26.63     0.034 C 
BRANCH   8   9
ATOM      9  CG  LYS A 135      30.785  35.456   9.237  1.00 29.45     0.005 C 
BRANCH   9  10
ATOM     10  CD  LYS A 135      29.956  34.191   9.395  1.00 32.00     0.041 C 
BRANCH  10  11
ATOM     11  CE  LYS A 135      28.774  34.440  10.313  1.00 34.25     0.338 C 
ATOM     12  NZ  LYS A 135      27.552  33.752   9.812  1.00 35.99     0.618 N 
ENDBRANCH  10  11
ENDBRANCH   9  10
ENDBRANCH   8   9
ENDBRANCH   7   8
END_RES LYS A 135
