REMARK VINA RESULT:    -5.146      6.816     11.959
REMARK INTER + INTRA:         -14.408
REMARK INTER:                  -7.827
REMARK INTRA:                  -6.581
REMARK UNBOUND:                -5.502
REMARK SMILES CC(=O)N[C@@H]1[C@@H](O)C[C@](O)(C(=O)O)O[C@H]1C(O)[C@H](O)CNC(=O)OCc1cn([C@@H]2C[C@H]3CC[C@@H](C2)N3C)nn1
REMARK SMILES IDX 20 1 18 2 16 3 15 4 9 5 8 6 14 7 6 8 5 9 10 10 11 12 12 13
REMARK SMILES IDX 13 14 7 16 4 18 2 19 1 21 3 22 17 23 19 25 21 27 22 28 23 30
REMARK SMILES IDX 24 31 25 32 26 33 27 34 39 35 28 36 38 37 29 38 35 39 30 40
REMARK SMILES IDX 34 41 31 42 36 43 33 44 32 45 37 46
REMARK H PARENT 10 11 13 15 7 17 4 20 17 24 19 26 21 29
REMARK Flexibility Score: inf
ROOT
ATOM      1  C   UNL     1      23.136  37.285   9.259  1.00  0.00     0.154 C 
ENDROOT
BRANCH   1   2
ATOM      2  C   UNL     1      23.829  37.730   8.004  1.00  0.00     0.165 C 
BRANCH   2   3
ATOM      3  C   UNL     1      24.200  39.205   8.087  1.00  0.00     0.176 C 
BRANCH   3   4
ATOM      4  C   UNL     1      25.681  39.331   7.734  1.00  0.00     0.178 C 
ATOM      5  C   UNL     1      27.206  38.163   6.400  1.00  0.00     0.269 C 
ATOM      6  C   UNL     1      28.124  37.843   7.538  1.00  0.00     0.112 C 
ATOM      7  O   UNL     1      25.931  38.478   6.736  1.00  0.00    -0.332 OA
ATOM      8  C   UNL     1      27.589  38.171   8.891  1.00  0.00     0.145 C 
ATOM      9  C   UNL     1      26.568  39.258   8.946  1.00  0.00     0.142 C 
BRANCH   5  10
ATOM     10  O   UNL     1      27.129  37.031   5.582  1.00  0.00    -0.357 OA
ATOM     11  H   UNL     1      26.721  36.258   6.041  1.00  0.00     0.214 HD
ENDBRANCH   5  10
BRANCH   5  12
ATOM     12  C   UNL     1      27.730  39.247   5.544  1.00  0.00     0.364 C 
ATOM     13  O   UNL     1      27.450  39.267   4.327  1.00  0.00    -0.246 OA
BRANCH  12  14
ATOM     14  O   UNL     1      28.539  40.280   6.009  1.00  0.00    -0.477 OA
ATOM     15  H   UNL     1      29.553  40.269   5.817  1.00  0.00     0.296 HD
ENDBRANCH  12  14
ENDBRANCH   5  12
BRANCH   8  16
ATOM     16  O   UNL     1      27.084  36.982   9.436  1.00  0.00    -0.391 OA
ATOM     17  H   UNL     1      27.548  36.205   9.042  1.00  0.00     0.211 HD
ENDBRANCH   8  16
BRANCH   9  18
ATOM     18  N   UNL     1      27.079  40.551   9.312  1.00  0.00    -0.348 N 
ATOM     19  C   UNL     1      26.806  41.190  10.544  1.00  0.00     0.217 C 
ATOM     20  H   UNL     1      27.697  41.078   8.640  1.00  0.00     0.163 HD
ATOM     21  C   UNL     1      27.319  42.519  10.941  1.00  0.00     0.114 C 
ATOM     22  O   UNL     1      26.070  40.547  11.331  1.00  0.00    -0.275 OA
ENDBRANCH   9  18
ENDBRANCH   3   4
BRANCH   3  23
ATOM     23  O   UNL     1      23.940  39.742   9.337  1.00  0.00    -0.388 OA
ATOM     24  H   UNL     1      23.726  38.993   9.951  1.00  0.00     0.211 HD
ENDBRANCH   3  23
ENDBRANCH   2   3
BRANCH   2  25
ATOM     25  O   UNL     1      23.076  37.547   6.879  1.00  0.00    -0.388 OA
ATOM     26  H   UNL     1      22.673  36.629   6.877  1.00  0.00     0.211 HD
ENDBRANCH   2  25
ENDBRANCH   1   2
BRANCH   1  27
ATOM     27  N   UNL     1      24.032  36.775  10.239  1.00  0.00    -0.319 N 
ATOM     28  C   UNL     1      24.205  37.298  11.532  1.00  0.00     0.407 C 
ATOM     29  H   UNL     1      24.632  35.926   9.991  1.00  0.00     0.167 HD
ATOM     30  O   UNL     1      23.578  38.289  11.947  1.00  0.00    -0.225 OA
BRANCH  28  31
ATOM     31  O   UNL     1      25.124  36.682  12.403  1.00  0.00    -0.443 OA
BRANCH  31  32
ATOM     32  C   UNL     1      25.621  35.403  12.064  1.00  0.00     0.294 C 
BRANCH  32  33
ATOM     33  C   UNL     1      26.948  35.193  12.644  1.00  0.00     0.120 A 
ATOM     34  C   UNL     1      27.225  34.423  13.768  1.00  0.00     0.138 A 
ATOM     35  N   UNL     1      28.109  35.688  12.218  1.00  0.00    -0.132 NA
ATOM     36  N   UNL     1      28.545  34.481  13.980  1.00  0.00    -0.249 N 
ATOM     37  N   UNL     1      29.048  35.246  13.035  1.00  0.00    -0.067 NA
BRANCH  36  38
ATOM     38  C   UNL     1      29.303  33.842  15.026  1.00  0.00     0.112 C 
ATOM     39  C   UNL     1      30.535  33.183  14.405  1.00  0.00     0.046 C 
ATOM     40  C   UNL     1      29.784  34.935  15.955  1.00  0.00     0.046 C 
ATOM     41  C   UNL     1      31.448  32.736  15.514  1.00  0.00     0.058 C 
ATOM     42  C   UNL     1      30.844  34.420  16.873  1.00  0.00     0.058 C 
ATOM     43  N   UNL     1      31.991  33.892  16.203  1.00  0.00    -0.300 NA
ATOM     44  C   UNL     1      30.644  32.070  16.615  1.00  0.00     0.021 C 
ATOM     45  C   UNL     1      30.274  33.173  17.560  1.00  0.00     0.021 C 
ATOM     46  C   UNL     1      32.633  34.822  15.319  1.00  0.00     0.105 C 
ENDBRANCH  36  38
ENDBRANCH  32  33
ENDBRANCH  31  32
ENDBRANCH  28  31
ENDBRANCH   1  27
TORSDOF 15
BEGIN_RES LYS A 131
REMARK  4 active torsions:
REMARK  status: ('A' for Active; 'I' for Inactive)
REMARK    1  A    between atoms: CA   and  CB  
REMARK    2  A    between atoms: CB   and  CG  
REMARK    3  A    between atoms: CG   and  CD  
REMARK    4  A    between atoms: CD   and  CE  
ROOT
ATOM      1  CA  LYS A 131      29.867  25.555  16.977  1.00 20.52     0.186 C 
ENDROOT
BRANCH   1   2
ATOM      2  CB  LYS A 131      28.345  25.722  17.026  1.00 20.94     0.034 C 
BRANCH   2   3
ATOM      3  CG  LYS A 131      27.599  24.455  16.636  1.00 22.96     0.005 C 
BRANCH   3   4
ATOM      4  CD  LYS A 131      26.972  23.779  17.823  1.00 24.33     0.041 C 
BRANCH   4   5
ATOM      5  CE  LYS A 131      25.538  23.383  17.485  1.00 26.91     0.338 C 
ATOM      6  NZ  LYS A 131      24.730  24.584  17.166  1.00 27.40     0.618 N 
ENDBRANCH   4   5
ENDBRANCH   3   4
ENDBRANCH   2   3
ENDBRANCH   1   2
END_RES LYS A 131
BEGIN_RES LYS A 135
REMARK  4 active torsions:
REMARK  status: ('A' for Active; 'I' for Inactive)
REMARK    5  A    between atoms: CA   and  CB  
REMARK    6  A    between atoms: CB   and  CG  
REMARK    7  A    between atoms: CG   and  CD  
REMARK    8  A    between atoms: CD   and  CE  
ROOT
ATOM      7  CA  LYS A 135      33.193  34.663   9.290  1.00 25.02     0.186 C 
ENDROOT
BRANCH   7   8
ATOM      8  CB  LYS A 135      32.060  35.360  10.034  1.00 26.63     0.034 C 
BRANCH   8   9
ATOM      9  CG  LYS A 135      30.860  35.650   9.170  1.00 29.45     0.005 C 
BRANCH   9  10
ATOM     10  CD  LYS A 135      30.398  34.390   8.454  1.00 32.00     0.041 C 
BRANCH  10  11
ATOM     11  CE  LYS A 135      28.886  34.372   8.330  1.00 34.25     0.338 C 
ATOM     12  NZ  LYS A 135      28.261  33.692   9.498  1.00 35.99     0.618 N 
ENDBRANCH  10  11
ENDBRANCH   9  10
ENDBRANCH   8   9
ENDBRANCH   7   8
END_RES LYS A 135
