REMARK VINA RESULT:    -4.570      3.849      6.619
REMARK INTER + INTRA:         -14.980
REMARK INTER:                  -9.495
REMARK INTRA:                  -5.484
REMARK UNBOUND:                -6.804
REMARK SMILES CC(=O)N[C@@H]1[C@@H](O)C[C@](O)(C(=O)O)O[C@H]1C(O)[C@H](O)CNC(=O)OCc1cn(-c2ccccc2C(C)=O)nn1
REMARK SMILES IDX 21 1 22 2 23 3 20 5 18 6 16 7 15 8 9 9 8 10 14 11 6 12 5 13
REMARK SMILES IDX 10 14 11 16 12 17 13 18 7 20 4 22 2 23 1 25 3 26 17 27 19 29
REMARK SMILES IDX 24 31 25 32 26 33 27 34 39 35 28 36 38 37 29 38 34 39 30 40
REMARK SMILES IDX 33 41 31 42 32 43 35 44 37 45 36 46
REMARK H PARENT 21 4 10 15 13 19 7 21 4 24 17 28 19 30
REMARK Flexibility Score: inf
ROOT
ATOM      1  N   UNL     1      29.204  32.334  17.839  1.00  0.00    -0.319 N 
ATOM      2  C   UNL     1      28.015  31.937  17.135  1.00  0.00     0.407 C 
ATOM      3  O   UNL     1      27.959  30.784  16.644  1.00  0.00    -0.225 OA
ATOM      4  H   UNL     1      29.209  33.293  18.237  1.00  0.00     0.167 HD
ENDROOT
BRANCH   1   5
ATOM      5  C   UNL     1      30.303  31.421  17.957  1.00  0.00     0.154 C 
BRANCH   5   6
ATOM      6  C   UNL     1      30.681  31.008  19.341  1.00  0.00     0.165 C 
BRANCH   6   7
ATOM      7  C   UNL     1      29.729  30.044  19.982  1.00  0.00     0.176 C 
BRANCH   7   8
ATOM      8  C   UNL     1      30.306  29.266  21.135  1.00  0.00     0.178 C 
ATOM      9  C   UNL     1      32.247  28.847  22.314  1.00  0.00     0.269 C 
ATOM     10  C   UNL     1      32.155  27.343  22.134  1.00  0.00     0.112 C 
ATOM     11  O   UNL     1      31.632  29.479  21.295  1.00  0.00    -0.332 OA
ATOM     12  C   UNL     1      31.228  26.967  21.027  1.00  0.00     0.145 C 
ATOM     13  C   UNL     1      29.998  27.793  20.969  1.00  0.00     0.142 C 
BRANCH   9  14
ATOM     14  O   UNL     1      33.658  29.106  22.248  1.00  0.00    -0.357 OA
ATOM     15  H   UNL     1      34.144  28.233  22.368  1.00  0.00     0.214 HD
ENDBRANCH   9  14
BRANCH   9  16
ATOM     16  C   UNL     1      31.862  29.199  23.685  1.00  0.00     0.364 C 
ATOM     17  O   UNL     1      31.466  28.362  24.529  1.00  0.00    -0.246 OA
BRANCH  16  18
ATOM     18  O   UNL     1      31.919  30.520  24.134  1.00  0.00    -0.477 OA
ATOM     19  H   UNL     1      31.093  30.971  24.510  1.00  0.00     0.296 HD
ENDBRANCH  16  18
ENDBRANCH   9  16
BRANCH  12  20
ATOM     20  O   UNL     1      31.920  27.108  19.812  1.00  0.00    -0.391 OA
ATOM     21  H   UNL     1      31.349  26.927  19.027  1.00  0.00     0.211 HD
ENDBRANCH  12  20
BRANCH  13  22
ATOM     22  N   UNL     1      28.986  27.305  21.850  1.00  0.00    -0.348 N 
ATOM     23  C   UNL     1      27.624  27.162  21.464  1.00  0.00     0.217 C 
ATOM     24  H   UNL     1      29.240  27.035  22.818  1.00  0.00     0.163 HD
ATOM     25  C   UNL     1      26.609  26.649  22.420  1.00  0.00     0.114 C 
ATOM     26  O   UNL     1      27.237  27.463  20.306  1.00  0.00    -0.275 OA
ENDBRANCH  13  22
ENDBRANCH   7   8
BRANCH   7  27
ATOM     27  O   UNL     1      28.977  29.314  19.097  1.00  0.00    -0.388 OA
ATOM     28  H   UNL     1      29.243  28.353  19.208  1.00  0.00     0.211 HD
ENDBRANCH   7  27
ENDBRANCH   6   7
BRANCH   6  29
ATOM     29  O   UNL     1      30.576  32.222  20.139  1.00  0.00    -0.388 OA
ATOM     30  H   UNL     1      31.134  32.012  20.934  1.00  0.00     0.211 HD
ENDBRANCH   6  29
ENDBRANCH   5   6
ENDBRANCH   1   5
BRANCH   2  31
ATOM     31  O   UNL     1      26.931  32.767  16.969  1.00  0.00    -0.443 OA
BRANCH  31  32
ATOM     32  C   UNL     1      26.867  33.716  15.908  1.00  0.00     0.294 C 
BRANCH  32  33
ATOM     33  C   UNL     1      25.960  33.259  14.825  1.00  0.00     0.121 A 
ATOM     34  C   UNL     1      25.082  32.208  14.841  1.00  0.00     0.144 A 
ATOM     35  N   UNL     1      25.836  33.818  13.590  1.00  0.00    -0.131 NA
ATOM     36  N   UNL     1      24.455  32.161  13.619  1.00  0.00    -0.220 N 
ATOM     37  N   UNL     1      24.945  33.153  12.901  1.00  0.00    -0.062 NA
BRANCH  36  38
ATOM     38  C   UNL     1      23.502  31.220  13.157  1.00  0.00     0.077 A 
ATOM     39  C   UNL     1      22.209  31.497  12.876  1.00  0.00     0.043 A 
ATOM     40  C   UNL     1      24.016  29.915  12.987  1.00  0.00     0.029 A 
ATOM     41  C   UNL     1      21.383  30.467  12.413  1.00  0.00     0.014 A 
ATOM     42  C   UNL     1      23.194  28.914  12.532  1.00  0.00     0.002 A 
ATOM     43  C   UNL     1      21.887  29.211  12.252  1.00  0.00     0.001 A 
BRANCH  39  44
ATOM     44  C   UNL     1      21.604  32.801  13.030  1.00  0.00     0.161 C 
ATOM     45  O   UNL     1      21.110  33.072  14.199  1.00  0.00    -0.294 OA
ATOM     46  C   UNL     1      21.479  33.859  12.028  1.00  0.00     0.093 C 
ENDBRANCH  39  44
ENDBRANCH  36  38
ENDBRANCH  32  33
ENDBRANCH  31  32
ENDBRANCH   2  31
TORSDOF 16
BEGIN_RES LYS A 131
REMARK  4 active torsions:
REMARK  status: ('A' for Active; 'I' for Inactive)
REMARK    1  A    between atoms: CA   and  CB  
REMARK    2  A    between atoms: CB   and  CG  
REMARK    3  A    between atoms: CG   and  CD  
REMARK    4  A    between atoms: CD   and  CE  
ROOT
ATOM      1  CA  LYS A 131      29.867  25.555  16.977  1.00 20.52     0.186 C 
ENDROOT
BRANCH   1   2
ATOM      2  CB  LYS A 131      28.345  25.722  17.026  1.00 20.94     0.034 C 
BRANCH   2   3
ATOM      3  CG  LYS A 131      27.602  24.399  16.924  1.00 22.96     0.005 C 
BRANCH   3   4
ATOM      4  CD  LYS A 131      26.532  24.268  17.973  1.00 24.33     0.041 C 
BRANCH   4   5
ATOM      5  CE  LYS A 131      25.203  24.756  17.407  1.00 26.91     0.338 C 
ATOM      6  NZ  LYS A 131      24.374  23.610  16.966  1.00 27.40     0.618 N 
ENDBRANCH   4   5
ENDBRANCH   3   4
ENDBRANCH   2   3
ENDBRANCH   1   2
END_RES LYS A 131
BEGIN_RES LYS A 135
REMARK  4 active torsions:
REMARK  status: ('A' for Active; 'I' for Inactive)
REMARK    5  A    between atoms: CA   and  CB  
REMARK    6  A    between atoms: CB   and  CG  
REMARK    7  A    between atoms: CG   and  CD  
REMARK    8  A    between atoms: CD   and  CE  
ROOT
ATOM      7  CA  LYS A 135      33.193  34.663   9.290  1.00 25.02     0.186 C 
ENDROOT
BRANCH   7   8
ATOM      8  CB  LYS A 135      32.060  35.360  10.034  1.00 26.63     0.034 C 
BRANCH   8   9
ATOM      9  CG  LYS A 135      30.794  35.481   9.226  1.00 29.45     0.005 C 
BRANCH   9  10
ATOM     10  CD  LYS A 135      30.191  34.109   8.964  1.00 32.00     0.041 C 
BRANCH  10  11
ATOM     11  CE  LYS A 135      28.740  34.072   9.405  1.00 34.25     0.338 C 
ATOM     12  NZ  LYS A 135      27.842  34.594   8.339  1.00 35.99     0.618 N 
ENDBRANCH  10  11
ENDBRANCH   9  10
ENDBRANCH   8   9
ENDBRANCH   7   8
END_RES LYS A 135
