REMARK VINA RESULT:    -4.622      0.000      0.000
REMARK INTER + INTRA:         -15.520
REMARK INTER:                  -9.326
REMARK INTRA:                  -6.194
REMARK UNBOUND:                -6.980
REMARK SMILES CC(=O)N[C@@H]1[C@@H](O)C[C@](O)(C(=O)O)O[C@H]1C(O)[C@H](O)CNC(=O)OCc1cn(Cc2ccc(C#N)cc2)nn1
REMARK SMILES IDX 21 1 22 2 23 3 20 5 18 6 16 7 15 8 9 9 8 10 14 11 6 12 5 13
REMARK SMILES IDX 10 14 11 16 12 17 13 18 7 20 4 22 2 23 1 25 3 26 17 27 19 29
REMARK SMILES IDX 24 31 25 32 26 33 27 34 39 35 28 36 38 37 29 38 30 39 31 40
REMARK SMILES IDX 37 41 32 42 36 43 33 44 34 45 35 46
REMARK H PARENT 21 4 10 15 13 19 7 21 4 24 17 28 19 30
REMARK Flexibility Score: inf
ROOT
ATOM      1  N   UNL     1      25.195  28.655  17.313  1.00  0.00    -0.319 N 
ATOM      2  C   UNL     1      24.578  29.940  17.290  1.00  0.00     0.407 C 
ATOM      3  O   UNL     1      24.185  30.460  18.392  1.00  0.00    -0.225 OA
ATOM      4  H   UNL     1      25.507  28.256  16.408  1.00  0.00     0.167 HD
ENDROOT
BRANCH   1   5
ATOM      5  C   UNL     1      25.359  27.979  18.548  1.00  0.00     0.154 C 
BRANCH   5   6
ATOM      6  C   UNL     1      26.768  27.897  19.085  1.00  0.00     0.165 C 
BRANCH   6   7
ATOM      7  C   UNL     1      27.167  29.108  19.904  1.00  0.00     0.176 C 
BRANCH   7   8
ATOM      8  C   UNL     1      28.216  28.802  20.918  1.00  0.00     0.178 C 
ATOM      9  C   UNL     1      30.267  27.727  21.150  1.00  0.00     0.269 C 
ATOM     10  C   UNL     1      30.170  28.276  22.556  1.00  0.00     0.112 C 
ATOM     11  O   UNL     1      29.341  28.248  20.296  1.00  0.00    -0.332 OA
ATOM     12  C   UNL     1      28.823  28.097  23.162  1.00  0.00     0.145 C 
ATOM     13  C   UNL     1      27.822  27.865  22.016  1.00  0.00     0.142 C 
BRANCH   9  14
ATOM     14  O   UNL     1      30.201  26.318  21.220  1.00  0.00    -0.357 OA
ATOM     15  H   UNL     1      29.725  26.085  22.070  1.00  0.00     0.214 HD
ENDBRANCH   9  14
BRANCH   9  16
ATOM     16  C   UNL     1      31.613  28.075  20.649  1.00  0.00     0.364 C 
ATOM     17  O   UNL     1      32.200  29.081  21.108  1.00  0.00    -0.246 OA
BRANCH  16  18
ATOM     18  O   UNL     1      32.221  27.303  19.686  1.00  0.00    -0.477 OA
ATOM     19  H   UNL     1      33.165  26.964  19.728  1.00  0.00     0.296 HD
ENDBRANCH  16  18
ENDBRANCH   9  16
BRANCH  12  20
ATOM     20  O   UNL     1      28.750  27.082  24.095  1.00  0.00    -0.391 OA
ATOM     21  H   UNL     1      28.095  26.406  23.740  1.00  0.00     0.211 HD
ENDBRANCH  12  20
BRANCH  13  22
ATOM     22  N   UNL     1      26.479  27.978  22.493  1.00  0.00    -0.348 N 
ATOM     23  C   UNL     1      25.713  26.814  22.844  1.00  0.00     0.217 C 
ATOM     24  H   UNL     1      25.996  28.913  22.616  1.00  0.00     0.163 HD
ATOM     25  C   UNL     1      24.311  26.943  23.340  1.00  0.00     0.114 C 
ATOM     26  O   UNL     1      26.206  25.664  22.740  1.00  0.00    -0.275 OA
ENDBRANCH  13  22
ENDBRANCH   7   8
BRANCH   7  27
ATOM     27  O   UNL     1      26.068  29.755  20.369  1.00  0.00    -0.388 OA
ATOM     28  H   UNL     1      25.257  29.246  20.419  1.00  0.00     0.211 HD
ENDBRANCH   7  27
ENDBRANCH   6   7
BRANCH   6  29
ATOM     29  O   UNL     1      27.578  27.841  17.922  1.00  0.00    -0.388 OA
ATOM     30  H   UNL     1      28.049  28.680  17.764  1.00  0.00     0.211 HD
ENDBRANCH   6  29
ENDBRANCH   5   6
ENDBRANCH   1   5
BRANCH   2  31
ATOM     31  O   UNL     1      24.364  30.687  16.146  1.00  0.00    -0.443 OA
BRANCH  31  32
ATOM     32  C   UNL     1      25.349  31.614  15.745  1.00  0.00     0.294 C 
BRANCH  32  33
ATOM     33  C   UNL     1      26.719  31.133  16.041  1.00  0.00     0.120 A 
ATOM     34  C   UNL     1      27.653  31.688  16.902  1.00  0.00     0.138 A 
ATOM     35  N   UNL     1      27.297  30.047  15.513  1.00  0.00    -0.132 NA
ATOM     36  N   UNL     1      28.752  30.929  16.868  1.00  0.00    -0.248 N 
ATOM     37  N   UNL     1      28.506  29.951  16.023  1.00  0.00    -0.067 NA
BRANCH  36  38
ATOM     38  C   UNL     1      29.977  31.123  17.612  1.00  0.00     0.181 C 
BRANCH  38  39
ATOM     39  C   UNL     1      30.728  32.317  17.222  1.00  0.00    -0.026 A 
ATOM     40  C   UNL     1      30.963  33.310  18.138  1.00  0.00     0.007 A 
ATOM     41  C   UNL     1      31.196  32.446  15.924  1.00  0.00     0.007 A 
ATOM     42  C   UNL     1      31.666  34.446  17.783  1.00  0.00     0.020 A 
ATOM     43  C   UNL     1      31.904  33.577  15.541  1.00  0.00     0.020 A 
ATOM     44  C   UNL     1      32.131  34.575  16.491  1.00  0.00     0.052 A 
BRANCH  44  45
ATOM     45  C   UNL     1      32.859  35.750  16.111  1.00  0.00     0.099 C 
ATOM     46  N   UNL     1      33.439  36.718  15.798  1.00  0.00    -0.192 NA
ENDBRANCH  44  45
ENDBRANCH  38  39
ENDBRANCH  36  38
ENDBRANCH  32  33
ENDBRANCH  31  32
ENDBRANCH   2  31
TORSDOF 17
BEGIN_RES LYS A 131
REMARK  4 active torsions:
REMARK  status: ('A' for Active; 'I' for Inactive)
REMARK    1  A    between atoms: CA   and  CB  
REMARK    2  A    between atoms: CB   and  CG  
REMARK    3  A    between atoms: CG   and  CD  
REMARK    4  A    between atoms: CD   and  CE  
ROOT
ATOM      1  CA  LYS A 131      29.867  25.555  16.977  1.00 20.52     0.186 C 
ENDROOT
BRANCH   1   2
ATOM      2  CB  LYS A 131      28.345  25.722  17.026  1.00 20.94     0.034 C 
BRANCH   2   3
ATOM      3  CG  LYS A 131      27.602  24.400  16.915  1.00 22.96     0.005 C 
BRANCH   3   4
ATOM      4  CD  LYS A 131      26.165  24.520  17.341  1.00 24.33     0.041 C 
BRANCH   4   5
ATOM      5  CE  LYS A 131      25.963  23.790  18.664  1.00 26.91     0.338 C 
ATOM      6  NZ  LYS A 131      24.915  24.458  19.472  1.00 27.40     0.618 N 
ENDBRANCH   4   5
ENDBRANCH   3   4
ENDBRANCH   2   3
ENDBRANCH   1   2
END_RES LYS A 131
BEGIN_RES LYS A 135
REMARK  4 active torsions:
REMARK  status: ('A' for Active; 'I' for Inactive)
REMARK    5  A    between atoms: CA   and  CB  
REMARK    6  A    between atoms: CB   and  CG  
REMARK    7  A    between atoms: CG   and  CD  
REMARK    8  A    between atoms: CD   and  CE  
ROOT
ATOM      7  CA  LYS A 135      33.193  34.663   9.290  1.00 25.02     0.186 C 
ENDROOT
BRANCH   7   8
ATOM      8  CB  LYS A 135      32.060  35.360  10.034  1.00 26.63     0.034 C 
BRANCH   8   9
ATOM      9  CG  LYS A 135      30.699  34.787   9.732  1.00 29.45     0.005 C 
BRANCH   9  10
ATOM     10  CD  LYS A 135      30.559  34.491   8.247  1.00 32.00     0.041 C 
BRANCH  10  11
ATOM     11  CE  LYS A 135      29.205  34.948   7.738  1.00 34.25     0.338 C 
ATOM     12  NZ  LYS A 135      28.190  34.932   8.828  1.00 35.99     0.618 N 
ENDBRANCH  10  11
ENDBRANCH   9  10
ENDBRANCH   8   9
ENDBRANCH   7   8
END_RES LYS A 135
