REMARK VINA RESULT:    -4.734      7.303     13.368
REMARK INTER + INTRA:         -15.958
REMARK INTER:                 -11.047
REMARK INTRA:                  -4.911
REMARK UNBOUND:                -6.934
REMARK SMILES CC(=O)N[C@@H]1[C@@H](O)C[C@](O)(C(=O)O)O[C@H]1C(O)[C@H](O)CNC(=O)OCc1cn(C(C)CC(=O)c2ccccc2)nn1
REMARK SMILES IDX 21 1 22 2 23 3 20 5 18 6 16 7 15 8 9 9 8 10 14 11 6 12 5 13
REMARK SMILES IDX 10 14 11 16 12 17 13 18 7 20 4 22 2 23 1 25 3 26 17 27 19 29
REMARK SMILES IDX 24 31 25 32 26 33 27 34 41 35 28 36 40 37 29 38 30 39 31 40
REMARK SMILES IDX 32 41 33 42 34 43 35 44 39 45 36 46 38 47 37 48
REMARK H PARENT 21 4 10 15 13 19 7 21 4 24 17 28 19 30
REMARK Flexibility Score: inf
ROOT
ATOM      1  N   UNL     1      23.878  39.802   8.383  1.00  0.00    -0.319 N 
ATOM      2  C   UNL     1      22.752  39.775   9.255  1.00  0.00     0.407 C 
ATOM      3  O   UNL     1      22.914  40.088  10.449  1.00  0.00    -0.225 OA
ATOM      4  H   UNL     1      23.658  39.524   7.378  1.00  0.00     0.167 HD
ENDROOT
BRANCH   1   5
ATOM      5  C   UNL     1      25.217  40.169   8.788  1.00  0.00     0.154 C 
BRANCH   5   6
ATOM      6  C   UNL     1      26.080  38.956   9.054  1.00  0.00     0.165 C 
BRANCH   6   7
ATOM      7  C   UNL     1      26.558  38.310   7.771  1.00  0.00     0.176 C 
BRANCH   7   8
ATOM      8  C   UNL     1      27.943  37.745   7.877  1.00  0.00     0.178 C 
ATOM      9  C   UNL     1      29.331  39.251   6.759  1.00  0.00     0.269 C 
ATOM     10  C   UNL     1      29.580  38.282   5.630  1.00  0.00     0.112 C 
ATOM     11  O   UNL     1      28.927  38.694   7.935  1.00  0.00    -0.332 OA
ATOM     12  C   UNL     1      28.478  37.279   5.464  1.00  0.00     0.145 C 
ATOM     13  C   UNL     1      28.207  36.682   6.826  1.00  0.00     0.142 C 
BRANCH   9  14
ATOM     14  O   UNL     1      28.489  40.291   6.302  1.00  0.00    -0.357 OA
ATOM     15  H   UNL     1      27.701  40.403   6.866  1.00  0.00     0.214 HD
ENDBRANCH   9  14
BRANCH   9  16
ATOM     16  C   UNL     1      30.662  39.909   7.026  1.00  0.00     0.364 C 
ATOM     17  O   UNL     1      30.816  41.134   7.115  1.00  0.00    -0.246 OA
BRANCH  16  18
ATOM     18  O   UNL     1      31.738  39.016   7.173  1.00  0.00    -0.477 OA
ATOM     19  H   UNL     1      32.567  39.108   6.606  1.00  0.00     0.296 HD
ENDBRANCH  16  18
ENDBRANCH   9  16
BRANCH  12  20
ATOM     20  O   UNL     1      27.351  37.805   4.877  1.00  0.00    -0.391 OA
ATOM     21  H   UNL     1      27.037  37.207   4.156  1.00  0.00     0.211 HD
ENDBRANCH  12  20
BRANCH  13  22
ATOM     22  N   UNL     1      29.468  36.035   7.227  1.00  0.00    -0.348 N 
ATOM     23  C   UNL     1      29.417  34.873   8.045  1.00  0.00     0.217 C 
ATOM     24  H   UNL     1      30.393  36.400   6.932  1.00  0.00     0.163 HD
ATOM     25  C   UNL     1      30.698  34.232   8.438  1.00  0.00     0.114 C 
ATOM     26  O   UNL     1      28.302  34.432   8.400  1.00  0.00    -0.275 OA
ENDBRANCH  13  22
ENDBRANCH   7   8
BRANCH   7  27
ATOM     27  O   UNL     1      25.627  37.319   7.450  1.00  0.00    -0.388 OA
ATOM     28  H   UNL     1      25.473  36.747   8.259  1.00  0.00     0.211 HD
ENDBRANCH   7  27
ENDBRANCH   6   7
BRANCH   6  29
ATOM     29  O   UNL     1      25.336  38.030   9.814  1.00  0.00    -0.388 OA
ATOM     30  H   UNL     1      24.546  37.699   9.319  1.00  0.00     0.211 HD
ENDBRANCH   6  29
ENDBRANCH   5   6
ENDBRANCH   1   5
BRANCH   2  31
ATOM     31  O   UNL     1      21.492  39.419   8.833  1.00  0.00    -0.443 OA
BRANCH  31  32
ATOM     32  C   UNL     1      20.989  38.104   8.762  1.00  0.00     0.294 C 
BRANCH  32  33
ATOM     33  C   UNL     1      21.953  37.061   9.124  1.00  0.00     0.120 A 
ATOM     34  C   UNL     1      21.965  36.337  10.324  1.00  0.00     0.138 A 
ATOM     35  N   UNL     1      23.004  36.576   8.414  1.00  0.00    -0.132 NA
ATOM     36  N   UNL     1      22.973  35.489  10.286  1.00  0.00    -0.249 N 
ATOM     37  N   UNL     1      23.582  35.643   9.146  1.00  0.00    -0.067 NA
BRANCH  36  38
ATOM     38  C   UNL     1      23.330  34.529  11.378  1.00  0.00     0.114 C 
ATOM     39  C   UNL     1      24.219  35.329  12.295  1.00  0.00     0.034 C 
BRANCH  38  40
ATOM     40  C   UNL     1      22.080  34.118  12.002  1.00  0.00     0.108 C 
BRANCH  40  41
ATOM     41  C   UNL     1      22.043  33.017  12.911  1.00  0.00     0.164 C 
ATOM     42  O   UNL     1      21.533  33.356  14.099  1.00  0.00    -0.294 OA
BRANCH  41  43
ATOM     43  C   UNL     1      22.431  31.643  12.834  1.00  0.00     0.018 A 
ATOM     44  C   UNL     1      21.461  30.688  12.442  1.00  0.00     0.012 A 
ATOM     45  C   UNL     1      23.688  31.152  13.091  1.00  0.00     0.012 A 
ATOM     46  C   UNL     1      21.770  29.356  12.331  1.00  0.00     0.001 A 
ATOM     47  C   UNL     1      23.964  29.797  12.968  1.00  0.00     0.001 A 
ATOM     48  C   UNL     1      23.032  28.886  12.594  1.00  0.00     0.000 A 
ENDBRANCH  41  43
ENDBRANCH  40  41
ENDBRANCH  38  40
ENDBRANCH  36  38
ENDBRANCH  32  33
ENDBRANCH  31  32
ENDBRANCH   2  31
TORSDOF 18
BEGIN_RES LYS A 131
REMARK  4 active torsions:
REMARK  status: ('A' for Active; 'I' for Inactive)
REMARK    1  A    between atoms: CA   and  CB  
REMARK    2  A    between atoms: CB   and  CG  
REMARK    3  A    between atoms: CG   and  CD  
REMARK    4  A    between atoms: CD   and  CE  
ROOT
ATOM      1  CA  LYS A 131      29.867  25.555  16.977  1.00 20.52     0.186 C 
ENDROOT
BRANCH   1   2
ATOM      2  CB  LYS A 131      28.345  25.722  17.026  1.00 20.94     0.034 C 
BRANCH   2   3
ATOM      3  CG  LYS A 131      27.602  24.399  16.927  1.00 22.96     0.005 C 
BRANCH   3   4
ATOM      4  CD  LYS A 131      26.546  24.261  17.988  1.00 24.33     0.041 C 
BRANCH   4   5
ATOM      5  CE  LYS A 131      25.165  24.340  17.346  1.00 26.91     0.338 C 
ATOM      6  NZ  LYS A 131      24.524  25.642  17.649  1.00 27.40     0.618 N 
ENDBRANCH   4   5
ENDBRANCH   3   4
ENDBRANCH   2   3
ENDBRANCH   1   2
END_RES LYS A 131
BEGIN_RES LYS A 135
REMARK  4 active torsions:
REMARK  status: ('A' for Active; 'I' for Inactive)
REMARK    5  A    between atoms: CA   and  CB  
REMARK    6  A    between atoms: CB   and  CG  
REMARK    7  A    between atoms: CG   and  CD  
REMARK    8  A    between atoms: CD   and  CE  
ROOT
ATOM      7  CA  LYS A 135      33.193  34.663   9.290  1.00 25.02     0.186 C 
ENDROOT
BRANCH   7   8
ATOM      8  CB  LYS A 135      32.060  35.360  10.034  1.00 26.63     0.034 C 
BRANCH   8   9
ATOM      9  CG  LYS A 135      32.501  36.037  11.306  1.00 29.45     0.005 C 
BRANCH   9  10
ATOM     10  CD  LYS A 135      31.881  37.421  11.421  1.00 32.00     0.041 C 
BRANCH  10  11
ATOM     11  CE  LYS A 135      30.368  37.334  11.353  1.00 34.25     0.338 C 
ATOM     12  NZ  LYS A 135      29.807  36.753  12.604  1.00 35.99     0.618 N 
ENDBRANCH  10  11
ENDBRANCH   9  10
ENDBRANCH   8   9
ENDBRANCH   7   8
END_RES LYS A 135
