REMARK VINA RESULT:    -4.457      5.285      9.048
REMARK INTER + INTRA:         -15.065
REMARK INTER:                  -9.897
REMARK INTRA:                  -5.168
REMARK UNBOUND:                -5.918
REMARK SMILES CC(=O)N[C@@H]1[C@@H](O)C[C@](O)(C(=O)O)O[C@H]1C(O)[C@H](O)CNC(=O)OCc1cn(CCCCCC(=O)O)nn1
REMARK SMILES IDX 25 1 24 2 22 3 21 4 23 6 20 7 18 8 16 9 15 10 9 11 8 12
REMARK SMILES IDX 14 13 6 14 5 15 10 16 11 18 12 19 13 20 7 22 4 24 2 25 1 27
REMARK SMILES IDX 3 28 17 29 19 31 26 33 27 34 38 35 28 36 37 37 29 38 30 39
REMARK SMILES IDX 31 40 32 41 33 42 34 43 35 44 36 45
REMARK H PARENT 21 5 10 17 13 21 7 23 4 26 17 30 19 32 36 46
REMARK Flexibility Score: inf
ROOT
ATOM      1  C   UNL     1      29.508  37.255  13.441  1.00  0.00     0.294 C 
ENDROOT
BRANCH   1   2
ATOM      2  O   UNL     1      30.634  36.737  12.741  1.00  0.00    -0.443 OA
BRANCH   2   3
ATOM      3  C   UNL     1      31.200  35.547  13.213  1.00  0.00     0.407 C 
ATOM      4  N   UNL     1      31.629  35.500  14.569  1.00  0.00    -0.319 N 
ATOM      5  H   UNL     1      31.494  36.366  15.155  1.00  0.00     0.167 HD
ATOM      6  O   UNL     1      31.303  34.583  12.415  1.00  0.00    -0.225 OA
BRANCH   4   7
ATOM      7  C   UNL     1      32.216  34.299  15.072  1.00  0.00     0.154 C 
BRANCH   7   8
ATOM      8  C   UNL     1      31.225  33.232  15.473  1.00  0.00     0.165 C 
BRANCH   8   9
ATOM      9  C   UNL     1      31.189  33.165  16.987  1.00  0.00     0.176 C 
BRANCH   9  10
ATOM     10  C   UNL     1      29.852  33.439  17.591  1.00  0.00     0.178 C 
ATOM     11  C   UNL     1      29.188  31.195  17.486  1.00  0.00     0.269 C 
ATOM     12  C   UNL     1      28.401  31.577  16.222  1.00  0.00     0.112 C 
ATOM     13  O   UNL     1      29.426  32.303  18.248  1.00  0.00    -0.332 OA
ATOM     14  C   UNL     1      27.698  32.866  16.572  1.00  0.00     0.145 C 
ATOM     15  C   UNL     1      28.791  33.946  16.683  1.00  0.00     0.142 C 
BRANCH  11  16
ATOM     16  O   UNL     1      30.318  30.459  17.137  1.00  0.00    -0.357 OA
ATOM     17  H   UNL     1      31.163  30.910  17.455  1.00  0.00     0.214 HD
ENDBRANCH  11  16
BRANCH  11  18
ATOM     18  C   UNL     1      28.294  30.301  18.265  1.00  0.00     0.364 C 
ATOM     19  O   UNL     1      27.832  30.686  19.381  1.00  0.00    -0.246 OA
BRANCH  18  20
ATOM     20  O   UNL     1      27.979  29.056  17.750  1.00  0.00    -0.477 OA
ATOM     21  H   UNL     1      27.217  28.553  18.226  1.00  0.00     0.296 HD
ENDBRANCH  18  20
ENDBRANCH  11  18
BRANCH  14  22
ATOM     22  O   UNL     1      26.758  33.229  15.607  1.00  0.00    -0.391 OA
ATOM     23  H   UNL     1      27.044  32.802  14.757  1.00  0.00     0.211 HD
ENDBRANCH  14  22
BRANCH  15  24
ATOM     24  N   UNL     1      28.191  35.180  17.170  1.00  0.00    -0.348 N 
ATOM     25  C   UNL     1      28.870  36.414  17.177  1.00  0.00     0.217 C 
ATOM     26  H   UNL     1      27.195  35.142  17.531  1.00  0.00     0.163 HD
ATOM     27  C   UNL     1      28.221  37.674  17.691  1.00  0.00     0.114 C 
ATOM     28  O   UNL     1      30.061  36.450  16.739  1.00  0.00    -0.275 OA
ENDBRANCH  15  24
ENDBRANCH   9  10
BRANCH   9  29
ATOM     29  O   UNL     1      32.011  34.257  17.391  1.00  0.00    -0.388 OA
ATOM     30  H   UNL     1      32.891  33.862  17.592  1.00  0.00     0.211 HD
ENDBRANCH   9  29
ENDBRANCH   8   9
BRANCH   8  31
ATOM     31  O   UNL     1      31.605  32.049  14.880  1.00  0.00    -0.388 OA
ATOM     32  H   UNL     1      31.176  31.271  15.315  1.00  0.00     0.211 HD
ENDBRANCH   8  31
ENDBRANCH   7   8
ENDBRANCH   4   7
ENDBRANCH   2   3
ENDBRANCH   1   2
BRANCH   1  33
ATOM     33  C   UNL     1      28.383  36.337  13.149  1.00  0.00     0.120 A 
ATOM     34  C   UNL     1      28.044  35.922  11.877  1.00  0.00     0.138 A 
ATOM     35  N   UNL     1      27.532  35.765  13.999  1.00  0.00    -0.132 NA
ATOM     36  N   UNL     1      26.981  35.105  12.036  1.00  0.00    -0.252 N 
ATOM     37  N   UNL     1      26.680  35.016  13.313  1.00  0.00    -0.067 NA
BRANCH  36  38
ATOM     38  C   UNL     1      26.327  34.463  10.893  1.00  0.00     0.146 C 
BRANCH  38  39
ATOM     39  C   UNL     1      27.378  34.216   9.843  1.00  0.00     0.024 C 
BRANCH  39  40
ATOM     40  C   UNL     1      26.841  34.337   8.433  1.00  0.00     0.002 C 
BRANCH  40  41
ATOM     41  C   UNL     1      27.506  35.418   7.653  1.00  0.00     0.012 C 
BRANCH  41  42
ATOM     42  C   UNL     1      26.624  36.605   7.379  1.00  0.00     0.122 C 
BRANCH  42  43
ATOM     43  C   UNL     1      27.177  37.543   6.390  1.00  0.00     0.303 C 
ATOM     44  O   UNL     1      27.738  37.137   5.360  1.00  0.00    -0.252 OA
BRANCH  43  45
ATOM     45  O   UNL     1      27.084  38.932   6.590  1.00  0.00    -0.481 OA
ATOM     46  H   UNL     1      27.498  39.360   7.425  1.00  0.00     0.296 HD
ENDBRANCH  43  45
ENDBRANCH  42  43
ENDBRANCH  41  42
ENDBRANCH  40  41
ENDBRANCH  39  40
ENDBRANCH  38  39
ENDBRANCH  36  38
ENDBRANCH   1  33
TORSDOF 21
BEGIN_RES LYS A 131
REMARK  4 active torsions:
REMARK  status: ('A' for Active; 'I' for Inactive)
REMARK    1  A    between atoms: CA   and  CB  
REMARK    2  A    between atoms: CB   and  CG  
REMARK    3  A    between atoms: CG   and  CD  
REMARK    4  A    between atoms: CD   and  CE  
ROOT
ATOM      1  CA  LYS A 131      29.867  25.555  16.977  1.00 20.52     0.186 C 
ENDROOT
BRANCH   1   2
ATOM      2  CB  LYS A 131      28.345  25.722  17.026  1.00 20.94     0.034 C 
BRANCH   2   3
ATOM      3  CG  LYS A 131      27.601  24.403  16.881  1.00 22.96     0.005 C 
BRANCH   3   4
ATOM      4  CD  LYS A 131      26.147  24.531  17.241  1.00 24.33     0.041 C 
BRANCH   4   5
ATOM      5  CE  LYS A 131      25.621  23.183  17.723  1.00 26.91     0.338 C 
ATOM      6  NZ  LYS A 131      24.289  22.905  17.136  1.00 27.40     0.618 N 
ENDBRANCH   4   5
ENDBRANCH   3   4
ENDBRANCH   2   3
ENDBRANCH   1   2
END_RES LYS A 131
BEGIN_RES LYS A 135
REMARK  4 active torsions:
REMARK  status: ('A' for Active; 'I' for Inactive)
REMARK    5  A    between atoms: CA   and  CB  
REMARK    6  A    between atoms: CB   and  CG  
REMARK    7  A    between atoms: CG   and  CD  
REMARK    8  A    between atoms: CD   and  CE  
ROOT
ATOM      7  CA  LYS A 135      33.193  34.663   9.290  1.00 25.02     0.186 C 
ENDROOT
BRANCH   7   8
ATOM      8  CB  LYS A 135      32.060  35.360  10.034  1.00 26.63     0.034 C 
BRANCH   8   9
ATOM      9  CG  LYS A 135      30.895  35.726   9.151  1.00 29.45     0.005 C 
BRANCH   9  10
ATOM     10  CD  LYS A 135      30.472  37.167   9.391  1.00 32.00     0.041 C 
BRANCH  10  11
ATOM     11  CE  LYS A 135      30.267  37.888   8.072  1.00 34.25     0.338 C 
ATOM     12  NZ  LYS A 135      30.279  39.365   8.261  1.00 35.99     0.618 N 
ENDBRANCH  10  11
ENDBRANCH   9  10
ENDBRANCH   8   9
ENDBRANCH   7   8
END_RES LYS A 135
