REMARK VINA RESULT:    -4.739      4.029      7.108
REMARK INTER + INTRA:         -13.475
REMARK INTER:                  -7.079
REMARK INTRA:                  -6.396
REMARK UNBOUND:                -5.272
REMARK SMILES CC(=O)N[C@@H]1[C@@H](O)C[C@](O)(C(=O)O)O[C@H]1C(O)[C@H](O)CNC(=O)OCc1cn(-c2ccncc2)nn1
REMARK SMILES IDX 20 1 18 2 16 3 15 4 9 5 8 6 14 7 6 8 5 9 10 10 11 12 12 13
REMARK SMILES IDX 13 14 7 16 4 18 2 19 1 21 3 22 17 23 19 25 21 27 22 28 23 30
REMARK SMILES IDX 24 31 25 32 26 33 27 34 36 35 28 36 35 37 29 38 30 39 34 40
REMARK SMILES IDX 31 41 33 42 32 43
REMARK H PARENT 10 11 13 15 7 17 4 20 17 24 19 26 21 29
REMARK Flexibility Score: inf
ROOT
ATOM      1  C   UNL     1      25.271  34.611  15.478  1.00  0.00     0.154 C 
ENDROOT
BRANCH   1   2
ATOM      2  C   UNL     1      26.206  34.360  16.608  1.00  0.00     0.165 C 
BRANCH   2   3
ATOM      3  C   UNL     1      27.655  34.634  16.240  1.00  0.00     0.176 C 
BRANCH   3   4
ATOM      4  C   UNL     1      28.526  33.432  16.316  1.00  0.00     0.178 C 
ATOM      5  C   UNL     1      29.899  32.182  17.686  1.00  0.00     0.269 C 
ATOM      6  C   UNL     1      30.155  31.384  16.431  1.00  0.00     0.112 C 
ATOM      7  O   UNL     1      28.834  33.036  17.587  1.00  0.00    -0.332 OA
ATOM      8  C   UNL     1      30.346  32.253  15.219  1.00  0.00     0.145 C 
ATOM      9  C   UNL     1      29.831  33.636  15.563  1.00  0.00     0.142 C 
BRANCH   5  10
ATOM     10  O   UNL     1      31.047  32.843  18.124  1.00  0.00    -0.357 OA
ATOM     11  H   UNL     1      31.821  32.223  18.208  1.00  0.00     0.214 HD
ENDBRANCH   5  10
BRANCH   5  12
ATOM     12  C   UNL     1      29.561  31.182  18.758  1.00  0.00     0.364 C 
ATOM     13  O   UNL     1      30.394  30.410  19.258  1.00  0.00    -0.246 OA
BRANCH  12  14
ATOM     14  O   UNL     1      28.232  31.165  19.171  1.00  0.00    -0.477 OA
ATOM     15  H   UNL     1      27.483  31.080  18.487  1.00  0.00     0.296 HD
ENDBRANCH  12  14
ENDBRANCH   5  12
BRANCH   8  16
ATOM     16  O   UNL     1      31.683  32.318  14.828  1.00  0.00    -0.391 OA
ATOM     17  H   UNL     1      31.755  32.109  13.865  1.00  0.00     0.211 HD
ENDBRANCH   8  16
BRANCH   9  18
ATOM     18  N   UNL     1      29.656  34.452  14.384  1.00  0.00    -0.348 N 
ATOM     19  C   UNL     1      30.479  35.590  14.157  1.00  0.00     0.217 C 
ATOM     20  H   UNL     1      28.933  34.236  13.675  1.00  0.00     0.163 HD
ATOM     21  C   UNL     1      30.326  36.457  12.946  1.00  0.00     0.114 C 
ATOM     22  O   UNL     1      31.365  35.875  15.002  1.00  0.00    -0.275 OA
ENDBRANCH   9  18
ENDBRANCH   3   4
BRANCH   3  23
ATOM     23  O   UNL     1      28.121  35.762  16.863  1.00  0.00    -0.388 OA
ATOM     24  H   UNL     1      29.047  35.595  17.189  1.00  0.00     0.211 HD
ENDBRANCH   3  23
ENDBRANCH   2   3
BRANCH   2  25
ATOM     25  O   UNL     1      26.174  33.053  17.061  1.00  0.00    -0.388 OA
ATOM     26  H   UNL     1      26.258  32.968  18.037  1.00  0.00     0.211 HD
ENDBRANCH   2  25
ENDBRANCH   1   2
BRANCH   1  27
ATOM     27  N   UNL     1      24.808  33.382  14.900  1.00  0.00    -0.319 N 
ATOM     28  C   UNL     1      23.588  32.731  15.116  1.00  0.00     0.407 C 
ATOM     29  H   UNL     1      25.469  32.881  14.210  1.00  0.00     0.167 HD
ATOM     30  O   UNL     1      22.749  33.196  15.889  1.00  0.00    -0.225 OA
BRANCH  28  31
ATOM     31  O   UNL     1      23.247  31.525  14.474  1.00  0.00    -0.443 OA
BRANCH  31  32
ATOM     32  C   UNL     1      24.292  30.654  14.025  1.00  0.00     0.294 C 
BRANCH  32  33
ATOM     33  C   UNL     1      25.117  30.197  15.147  1.00  0.00     0.121 A 
ATOM     34  C   UNL     1      24.843  29.252  16.109  1.00  0.00     0.144 A 
ATOM     35  N   UNL     1      26.353  30.661  15.431  1.00  0.00    -0.131 NA
ATOM     36  N   UNL     1      25.921  29.190  16.924  1.00  0.00    -0.220 N 
ATOM     37  N   UNL     1      26.824  30.041  16.507  1.00  0.00    -0.062 NA
BRANCH  36  38
ATOM     38  C   UNL     1      26.080  28.342  18.064  1.00  0.00     0.069 A 
ATOM     39  C   UNL     1      27.348  27.957  18.427  1.00  0.00     0.048 A 
ATOM     40  C   UNL     1      24.971  27.918  18.785  1.00  0.00     0.048 A 
ATOM     41  C   UNL     1      27.484  27.139  19.528  1.00  0.00     0.113 A 
ATOM     42  C   UNL     1      25.158  27.109  19.868  1.00  0.00     0.113 A 
ATOM     43  N   UNL     1      26.408  26.738  20.216  1.00  0.00    -0.265 NA
ENDBRANCH  36  38
ENDBRANCH  32  33
ENDBRANCH  31  32
ENDBRANCH  28  31
ENDBRANCH   1  27
TORSDOF 15
BEGIN_RES LYS A 131
REMARK  4 active torsions:
REMARK  status: ('A' for Active; 'I' for Inactive)
REMARK    1  A    between atoms: CA   and  CB  
REMARK    2  A    between atoms: CB   and  CG  
REMARK    3  A    between atoms: CG   and  CD  
REMARK    4  A    between atoms: CD   and  CE  
ROOT
ATOM      1  CA  LYS A 131      29.867  25.555  16.977  1.00 20.52     0.186 C 
ENDROOT
BRANCH   1   2
ATOM      2  CB  LYS A 131      28.345  25.722  17.026  1.00 20.94     0.034 C 
BRANCH   2   3
ATOM      3  CG  LYS A 131      27.602  24.399  16.917  1.00 22.96     0.005 C 
BRANCH   3   4
ATOM      4  CD  LYS A 131      26.149  24.535  17.280  1.00 24.33     0.041 C 
BRANCH   4   5
ATOM      5  CE  LYS A 131      25.741  23.378  18.187  1.00 26.91     0.338 C 
ATOM      6  NZ  LYS A 131      24.691  22.556  17.540  1.00 27.40     0.618 N 
ENDBRANCH   4   5
ENDBRANCH   3   4
ENDBRANCH   2   3
ENDBRANCH   1   2
END_RES LYS A 131
BEGIN_RES LYS A 135
REMARK  4 active torsions:
REMARK  status: ('A' for Active; 'I' for Inactive)
REMARK    5  A    between atoms: CA   and  CB  
REMARK    6  A    between atoms: CB   and  CG  
REMARK    7  A    between atoms: CG   and  CD  
REMARK    8  A    between atoms: CD   and  CE  
ROOT
ATOM      7  CA  LYS A 135      33.193  34.663   9.290  1.00 25.02     0.186 C 
ENDROOT
BRANCH   7   8
ATOM      8  CB  LYS A 135      32.060  35.360  10.034  1.00 26.63     0.034 C 
BRANCH   8   9
ATOM      9  CG  LYS A 135      30.709  34.736   9.796  1.00 29.45     0.005 C 
BRANCH   9  10
ATOM     10  CD  LYS A 135      30.467  34.532   8.308  1.00 32.00     0.041 C 
BRANCH  10  11
ATOM     11  CE  LYS A 135      29.021  34.825   7.958  1.00 34.25     0.338 C 
ATOM     12  NZ  LYS A 135      28.918  35.531   6.651  1.00 35.99     0.618 N 
ENDBRANCH  10  11
ENDBRANCH   9  10
ENDBRANCH   8   9
ENDBRANCH   7   8
END_RES LYS A 135
