REMARK VINA RESULT:    -5.162      2.532      3.937
REMARK INTER + INTRA:         -14.750
REMARK INTER:                  -7.993
REMARK INTRA:                  -6.757
REMARK UNBOUND:                -5.212
REMARK SMILES CC(=O)N[C@@H]1[C@@H](O)C[C@](O)(C(=O)O)O[C@H]1C(O)[C@H](O)CNC(=O)OCc1cn(Cc2cccc(C#N)c2)nn1
REMARK SMILES IDX 21 1 22 2 23 3 20 5 18 6 16 7 15 8 9 9 8 10 14 11 6 12 5 13
REMARK SMILES IDX 10 14 11 16 12 17 13 18 7 20 4 22 2 23 1 25 3 26 17 27 19 29
REMARK SMILES IDX 24 31 25 32 26 33 27 34 39 35 28 36 38 37 29 38 30 39 31 40
REMARK SMILES IDX 37 41 32 42 34 43 33 44 35 45 36 46
REMARK H PARENT 21 4 10 15 13 19 7 21 4 24 17 28 19 30
REMARK Flexibility Score: inf
ROOT
ATOM      1  N   UNL     1      29.685  30.361  18.115  1.00  0.00    -0.319 N 
ATOM      2  C   UNL     1      29.014  30.806  19.260  1.00  0.00     0.407 C 
ATOM      3  O   UNL     1      28.794  32.021  19.440  1.00  0.00    -0.225 OA
ATOM      4  H   UNL     1      29.831  29.311  18.030  1.00  0.00     0.167 HD
ENDROOT
BRANCH   1   5
ATOM      5  C   UNL     1      30.170  31.234  17.079  1.00  0.00     0.154 C 
BRANCH   5   6
ATOM      6  C   UNL     1      29.381  31.129  15.804  1.00  0.00     0.165 C 
BRANCH   6   7
ATOM      7  C   UNL     1      28.268  32.091  15.653  1.00  0.00     0.176 C 
BRANCH   7   8
ATOM      8  C   UNL     1      28.664  33.460  15.075  1.00  0.00     0.178 C 
ATOM      9  C   UNL     1      30.331  34.492  13.915  1.00  0.00     0.269 C 
ATOM     10  C   UNL     1      30.641  35.399  15.088  1.00  0.00     0.112 C 
ATOM     11  O   UNL     1      29.822  33.324  14.420  1.00  0.00    -0.332 OA
ATOM     12  C   UNL     1      29.395  35.733  15.863  1.00  0.00     0.145 C 
ATOM     13  C   UNL     1      28.501  34.545  16.069  1.00  0.00     0.142 C 
BRANCH   9  14
ATOM     14  O   UNL     1      31.555  34.219  13.253  1.00  0.00    -0.357 OA
ATOM     15  H   UNL     1      31.790  33.294  13.551  1.00  0.00     0.214 HD
ENDBRANCH   9  14
BRANCH   9  16
ATOM     16  C   UNL     1      29.492  35.209  12.950  1.00  0.00     0.364 C 
ATOM     17  O   UNL     1      29.808  36.335  12.500  1.00  0.00    -0.246 OA
BRANCH  16  18
ATOM     18  O   UNL     1      28.274  34.699  12.455  1.00  0.00    -0.477 OA
ATOM     19  H   UNL     1      27.981  35.086  11.555  1.00  0.00     0.296 HD
ENDBRANCH  16  18
ENDBRANCH   9  16
BRANCH  12  20
ATOM     20  O   UNL     1      29.791  36.260  17.092  1.00  0.00    -0.391 OA
ATOM     21  H   UNL     1      30.743  36.113  17.274  1.00  0.00     0.211 HD
ENDBRANCH  12  20
BRANCH  13  22
ATOM     22  N   UNL     1      27.125  35.000  16.122  1.00  0.00    -0.348 N 
ATOM     23  C   UNL     1      26.497  35.422  17.350  1.00  0.00     0.217 C 
ATOM     24  H   UNL     1      26.489  35.055  15.287  1.00  0.00     0.163 HD
ATOM     25  C   UNL     1      25.072  35.883  17.355  1.00  0.00     0.114 C 
ATOM     26  O   UNL     1      27.139  35.407  18.418  1.00  0.00    -0.275 OA
ENDBRANCH  13  22
ENDBRANCH   7   8
BRANCH   7  27
ATOM     27  O   UNL     1      27.598  32.352  16.850  1.00  0.00    -0.388 OA
ATOM     28  H   UNL     1      26.634  32.139  16.806  1.00  0.00     0.211 HD
ENDBRANCH   7  27
ENDBRANCH   6   7
BRANCH   6  29
ATOM     29  O   UNL     1      29.050  29.788  15.613  1.00  0.00    -0.388 OA
ATOM     30  H   UNL     1      29.828  29.243  15.886  1.00  0.00     0.211 HD
ENDBRANCH   6  29
ENDBRANCH   5   6
ENDBRANCH   1   5
BRANCH   2  31
ATOM     31  O   UNL     1      28.560  29.938  20.253  1.00  0.00    -0.443 OA
BRANCH  31  32
ATOM     32  C   UNL     1      28.151  28.647  19.880  1.00  0.00     0.294 C 
BRANCH  32  33
ATOM     33  C   UNL     1      27.159  28.755  18.792  1.00  0.00     0.120 A 
ATOM     34  C   UNL     1      25.868  29.230  18.859  1.00  0.00     0.138 A 
ATOM     35  N   UNL     1      27.355  28.399  17.509  1.00  0.00    -0.132 NA
ATOM     36  N   UNL     1      25.323  29.150  17.631  1.00  0.00    -0.248 N 
ATOM     37  N   UNL     1      26.262  28.641  16.842  1.00  0.00    -0.067 NA
BRANCH  36  38
ATOM     38  C   UNL     1      24.015  29.522  17.162  1.00  0.00     0.181 C 
BRANCH  38  39
ATOM     39  C   UNL     1      24.083  30.035  15.753  1.00  0.00    -0.025 A 
ATOM     40  C   UNL     1      23.665  29.236  14.712  1.00  0.00     0.006 A 
ATOM     41  C   UNL     1      24.548  31.290  15.465  1.00  0.00     0.025 A 
ATOM     42  C   UNL     1      23.720  29.711  13.397  1.00  0.00     0.002 A 
ATOM     43  C   UNL     1      24.615  31.791  14.181  1.00  0.00     0.052 A 
ATOM     44  C   UNL     1      24.197  30.992  13.142  1.00  0.00     0.019 A 
BRANCH  43  45
ATOM     45  C   UNL     1      25.096  33.101  13.855  1.00  0.00     0.099 C 
ATOM     46  N   UNL     1      25.473  34.175  13.598  1.00  0.00    -0.192 NA
ENDBRANCH  43  45
ENDBRANCH  38  39
ENDBRANCH  36  38
ENDBRANCH  32  33
ENDBRANCH  31  32
ENDBRANCH   2  31
TORSDOF 17
BEGIN_RES LYS A 131
REMARK  4 active torsions:
REMARK  status: ('A' for Active; 'I' for Inactive)
REMARK    1  A    between atoms: CA   and  CB  
REMARK    2  A    between atoms: CB   and  CG  
REMARK    3  A    between atoms: CG   and  CD  
REMARK    4  A    between atoms: CD   and  CE  
ROOT
ATOM      1  CA  LYS A 131      29.867  25.555  16.977  1.00 20.52     0.186 C 
ENDROOT
BRANCH   1   2
ATOM      2  CB  LYS A 131      28.345  25.722  17.026  1.00 20.94     0.034 C 
BRANCH   2   3
ATOM      3  CG  LYS A 131      27.602  24.400  16.913  1.00 22.96     0.005 C 
BRANCH   3   4
ATOM      4  CD  LYS A 131      26.135  24.547  17.210  1.00 24.33     0.041 C 
BRANCH   4   5
ATOM      5  CE  LYS A 131      25.590  23.229  17.751  1.00 26.91     0.338 C 
ATOM      6  NZ  LYS A 131      25.535  23.259  19.232  1.00 27.40     0.618 N 
ENDBRANCH   4   5
ENDBRANCH   3   4
ENDBRANCH   2   3
ENDBRANCH   1   2
END_RES LYS A 131
BEGIN_RES LYS A 135
REMARK  4 active torsions:
REMARK  status: ('A' for Active; 'I' for Inactive)
REMARK    5  A    between atoms: CA   and  CB  
REMARK    6  A    between atoms: CB   and  CG  
REMARK    7  A    between atoms: CG   and  CD  
REMARK    8  A    between atoms: CD   and  CE  
ROOT
ATOM      7  CA  LYS A 135      33.193  34.663   9.290  1.00 25.02     0.186 C 
ENDROOT
BRANCH   7   8
ATOM      8  CB  LYS A 135      32.060  35.360  10.034  1.00 26.63     0.034 C 
BRANCH   8   9
ATOM      9  CG  LYS A 135      30.807  35.518   9.212  1.00 29.45     0.005 C 
BRANCH   9  10
ATOM     10  CD  LYS A 135      30.003  34.227   9.206  1.00 32.00     0.041 C 
BRANCH  10  11
ATOM     11  CE  LYS A 135      28.612  34.468   8.651  1.00 34.25     0.338 C 
ATOM     12  NZ  LYS A 135      27.591  33.693   9.408  1.00 35.99     0.618 N 
ENDBRANCH  10  11
ENDBRANCH   9  10
ENDBRANCH   8   9
ENDBRANCH   7   8
END_RES LYS A 135
