REMARK VINA RESULT:    -4.535      4.542      9.417
REMARK INTER + INTRA:         -14.339
REMARK INTER:                  -9.153
REMARK INTRA:                  -5.186
REMARK UNBOUND:                -6.490
REMARK SMILES CC(=O)N[C@@H]1[C@@H](O)C[C@](O)(C(=O)O)O[C@H]1C(O)[C@H](O)CNC(=O)OCc1cn(-c2ccc3[nH]ncc3c2)nn1
REMARK SMILES IDX 20 1 18 2 16 3 15 4 9 5 8 6 14 7 6 8 5 9 10 10 11 12 12 13
REMARK SMILES IDX 13 14 7 16 4 18 2 19 1 21 3 22 17 23 19 25 21 27 22 28 23 30
REMARK SMILES IDX 24 31 25 32 26 33 27 34 39 35 28 36 38 37 29 38 30 39 37 40
REMARK SMILES IDX 31 41 36 42 32 43 35 44 33 45 34 46
REMARK H PARENT 10 11 13 15 7 17 4 20 17 24 19 26 21 29 33 47
REMARK Flexibility Score: inf
ROOT
ATOM      1  C   UNL     1      29.316  32.002  15.678  1.00  0.00     0.154 C 
ENDROOT
BRANCH   1   2
ATOM      2  C   UNL     1      30.699  32.109  16.150  1.00  0.00     0.165 C 
BRANCH   2   3
ATOM      3  C   UNL     1      31.049  33.572  16.501  1.00  0.00     0.176 C 
BRANCH   3   4
ATOM      4  C   UNL     1      30.543  34.548  15.531  1.00  0.00     0.178 C 
ATOM      5  C   UNL     1      32.333  35.083  14.124  1.00  0.00     0.269 C 
ATOM      6  C   UNL     1      32.752  36.058  15.187  1.00  0.00     0.112 C 
ATOM      7  O   UNL     1      31.081  34.563  14.279  1.00  0.00    -0.332 OA
ATOM      8  C   UNL     1      31.622  36.815  15.791  1.00  0.00     0.145 C 
ATOM      9  C   UNL     1      30.447  35.956  16.133  1.00  0.00     0.142 C 
BRANCH   5  10
ATOM     10  O   UNL     1      33.267  34.050  14.053  1.00  0.00    -0.357 OA
ATOM     11  H   UNL     1      32.865  33.168  14.244  1.00  0.00     0.214 HD
ENDBRANCH   5  10
BRANCH   5  12
ATOM     12  C   UNL     1      32.361  35.812  12.835  1.00  0.00     0.364 C 
ATOM     13  O   UNL     1      31.446  36.600  12.546  1.00  0.00    -0.246 OA
BRANCH  12  14
ATOM     14  O   UNL     1      33.405  35.612  11.956  1.00  0.00    -0.477 OA
ATOM     15  H   UNL     1      33.288  35.613  10.933  1.00  0.00     0.296 HD
ENDBRANCH  12  14
ENDBRANCH   5  12
BRANCH   8  16
ATOM     16  O   UNL     1      32.111  37.489  16.926  1.00  0.00    -0.391 OA
ATOM     17  H   UNL     1      32.739  36.860  17.353  1.00  0.00     0.211 HD
ENDBRANCH   8  16
BRANCH   9  18
ATOM     18  N   UNL     1      29.184  36.581  15.842  1.00  0.00    -0.348 N 
ATOM     19  C   UNL     1      28.075  36.508  16.728  1.00  0.00     0.217 C 
ATOM     20  H   UNL     1      29.057  37.122  14.933  1.00  0.00     0.163 HD
ATOM     21  C   UNL     1      26.800  37.166  16.383  1.00  0.00     0.114 C 
ATOM     22  O   UNL     1      28.207  35.873  17.805  1.00  0.00    -0.275 OA
ENDBRANCH   9  18
ENDBRANCH   3   4
BRANCH   3  23
ATOM     23  O   UNL     1      30.252  33.750  17.689  1.00  0.00    -0.388 OA
ATOM     24  H   UNL     1      30.560  33.138  18.397  1.00  0.00     0.211 HD
ENDBRANCH   3  23
ENDBRANCH   2   3
BRANCH   2  25
ATOM     25  O   UNL     1      31.515  31.840  14.986  1.00  0.00    -0.388 OA
ATOM     26  H   UNL     1      32.428  31.579  15.288  1.00  0.00     0.211 HD
ENDBRANCH   2  25
ENDBRANCH   1   2
BRANCH   1  27
ATOM     27  N   UNL     1      28.348  31.520  16.624  1.00  0.00    -0.319 N 
ATOM     28  C   UNL     1      27.849  30.191  16.581  1.00  0.00     0.407 C 
ATOM     29  H   UNL     1      28.027  32.122  17.399  1.00  0.00     0.167 HD
ATOM     30  O   UNL     1      28.277  29.425  15.680  1.00  0.00    -0.225 OA
BRANCH  28  31
ATOM     31  O   UNL     1      26.922  29.695  17.468  1.00  0.00    -0.443 OA
BRANCH  31  32
ATOM     32  C   UNL     1      26.868  30.020  18.844  1.00  0.00     0.294 C 
BRANCH  32  33
ATOM     33  C   UNL     1      27.944  29.236  19.539  1.00  0.00     0.121 A 
ATOM     34  C   UNL     1      29.150  29.687  20.030  1.00  0.00     0.144 A 
ATOM     35  N   UNL     1      27.928  27.903  19.820  1.00  0.00    -0.131 NA
ATOM     36  N   UNL     1      29.788  28.611  20.574  1.00  0.00    -0.220 N 
ATOM     37  N   UNL     1      29.024  27.544  20.433  1.00  0.00    -0.062 NA
BRANCH  36  38
ATOM     38  C   UNL     1      31.067  28.660  21.187  1.00  0.00     0.067 A 
ATOM     39  C   UNL     1      31.899  29.734  20.934  1.00  0.00     0.030 A 
ATOM     40  C   UNL     1      31.539  27.683  22.037  1.00  0.00     0.040 A 
ATOM     41  C   UNL     1      33.153  29.837  21.500  1.00  0.00     0.030 A 
ATOM     42  C   UNL     1      32.775  27.764  22.609  1.00  0.00     0.022 A 
ATOM     43  C   UNL     1      33.613  28.848  22.353  1.00  0.00     0.065 A 
ATOM     44  C   UNL     1      33.483  26.958  23.470  1.00  0.00     0.143 A 
ATOM     45  N   UNL     1      34.755  28.672  23.037  1.00  0.00    -0.278 N 
ATOM     46  N   UNL     1      34.690  27.546  23.710  1.00  0.00    -0.183 NA
ATOM     47  H   UNL     1      35.557  29.329  23.030  1.00  0.00     0.190 HD
ENDBRANCH  36  38
ENDBRANCH  32  33
ENDBRANCH  31  32
ENDBRANCH  28  31
ENDBRANCH   1  27
TORSDOF 15
BEGIN_RES LYS A 131
REMARK  4 active torsions:
REMARK  status: ('A' for Active; 'I' for Inactive)
REMARK    1  A    between atoms: CA   and  CB  
REMARK    2  A    between atoms: CB   and  CG  
REMARK    3  A    between atoms: CG   and  CD  
REMARK    4  A    between atoms: CD   and  CE  
ROOT
ATOM      1  CA  LYS A 131      29.867  25.555  16.977  1.00 20.52     0.186 C 
ENDROOT
BRANCH   1   2
ATOM      2  CB  LYS A 131      28.345  25.722  17.026  1.00 20.94     0.034 C 
BRANCH   2   3
ATOM      3  CG  LYS A 131      27.602  24.399  16.920  1.00 22.96     0.005 C 
BRANCH   3   4
ATOM      4  CD  LYS A 131      26.150  24.534  17.289  1.00 24.33     0.041 C 
BRANCH   4   5
ATOM      5  CE  LYS A 131      26.026  24.761  18.792  1.00 26.91     0.338 C 
ATOM      6  NZ  LYS A 131      24.776  25.493  19.104  1.00 27.40     0.618 N 
ENDBRANCH   4   5
ENDBRANCH   3   4
ENDBRANCH   2   3
ENDBRANCH   1   2
END_RES LYS A 131
BEGIN_RES LYS A 135
REMARK  4 active torsions:
REMARK  status: ('A' for Active; 'I' for Inactive)
REMARK    5  A    between atoms: CA   and  CB  
REMARK    6  A    between atoms: CB   and  CG  
REMARK    7  A    between atoms: CG   and  CD  
REMARK    8  A    between atoms: CD   and  CE  
ROOT
ATOM      7  CA  LYS A 135      33.193  34.663   9.290  1.00 25.02     0.186 C 
ENDROOT
BRANCH   7   8
ATOM      8  CB  LYS A 135      32.060  35.360  10.034  1.00 26.63     0.034 C 
BRANCH   8   9
ATOM      9  CG  LYS A 135      30.775  35.426   9.249  1.00 29.45     0.005 C 
BRANCH   9  10
ATOM     10  CD  LYS A 135      30.206  34.033   9.032  1.00 32.00     0.041 C 
BRANCH  10  11
ATOM     11  CE  LYS A 135      28.713  34.019   9.299  1.00 34.25     0.338 C 
ATOM     12  NZ  LYS A 135      28.392  34.702  10.583  1.00 35.99     0.618 N 
ENDBRANCH  10  11
ENDBRANCH   9  10
ENDBRANCH   8   9
ENDBRANCH   7   8
END_RES LYS A 135
