REMARK VINA RESULT:    -4.510      6.069     10.416
REMARK INTER + INTRA:         -14.361
REMARK INTER:                 -10.610
REMARK INTRA:                  -3.751
REMARK UNBOUND:                -6.555
REMARK SMILES CC(=O)N[C@@H]1[C@@H](O)C[C@](O)(C(=O)O)O[C@H]1C(O)[C@H](O)CNC(=O)OCc1cn([C@H]2C[C@H]3CC[C@@H](C2)N3C)nn1
REMARK SMILES IDX 20 1 18 2 16 3 15 4 9 5 8 6 14 7 6 8 5 9 10 10 11 12 12 13
REMARK SMILES IDX 13 14 7 16 4 18 2 19 1 21 3 22 17 23 19 25 21 27 22 28 23 30
REMARK SMILES IDX 24 31 25 32 26 33 27 34 39 35 28 36 38 37 29 38 35 39 30 40
REMARK SMILES IDX 34 41 31 42 36 43 33 44 32 45 37 46
REMARK H PARENT 10 11 13 15 7 17 4 20 17 24 19 26 21 29
REMARK Flexibility Score: inf
ROOT
ATOM      1  C   UNL     1      24.214  37.391  10.420  1.00  0.00     0.154 C 
ENDROOT
BRANCH   1   2
ATOM      2  C   UNL     1      25.026  36.841   9.298  1.00  0.00     0.165 C 
BRANCH   2   3
ATOM      3  C   UNL     1      26.386  37.454   9.174  1.00  0.00     0.176 C 
BRANCH   3   4
ATOM      4  C   UNL     1      27.304  36.662   8.272  1.00  0.00     0.178 C 
ATOM      5  C   UNL     1      29.420  35.733   8.204  1.00  0.00     0.269 C 
ATOM      6  C   UNL     1      28.970  35.474   6.792  1.00  0.00     0.112 C 
ATOM      7  O   UNL     1      28.427  36.287   8.996  1.00  0.00    -0.332 OA
ATOM      8  C   UNL     1      28.404  36.683   6.112  1.00  0.00     0.145 C 
ATOM      9  C   UNL     1      27.778  37.568   7.154  1.00  0.00     0.142 C 
BRANCH   5  10
ATOM     10  O   UNL     1      30.585  36.496   8.263  1.00  0.00    -0.357 OA
ATOM     11  H   UNL     1      30.563  37.212   7.586  1.00  0.00     0.214 HD
ENDBRANCH   5  10
BRANCH   5  12
ATOM     12  C   UNL     1      29.753  34.403   8.806  1.00  0.00     0.364 C 
ATOM     13  O   UNL     1      28.847  33.694   9.360  1.00  0.00    -0.246 OA
BRANCH  12  14
ATOM     14  O   UNL     1      31.023  33.873   8.798  1.00  0.00    -0.477 OA
ATOM     15  H   UNL     1      31.140  32.917   8.440  1.00  0.00     0.296 HD
ENDBRANCH  12  14
ENDBRANCH   5  12
BRANCH   8  16
ATOM     16  O   UNL     1      29.298  37.331   5.292  1.00  0.00    -0.391 OA
ATOM     17  H   UNL     1      28.785  37.746   4.550  1.00  0.00     0.211 HD
ENDBRANCH   8  16
BRANCH   9  18
ATOM     18  N   UNL     1      26.721  38.400   6.636  1.00  0.00    -0.348 N 
ATOM     19  C   UNL     1      26.959  39.715   6.133  1.00  0.00     0.217 C 
ATOM     20  H   UNL     1      25.734  38.060   6.613  1.00  0.00     0.163 HD
ATOM     21  C   UNL     1      25.833  40.517   5.616  1.00  0.00     0.114 C 
ATOM     22  O   UNL     1      28.137  40.141   6.152  1.00  0.00    -0.275 OA
ENDBRANCH   9  18
ENDBRANCH   3   4
BRANCH   3  23
ATOM     23  O   UNL     1      26.974  37.514  10.437  1.00  0.00    -0.388 OA
ATOM     24  H   UNL     1      27.288  38.409  10.656  1.00  0.00     0.211 HD
ENDBRANCH   3  23
ENDBRANCH   2   3
BRANCH   2  25
ATOM     25  O   UNL     1      24.360  37.008   8.062  1.00  0.00    -0.388 OA
ATOM     26  H   UNL     1      24.664  37.897   7.723  1.00  0.00     0.211 HD
ENDBRANCH   2  25
ENDBRANCH   1   2
BRANCH   1  27
ATOM     27  N   UNL     1      24.384  36.642  11.642  1.00  0.00    -0.319 N 
ATOM     28  C   UNL     1      23.642  35.450  11.847  1.00  0.00     0.407 C 
ATOM     29  H   UNL     1      25.041  36.937  12.404  1.00  0.00     0.167 HD
ATOM     30  O   UNL     1      22.821  34.995  11.005  1.00  0.00    -0.225 OA
BRANCH  28  31
ATOM     31  O   UNL     1      23.769  34.687  13.008  1.00  0.00    -0.443 OA
BRANCH  31  32
ATOM     32  C   UNL     1      24.563  33.519  13.070  1.00  0.00     0.294 C 
BRANCH  32  33
ATOM     33  C   UNL     1      25.772  33.770  13.901  1.00  0.00     0.120 A 
ATOM     34  C   UNL     1      26.909  34.420  13.470  1.00  0.00     0.138 A 
ATOM     35  N   UNL     1      26.014  33.442  15.182  1.00  0.00    -0.132 NA
ATOM     36  N   UNL     1      27.809  34.471  14.492  1.00  0.00    -0.249 N 
ATOM     37  N   UNL     1      27.215  33.863  15.504  1.00  0.00    -0.067 NA
BRANCH  36  38
ATOM     38  C   UNL     1      29.140  35.069  14.464  1.00  0.00     0.112 C 
ATOM     39  C   UNL     1      30.072  34.093  13.847  1.00  0.00     0.046 C 
ATOM     40  C   UNL     1      29.478  35.488  15.851  1.00  0.00     0.046 C 
ATOM     41  C   UNL     1      31.465  34.121  14.362  1.00  0.00     0.058 C 
ATOM     42  C   UNL     1      30.873  35.122  16.285  1.00  0.00     0.058 C 
ATOM     43  N   UNL     1      31.742  35.309  15.137  1.00  0.00    -0.300 NA
ATOM     44  C   UNL     1      31.603  33.023  15.406  1.00  0.00     0.021 C 
ATOM     45  C   UNL     1      30.895  33.646  16.592  1.00  0.00     0.021 C 
ATOM     46  C   UNL     1      33.134  35.347  15.508  1.00  0.00     0.105 C 
ENDBRANCH  36  38
ENDBRANCH  32  33
ENDBRANCH  31  32
ENDBRANCH  28  31
ENDBRANCH   1  27
TORSDOF 15
BEGIN_RES LYS A 131
REMARK  4 active torsions:
REMARK  status: ('A' for Active; 'I' for Inactive)
REMARK    1  A    between atoms: CA   and  CB  
REMARK    2  A    between atoms: CB   and  CG  
REMARK    3  A    between atoms: CG   and  CD  
REMARK    4  A    between atoms: CD   and  CE  
ROOT
ATOM      1  CA  LYS A 131      29.867  25.555  16.977  1.00 20.52     0.186 C 
ENDROOT
BRANCH   1   2
ATOM      2  CB  LYS A 131      28.345  25.722  17.026  1.00 20.94     0.034 C 
BRANCH   2   3
ATOM      3  CG  LYS A 131      27.599  24.451  16.652  1.00 22.96     0.005 C 
BRANCH   3   4
ATOM      4  CD  LYS A 131      27.039  23.747  17.857  1.00 24.33     0.041 C 
BRANCH   4   5
ATOM      5  CE  LYS A 131      26.258  24.741  18.710  1.00 26.91     0.338 C 
ATOM      6  NZ  LYS A 131      25.438  24.028  19.718  1.00 27.40     0.618 N 
ENDBRANCH   4   5
ENDBRANCH   3   4
ENDBRANCH   2   3
ENDBRANCH   1   2
END_RES LYS A 131
BEGIN_RES LYS A 135
REMARK  4 active torsions:
REMARK  status: ('A' for Active; 'I' for Inactive)
REMARK    5  A    between atoms: CA   and  CB  
REMARK    6  A    between atoms: CB   and  CG  
REMARK    7  A    between atoms: CG   and  CD  
REMARK    8  A    between atoms: CD   and  CE  
ROOT
ATOM      7  CA  LYS A 135      33.193  34.663   9.290  1.00 25.02     0.186 C 
ENDROOT
BRANCH   7   8
ATOM      8  CB  LYS A 135      32.060  35.360  10.034  1.00 26.63     0.034 C 
BRANCH   8   9
ATOM      9  CG  LYS A 135      32.494  36.006  11.325  1.00 29.45     0.005 C 
BRANCH   9  10
ATOM     10  CD  LYS A 135      31.414  36.941  11.847  1.00 32.00     0.041 C 
BRANCH  10  11
ATOM     11  CE  LYS A 135      31.506  38.293  11.166  1.00 34.25     0.338 C 
ATOM     12  NZ  LYS A 135      30.156  38.801  10.797  1.00 35.99     0.618 N 
ENDBRANCH  10  11
ENDBRANCH   9  10
ENDBRANCH   8   9
ENDBRANCH   7   8
END_RES LYS A 135
