REMARK VINA RESULT:    -4.372      7.042     11.980
REMARK INTER + INTRA:         -14.719
REMARK INTER:                  -9.502
REMARK INTRA:                  -5.217
REMARK UNBOUND:                -5.875
REMARK SMILES CC[N+](C)(CC)CCCn1cc(COC(=O)NC[C@@H](O)C(O)[C@@H]2O[C@@](O)(C(=O)O)C[C@H](O)[C@H]2NC(C)=O)nn1
REMARK SMILES IDX 14 1 15 2 17 3 16 5 18 6 19 7 21 8 23 9 25 10 30 11 24 12
REMARK SMILES IDX 31 13 33 14 26 15 27 17 28 18 29 19 32 21 34 23 35 24 36 26
REMARK SMILES IDX 37 27 22 28 20 30 13 32 12 33 11 34 38 35 10 36 39 37 9 38
REMARK SMILES IDX 8 39 7 40 3 41 4 42 2 43 1 44 5 45 6 46
REMARK H PARENT 17 4 26 16 29 20 32 22 34 25 22 29 20 31
REMARK Flexibility Score: inf
ROOT
ATOM      1  O   UNL     1      25.592  33.486  15.045  1.00  0.00    -0.443 OA
ENDROOT
BRANCH   1   2
ATOM      2  C   UNL     1      25.466  33.637  13.679  1.00  0.00     0.407 C 
ATOM      3  N   UNL     1      26.341  34.479  12.921  1.00  0.00    -0.319 N 
ATOM      4  H   UNL     1      27.075  34.959  13.453  1.00  0.00     0.167 HD
ATOM      5  O   UNL     1      24.555  33.015  13.086  1.00  0.00    -0.225 OA
BRANCH   3   6
ATOM      6  C   UNL     1      26.149  34.582  11.522  1.00  0.00     0.154 C 
BRANCH   6   7
ATOM      7  C   UNL     1      25.484  35.821  11.023  1.00  0.00     0.165 C 
BRANCH   7   8
ATOM      8  C   UNL     1      25.016  35.780   9.601  1.00  0.00     0.176 C 
BRANCH   8   9
ATOM      9  C   UNL     1      23.732  36.505   9.335  1.00  0.00     0.178 C 
ATOM     10  C   UNL     1      21.703  36.277   8.276  1.00  0.00     0.269 C 
ATOM     11  C   UNL     1      21.448  37.517   9.112  1.00  0.00     0.112 C 
ATOM     12  O   UNL     1      22.930  35.719   8.542  1.00  0.00    -0.332 OA
ATOM     13  C   UNL     1      22.496  38.555   8.853  1.00  0.00     0.145 C 
ATOM     14  C   UNL     1      23.862  37.872   8.761  1.00  0.00     0.142 C 
BRANCH  10  15
ATOM     15  O   UNL     1      21.683  36.680   6.928  1.00  0.00    -0.357 OA
ATOM     16  H   UNL     1      22.268  36.038   6.447  1.00  0.00     0.214 HD
ENDBRANCH  10  15
BRANCH  10  17
ATOM     17  C   UNL     1      20.624  35.301   8.489  1.00  0.00     0.364 C 
ATOM     18  O   UNL     1      20.008  35.261   9.591  1.00  0.00    -0.246 OA
BRANCH  17  19
ATOM     19  O   UNL     1      20.250  34.409   7.506  1.00  0.00    -0.477 OA
ATOM     20  H   UNL     1      20.327  34.642   6.534  1.00  0.00     0.296 HD
ENDBRANCH  17  19
ENDBRANCH  10  17
BRANCH  13  21
ATOM     21  O   UNL     1      22.194  39.205   7.648  1.00  0.00    -0.391 OA
ATOM     22  H   UNL     1      21.684  40.023   7.837  1.00  0.00     0.211 HD
ENDBRANCH  13  21
BRANCH  14  23
ATOM     23  N   UNL     1      24.743  38.721   9.571  1.00  0.00    -0.348 N 
ATOM     24  C   UNL     1      25.418  39.818   8.986  1.00  0.00     0.217 C 
ATOM     25  H   UNL     1      24.864  38.502  10.586  1.00  0.00     0.163 HD
ATOM     26  C   UNL     1      26.316  40.674   9.825  1.00  0.00     0.114 C 
ATOM     27  O   UNL     1      25.304  40.131   7.761  1.00  0.00    -0.275 OA
ENDBRANCH  14  23
ENDBRANCH   8   9
BRANCH   8  28
ATOM     28  O   UNL     1      26.037  36.273   8.774  1.00  0.00    -0.388 OA
ATOM     29  H   UNL     1      26.548  35.486   8.440  1.00  0.00     0.211 HD
ENDBRANCH   8  28
ENDBRANCH   7   8
BRANCH   7  30
ATOM     30  O   UNL     1      26.410  36.873  11.194  1.00  0.00    -0.388 OA
ATOM     31  H   UNL     1      27.303  36.642  10.868  1.00  0.00     0.211 HD
ENDBRANCH   7  30
ENDBRANCH   6   7
ENDBRANCH   3   6
ENDBRANCH   1   2
BRANCH   1  32
ATOM     32  C   UNL     1      25.499  32.184  15.605  1.00  0.00     0.294 C 
BRANCH  32  33
ATOM     33  C   UNL     1      26.854  31.624  15.807  1.00  0.00     0.120 A 
ATOM     34  C   UNL     1      28.042  32.264  16.086  1.00  0.00     0.138 A 
ATOM     35  N   UNL     1      27.180  30.315  15.748  1.00  0.00    -0.132 NA
ATOM     36  N   UNL     1      29.039  31.363  16.187  1.00  0.00    -0.252 N 
ATOM     37  N   UNL     1      28.472  30.193  15.975  1.00  0.00    -0.067 NA
BRANCH  36  38
ATOM     38  C   UNL     1      30.423  31.573  16.458  1.00  0.00     0.152 C 
BRANCH  38  39
ATOM     39  C   UNL     1      31.166  32.228  15.356  1.00  0.00     0.085 C 
BRANCH  39  40
ATOM     40  C   UNL     1      31.518  33.651  15.487  1.00  0.00     0.265 C 
BRANCH  40  41
ATOM     41  N   UNL     1      31.112  34.589  14.523  1.00  0.00    -0.326 N 
ATOM     42  C   UNL     1      30.059  34.193  13.627  1.00  0.00     0.334 C 
BRANCH  41  43
ATOM     43  C   UNL     1      30.546  35.724  15.278  1.00  0.00     0.260 C 
ATOM     44  C   UNL     1      30.222  36.908  14.453  1.00  0.00     0.071 C 
ENDBRANCH  41  43
BRANCH  41  45
ATOM     45  C   UNL     1      32.189  35.129  13.742  1.00  0.00     0.260 C 
ATOM     46  C   UNL     1      33.550  34.881  14.284  1.00  0.00     0.071 C 
ENDBRANCH  41  45
ENDBRANCH  40  41
ENDBRANCH  39  40
ENDBRANCH  38  39
ENDBRANCH  36  38
ENDBRANCH  32  33
ENDBRANCH   1  32
TORSDOF 20
BEGIN_RES LYS A 131
REMARK  4 active torsions:
REMARK  status: ('A' for Active; 'I' for Inactive)
REMARK    1  A    between atoms: CA   and  CB  
REMARK    2  A    between atoms: CB   and  CG  
REMARK    3  A    between atoms: CG   and  CD  
REMARK    4  A    between atoms: CD   and  CE  
ROOT
ATOM      1  CA  LYS A 131      29.867  25.555  16.977  1.00 20.52     0.186 C 
ENDROOT
BRANCH   1   2
ATOM      2  CB  LYS A 131      28.345  25.722  17.026  1.00 20.94     0.034 C 
BRANCH   2   3
ATOM      3  CG  LYS A 131      27.601  24.402  16.891  1.00 22.96     0.005 C 
BRANCH   3   4
ATOM      4  CD  LYS A 131      26.305  24.402  17.653  1.00 24.33     0.041 C 
BRANCH   4   5
ATOM      5  CE  LYS A 131      26.198  25.682  18.476  1.00 26.91     0.338 C 
ATOM      6  NZ  LYS A 131      25.570  25.403  19.789  1.00 27.40     0.618 N 
ENDBRANCH   4   5
ENDBRANCH   3   4
ENDBRANCH   2   3
ENDBRANCH   1   2
END_RES LYS A 131
BEGIN_RES LYS A 135
REMARK  4 active torsions:
REMARK  status: ('A' for Active; 'I' for Inactive)
REMARK    5  A    between atoms: CA   and  CB  
REMARK    6  A    between atoms: CB   and  CG  
REMARK    7  A    between atoms: CG   and  CD  
REMARK    8  A    between atoms: CD   and  CE  
ROOT
ATOM      7  CA  LYS A 135      33.193  34.663   9.290  1.00 25.02     0.186 C 
ENDROOT
BRANCH   7   8
ATOM      8  CB  LYS A 135      32.060  35.360  10.034  1.00 26.63     0.034 C 
BRANCH   8   9
ATOM      9  CG  LYS A 135      30.712  34.724   9.811  1.00 29.45     0.005 C 
BRANCH   9  10
ATOM     10  CD  LYS A 135      30.464  34.499   8.328  1.00 32.00     0.041 C 
BRANCH  10  11
ATOM     11  CE  LYS A 135      29.018  34.795   7.978  1.00 34.25     0.338 C 
ATOM     12  NZ  LYS A 135      28.918  35.540   6.693  1.00 35.99     0.618 N 
ENDBRANCH  10  11
ENDBRANCH   9  10
ENDBRANCH   8   9
ENDBRANCH   7   8
END_RES LYS A 135
