REMARK VINA RESULT:    -6.540      4.832      8.338
REMARK INTER + INTRA:         -16.240
REMARK INTER:                 -10.260
REMARK INTRA:                  -5.980
REMARK UNBOUND:                -3.774
REMARK SMILES CC(=O)N[C@@H]1[C@@H](O)C[C@](O)(C(=O)O)O[C@H]1C(O)[C@H](O)CNC(=O)OCc1cn(COCc2ccccc2)nn1
REMARK SMILES IDX 21 1 22 2 23 3 20 5 18 6 16 7 15 8 9 9 8 10 14 11 6 12 5 13
REMARK SMILES IDX 10 14 11 16 12 17 13 18 7 20 4 22 2 23 1 25 3 26 17 27 19 29
REMARK SMILES IDX 24 31 25 32 26 33 27 34 39 35 28 36 38 37 29 38 30 39 31 40
REMARK SMILES IDX 32 41 33 42 37 43 34 44 36 45 35 46
REMARK H PARENT 21 4 10 15 13 19 7 21 4 24 17 28 19 30
REMARK Flexibility Score: inf
ROOT
ATOM      1  N   UNL     1      29.387  30.498  18.236  1.00  0.00    -0.319 N 
ATOM      2  C   UNL     1      28.388  30.918  19.163  1.00  0.00     0.407 C 
ATOM      3  O   UNL     1      28.293  32.131  19.521  1.00  0.00    -0.225 OA
ATOM      4  H   UNL     1      29.434  29.502  17.967  1.00  0.00     0.167 HD
ENDROOT
BRANCH   1   5
ATOM      5  C   UNL     1      30.284  31.514  17.724  1.00  0.00     0.154 C 
BRANCH   5   6
ATOM      6  C   UNL     1      29.887  31.981  16.349  1.00  0.00     0.165 C 
BRANCH   6   7
ATOM      7  C   UNL     1      31.047  32.697  15.692  1.00  0.00     0.176 C 
BRANCH   7   8
ATOM      8  C   UNL     1      30.647  33.990  15.062  1.00  0.00     0.178 C 
ATOM      9  C   UNL     1      29.230  34.830  13.414  1.00  0.00     0.269 C 
ATOM     10  C   UNL     1      30.166  36.031  13.406  1.00  0.00     0.112 C 
ATOM     11  O   UNL     1      29.801  33.703  13.995  1.00  0.00    -0.332 OA
ATOM     12  C   UNL     1      31.574  35.485  13.298  1.00  0.00     0.145 C 
ATOM     13  C   UNL     1      31.850  34.796  14.625  1.00  0.00     0.142 C 
BRANCH   9  14
ATOM     14  O   UNL     1      29.024  34.509  12.074  1.00  0.00    -0.357 OA
ATOM     15  H   UNL     1      29.750  33.941  11.711  1.00  0.00     0.214 HD
ENDBRANCH   9  14
BRANCH   9  16
ATOM     16  C   UNL     1      27.940  35.185  14.018  1.00  0.00     0.364 C 
ATOM     17  O   UNL     1      27.603  36.393  14.091  1.00  0.00    -0.246 OA
BRANCH  16  18
ATOM     18  O   UNL     1      27.048  34.249  14.527  1.00  0.00    -0.477 OA
ATOM     19  H   UNL     1      26.172  34.113  14.032  1.00  0.00     0.296 HD
ENDBRANCH  16  18
ENDBRANCH   9  16
BRANCH  12  20
ATOM     20  O   UNL     1      31.695  34.583  12.246  1.00  0.00    -0.391 OA
ATOM     21  H   UNL     1      31.101  33.793  12.437  1.00  0.00     0.211 HD
ENDBRANCH  12  20
BRANCH  13  22
ATOM     22  N   UNL     1      32.098  35.839  15.597  1.00  0.00    -0.348 N 
ATOM     23  C   UNL     1      33.428  36.139  15.998  1.00  0.00     0.217 C 
ATOM     24  H   UNL     1      31.337  36.410  16.040  1.00  0.00     0.163 HD
ATOM     25  C   UNL     1      33.740  37.202  16.992  1.00  0.00     0.114 C 
ATOM     26  O   UNL     1      34.401  35.503  15.516  1.00  0.00    -0.275 OA
ENDBRANCH  13  22
ENDBRANCH   7   8
BRANCH   7  27
ATOM     27  O   UNL     1      31.718  31.831  14.864  1.00  0.00    -0.388 OA
ATOM     28  H   UNL     1      31.689  32.214  13.942  1.00  0.00     0.211 HD
ENDBRANCH   7  27
ENDBRANCH   6   7
BRANCH   6  29
ATOM     29  O   UNL     1      28.773  32.804  16.456  1.00  0.00    -0.388 OA
ATOM     30  H   UNL     1      28.200  32.500  17.209  1.00  0.00     0.211 HD
ENDBRANCH   6  29
ENDBRANCH   5   6
ENDBRANCH   1   5
BRANCH   2  31
ATOM     31  O   UNL     1      27.474  30.032  19.718  1.00  0.00    -0.443 OA
BRANCH  31  32
ATOM     32  C   UNL     1      26.391  29.470  19.007  1.00  0.00     0.294 C 
BRANCH  32  33
ATOM     33  C   UNL     1      26.080  30.204  17.761  1.00  0.00     0.120 A 
ATOM     34  C   UNL     1      25.078  31.106  17.472  1.00  0.00     0.141 A 
ATOM     35  N   UNL     1      26.785  30.093  16.622  1.00  0.00    -0.132 NA
ATOM     36  N   UNL     1      25.199  31.514  16.184  1.00  0.00    -0.226 N 
ATOM     37  N   UNL     1      26.250  30.872  15.708  1.00  0.00    -0.065 NA
BRANCH  36  38
ATOM     38  C   UNL     1      24.343  32.470  15.466  1.00  0.00     0.307 C 
BRANCH  38  39
ATOM     39  O   UNL     1      24.762  32.556  14.142  1.00  0.00    -0.355 OA
BRANCH  39  40
ATOM     40  C   UNL     1      23.711  32.632  13.258  1.00  0.00     0.198 C 
BRANCH  40  41
ATOM     41  C   UNL     1      23.090  31.333  12.929  1.00  0.00    -0.022 A 
ATOM     42  C   UNL     1      21.739  31.268  12.658  1.00  0.00     0.006 A 
ATOM     43  C   UNL     1      23.834  30.181  12.880  1.00  0.00     0.006 A 
ATOM     44  C   UNL     1      21.132  30.051  12.338  1.00  0.00     0.000 A 
ATOM     45  C   UNL     1      23.227  28.976  12.562  1.00  0.00     0.000 A 
ATOM     46  C   UNL     1      21.897  28.902  12.294  1.00  0.00     0.000 A 
ENDBRANCH  40  41
ENDBRANCH  39  40
ENDBRANCH  38  39
ENDBRANCH  36  38
ENDBRANCH  32  33
ENDBRANCH  31  32
ENDBRANCH   2  31
TORSDOF 18
BEGIN_RES LYS A 131
REMARK  4 active torsions:
REMARK  status: ('A' for Active; 'I' for Inactive)
REMARK    1  A    between atoms: CA   and  CB  
REMARK    2  A    between atoms: CB   and  CG  
REMARK    3  A    between atoms: CG   and  CD  
REMARK    4  A    between atoms: CD   and  CE  
ROOT
ATOM      1  CA  LYS A 131      29.867  25.555  16.977  1.00 20.52     0.186 C 
ENDROOT
BRANCH   1   2
ATOM      2  CB  LYS A 131      28.345  25.722  17.026  1.00 20.94     0.034 C 
BRANCH   2   3
ATOM      3  CG  LYS A 131      27.601  24.402  16.895  1.00 22.96     0.005 C 
BRANCH   3   4
ATOM      4  CD  LYS A 131      26.179  24.503  17.373  1.00 24.33     0.041 C 
BRANCH   4   5
ATOM      5  CE  LYS A 131      25.955  25.866  18.018  1.00 26.91     0.338 C 
ATOM      6  NZ  LYS A 131      24.629  26.408  17.639  1.00 27.40     0.618 N 
ENDBRANCH   4   5
ENDBRANCH   3   4
ENDBRANCH   2   3
ENDBRANCH   1   2
END_RES LYS A 131
BEGIN_RES LYS A 135
REMARK  4 active torsions:
REMARK  status: ('A' for Active; 'I' for Inactive)
REMARK    5  A    between atoms: CA   and  CB  
REMARK    6  A    between atoms: CB   and  CG  
REMARK    7  A    between atoms: CG   and  CD  
REMARK    8  A    between atoms: CD   and  CE  
ROOT
ATOM      7  CA  LYS A 135      33.193  34.663   9.290  1.00 25.02     0.186 C 
ENDROOT
BRANCH   7   8
ATOM      8  CB  LYS A 135      32.060  35.360  10.034  1.00 26.63     0.034 C 
BRANCH   8   9
ATOM      9  CG  LYS A 135      30.840  35.602   9.184  1.00 29.45     0.005 C 
BRANCH   9  10
ATOM     10  CD  LYS A 135      30.196  34.284   8.781  1.00 32.00     0.041 C 
BRANCH  10  11
ATOM     11  CE  LYS A 135      28.770  34.508   8.315  1.00 34.25     0.338 C 
ATOM     12  NZ  LYS A 135      28.733  35.368   7.100  1.00 35.99     0.618 N 
ENDBRANCH  10  11
ENDBRANCH   9  10
ENDBRANCH   8   9
ENDBRANCH   7   8
END_RES LYS A 135
