REMARK VINA RESULT:    -6.005      5.371      8.791
REMARK INTER + INTRA:         -15.220
REMARK INTER:                 -10.012
REMARK INTRA:                  -5.208
REMARK UNBOUND:                -3.774
REMARK SMILES CC(=O)N[C@@H]1[C@@H](O)C[C@](O)(C(=O)O)O[C@H]1C(O)[C@H](O)CNC(=O)OCc1cn(COCc2ccccc2)nn1
REMARK SMILES IDX 21 1 22 2 23 3 20 5 18 6 16 7 15 8 9 9 8 10 14 11 6 12 5 13
REMARK SMILES IDX 10 14 11 16 12 17 13 18 7 20 4 22 2 23 1 25 3 26 17 27 19 29
REMARK SMILES IDX 24 31 25 32 26 33 27 34 39 35 28 36 38 37 29 38 30 39 31 40
REMARK SMILES IDX 32 41 33 42 37 43 34 44 36 45 35 46
REMARK H PARENT 21 4 10 15 13 19 7 21 4 24 17 28 19 30
REMARK Flexibility Score: inf
ROOT
ATOM      1  N   UNL     1      29.025  30.620  17.794  1.00  0.00    -0.319 N 
ATOM      2  C   UNL     1      28.467  30.298  19.065  1.00  0.00     0.407 C 
ATOM      3  O   UNL     1      29.131  30.460  20.134  1.00  0.00    -0.225 OA
ATOM      4  H   UNL     1      28.456  30.477  16.945  1.00  0.00     0.167 HD
ENDROOT
BRANCH   1   5
ATOM      5  C   UNL     1      30.379  31.138  17.777  1.00  0.00     0.154 C 
BRANCH   5   6
ATOM      6  C   UNL     1      30.464  32.483  17.108  1.00  0.00     0.165 C 
BRANCH   6   7
ATOM      7  C   UNL     1      30.842  32.313  15.652  1.00  0.00     0.176 C 
BRANCH   7   8
ATOM      8  C   UNL     1      31.019  33.616  14.944  1.00  0.00     0.178 C 
ATOM      9  C   UNL     1      32.585  35.318  14.666  1.00  0.00     0.269 C 
ATOM     10  C   UNL     1      31.390  36.175  14.272  1.00  0.00     0.112 C 
ATOM     11  O   UNL     1      32.222  34.173  15.366  1.00  0.00    -0.332 OA
ATOM     12  C   UNL     1      30.341  35.978  15.344  1.00  0.00     0.145 C 
ATOM     13  C   UNL     1      29.852  34.548  15.185  1.00  0.00     0.142 C 
BRANCH   9  14
ATOM     14  O   UNL     1      33.322  36.095  15.557  1.00  0.00    -0.357 OA
ATOM     15  H   UNL     1      32.742  36.612  16.170  1.00  0.00     0.214 HD
ENDBRANCH   9  14
BRANCH   9  16
ATOM     16  C   UNL     1      33.419  35.024  13.494  1.00  0.00     0.364 C 
ATOM     17  O   UNL     1      33.195  35.619  12.411  1.00  0.00    -0.246 OA
BRANCH  16  18
ATOM     18  O   UNL     1      34.463  34.107  13.507  1.00  0.00    -0.477 OA
ATOM     19  H   UNL     1      35.411  34.470  13.479  1.00  0.00     0.296 HD
ENDBRANCH  16  18
ENDBRANCH   9  16
BRANCH  12  20
ATOM     20  O   UNL     1      30.866  36.176  16.618  1.00  0.00    -0.391 OA
ATOM     21  H   UNL     1      30.760  35.321  17.139  1.00  0.00     0.211 HD
ENDBRANCH  12  20
BRANCH  13  22
ATOM     22  N   UNL     1      28.983  34.526  14.028  1.00  0.00    -0.348 N 
ATOM     23  C   UNL     1      27.572  34.526  14.196  1.00  0.00     0.217 C 
ATOM     24  H   UNL     1      29.336  34.512  13.040  1.00  0.00     0.163 HD
ATOM     25  C   UNL     1      26.632  34.506  13.042  1.00  0.00     0.114 C 
ATOM     26  O   UNL     1      27.064  34.543  15.347  1.00  0.00    -0.275 OA
ENDBRANCH  13  22
ENDBRANCH   7   8
BRANCH   7  27
ATOM     27  O   UNL     1      29.975  31.437  15.047  1.00  0.00    -0.388 OA
ATOM     28  H   UNL     1      29.525  30.913  15.769  1.00  0.00     0.211 HD
ENDBRANCH   7  27
ENDBRANCH   6   7
BRANCH   6  29
ATOM     29  O   UNL     1      31.387  33.268  17.787  1.00  0.00    -0.388 OA
ATOM     30  H   UNL     1      32.299  33.103  17.428  1.00  0.00     0.211 HD
ENDBRANCH   6  29
ENDBRANCH   5   6
ENDBRANCH   1   5
BRANCH   2  31
ATOM     31  O   UNL     1      27.180  29.796  19.203  1.00  0.00    -0.443 OA
BRANCH  31  32
ATOM     32  C   UNL     1      26.712  28.638  18.541  1.00  0.00     0.294 C 
BRANCH  32  33
ATOM     33  C   UNL     1      25.816  28.949  17.406  1.00  0.00     0.120 A 
ATOM     34  C   UNL     1      25.992  29.781  16.320  1.00  0.00     0.141 A 
ATOM     35  N   UNL     1      24.589  28.424  17.245  1.00  0.00    -0.132 NA
ATOM     36  N   UNL     1      24.883  29.741  15.541  1.00  0.00    -0.226 N 
ATOM     37  N   UNL     1      24.059  28.904  16.141  1.00  0.00    -0.065 NA
BRANCH  36  38
ATOM     38  C   UNL     1      24.646  30.474  14.288  1.00  0.00     0.307 C 
BRANCH  38  39
ATOM     39  O   UNL     1      23.317  30.886  14.242  1.00  0.00    -0.355 OA
BRANCH  39  40
ATOM     40  C   UNL     1      22.917  31.241  12.975  1.00  0.00     0.198 C 
BRANCH  40  41
ATOM     41  C   UNL     1      21.643  30.632  12.542  1.00  0.00    -0.022 A 
ATOM     42  C   UNL     1      21.582  29.277  12.288  1.00  0.00     0.006 A 
ATOM     43  C   UNL     1      20.508  31.388  12.391  1.00  0.00     0.006 A 
ATOM     44  C   UNL     1      20.386  28.679  11.883  1.00  0.00     0.000 A 
ATOM     45  C   UNL     1      19.324  30.790  11.989  1.00  0.00     0.000 A 
ATOM     46  C   UNL     1      19.254  29.456  11.736  1.00  0.00     0.000 A 
ENDBRANCH  40  41
ENDBRANCH  39  40
ENDBRANCH  38  39
ENDBRANCH  36  38
ENDBRANCH  32  33
ENDBRANCH  31  32
ENDBRANCH   2  31
TORSDOF 18
BEGIN_RES LYS A 131
REMARK  4 active torsions:
REMARK  status: ('A' for Active; 'I' for Inactive)
REMARK    1  A    between atoms: CA   and  CB  
REMARK    2  A    between atoms: CB   and  CG  
REMARK    3  A    between atoms: CG   and  CD  
REMARK    4  A    between atoms: CD   and  CE  
ROOT
ATOM      1  CA  LYS A 131      29.867  25.555  16.977  1.00 20.52     0.186 C 
ENDROOT
BRANCH   1   2
ATOM      2  CB  LYS A 131      28.345  25.722  17.026  1.00 20.94     0.034 C 
BRANCH   2   3
ATOM      3  CG  LYS A 131      27.599  24.450  16.654  1.00 22.96     0.005 C 
BRANCH   3   4
ATOM      4  CD  LYS A 131      26.785  23.915  17.800  1.00 24.33     0.041 C 
BRANCH   4   5
ATOM      5  CE  LYS A 131      26.294  25.075  18.661  1.00 26.91     0.338 C 
ATOM      6  NZ  LYS A 131      24.815  25.063  18.751  1.00 27.40     0.618 N 
ENDBRANCH   4   5
ENDBRANCH   3   4
ENDBRANCH   2   3
ENDBRANCH   1   2
END_RES LYS A 131
BEGIN_RES LYS A 135
REMARK  4 active torsions:
REMARK  status: ('A' for Active; 'I' for Inactive)
REMARK    5  A    between atoms: CA   and  CB  
REMARK    6  A    between atoms: CB   and  CG  
REMARK    7  A    between atoms: CG   and  CD  
REMARK    8  A    between atoms: CD   and  CE  
ROOT
ATOM      7  CA  LYS A 135      33.193  34.663   9.290  1.00 25.02     0.186 C 
ENDROOT
BRANCH   7   8
ATOM      8  CB  LYS A 135      32.060  35.360  10.034  1.00 26.63     0.034 C 
BRANCH   8   9
ATOM      9  CG  LYS A 135      30.881  35.696   9.158  1.00 29.45     0.005 C 
BRANCH   9  10
ATOM     10  CD  LYS A 135      30.378  34.456   8.436  1.00 32.00     0.041 C 
BRANCH  10  11
ATOM     11  CE  LYS A 135      28.864  34.467   8.349  1.00 34.25     0.338 C 
ATOM     12  NZ  LYS A 135      28.256  33.744   9.500  1.00 35.99     0.618 N 
ENDBRANCH  10  11
ENDBRANCH   9  10
ENDBRANCH   8   9
ENDBRANCH   7   8
END_RES LYS A 135
