REMARK VINA RESULT:    -5.090      1.560      2.089
REMARK INTER + INTRA:         -15.220
REMARK INTER:                  -9.461
REMARK INTRA:                  -5.759
REMARK UNBOUND:                -5.964
REMARK SMILES CC(=O)N[C@@H]1[C@@H](O)C[C@](O)(C(=O)O)O[C@H]1C(O)[C@H](O)CNC(=O)OCc1cn(-c2ccc(S(N)(=O)=O)cc2)nn1
REMARK SMILES IDX 21 1 22 2 23 3 20 5 18 6 16 7 15 8 9 9 8 10 14 11 6 12 5 13
REMARK SMILES IDX 10 14 11 16 12 17 13 18 7 20 4 22 2 23 1 25 3 26 17 27 19 29
REMARK SMILES IDX 24 31 25 32 26 33 27 34 40 35 28 36 39 37 29 38 30 39 38 40
REMARK SMILES IDX 31 41 37 42 32 43 33 44 35 45 36 46 34 47
REMARK H PARENT 21 4 10 15 13 19 7 21 4 24 17 28 19 30 34 48 34 49
REMARK Flexibility Score: inf
ROOT
ATOM      1  N   UNL     1      29.761  27.220  20.330  1.00  0.00    -0.319 N 
ATOM      2  C   UNL     1      28.644  27.854  20.891  1.00  0.00     0.407 C 
ATOM      3  O   UNL     1      28.542  27.996  22.121  1.00  0.00    -0.225 OA
ATOM      4  H   UNL     1      29.789  27.133  19.277  1.00  0.00     0.167 HD
ENDROOT
BRANCH   1   5
ATOM      5  C   UNL     1      30.825  26.709  21.120  1.00  0.00     0.154 C 
BRANCH   5   6
ATOM      6  C   UNL     1      32.096  27.546  21.028  1.00  0.00     0.165 C 
BRANCH   6   7
ATOM      7  C   UNL     1      32.262  28.298  22.316  1.00  0.00     0.176 C 
BRANCH   7   8
ATOM      8  C   UNL     1      33.662  28.430  22.781  1.00  0.00     0.178 C 
ATOM      9  C   UNL     1      35.006  27.762  24.564  1.00  0.00     0.269 C 
ATOM     10  C   UNL     1      36.048  28.257  23.591  1.00  0.00     0.112 C 
ATOM     11  O   UNL     1      33.729  27.882  24.090  1.00  0.00    -0.332 OA
ATOM     12  C   UNL     1      35.746  29.617  23.042  1.00  0.00     0.145 C 
ATOM     13  C   UNL     1      34.255  29.785  22.886  1.00  0.00     0.142 C 
BRANCH   9  14
ATOM     14  O   UNL     1      35.161  28.375  25.830  1.00  0.00    -0.357 OA
ATOM     15  H   UNL     1      35.910  29.024  25.815  1.00  0.00     0.214 HD
ENDBRANCH   9  14
BRANCH   9  16
ATOM     16  C   UNL     1      35.276  26.317  24.790  1.00  0.00     0.364 C 
ATOM     17  O   UNL     1      36.332  25.831  24.311  1.00  0.00    -0.246 OA
BRANCH  16  18
ATOM     18  O   UNL     1      34.438  25.473  25.495  1.00  0.00    -0.477 OA
ATOM     19  H   UNL     1      33.508  25.251  25.148  1.00  0.00     0.296 HD
ENDBRANCH  16  18
ENDBRANCH   9  16
BRANCH  12  20
ATOM     20  O   UNL     1      36.312  30.565  23.885  1.00  0.00    -0.391 OA
ATOM     21  H   UNL     1      37.184  30.195  24.177  1.00  0.00     0.211 HD
ENDBRANCH  12  20
BRANCH  13  22
ATOM     22  N   UNL     1      33.885  30.757  21.928  1.00  0.00    -0.348 N 
ATOM     23  C   UNL     1      33.196  31.942  22.272  1.00  0.00     0.217 C 
ATOM     24  H   UNL     1      34.136  30.629  20.928  1.00  0.00     0.163 HD
ATOM     25  C   UNL     1      32.810  32.965  21.240  1.00  0.00     0.114 C 
ATOM     26  O   UNL     1      32.911  32.121  23.470  1.00  0.00    -0.275 OA
ENDBRANCH  13  22
ENDBRANCH   7   8
BRANCH   7  27
ATOM     27  O   UNL     1      31.430  29.370  22.496  1.00  0.00    -0.388 OA
ATOM     28  H   UNL     1      30.909  29.516  21.675  1.00  0.00     0.211 HD
ENDBRANCH   7  27
ENDBRANCH   6   7
BRANCH   6  29
ATOM     29  O   UNL     1      32.041  28.313  19.894  1.00  0.00    -0.388 OA
ATOM     30  H   UNL     1      31.116  28.654  19.752  1.00  0.00     0.211 HD
ENDBRANCH   6  29
ENDBRANCH   5   6
ENDBRANCH   1   5
BRANCH   2  31
ATOM     31  O   UNL     1      27.591  28.355  20.110  1.00  0.00    -0.443 OA
BRANCH  31  32
ATOM     32  C   UNL     1      27.408  29.726  19.944  1.00  0.00     0.294 C 
BRANCH  32  33
ATOM     33  C   UNL     1      28.628  30.397  19.446  1.00  0.00     0.121 A 
ATOM     34  C   UNL     1      28.822  31.162  18.320  1.00  0.00     0.144 A 
ATOM     35  N   UNL     1      29.833  30.360  20.070  1.00  0.00    -0.131 NA
ATOM     36  N   UNL     1      30.103  31.570  18.273  1.00  0.00    -0.220 N 
ATOM     37  N   UNL     1      30.682  31.066  19.344  1.00  0.00    -0.062 NA
BRANCH  36  38
ATOM     38  C   UNL     1      30.745  32.377  17.290  1.00  0.00     0.066 A 
ATOM     39  C   UNL     1      30.823  31.989  15.970  1.00  0.00     0.030 A 
ATOM     40  C   UNL     1      31.322  33.589  17.624  1.00  0.00     0.030 A 
ATOM     41  C   UNL     1      31.441  32.757  15.009  1.00  0.00     0.024 A 
ATOM     42  C   UNL     1      31.941  34.362  16.664  1.00  0.00     0.024 A 
ATOM     43  C   UNL     1      32.025  33.984  15.341  1.00  0.00     0.082 A 
BRANCH  43  44
ATOM     44  S   UNL     1      32.810  34.956  14.116  1.00  0.00     0.238 S 
ATOM     45  O   UNL     1      32.717  36.389  14.559  1.00  0.00    -0.207 OA
ATOM     46  O   UNL     1      34.280  34.605  14.094  1.00  0.00    -0.207 OA
BRANCH  44  47
ATOM     47  N   UNL     1      32.112  34.761  12.565  1.00  0.00    -0.225 NA
ATOM     48  H   UNL     1      32.019  33.790  12.247  1.00  0.00     0.137 HD
ATOM     49  H   UNL     1      31.226  35.304  12.458  1.00  0.00     0.137 HD
ENDBRANCH  44  47
ENDBRANCH  43  44
ENDBRANCH  36  38
ENDBRANCH  32  33
ENDBRANCH  31  32
ENDBRANCH   2  31
TORSDOF 17
BEGIN_RES LYS A 131
REMARK  4 active torsions:
REMARK  status: ('A' for Active; 'I' for Inactive)
REMARK    1  A    between atoms: CA   and  CB  
REMARK    2  A    between atoms: CB   and  CG  
REMARK    3  A    between atoms: CG   and  CD  
REMARK    4  A    between atoms: CD   and  CE  
ROOT
ATOM      1  CA  LYS A 131      29.867  25.555  16.977  1.00 20.52     0.186 C 
ENDROOT
BRANCH   1   2
ATOM      2  CB  LYS A 131      28.345  25.722  17.026  1.00 20.94     0.034 C 
BRANCH   2   3
ATOM      3  CG  LYS A 131      27.607  24.395  17.113  1.00 22.96     0.005 C 
BRANCH   3   4
ATOM      4  CD  LYS A 131      26.642  24.357  18.265  1.00 24.33     0.041 C 
BRANCH   4   5
ATOM      5  CE  LYS A 131      25.310  24.960  17.833  1.00 26.91     0.338 C 
ATOM      6  NZ  LYS A 131      24.660  24.104  16.812  1.00 27.40     0.618 N 
ENDBRANCH   4   5
ENDBRANCH   3   4
ENDBRANCH   2   3
ENDBRANCH   1   2
END_RES LYS A 131
BEGIN_RES LYS A 135
REMARK  4 active torsions:
REMARK  status: ('A' for Active; 'I' for Inactive)
REMARK    5  A    between atoms: CA   and  CB  
REMARK    6  A    between atoms: CB   and  CG  
REMARK    7  A    between atoms: CG   and  CD  
REMARK    8  A    between atoms: CD   and  CE  
ROOT
ATOM      7  CA  LYS A 135      33.193  34.663   9.290  1.00 25.02     0.186 C 
ENDROOT
BRANCH   7   8
ATOM      8  CB  LYS A 135      32.060  35.360  10.034  1.00 26.63     0.034 C 
BRANCH   8   9
ATOM      9  CG  LYS A 135      30.824  35.562   9.196  1.00 29.45     0.005 C 
BRANCH   9  10
ATOM     10  CD  LYS A 135      30.220  34.224   8.799  1.00 32.00     0.041 C 
BRANCH  10  11
ATOM     11  CE  LYS A 135      28.722  34.353   8.601  1.00 34.25     0.338 C 
ATOM     12  NZ  LYS A 135      27.975  33.662   9.689  1.00 35.99     0.618 N 
ENDBRANCH  10  11
ENDBRANCH   9  10
ENDBRANCH   8   9
ENDBRANCH   7   8
END_RES LYS A 135
