REMARK VINA RESULT:    -4.645      3.116      7.064
REMARK INTER + INTRA:         -16.033
REMARK INTER:                  -9.262
REMARK INTRA:                  -6.771
REMARK UNBOUND:                -6.771
REMARK SMILES CC(=O)N[C@@H]1[C@@H](O)C[C@](O)(C(=O)O)O[C@H]1C(O)[C@H](O)CNC(=O)OCc1cn(CC(O)CCc2ccccc2)nn1
REMARK SMILES IDX 24 1 22 2 21 3 23 5 20 6 18 7 16 8 15 9 9 10 8 11 14 12 6 13
REMARK SMILES IDX 5 14 10 15 11 17 12 18 13 19 7 21 4 23 2 24 1 26 3 27 17 28
REMARK SMILES IDX 19 30 25 32 26 33 27 34 41 35 28 36 40 37 29 38 30 39 31 40
REMARK SMILES IDX 32 42 33 43 34 44 35 45 39 46 36 47 38 48 37 49
REMARK H PARENT 21 4 10 16 13 20 7 22 4 25 17 29 19 31 31 41
REMARK Flexibility Score: inf
ROOT
ATOM      1  O   UNL     1      24.885  35.052  10.939  1.00  0.00    -0.443 OA
ENDROOT
BRANCH   1   2
ATOM      2  C   UNL     1      24.678  35.656   9.711  1.00  0.00     0.407 C 
ATOM      3  N   UNL     1      25.746  36.259   9.015  1.00  0.00    -0.319 N 
ATOM      4  H   UNL     1      26.694  36.247   9.434  1.00  0.00     0.167 HD
ATOM      5  O   UNL     1      23.533  35.672   9.207  1.00  0.00    -0.225 OA
BRANCH   3   6
ATOM      6  C   UNL     1      25.571  36.903   7.721  1.00  0.00     0.154 C 
BRANCH   6   7
ATOM      7  C   UNL     1      26.113  38.321   7.744  1.00  0.00     0.165 C 
BRANCH   7   8
ATOM      8  C   UNL     1      27.047  38.449   8.937  1.00  0.00     0.176 C 
BRANCH   8   9
ATOM      9  C   UNL     1      28.049  39.584   8.703  1.00  0.00     0.178 C 
ATOM     10  C   UNL     1      29.841  38.837   7.406  1.00  0.00     0.269 C 
ATOM     11  C   UNL     1      30.388  38.243   8.657  1.00  0.00     0.112 C 
ATOM     12  O   UNL     1      28.682  39.518   7.513  1.00  0.00    -0.332 OA
ATOM     13  C   UNL     1      30.245  39.114   9.854  1.00  0.00     0.145 C 
ATOM     14  C   UNL     1      28.891  39.766   9.927  1.00  0.00     0.142 C 
BRANCH  10  15
ATOM     15  O   UNL     1      29.641  37.771   6.497  1.00  0.00    -0.357 OA
ATOM     16  H   UNL     1      28.909  38.007   5.871  1.00  0.00     0.214 HD
ENDBRANCH  10  15
BRANCH  10  17
ATOM     17  C   UNL     1      30.925  39.687   6.795  1.00  0.00     0.364 C 
ATOM     18  O   UNL     1      32.144  39.496   7.014  1.00  0.00    -0.246 OA
BRANCH  17  19
ATOM     19  O   UNL     1      30.613  40.747   5.937  1.00  0.00    -0.477 OA
ATOM     20  H   UNL     1      29.730  41.263   6.054  1.00  0.00     0.296 HD
ENDBRANCH  17  19
ENDBRANCH  10  17
BRANCH  13  21
ATOM     21  O   UNL     1      30.513  38.337  11.005  1.00  0.00    -0.391 OA
ATOM     22  H   UNL     1      30.302  38.860  11.835  1.00  0.00     0.211 HD
ENDBRANCH  13  21
BRANCH  14  23
ATOM     23  N   UNL     1      29.001  41.187  10.265  1.00  0.00    -0.348 N 
ATOM     24  C   UNL     1      28.155  41.790  11.206  1.00  0.00     0.217 C 
ATOM     25  H   UNL     1      29.759  41.732   9.756  1.00  0.00     0.163 HD
ATOM     26  C   UNL     1      28.303  43.224  11.512  1.00  0.00     0.114 C 
ATOM     27  O   UNL     1      27.275  41.125  11.787  1.00  0.00    -0.275 OA
ENDBRANCH  14  23
ENDBRANCH   8   9
BRANCH   8  28
ATOM     28  O   UNL     1      26.237  38.900   9.994  1.00  0.00    -0.388 OA
ATOM     29  H   UNL     1      25.340  38.450   9.988  1.00  0.00     0.211 HD
ENDBRANCH   8  28
ENDBRANCH   7   8
BRANCH   7  30
ATOM     30  O   UNL     1      25.068  39.229   7.855  1.00  0.00    -0.388 OA
ATOM     31  H   UNL     1      24.272  38.811   7.447  1.00  0.00     0.211 HD
ENDBRANCH   7  30
ENDBRANCH   6   7
ENDBRANCH   3   6
ENDBRANCH   1   2
BRANCH   1  32
ATOM     32  C   UNL     1      25.239  35.929  12.021  1.00  0.00     0.294 C 
BRANCH  32  33
ATOM     33  C   UNL     1      26.702  35.901  12.240  1.00  0.00     0.120 A 
ATOM     34  C   UNL     1      27.468  34.970  12.901  1.00  0.00     0.138 A 
ATOM     35  N   UNL     1      27.554  36.841  11.795  1.00  0.00    -0.132 NA
ATOM     36  N   UNL     1      28.748  35.362  12.843  1.00  0.00    -0.250 N 
ATOM     37  N   UNL     1      28.783  36.476  12.182  1.00  0.00    -0.067 NA
BRANCH  36  38
ATOM     38  C   UNL     1      29.931  34.679  13.414  1.00  0.00     0.177 C 
BRANCH  38  39
ATOM     39  C   UNL     1      30.887  35.726  13.897  1.00  0.00     0.136 C 
BRANCH  39  40
ATOM     40  O   UNL     1      31.560  36.349  12.837  1.00  0.00    -0.391 OA
ATOM     41  H   UNL     1      30.866  36.790  12.267  1.00  0.00     0.211 HD
ENDBRANCH  39  40
BRANCH  39  42
ATOM     42  C   UNL     1      31.637  35.447  15.100  1.00  0.00     0.038 C 
BRANCH  42  43
ATOM     43  C   UNL     1      32.249  34.126  15.286  1.00  0.00     0.038 C 
BRANCH  43  44
ATOM     44  C   UNL     1      31.572  33.249  16.227  1.00  0.00    -0.048 A 
ATOM     45  C   UNL     1      31.026  32.056  15.740  1.00  0.00     0.004 A 
ATOM     46  C   UNL     1      31.356  33.513  17.544  1.00  0.00     0.004 A 
ATOM     47  C   UNL     1      30.314  31.213  16.561  1.00  0.00     0.000 A 
ATOM     48  C   UNL     1      30.643  32.678  18.386  1.00  0.00     0.000 A 
ATOM     49  C   UNL     1      30.111  31.506  17.889  1.00  0.00     0.000 A 
ENDBRANCH  43  44
ENDBRANCH  42  43
ENDBRANCH  39  42
ENDBRANCH  38  39
ENDBRANCH  36  38
ENDBRANCH  32  33
ENDBRANCH   1  32
TORSDOF 20
BEGIN_RES LYS A 131
REMARK  4 active torsions:
REMARK  status: ('A' for Active; 'I' for Inactive)
REMARK    1  A    between atoms: CA   and  CB  
REMARK    2  A    between atoms: CB   and  CG  
REMARK    3  A    between atoms: CG   and  CD  
REMARK    4  A    between atoms: CD   and  CE  
ROOT
ATOM      1  CA  LYS A 131      29.867  25.555  16.977  1.00 20.52     0.186 C 
ENDROOT
BRANCH   1   2
ATOM      2  CB  LYS A 131      28.345  25.722  17.026  1.00 20.94     0.034 C 
BRANCH   2   3
ATOM      3  CG  LYS A 131      27.599  24.445  16.672  1.00 22.96     0.005 C 
BRANCH   3   4
ATOM      4  CD  LYS A 131      26.718  23.973  17.796  1.00 24.33     0.041 C 
BRANCH   4   5
ATOM      5  CE  LYS A 131      25.889  25.142  18.317  1.00 26.91     0.338 C 
ATOM      6  NZ  LYS A 131      25.570  24.953  19.752  1.00 27.40     0.618 N 
ENDBRANCH   4   5
ENDBRANCH   3   4
ENDBRANCH   2   3
ENDBRANCH   1   2
END_RES LYS A 131
BEGIN_RES LYS A 135
REMARK  4 active torsions:
REMARK  status: ('A' for Active; 'I' for Inactive)
REMARK    5  A    between atoms: CA   and  CB  
REMARK    6  A    between atoms: CB   and  CG  
REMARK    7  A    between atoms: CG   and  CD  
REMARK    8  A    between atoms: CD   and  CE  
ROOT
ATOM      7  CA  LYS A 135      33.193  34.663   9.290  1.00 25.02     0.186 C 
ENDROOT
BRANCH   7   8
ATOM      8  CB  LYS A 135      32.060  35.360  10.034  1.00 26.63     0.034 C 
BRANCH   8   9
ATOM      9  CG  LYS A 135      30.729  34.669   9.889  1.00 29.45     0.005 C 
BRANCH   9  10
ATOM     10  CD  LYS A 135      30.340  34.556   8.423  1.00 32.00     0.041 C 
BRANCH  10  11
ATOM     11  CE  LYS A 135      28.832  34.575   8.268  1.00 34.25     0.338 C 
ATOM     12  NZ  LYS A 135      28.169  33.836   9.378  1.00 35.99     0.618 N 
ENDBRANCH  10  11
ENDBRANCH   9  10
ENDBRANCH   8   9
ENDBRANCH   7   8
END_RES LYS A 135
