REMARK VINA RESULT:    -4.739      4.152      7.374
REMARK INTER + INTRA:         -14.876
REMARK INTER:                  -9.434
REMARK INTRA:                  -5.442
REMARK UNBOUND:                -6.398
REMARK SMILES CC(=O)N[C@@H]1[C@@H](O)C[C@](O)(C(=O)O)O[C@H]1C(O)[C@H](O)CNC(=O)OCc1cn(Cc2ccc(Br)cc2)nn1
REMARK SMILES IDX 21 1 22 2 23 3 20 5 18 6 16 7 15 8 9 9 8 10 14 11 6 12 5 13
REMARK SMILES IDX 10 14 11 16 12 17 13 18 7 20 4 22 2 23 1 25 3 26 17 27 19 29
REMARK SMILES IDX 24 31 25 32 26 33 27 34 38 35 28 36 37 37 29 38 30 39 31 40
REMARK SMILES IDX 36 41 32 42 35 43 33 44 34 45
REMARK H PARENT 21 4 10 15 13 19 7 21 4 24 17 28 19 30
REMARK Flexibility Score: inf
ROOT
ATOM      1  N   UNL     1      23.568  32.924  14.252  1.00  0.00    -0.319 N 
ATOM      2  C   UNL     1      23.640  31.673  13.591  1.00  0.00     0.407 C 
ATOM      3  O   UNL     1      22.782  31.204  12.820  1.00  0.00    -0.225 OA
ATOM      4  H   UNL     1      24.369  33.229  14.890  1.00  0.00     0.167 HD
ENDROOT
BRANCH   1   5
ATOM      5  C   UNL     1      22.432  33.770  14.067  1.00  0.00     0.154 C 
BRANCH   5   6
ATOM      6  C   UNL     1      22.737  35.130  13.493  1.00  0.00     0.165 C 
BRANCH   6   7
ATOM      7  C   UNL     1      22.583  35.200  12.017  1.00  0.00     0.176 C 
BRANCH   7   8
ATOM      8  C   UNL     1      23.391  36.179  11.261  1.00  0.00     0.178 C 
ATOM      9  C   UNL     1      22.558  36.474   9.131  1.00  0.00     0.269 C 
ATOM     10  C   UNL     1      23.799  37.159   8.606  1.00  0.00     0.112 C 
ATOM     11  O   UNL     1      22.468  36.868  10.457  1.00  0.00    -0.332 OA
ATOM     12  C   UNL     1      24.954  36.562   9.335  1.00  0.00     0.145 C 
ATOM     13  C   UNL     1      24.595  35.739  10.557  1.00  0.00     0.142 C 
BRANCH   9  14
ATOM     14  O   UNL     1      22.715  35.120   8.938  1.00  0.00    -0.357 OA
ATOM     15  H   UNL     1      22.065  34.562   9.405  1.00  0.00     0.214 HD
ENDBRANCH   9  14
BRANCH   9  16
ATOM     16  C   UNL     1      21.397  37.027   8.393  1.00  0.00     0.364 C 
ATOM     17  O   UNL     1      20.617  37.875   8.879  1.00  0.00    -0.246 OA
BRANCH  16  18
ATOM     18  O   UNL     1      21.188  36.558   7.099  1.00  0.00    -0.477 OA
ATOM     19  H   UNL     1      20.346  36.084   6.814  1.00  0.00     0.296 HD
ENDBRANCH  16  18
ENDBRANCH   9  16
BRANCH  12  20
ATOM     20  O   UNL     1      25.593  35.676   8.435  1.00  0.00    -0.391 OA
ATOM     21  H   UNL     1      26.553  35.611   8.609  1.00  0.00     0.211 HD
ENDBRANCH  12  20
BRANCH  13  22
ATOM     22  N   UNL     1      25.803  35.896  11.398  1.00  0.00    -0.348 N 
ATOM     23  C   UNL     1      26.310  34.878  12.213  1.00  0.00     0.217 C 
ATOM     24  H   UNL     1      26.251  36.843  11.332  1.00  0.00     0.163 HD
ATOM     25  C   UNL     1      27.531  35.140  13.030  1.00  0.00     0.114 C 
ATOM     26  O   UNL     1      25.756  33.769  12.260  1.00  0.00    -0.275 OA
ENDBRANCH  13  22
ENDBRANCH   7   8
BRANCH   7  27
ATOM     27  O   UNL     1      22.521  33.915  11.499  1.00  0.00    -0.388 OA
ATOM     28  H   UNL     1      22.069  33.313  12.156  1.00  0.00     0.211 HD
ENDBRANCH   7  27
ENDBRANCH   6   7
BRANCH   6  29
ATOM     29  O   UNL     1      23.892  35.718  13.978  1.00  0.00    -0.388 OA
ATOM     30  H   UNL     1      23.732  36.543  14.479  1.00  0.00     0.211 HD
ENDBRANCH   6  29
ENDBRANCH   5   6
ENDBRANCH   1   5
BRANCH   2  31
ATOM     31  O   UNL     1      24.768  30.882  13.809  1.00  0.00    -0.443 OA
BRANCH  31  32
ATOM     32  C   UNL     1      25.074  30.377  15.086  1.00  0.00     0.294 C 
BRANCH  32  33
ATOM     33  C   UNL     1      26.359  30.892  15.590  1.00  0.00     0.120 A 
ATOM     34  C   UNL     1      27.452  30.239  16.108  1.00  0.00     0.138 A 
ATOM     35  N   UNL     1      26.643  32.215  15.606  1.00  0.00    -0.132 NA
ATOM     36  N   UNL     1      28.366  31.185  16.423  1.00  0.00    -0.248 N 
ATOM     37  N   UNL     1      27.843  32.354  16.106  1.00  0.00    -0.067 NA
BRANCH  36  38
ATOM     38  C   UNL     1      29.668  30.919  17.000  1.00  0.00     0.181 C 
BRANCH  38  39
ATOM     39  C   UNL     1      30.532  32.115  16.727  1.00  0.00    -0.026 A 
ATOM     40  C   UNL     1      31.090  32.272  15.467  1.00  0.00     0.007 A 
ATOM     41  C   UNL     1      30.755  33.038  17.726  1.00  0.00     0.007 A 
ATOM     42  C   UNL     1      31.876  33.371  15.240  1.00  0.00     0.016 A 
ATOM     43  C   UNL     1      31.554  34.158  17.496  1.00  0.00     0.016 A 
ATOM     44  C   UNL     1      32.095  34.289  16.242  1.00  0.00     0.017 A 
ATOM     45  Br  UNL     1      33.194  35.815  15.895  1.00  0.00    -0.051 Br
ENDBRANCH  38  39
ENDBRANCH  36  38
ENDBRANCH  32  33
ENDBRANCH  31  32
ENDBRANCH   2  31
TORSDOF 16
BEGIN_RES LYS A 131
REMARK  4 active torsions:
REMARK  status: ('A' for Active; 'I' for Inactive)
REMARK    1  A    between atoms: CA   and  CB  
REMARK    2  A    between atoms: CB   and  CG  
REMARK    3  A    between atoms: CG   and  CD  
REMARK    4  A    between atoms: CD   and  CE  
ROOT
ATOM      1  CA  LYS A 131      29.867  25.555  16.977  1.00 20.52     0.186 C 
ENDROOT
BRANCH   1   2
ATOM      2  CB  LYS A 131      28.345  25.722  17.026  1.00 20.94     0.034 C 
BRANCH   2   3
ATOM      3  CG  LYS A 131      27.602  24.399  16.927  1.00 22.96     0.005 C 
BRANCH   3   4
ATOM      4  CD  LYS A 131      26.622  24.214  18.051  1.00 24.33     0.041 C 
BRANCH   4   5
ATOM      5  CE  LYS A 131      26.259  25.573  18.640  1.00 26.91     0.338 C 
ATOM      6  NZ  LYS A 131      24.897  25.976  18.216  1.00 27.40     0.618 N 
ENDBRANCH   4   5
ENDBRANCH   3   4
ENDBRANCH   2   3
ENDBRANCH   1   2
END_RES LYS A 131
BEGIN_RES LYS A 135
REMARK  4 active torsions:
REMARK  status: ('A' for Active; 'I' for Inactive)
REMARK    5  A    between atoms: CA   and  CB  
REMARK    6  A    between atoms: CB   and  CG  
REMARK    7  A    between atoms: CG   and  CD  
REMARK    8  A    between atoms: CD   and  CE  
ROOT
ATOM      7  CA  LYS A 135      33.193  34.663   9.290  1.00 25.02     0.186 C 
ENDROOT
BRANCH   7   8
ATOM      8  CB  LYS A 135      32.060  35.360  10.034  1.00 26.63     0.034 C 
BRANCH   8   9
ATOM      9  CG  LYS A 135      30.715  34.712   9.827  1.00 29.45     0.005 C 
BRANCH   9  10
ATOM     10  CD  LYS A 135      30.030  35.280   8.594  1.00 32.00     0.041 C 
BRANCH  10  11
ATOM     11  CE  LYS A 135      28.767  34.500   8.280  1.00 34.25     0.338 C 
ATOM     12  NZ  LYS A 135      28.270  33.777   9.483  1.00 35.99     0.618 N 
ENDBRANCH  10  11
ENDBRANCH   9  10
ENDBRANCH   8   9
ENDBRANCH   7   8
END_RES LYS A 135
