REMARK VINA RESULT:    -4.893      7.664     13.435
REMARK INTER + INTRA:         -14.632
REMARK INTER:                  -8.920
REMARK INTRA:                  -5.713
REMARK UNBOUND:                -5.735
REMARK SMILES CC(=O)N[C@@H]1[C@@H](O)C[C@](O)(C(=O)O)O[C@H]1C(O)[C@H](O)CNC(=O)OCc1cn(-c2ccc(CO)cn2)nn1
REMARK SMILES IDX 21 1 22 2 23 3 20 5 18 6 16 7 15 8 9 9 8 10 14 11 6 12 5 13
REMARK SMILES IDX 10 14 11 16 12 17 13 18 7 20 4 22 2 23 1 25 3 26 17 27 19 29
REMARK SMILES IDX 24 31 25 32 26 33 27 34 38 35 28 36 37 37 29 38 30 39 36 40
REMARK SMILES IDX 31 41 35 42 32 43 33 44 34 45
REMARK H PARENT 21 4 10 15 13 19 7 21 4 24 17 28 19 30 34 46
REMARK Flexibility Score: inf
ROOT
ATOM      1  N   UNL     1      30.371  41.353   7.841  1.00  0.00    -0.319 N 
ATOM      2  C   UNL     1      29.428  42.306   8.354  1.00  0.00     0.407 C 
ATOM      3  O   UNL     1      29.106  42.174   9.557  1.00  0.00    -0.225 OA
ATOM      4  H   UNL     1      30.622  41.508   6.841  1.00  0.00     0.167 HD
ENDROOT
BRANCH   1   5
ATOM      5  C   UNL     1      30.913  40.318   8.678  1.00  0.00     0.154 C 
BRANCH   5   6
ATOM      6  C   UNL     1      30.424  38.963   8.192  1.00  0.00     0.165 C 
BRANCH   6   7
ATOM      7  C   UNL     1      29.363  38.531   9.162  1.00  0.00     0.176 C 
BRANCH   7   8
ATOM      8  C   UNL     1      28.933  37.093   9.111  1.00  0.00     0.178 C 
ATOM      9  C   UNL     1      29.234  35.370   7.528  1.00  0.00     0.269 C 
ATOM     10  C   UNL     1      27.823  34.867   7.701  1.00  0.00     0.112 C 
ATOM     11  O   UNL     1      29.376  36.666   7.887  1.00  0.00    -0.332 OA
ATOM     12  C   UNL     1      26.997  36.110   7.974  1.00  0.00     0.145 C 
ATOM     13  C   UNL     1      27.506  36.787   9.271  1.00  0.00     0.142 C 
BRANCH   9  14
ATOM     14  O   UNL     1      29.505  35.243   6.129  1.00  0.00    -0.357 OA
ATOM     15  H   UNL     1      30.471  35.062   6.003  1.00  0.00     0.214 HD
ENDBRANCH   9  14
BRANCH   9  16
ATOM     16  C   UNL     1      30.248  34.534   8.202  1.00  0.00     0.364 C 
ATOM     17  O   UNL     1      29.908  33.801   9.151  1.00  0.00    -0.246 OA
BRANCH  16  18
ATOM     18  O   UNL     1      31.569  34.546   7.798  1.00  0.00    -0.477 OA
ATOM     19  H   UNL     1      32.155  35.329   8.060  1.00  0.00     0.296 HD
ENDBRANCH  16  18
ENDBRANCH   9  16
BRANCH  12  20
ATOM     20  O   UNL     1      26.983  36.984   6.915  1.00  0.00    -0.391 OA
ATOM     21  H   UNL     1      26.252  36.728   6.283  1.00  0.00     0.211 HD
ENDBRANCH  12  20
BRANCH  13  22
ATOM     22  N   UNL     1      27.167  35.863  10.303  1.00  0.00    -0.348 N 
ATOM     23  C   UNL     1      25.971  35.956  11.033  1.00  0.00     0.217 C 
ATOM     24  H   UNL     1      27.829  35.100  10.526  1.00  0.00     0.163 HD
ATOM     25  C   UNL     1      25.618  34.995  12.105  1.00  0.00     0.114 C 
ATOM     26  O   UNL     1      25.170  36.877  10.774  1.00  0.00    -0.275 OA
ENDBRANCH  13  22
ENDBRANCH   7   8
BRANCH   7  27
ATOM     27  O   UNL     1      28.205  39.280   8.886  1.00  0.00    -0.388 OA
ATOM     28  H   UNL     1      28.429  40.192   8.557  1.00  0.00     0.211 HD
ENDBRANCH   7  27
ENDBRANCH   6   7
BRANCH   6  29
ATOM     29  O   UNL     1      31.571  38.137   8.350  1.00  0.00    -0.388 OA
ATOM     30  H   UNL     1      31.290  37.209   8.303  1.00  0.00     0.211 HD
ENDBRANCH   6  29
ENDBRANCH   5   6
ENDBRANCH   1   5
BRANCH   2  31
ATOM     31  O   UNL     1      28.893  43.313   7.600  1.00  0.00    -0.443 OA
BRANCH  31  32
ATOM     32  C   UNL     1      28.052  43.119   6.505  1.00  0.00     0.294 C 
BRANCH  32  33
ATOM     33  C   UNL     1      27.331  41.822   6.527  1.00  0.00     0.121 A 
ATOM     34  C   UNL     1      26.058  41.644   7.074  1.00  0.00     0.146 A 
ATOM     35  N   UNL     1      27.673  40.620   6.081  1.00  0.00    -0.131 NA
ATOM     36  N   UNL     1      25.703  40.366   6.937  1.00  0.00    -0.202 N 
ATOM     37  N   UNL     1      26.692  39.752   6.333  1.00  0.00    -0.061 NA
BRANCH  36  38
ATOM     38  C   UNL     1      24.470  39.779   7.379  1.00  0.00     0.155 A 
ATOM     39  C   UNL     1      23.366  40.527   7.730  1.00  0.00     0.049 A 
ATOM     40  N   UNL     1      24.364  38.444   7.476  1.00  0.00    -0.237 NA
ATOM     41  C   UNL     1      22.191  39.974   8.164  1.00  0.00     0.011 A 
ATOM     42  C   UNL     1      23.234  37.856   7.895  1.00  0.00     0.119 A 
ATOM     43  C   UNL     1      22.112  38.597   8.252  1.00  0.00    -0.004 A 
BRANCH  43  44
ATOM     44  C   UNL     1      20.881  37.892   8.711  1.00  0.00     0.193 C 
BRANCH  44  45
ATOM     45  O   UNL     1      20.343  37.186   7.643  1.00  0.00    -0.392 OA
ATOM     46  H   UNL     1      20.774  36.295   7.576  1.00  0.00     0.211 HD
ENDBRANCH  44  45
ENDBRANCH  43  44
ENDBRANCH  36  38
ENDBRANCH  32  33
ENDBRANCH  31  32
ENDBRANCH   2  31
TORSDOF 17
BEGIN_RES LYS A 131
REMARK  4 active torsions:
REMARK  status: ('A' for Active; 'I' for Inactive)
REMARK    1  A    between atoms: CA   and  CB  
REMARK    2  A    between atoms: CB   and  CG  
REMARK    3  A    between atoms: CG   and  CD  
REMARK    4  A    between atoms: CD   and  CE  
ROOT
ATOM      1  CA  LYS A 131      29.867  25.555  16.977  1.00 20.52     0.186 C 
ENDROOT
BRANCH   1   2
ATOM      2  CB  LYS A 131      28.345  25.722  17.026  1.00 20.94     0.034 C 
BRANCH   2   3
ATOM      3  CG  LYS A 131      27.600  24.407  16.854  1.00 22.96     0.005 C 
BRANCH   3   4
ATOM      4  CD  LYS A 131      26.149  24.525  17.228  1.00 24.33     0.041 C 
BRANCH   4   5
ATOM      5  CE  LYS A 131      25.650  23.185  17.759  1.00 26.91     0.338 C 
ATOM      6  NZ  LYS A 131      24.195  23.040  17.516  1.00 27.40     0.618 N 
ENDBRANCH   4   5
ENDBRANCH   3   4
ENDBRANCH   2   3
ENDBRANCH   1   2
END_RES LYS A 131
BEGIN_RES LYS A 135
REMARK  4 active torsions:
REMARK  status: ('A' for Active; 'I' for Inactive)
REMARK    5  A    between atoms: CA   and  CB  
REMARK    6  A    between atoms: CB   and  CG  
REMARK    7  A    between atoms: CG   and  CD  
REMARK    8  A    between atoms: CD   and  CE  
ROOT
ATOM      7  CA  LYS A 135      33.193  34.663   9.290  1.00 25.02     0.186 C 
ENDROOT
BRANCH   7   8
ATOM      8  CB  LYS A 135      32.060  35.360  10.034  1.00 26.63     0.034 C 
BRANCH   8   9
ATOM      9  CG  LYS A 135      32.431  35.791  11.430  1.00 29.45     0.005 C 
BRANCH   9  10
ATOM     10  CD  LYS A 135      31.943  37.206  11.702  1.00 32.00     0.041 C 
BRANCH  10  11
ATOM     11  CE  LYS A 135      31.542  37.360  13.156  1.00 34.25     0.338 C 
ATOM     12  NZ  LYS A 135      31.257  36.037  13.777  1.00 35.99     0.618 N 
ENDBRANCH  10  11
ENDBRANCH   9  10
ENDBRANCH   8   9
ENDBRANCH   7   8
END_RES LYS A 135
