REMARK VINA RESULT:    -5.113      3.146      6.643
REMARK INTER + INTRA:         -13.898
REMARK INTER:                  -9.149
REMARK INTRA:                  -4.749
REMARK UNBOUND:                -4.749
REMARK SMILES CC(=O)N[C@@H]1[C@@H](O)C[C@](O)(C(=O)O)O[C@H]1C(O)[C@H](O)CNC(=O)OCc1cn(-c2ccc([N+](=O)[O-])cc2)nn1
REMARK SMILES IDX 21 1 22 2 23 3 20 5 18 6 16 7 15 8 9 9 8 10 14 11 6 12 5 13
REMARK SMILES IDX 10 14 11 16 12 17 13 18 7 20 4 22 2 23 1 25 3 26 17 27 19 29
REMARK SMILES IDX 24 31 25 32 26 33 27 34 39 35 28 36 38 37 29 38 30 39 37 40
REMARK SMILES IDX 31 41 36 42 32 43 33 44 34 45 35 46
REMARK H PARENT 21 4 10 15 13 19 7 21 4 24 17 28 19 30
REMARK Flexibility Score: inf
ROOT
ATOM      1  N   UNL     1      31.386  33.607  17.455  1.00  0.00    -0.319 N 
ATOM      2  C   UNL     1      31.305  33.069  16.158  1.00  0.00     0.407 C 
ATOM      3  O   UNL     1      30.443  32.240  15.815  1.00  0.00    -0.225 OA
ATOM      4  H   UNL     1      32.161  34.338  17.616  1.00  0.00     0.167 HD
ENDROOT
BRANCH   1   5
ATOM      5  C   UNL     1      30.543  33.258  18.531  1.00  0.00     0.154 C 
BRANCH   5   6
ATOM      6  C   UNL     1      30.629  31.919  19.146  1.00  0.00     0.165 C 
BRANCH   6   7
ATOM      7  C   UNL     1      29.538  30.952  19.100  1.00  0.00     0.176 C 
BRANCH   7   8
ATOM      8  C   UNL     1      29.597  29.945  20.253  1.00  0.00     0.178 C 
ATOM      9  C   UNL     1      31.003  28.257  21.017  1.00  0.00     0.269 C 
ATOM     10  C   UNL     1      29.927  28.114  22.069  1.00  0.00     0.112 C 
ATOM     11  O   UNL     1      30.902  29.409  20.272  1.00  0.00    -0.332 OA
ATOM     12  C   UNL     1      28.546  28.152  21.495  1.00  0.00     0.145 C 
ATOM     13  C   UNL     1      28.661  28.802  20.104  1.00  0.00     0.142 C 
BRANCH   9  14
ATOM     14  O   UNL     1      30.984  27.106  20.248  1.00  0.00    -0.357 OA
ATOM     15  H   UNL     1      30.129  26.648  20.377  1.00  0.00     0.214 HD
ENDBRANCH   9  14
BRANCH   9  16
ATOM     16  C   UNL     1      32.299  28.313  21.743  1.00  0.00     0.364 C 
ATOM     17  O   UNL     1      32.526  27.548  22.716  1.00  0.00    -0.246 OA
BRANCH  16  18
ATOM     18  O   UNL     1      33.290  29.204  21.368  1.00  0.00    -0.477 OA
ATOM     19  H   UNL     1      33.738  29.834  22.038  1.00  0.00     0.296 HD
ENDBRANCH  16  18
ENDBRANCH   9  16
BRANCH  12  20
ATOM     20  O   UNL     1      27.922  26.927  21.423  1.00  0.00    -0.391 OA
ATOM     21  H   UNL     1      27.647  26.775  20.485  1.00  0.00     0.211 HD
ENDBRANCH  12  20
BRANCH  13  22
ATOM     22  N   UNL     1      27.306  29.159  19.740  1.00  0.00    -0.348 N 
ATOM     23  C   UNL     1      26.698  28.609  18.563  1.00  0.00     0.217 C 
ATOM     24  H   UNL     1      26.723  29.812  20.298  1.00  0.00     0.163 HD
ATOM     25  C   UNL     1      25.319  28.929  18.132  1.00  0.00     0.114 C 
ATOM     26  O   UNL     1      27.383  27.820  17.879  1.00  0.00    -0.275 OA
ENDBRANCH  13  22
ENDBRANCH   7   8
BRANCH   7  27
ATOM     27  O   UNL     1      29.466  30.316  17.887  1.00  0.00    -0.388 OA
ATOM     28  H   UNL     1      29.078  29.413  17.889  1.00  0.00     0.211 HD
ENDBRANCH   7  27
ENDBRANCH   6   7
BRANCH   6  29
ATOM     29  O   UNL     1      31.110  32.149  20.468  1.00  0.00    -0.388 OA
ATOM     30  H   UNL     1      31.523  31.319  20.822  1.00  0.00     0.211 HD
ENDBRANCH   6  29
ENDBRANCH   5   6
ENDBRANCH   1   5
BRANCH   2  31
ATOM     31  O   UNL     1      32.260  33.508  15.214  1.00  0.00    -0.443 OA
BRANCH  31  32
ATOM     32  C   UNL     1      32.778  34.809  15.411  1.00  0.00     0.294 C 
BRANCH  32  33
ATOM     33  C   UNL     1      31.918  35.817  14.702  1.00  0.00     0.121 A 
ATOM     34  C   UNL     1      32.016  36.229  13.391  1.00  0.00     0.144 A 
ATOM     35  N   UNL     1      30.878  36.525  15.207  1.00  0.00    -0.131 NA
ATOM     36  N   UNL     1      31.062  37.153  13.125  1.00  0.00    -0.220 N 
ATOM     37  N   UNL     1      30.404  37.294  14.257  1.00  0.00    -0.062 NA
BRANCH  36  38
ATOM     38  C   UNL     1      30.836  37.819  11.886  1.00  0.00     0.067 A 
ATOM     39  C   UNL     1      29.568  38.128  11.439  1.00  0.00     0.035 A 
ATOM     40  C   UNL     1      31.891  38.188  11.071  1.00  0.00     0.035 A 
ATOM     41  C   UNL     1      29.373  38.774  10.235  1.00  0.00     0.088 A 
ATOM     42  C   UNL     1      31.696  38.835   9.867  1.00  0.00     0.088 A 
ATOM     43  C   UNL     1      30.430  39.145   9.417  1.00  0.00     0.269 A 
BRANCH  43  44
ATOM     44  N   UNL     1      30.238  39.808   8.183  1.00  0.00     0.062 N 
ATOM     45  O   UNL     1      29.078  39.970   7.768  1.00  0.00    -0.258 OA
ATOM     46  O   UNL     1      31.260  40.288   7.412  1.00  0.00    -0.258 OA
ENDBRANCH  43  44
ENDBRANCH  36  38
ENDBRANCH  32  33
ENDBRANCH  31  32
ENDBRANCH   2  31
TORSDOF 16
BEGIN_RES LYS A 131
REMARK  4 active torsions:
REMARK  status: ('A' for Active; 'I' for Inactive)
REMARK    1  A    between atoms: CA   and  CB  
REMARK    2  A    between atoms: CB   and  CG  
REMARK    3  A    between atoms: CG   and  CD  
REMARK    4  A    between atoms: CD   and  CE  
ROOT
ATOM      1  CA  LYS A 131      29.867  25.555  16.977  1.00 20.52     0.186 C 
ENDROOT
BRANCH   1   2
ATOM      2  CB  LYS A 131      28.345  25.722  17.026  1.00 20.94     0.034 C 
BRANCH   2   3
ATOM      3  CG  LYS A 131      27.602  24.400  16.914  1.00 22.96     0.005 C 
BRANCH   3   4
ATOM      4  CD  LYS A 131      26.152  24.531  17.291  1.00 24.33     0.041 C 
BRANCH   4   5
ATOM      5  CE  LYS A 131      25.963  24.108  18.744  1.00 26.91     0.338 C 
ATOM      6  NZ  LYS A 131      25.506  25.255  19.563  1.00 27.40     0.618 N 
ENDBRANCH   4   5
ENDBRANCH   3   4
ENDBRANCH   2   3
ENDBRANCH   1   2
END_RES LYS A 131
BEGIN_RES LYS A 135
REMARK  4 active torsions:
REMARK  status: ('A' for Active; 'I' for Inactive)
REMARK    5  A    between atoms: CA   and  CB  
REMARK    6  A    between atoms: CB   and  CG  
REMARK    7  A    between atoms: CG   and  CD  
REMARK    8  A    between atoms: CD   and  CE  
ROOT
ATOM      7  CA  LYS A 135      33.193  34.663   9.290  1.00 25.02     0.186 C 
ENDROOT
BRANCH   7   8
ATOM      8  CB  LYS A 135      32.060  35.360  10.034  1.00 26.63     0.034 C 
BRANCH   8   9
ATOM      9  CG  LYS A 135      30.738  35.300   9.312  1.00 29.45     0.005 C 
BRANCH   9  10
ATOM     10  CD  LYS A 135      29.684  34.629  10.179  1.00 32.00     0.041 C 
BRANCH  10  11
ATOM     11  CE  LYS A 135      28.596  34.018   9.317  1.00 34.25     0.338 C 
ATOM     12  NZ  LYS A 135      28.500  34.711   8.002  1.00 35.99     0.618 N 
ENDBRANCH  10  11
ENDBRANCH   9  10
ENDBRANCH   8   9
ENDBRANCH   7   8
END_RES LYS A 135
