REMARK VINA RESULT:    -5.861      1.939      3.613
REMARK INTER + INTRA:         -16.227
REMARK INTER:                  -9.510
REMARK INTRA:                  -6.716
REMARK UNBOUND:                -6.084
REMARK SMILES CC(=O)N[C@@H]1[C@@H](O)C[C@](O)(C(=O)O)O[C@H]1C(O)[C@H](O)CNC(=O)OCc1cn(-c2c3ccccc3nc3ccccc23)nn1
REMARK SMILES IDX 20 1 18 2 16 3 15 4 9 5 8 6 14 7 6 8 5 9 10 10 11 12 12 13
REMARK SMILES IDX 13 14 7 16 4 18 2 19 1 21 3 22 17 23 19 25 21 27 22 28 23 30
REMARK SMILES IDX 24 31 25 32 26 33 27 34 44 35 28 36 43 37 29 38 30 39 42 40
REMARK SMILES IDX 31 41 35 42 37 43 41 44 32 45 34 46 36 47 38 48 40 49 33 50
REMARK SMILES IDX 39 51
REMARK H PARENT 10 11 13 15 7 17 4 20 17 24 19 26 21 29
REMARK Flexibility Score: inf
ROOT
ATOM      1  C   UNL     1      21.646  36.132   9.304  1.00  0.00     0.154 C 
ENDROOT
BRANCH   1   2
ATOM      2  C   UNL     1      22.398  36.816   8.195  1.00  0.00     0.165 C 
BRANCH   2   3
ATOM      3  C   UNL     1      22.616  38.234   8.622  1.00  0.00     0.176 C 
BRANCH   3   4
ATOM      4  C   UNL     1      24.067  38.686   8.548  1.00  0.00     0.178 C 
ATOM      5  C   UNL     1      25.937  38.259   7.343  1.00  0.00     0.269 C 
ATOM      6  C   UNL     1      26.840  38.002   8.521  1.00  0.00     0.112 C 
ATOM      7  O   UNL     1      24.647  37.914   7.580  1.00  0.00    -0.332 OA
ATOM      8  C   UNL     1      26.086  37.831   9.807  1.00  0.00     0.145 C 
ATOM      9  C   UNL     1      24.773  38.538   9.845  1.00  0.00     0.142 C 
BRANCH   5  10
ATOM     10  O   UNL     1      26.358  37.399   6.274  1.00  0.00    -0.357 OA
ATOM     11  H   UNL     1      27.080  37.840   5.766  1.00  0.00     0.214 HD
ENDBRANCH   5  10
BRANCH   5  12
ATOM     12  C   UNL     1      26.160  39.625   6.811  1.00  0.00     0.364 C 
ATOM     13  O   UNL     1      26.930  40.445   7.378  1.00  0.00    -0.246 OA
BRANCH  12  14
ATOM     14  O   UNL     1      25.530  40.093   5.646  1.00  0.00    -0.477 OA
ATOM     15  H   UNL     1      25.627  41.063   5.390  1.00  0.00     0.296 HD
ENDBRANCH  12  14
ENDBRANCH   5  12
BRANCH   8  16
ATOM     16  O   UNL     1      25.928  36.463  10.052  1.00  0.00    -0.391 OA
ATOM     17  H   UNL     1      25.734  36.288  11.007  1.00  0.00     0.211 HD
ENDBRANCH   8  16
BRANCH   9  18
ATOM     18  N   UNL     1      24.941  39.800  10.575  1.00  0.00    -0.348 N 
ATOM     19  C   UNL     1      24.753  39.904  11.980  1.00  0.00     0.217 C 
ATOM     20  H   UNL     1      25.210  40.683  10.086  1.00  0.00     0.163 HD
ATOM     21  C   UNL     1      24.933  41.198  12.707  1.00  0.00     0.114 C 
ATOM     22  O   UNL     1      24.427  38.888  12.647  1.00  0.00    -0.275 OA
ENDBRANCH   9  18
ENDBRANCH   3   4
BRANCH   3  23
ATOM     23  O   UNL     1      22.187  38.386   9.932  1.00  0.00    -0.388 OA
ATOM     24  H   UNL     1      22.884  38.889  10.420  1.00  0.00     0.211 HD
ENDBRANCH   3  23
ENDBRANCH   2   3
BRANCH   2  25
ATOM     25  O   UNL     1      21.713  36.700   7.009  1.00  0.00    -0.388 OA
ATOM     26  H   UNL     1      21.544  35.724   6.848  1.00  0.00     0.211 HD
ENDBRANCH   2  25
ENDBRANCH   1   2
BRANCH   1  27
ATOM     27  N   UNL     1      22.358  35.142  10.035  1.00  0.00    -0.319 N 
ATOM     28  C   UNL     1      22.764  35.269  11.379  1.00  0.00     0.407 C 
ATOM     29  H   UNL     1      22.637  34.201   9.580  1.00  0.00     0.167 HD
ATOM     30  O   UNL     1      22.528  36.300  12.042  1.00  0.00    -0.225 OA
BRANCH  28  31
ATOM     31  O   UNL     1      23.453  34.244  12.047  1.00  0.00    -0.443 OA
BRANCH  31  32
ATOM     32  C   UNL     1      24.263  34.541  13.185  1.00  0.00     0.294 C 
BRANCH  32  33
ATOM     33  C   UNL     1      25.676  34.547  12.740  1.00  0.00     0.121 A 
ATOM     34  C   UNL     1      26.759  35.031  13.445  1.00  0.00     0.144 A 
ATOM     35  N   UNL     1      26.209  34.094  11.579  1.00  0.00    -0.131 NA
ATOM     36  N   UNL     1      27.882  34.868  12.727  1.00  0.00    -0.219 N 
ATOM     37  N   UNL     1      27.527  34.297  11.596  1.00  0.00    -0.062 NA
BRANCH  36  38
ATOM     38  C   UNL     1      29.198  35.228  13.091  1.00  0.00     0.085 A 
ATOM     39  C   UNL     1      29.760  36.418  12.620  1.00  0.00     0.027 A 
ATOM     40  C   UNL     1      29.973  34.435  13.921  1.00  0.00     0.027 A 
ATOM     41  C   UNL     1      29.039  37.251  11.790  1.00  0.00     0.012 A 
ATOM     42  C   UNL     1      31.022  36.794  12.958  1.00  0.00     0.073 A 
ATOM     43  C   UNL     1      31.249  34.835  14.251  1.00  0.00     0.073 A 
ATOM     44  C   UNL     1      29.421  33.267  14.382  1.00  0.00     0.012 A 
ATOM     45  C   UNL     1      29.548  38.433  11.298  1.00  0.00     0.001 A 
ATOM     46  C   UNL     1      31.549  37.985  12.469  1.00  0.00     0.029 A 
ATOM     47  N   UNL     1      31.744  35.994  13.767  1.00  0.00    -0.248 NA
ATOM     48  C   UNL     1      31.982  34.015  15.076  1.00  0.00     0.029 A 
ATOM     49  C   UNL     1      30.191  32.456  15.218  1.00  0.00     0.001 A 
ATOM     50  C   UNL     1      30.846  38.830  11.640  1.00  0.00     0.002 A 
ATOM     51  C   UNL     1      31.472  32.816  15.573  1.00  0.00     0.002 A 
ENDBRANCH  36  38
ENDBRANCH  32  33
ENDBRANCH  31  32
ENDBRANCH  28  31
ENDBRANCH   1  27
TORSDOF 15
BEGIN_RES LYS A 131
REMARK  4 active torsions:
REMARK  status: ('A' for Active; 'I' for Inactive)
REMARK    1  A    between atoms: CA   and  CB  
REMARK    2  A    between atoms: CB   and  CG  
REMARK    3  A    between atoms: CG   and  CD  
REMARK    4  A    between atoms: CD   and  CE  
ROOT
ATOM      1  CA  LYS A 131      29.867  25.555  16.977  1.00 20.52     0.186 C 
ENDROOT
BRANCH   1   2
ATOM      2  CB  LYS A 131      28.345  25.722  17.026  1.00 20.94     0.034 C 
BRANCH   2   3
ATOM      3  CG  LYS A 131      27.602  24.398  16.929  1.00 22.96     0.005 C 
BRANCH   3   4
ATOM      4  CD  LYS A 131      26.147  24.538  17.283  1.00 24.33     0.041 C 
BRANCH   4   5
ATOM      5  CE  LYS A 131      25.930  24.094  18.726  1.00 26.91     0.338 C 
ATOM      6  NZ  LYS A 131      25.761  25.270  19.611  1.00 27.40     0.618 N 
ENDBRANCH   4   5
ENDBRANCH   3   4
ENDBRANCH   2   3
ENDBRANCH   1   2
END_RES LYS A 131
BEGIN_RES LYS A 135
REMARK  4 active torsions:
REMARK  status: ('A' for Active; 'I' for Inactive)
REMARK    5  A    between atoms: CA   and  CB  
REMARK    6  A    between atoms: CB   and  CG  
REMARK    7  A    between atoms: CG   and  CD  
REMARK    8  A    between atoms: CD   and  CE  
ROOT
ATOM      7  CA  LYS A 135      33.193  34.663   9.290  1.00 25.02     0.186 C 
ENDROOT
BRANCH   7   8
ATOM      8  CB  LYS A 135      32.060  35.360  10.034  1.00 26.63     0.034 C 
BRANCH   8   9
ATOM      9  CG  LYS A 135      30.836  35.594   9.186  1.00 29.45     0.005 C 
BRANCH   9  10
ATOM     10  CD  LYS A 135      30.139  34.278   8.876  1.00 32.00     0.041 C 
BRANCH  10  11
ATOM     11  CE  LYS A 135      28.753  34.529   8.314  1.00 34.25     0.338 C 
ATOM     12  NZ  LYS A 135      28.822  35.279   7.029  1.00 35.99     0.618 N 
ENDBRANCH  10  11
ENDBRANCH   9  10
ENDBRANCH   8   9
ENDBRANCH   7   8
END_RES LYS A 135
