REMARK VINA RESULT:    -3.383      4.695      8.381
REMARK INTER + INTRA:         -13.723
REMARK INTER:                  -6.840
REMARK INTRA:                  -6.883
REMARK UNBOUND:                -7.572
REMARK SMILES CC(=O)N[C@@H]1[C@@H](O)C[C@](O)(C(=O)O)O[C@H]1C(O)[C@H](O)CNC(=O)OCc1cn(CCO)nn1
REMARK SMILES IDX 21 1 22 2 23 3 20 5 18 6 16 7 15 8 9 9 8 10 14 11 6 12 5 13
REMARK SMILES IDX 10 14 11 16 12 17 13 18 7 20 4 22 2 23 1 25 3 26 17 27 19 29
REMARK SMILES IDX 24 31 25 32 26 33 27 34 33 35 28 36 32 37 29 38 30 39 31 40
REMARK H PARENT 21 4 10 15 13 19 7 21 4 24 17 28 19 30 31 41
REMARK Flexibility Score: inf
ROOT
ATOM      1  N   UNL     1      29.281  38.297  14.233  1.00  0.00    -0.319 N 
ATOM      2  C   UNL     1      28.700  38.998  13.170  1.00  0.00     0.407 C 
ATOM      3  O   UNL     1      27.659  39.626  13.341  1.00  0.00    -0.225 OA
ATOM      4  H   UNL     1      30.188  37.779  13.982  1.00  0.00     0.167 HD
ENDROOT
BRANCH   1   5
ATOM      5  C   UNL     1      28.855  38.171  15.573  1.00  0.00     0.154 C 
BRANCH   5   6
ATOM      6  C   UNL     1      28.501  36.803  16.066  1.00  0.00     0.165 C 
BRANCH   6   7
ATOM      7  C   UNL     1      29.653  36.123  16.741  1.00  0.00     0.176 C 
BRANCH   7   8
ATOM      8  C   UNL     1      30.525  35.243  15.952  1.00  0.00     0.178 C 
ATOM      9  C   UNL     1      31.530  34.856  13.914  1.00  0.00     0.269 C 
ATOM     10  C   UNL     1      32.450  34.009  14.768  1.00  0.00     0.112 C 
ATOM     11  O   UNL     1      30.680  35.673  14.658  1.00  0.00    -0.332 OA
ATOM     12  C   UNL     1      31.636  33.102  15.681  1.00  0.00     0.145 C 
ATOM     13  C   UNL     1      30.280  33.773  15.976  1.00  0.00     0.142 C 
BRANCH   9  14
ATOM     14  O   UNL     1      30.715  34.050  13.125  1.00  0.00    -0.357 OA
ATOM     15  H   UNL     1      30.016  33.591  13.643  1.00  0.00     0.214 HD
ENDBRANCH   9  14
BRANCH   9  16
ATOM     16  C   UNL     1      32.303  35.760  13.032  1.00  0.00     0.364 C 
ATOM     17  O   UNL     1      32.040  36.984  12.909  1.00  0.00    -0.246 OA
BRANCH  16  18
ATOM     18  O   UNL     1      33.363  35.248  12.306  1.00  0.00    -0.477 OA
ATOM     19  H   UNL     1      34.086  35.886  11.941  1.00  0.00     0.296 HD
ENDBRANCH  16  18
ENDBRANCH   9  16
BRANCH  12  20
ATOM     20  O   UNL     1      31.449  31.877  15.054  1.00  0.00    -0.391 OA
ATOM     21  H   UNL     1      30.469  31.748  14.961  1.00  0.00     0.211 HD
ENDBRANCH  12  20
BRANCH  13  22
ATOM     22  N   UNL     1      29.786  33.268  17.241  1.00  0.00    -0.348 N 
ATOM     23  C   UNL     1      28.861  32.193  17.229  1.00  0.00     0.217 C 
ATOM     24  H   UNL     1      30.092  33.674  18.159  1.00  0.00     0.163 HD
ATOM     25  C   UNL     1      28.297  31.611  18.477  1.00  0.00     0.114 C 
ATOM     26  O   UNL     1      28.495  31.707  16.134  1.00  0.00    -0.275 OA
ENDBRANCH  13  22
ENDBRANCH   7   8
BRANCH   7  27
ATOM     27  O   UNL     1      30.422  37.225  17.270  1.00  0.00    -0.388 OA
ATOM     28  H   UNL     1      31.273  36.878  17.586  1.00  0.00     0.211 HD
ENDBRANCH   7  27
ENDBRANCH   6   7
BRANCH   6  29
ATOM     29  O   UNL     1      27.910  36.054  15.104  1.00  0.00    -0.388 OA
ATOM     30  H   UNL     1      28.403  35.956  14.267  1.00  0.00     0.211 HD
ENDBRANCH   6  29
ENDBRANCH   5   6
ENDBRANCH   1   5
BRANCH   2  31
ATOM     31  O   UNL     1      29.276  39.008  11.902  1.00  0.00    -0.443 OA
BRANCH  31  32
ATOM     32  C   UNL     1      28.677  38.348  10.807  1.00  0.00     0.294 C 
BRANCH  32  33
ATOM     33  C   UNL     1      28.132  37.044  11.254  1.00  0.00     0.120 A 
ATOM     34  C   UNL     1      26.874  36.543  11.027  1.00  0.00     0.138 A 
ATOM     35  N   UNL     1      28.783  36.129  11.958  1.00  0.00    -0.132 NA
ATOM     36  N   UNL     1      26.843  35.336  11.619  1.00  0.00    -0.250 N 
ATOM     37  N   UNL     1      28.006  35.075  12.191  1.00  0.00    -0.067 NA
BRANCH  36  38
ATOM     38  C   UNL     1      25.688  34.460  11.621  1.00  0.00     0.174 C 
BRANCH  38  39
ATOM     39  C   UNL     1      24.782  34.850  12.786  1.00  0.00     0.179 C 
BRANCH  39  40
ATOM     40  O   UNL     1      25.576  34.992  13.942  1.00  0.00    -0.394 OA
ATOM     41  H   UNL     1      26.541  34.824  13.713  1.00  0.00     0.210 HD
ENDBRANCH  39  40
ENDBRANCH  38  39
ENDBRANCH  36  38
ENDBRANCH  32  33
ENDBRANCH  31  32
ENDBRANCH   2  31
TORSDOF 17
BEGIN_RES LYS A 131
REMARK  4 active torsions:
REMARK  status: ('A' for Active; 'I' for Inactive)
REMARK    1  A    between atoms: CA   and  CB  
REMARK    2  A    between atoms: CB   and  CG  
REMARK    3  A    between atoms: CG   and  CD  
REMARK    4  A    between atoms: CD   and  CE  
ROOT
ATOM      1  CA  LYS A 131      29.867  25.555  16.977  1.00 20.52     0.186 C 
ENDROOT
BRANCH   1   2
ATOM      2  CB  LYS A 131      28.345  25.722  17.026  1.00 20.94     0.034 C 
BRANCH   2   3
ATOM      3  CG  LYS A 131      27.601  24.402  16.890  1.00 22.96     0.005 C 
BRANCH   3   4
ATOM      4  CD  LYS A 131      26.490  24.272  17.894  1.00 24.33     0.041 C 
BRANCH   4   5
ATOM      5  CE  LYS A 131      25.150  24.509  17.205  1.00 26.91     0.338 C 
ATOM      6  NZ  LYS A 131      24.407  25.601  17.877  1.00 27.40     0.618 N 
ENDBRANCH   4   5
ENDBRANCH   3   4
ENDBRANCH   2   3
ENDBRANCH   1   2
END_RES LYS A 131
BEGIN_RES LYS A 135
REMARK  4 active torsions:
REMARK  status: ('A' for Active; 'I' for Inactive)
REMARK    5  A    between atoms: CA   and  CB  
REMARK    6  A    between atoms: CB   and  CG  
REMARK    7  A    between atoms: CG   and  CD  
REMARK    8  A    between atoms: CD   and  CE  
ROOT
ATOM      7  CA  LYS A 135      33.193  34.663   9.290  1.00 25.02     0.186 C 
ENDROOT
BRANCH   7   8
ATOM      8  CB  LYS A 135      32.060  35.360  10.034  1.00 26.63     0.034 C 
BRANCH   8   9
ATOM      9  CG  LYS A 135      30.814  35.537   9.205  1.00 29.45     0.005 C 
BRANCH   9  10
ATOM     10  CD  LYS A 135      30.073  34.217   9.061  1.00 32.00     0.041 C 
BRANCH  10  11
ATOM     11  CE  LYS A 135      28.677  34.446   8.514  1.00 34.25     0.338 C 
ATOM     12  NZ  LYS A 135      28.716  35.263   7.269  1.00 35.99     0.618 N 
ENDBRANCH  10  11
ENDBRANCH   9  10
ENDBRANCH   8   9
ENDBRANCH   7   8
END_RES LYS A 135
