REMARK VINA RESULT:    -4.289      0.000      0.000
REMARK INTER + INTRA:         -15.491
REMARK INTER:                  -8.243
REMARK INTRA:                  -7.248
REMARK UNBOUND:                -7.565
REMARK SMILES CC(=O)N[C@@H]1[C@@H](O)C[C@](O)(C(=O)O)O[C@H]1C(O)[C@H](O)CNC(=O)OCc1cn(CC(=O)Nc2ncccn2)nn1
REMARK SMILES IDX 21 1 22 2 23 3 20 5 18 6 16 7 15 8 9 9 8 10 14 11 6 12 5 13
REMARK SMILES IDX 10 14 11 16 12 17 13 18 7 20 4 22 2 23 1 25 3 26 17 27 19 29
REMARK SMILES IDX 24 31 25 32 26 33 27 34 40 35 28 36 39 37 29 38 30 39 31 40
REMARK SMILES IDX 32 41 33 43 34 44 38 45 35 46 37 47 36 48
REMARK H PARENT 21 4 10 15 13 19 7 21 4 24 17 28 19 30 32 42
REMARK Flexibility Score: inf
ROOT
ATOM      1  N   UNL     1      29.196  30.337  17.148  1.00  0.00    -0.319 N 
ATOM      2  C   UNL     1      28.442  30.620  18.338  1.00  0.00     0.407 C 
ATOM      3  O   UNL     1      28.813  31.509  19.143  1.00  0.00    -0.225 OA
ATOM      4  H   UNL     1      28.874  29.602  16.497  1.00  0.00     0.167 HD
ENDROOT
BRANCH   1   5
ATOM      5  C   UNL     1      30.387  31.106  16.913  1.00  0.00     0.154 C 
BRANCH   5   6
ATOM      6  C   UNL     1      30.307  31.974  15.681  1.00  0.00     0.165 C 
BRANCH   6   7
ATOM      7  C   UNL     1      31.360  33.047  15.819  1.00  0.00     0.176 C 
BRANCH   7   8
ATOM      8  C   UNL     1      31.017  34.271  14.967  1.00  0.00     0.178 C 
ATOM      9  C   UNL     1      29.868  34.940  13.143  1.00  0.00     0.269 C 
ATOM     10  C   UNL     1      30.822  36.064  12.966  1.00  0.00     0.112 C 
ATOM     11  O   UNL     1      30.444  33.880  13.781  1.00  0.00    -0.332 OA
ATOM     12  C   UNL     1      32.241  35.794  13.407  1.00  0.00     0.145 C 
ATOM     13  C   UNL     1      32.309  35.023  14.696  1.00  0.00     0.142 C 
BRANCH   9  14
ATOM     14  O   UNL     1      29.516  34.431  11.846  1.00  0.00    -0.357 OA
ATOM     15  H   UNL     1      29.312  35.205  11.253  1.00  0.00     0.214 HD
ENDBRANCH   9  14
BRANCH   9  16
ATOM     16  C   UNL     1      28.571  35.387  13.729  1.00  0.00     0.364 C 
ATOM     17  O   UNL     1      28.310  36.583  13.857  1.00  0.00    -0.246 OA
BRANCH  16  18
ATOM     18  O   UNL     1      27.606  34.469  14.154  1.00  0.00    -0.477 OA
ATOM     19  H   UNL     1      27.512  33.560  13.736  1.00  0.00     0.296 HD
ENDBRANCH  16  18
ENDBRANCH   9  16
BRANCH  12  20
ATOM     20  O   UNL     1      32.862  35.100  12.366  1.00  0.00    -0.391 OA
ATOM     21  H   UNL     1      32.287  34.358  12.023  1.00  0.00     0.211 HD
ENDBRANCH  12  20
BRANCH  13  22
ATOM     22  N   UNL     1      32.643  35.794  15.842  1.00  0.00    -0.348 N 
ATOM     23  C   UNL     1      33.960  36.006  16.325  1.00  0.00     0.217 C 
ATOM     24  H   UNL     1      31.878  36.253  16.395  1.00  0.00     0.163 HD
ATOM     25  C   UNL     1      34.238  36.827  17.544  1.00  0.00     0.114 C 
ATOM     26  O   UNL     1      34.896  35.480  15.697  1.00  0.00    -0.275 OA
ENDBRANCH  13  22
ENDBRANCH   7   8
BRANCH   7  27
ATOM     27  O   UNL     1      31.560  33.410  17.137  1.00  0.00    -0.388 OA
ATOM     28  H   UNL     1      31.313  34.380  17.233  1.00  0.00     0.211 HD
ENDBRANCH   7  27
ENDBRANCH   6   7
BRANCH   6  29
ATOM     29  O   UNL     1      29.025  32.516  15.627  1.00  0.00    -0.388 OA
ATOM     30  H   UNL     1      28.543  32.050  14.892  1.00  0.00     0.211 HD
ENDBRANCH   6  29
ENDBRANCH   5   6
ENDBRANCH   1   5
BRANCH   2  31
ATOM     31  O   UNL     1      27.291  29.927  18.635  1.00  0.00    -0.443 OA
BRANCH  31  32
ATOM     32  C   UNL     1      26.318  29.511  17.723  1.00  0.00     0.294 C 
BRANCH  32  33
ATOM     33  C   UNL     1      25.909  30.641  16.861  1.00  0.00     0.120 A 
ATOM     34  C   UNL     1      24.915  31.573  17.073  1.00  0.00     0.138 A 
ATOM     35  N   UNL     1      26.481  30.947  15.685  1.00  0.00    -0.132 NA
ATOM     36  N   UNL     1      24.922  32.401  16.030  1.00  0.00    -0.243 N 
ATOM     37  N   UNL     1      25.876  31.996  15.211  1.00  0.00    -0.067 NA
BRANCH  36  38
ATOM     38  C   UNL     1      24.020  33.547  15.872  1.00  0.00     0.246 C 
BRANCH  38  39
ATOM     39  C   UNL     1      24.388  34.314  14.645  1.00  0.00     0.248 C 
ATOM     40  O   UNL     1      24.845  35.469  14.654  1.00  0.00    -0.272 OA
ATOM     41  N   UNL     1      24.202  33.674  13.377  1.00  0.00    -0.293 N 
ATOM     42  H   UNL     1      23.818  32.703  13.340  1.00  0.00     0.173 HD
BRANCH  41  43
ATOM     43  C   UNL     1      24.527  34.317  12.160  1.00  0.00     0.229 A 
ATOM     44  N   UNL     1      23.622  34.951  11.390  1.00  0.00    -0.221 NA
ATOM     45  N   UNL     1      25.799  34.316  11.717  1.00  0.00    -0.221 NA
ATOM     46  C   UNL     1      23.962  35.556  10.235  1.00  0.00     0.117 A 
ATOM     47  C   UNL     1      26.199  34.895  10.588  1.00  0.00     0.117 A 
ATOM     48  C   UNL     1      25.271  35.545   9.798  1.00  0.00     0.040 A 
ENDBRANCH  41  43
ENDBRANCH  38  39
ENDBRANCH  36  38
ENDBRANCH  32  33
ENDBRANCH  31  32
ENDBRANCH   2  31
TORSDOF 17
BEGIN_RES LYS A 131
REMARK  4 active torsions:
REMARK  status: ('A' for Active; 'I' for Inactive)
REMARK    1  A    between atoms: CA   and  CB  
REMARK    2  A    between atoms: CB   and  CG  
REMARK    3  A    between atoms: CG   and  CD  
REMARK    4  A    between atoms: CD   and  CE  
ROOT
ATOM      1  CA  LYS A 131      29.867  25.555  16.977  1.00 20.52     0.186 C 
ENDROOT
BRANCH   1   2
ATOM      2  CB  LYS A 131      28.345  25.722  17.026  1.00 20.94     0.034 C 
BRANCH   2   3
ATOM      3  CG  LYS A 131      27.602  24.400  16.913  1.00 22.96     0.005 C 
BRANCH   3   4
ATOM      4  CD  LYS A 131      26.348  24.382  17.743  1.00 24.33     0.041 C 
BRANCH   4   5
ATOM      5  CE  LYS A 131      26.077  25.782  18.286  1.00 26.91     0.338 C 
ATOM      6  NZ  LYS A 131      25.855  25.736  19.751  1.00 27.40     0.618 N 
ENDBRANCH   4   5
ENDBRANCH   3   4
ENDBRANCH   2   3
ENDBRANCH   1   2
END_RES LYS A 131
BEGIN_RES LYS A 135
REMARK  4 active torsions:
REMARK  status: ('A' for Active; 'I' for Inactive)
REMARK    5  A    between atoms: CA   and  CB  
REMARK    6  A    between atoms: CB   and  CG  
REMARK    7  A    between atoms: CG   and  CD  
REMARK    8  A    between atoms: CD   and  CE  
ROOT
ATOM      7  CA  LYS A 135      33.193  34.663   9.290  1.00 25.02     0.186 C 
ENDROOT
BRANCH   7   8
ATOM      8  CB  LYS A 135      32.060  35.360  10.034  1.00 26.63     0.034 C 
BRANCH   8   9
ATOM      9  CG  LYS A 135      30.893  35.723   9.152  1.00 29.45     0.005 C 
BRANCH   9  10
ATOM     10  CD  LYS A 135      30.419  34.512   8.364  1.00 32.00     0.041 C 
BRANCH  10  11
ATOM     11  CE  LYS A 135      28.905  34.494   8.274  1.00 34.25     0.338 C 
ATOM     12  NZ  LYS A 135      28.422  35.396   7.191  1.00 35.99     0.618 N 
ENDBRANCH  10  11
ENDBRANCH   9  10
ENDBRANCH   8   9
ENDBRANCH   7   8
END_RES LYS A 135
