REMARK VINA RESULT:    -4.862      3.289      9.026
REMARK INTER + INTRA:         -15.676
REMARK INTER:                 -10.398
REMARK INTRA:                  -5.277
REMARK UNBOUND:                -6.408
REMARK SMILES CC(=O)N[C@@H]1[C@@H](O)C[C@](O)(C(=O)O)O[C@H]1C(O)[C@H](O)CNC(=O)OCc1cn(-c2ccc(S(=O)(=O)Nc3nccs3)cc2)nn1
REMARK SMILES IDX 21 1 22 2 23 3 20 5 18 6 16 7 15 8 9 9 8 10 14 11 6 12 5 13
REMARK SMILES IDX 10 14 11 16 12 17 13 18 7 20 4 22 2 23 1 25 3 26 17 27 19 29
REMARK SMILES IDX 24 31 25 32 26 33 27 34 45 35 28 36 44 37 29 38 30 39 43 40
REMARK SMILES IDX 31 41 42 42 32 43 33 44 34 45 35 46 36 47 37 49 38 50 41 51
REMARK SMILES IDX 39 52 40 53
REMARK H PARENT 21 4 10 15 13 19 7 21 4 24 17 28 19 30 36 48
REMARK Flexibility Score: inf
ROOT
ATOM      1  N   UNL     1      28.981  30.184  16.450  1.00  0.00    -0.319 N 
ATOM      2  C   UNL     1      27.762  30.302  17.155  1.00  0.00     0.407 C 
ATOM      3  O   UNL     1      26.975  31.263  16.856  1.00  0.00    -0.225 OA
ATOM      4  H   UNL     1      29.622  29.408  16.686  1.00  0.00     0.167 HD
ENDROOT
BRANCH   1   5
ATOM      5  C   UNL     1      29.349  31.111  15.414  1.00  0.00     0.154 C 
BRANCH   5   6
ATOM      6  C   UNL     1      30.390  32.106  15.864  1.00  0.00     0.165 C 
BRANCH   6   7
ATOM      7  C   UNL     1      29.898  33.521  15.771  1.00  0.00     0.176 C 
BRANCH   7   8
ATOM      8  C   UNL     1      29.604  33.900  14.308  1.00  0.00     0.178 C 
ATOM      9  C   UNL     1      31.350  35.396  13.776  1.00  0.00     0.269 C 
ATOM     10  C   UNL     1      30.317  36.445  13.414  1.00  0.00     0.112 C 
ATOM     11  O   UNL     1      30.803  34.162  13.719  1.00  0.00    -0.332 OA
ATOM     12  C   UNL     1      29.228  36.322  14.452  1.00  0.00     0.145 C 
ATOM     13  C   UNL     1      28.583  34.968  14.288  1.00  0.00     0.142 C 
BRANCH   9  14
ATOM     14  O   UNL     1      31.728  35.677  15.096  1.00  0.00    -0.357 OA
ATOM     15  H   UNL     1      32.271  34.974  15.497  1.00  0.00     0.214 HD
ENDBRANCH   9  14
BRANCH   9  16
ATOM     16  C   UNL     1      32.567  35.535  12.934  1.00  0.00     0.364 C 
ATOM     17  O   UNL     1      32.656  36.482  12.139  1.00  0.00    -0.246 OA
BRANCH  16  18
ATOM     18  O   UNL     1      33.598  34.621  13.025  1.00  0.00    -0.477 OA
ATOM     19  H   UNL     1      34.028  34.241  12.169  1.00  0.00     0.296 HD
ENDBRANCH  16  18
ENDBRANCH   9  16
BRANCH  12  20
ATOM     20  O   UNL     1      29.757  36.525  15.722  1.00  0.00    -0.391 OA
ATOM     21  H   UNL     1      29.975  35.624  16.099  1.00  0.00     0.211 HD
ENDBRANCH  12  20
BRANCH  13  22
ATOM     22  N   UNL     1      27.759  35.021  13.123  1.00  0.00    -0.348 N 
ATOM     23  C   UNL     1      26.450  34.491  13.148  1.00  0.00     0.217 C 
ATOM     24  H   UNL     1      28.114  35.446  12.250  1.00  0.00     0.163 HD
ATOM     25  C   UNL     1      25.527  34.503  11.986  1.00  0.00     0.114 C 
ATOM     26  O   UNL     1      26.051  33.986  14.205  1.00  0.00    -0.275 OA
ENDBRANCH  13  22
ENDBRANCH   7   8
BRANCH   7  27
ATOM     27  O   UNL     1      28.736  33.737  16.549  1.00  0.00    -0.388 OA
ATOM     28  H   UNL     1      27.991  33.855  15.932  1.00  0.00     0.211 HD
ENDBRANCH   7  27
ENDBRANCH   6   7
BRANCH   6  29
ATOM     29  O   UNL     1      31.501  31.892  15.020  1.00  0.00    -0.388 OA
ATOM     30  H   UNL     1      31.200  32.125  14.107  1.00  0.00     0.211 HD
ENDBRANCH   6  29
ENDBRANCH   5   6
ENDBRANCH   1   5
BRANCH   2  31
ATOM     31  O   UNL     1      27.367  29.439  18.156  1.00  0.00    -0.443 OA
BRANCH  31  32
ATOM     32  C   UNL     1      27.426  29.806  19.541  1.00  0.00     0.294 C 
BRANCH  32  33
ATOM     33  C   UNL     1      28.561  29.033  20.127  1.00  0.00     0.121 A 
ATOM     34  C   UNL     1      29.712  29.557  20.720  1.00  0.00     0.144 A 
ATOM     35  N   UNL     1      28.721  27.696  20.212  1.00  0.00    -0.131 NA
ATOM     36  N   UNL     1      30.501  28.549  21.127  1.00  0.00    -0.220 N 
ATOM     37  N   UNL     1      29.864  27.443  20.801  1.00  0.00    -0.062 NA
BRANCH  36  38
ATOM     38  C   UNL     1      31.757  28.702  21.774  1.00  0.00     0.066 A 
ATOM     39  C   UNL     1      32.238  27.790  22.686  1.00  0.00     0.030 A 
ATOM     40  C   UNL     1      32.540  29.800  21.493  1.00  0.00     0.030 A 
ATOM     41  C   UNL     1      33.472  27.960  23.311  1.00  0.00     0.024 A 
ATOM     42  C   UNL     1      33.760  29.970  22.108  1.00  0.00     0.024 A 
ATOM     43  C   UNL     1      34.263  29.052  23.037  1.00  0.00     0.088 A 
BRANCH  43  44
ATOM     44  S   UNL     1      35.814  29.299  23.781  1.00  0.00     0.263 S 
ATOM     45  O   UNL     1      36.829  28.523  22.952  1.00  0.00    -0.201 OA
ATOM     46  O   UNL     1      35.785  28.653  25.123  1.00  0.00    -0.201 OA
BRANCH  44  47
ATOM     47  N   UNL     1      36.300  30.925  23.877  1.00  0.00    -0.255 N 
ATOM     48  H   UNL     1      35.825  31.534  24.598  1.00  0.00     0.182 HD
BRANCH  47  49
ATOM     49  C   UNL     1      37.274  31.567  23.098  1.00  0.00     0.196 A 
ATOM     50  N   UNL     1      38.433  31.951  23.127  1.00  0.00    -0.228 NA
ATOM     51  S   UNL     1      36.833  32.107  21.341  1.00  0.00    -0.105 S 
ATOM     52  C   UNL     1      39.114  32.546  22.201  1.00  0.00     0.125 A 
ATOM     53  C   UNL     1      38.523  32.810  21.014  1.00  0.00     0.089 A 
ENDBRANCH  47  49
ENDBRANCH  44  47
ENDBRANCH  43  44
ENDBRANCH  36  38
ENDBRANCH  32  33
ENDBRANCH  31  32
ENDBRANCH   2  31
TORSDOF 18
BEGIN_RES LYS A 131
REMARK  4 active torsions:
REMARK  status: ('A' for Active; 'I' for Inactive)
REMARK    1  A    between atoms: CA   and  CB  
REMARK    2  A    between atoms: CB   and  CG  
REMARK    3  A    between atoms: CG   and  CD  
REMARK    4  A    between atoms: CD   and  CE  
ROOT
ATOM      1  CA  LYS A 131      29.867  25.555  16.977  1.00 20.52     0.186 C 
ENDROOT
BRANCH   1   2
ATOM      2  CB  LYS A 131      28.345  25.722  17.026  1.00 20.94     0.034 C 
BRANCH   2   3
ATOM      3  CG  LYS A 131      27.602  24.399  16.923  1.00 22.96     0.005 C 
BRANCH   3   4
ATOM      4  CD  LYS A 131      26.638  24.201  18.060  1.00 24.33     0.041 C 
BRANCH   4   5
ATOM      5  CE  LYS A 131      25.978  25.532  18.405  1.00 26.91     0.338 C 
ATOM      6  NZ  LYS A 131      25.763  25.641  19.868  1.00 27.40     0.618 N 
ENDBRANCH   4   5
ENDBRANCH   3   4
ENDBRANCH   2   3
ENDBRANCH   1   2
END_RES LYS A 131
BEGIN_RES LYS A 135
REMARK  4 active torsions:
REMARK  status: ('A' for Active; 'I' for Inactive)
REMARK    5  A    between atoms: CA   and  CB  
REMARK    6  A    between atoms: CB   and  CG  
REMARK    7  A    between atoms: CG   and  CD  
REMARK    8  A    between atoms: CD   and  CE  
ROOT
ATOM      7  CA  LYS A 135      33.193  34.663   9.290  1.00 25.02     0.186 C 
ENDROOT
BRANCH   7   8
ATOM      8  CB  LYS A 135      32.060  35.360  10.034  1.00 26.63     0.034 C 
BRANCH   8   9
ATOM      9  CG  LYS A 135      30.698  34.797   9.721  1.00 29.45     0.005 C 
BRANCH   9  10
ATOM     10  CD  LYS A 135      30.569  34.496   8.236  1.00 32.00     0.041 C 
BRANCH  10  11
ATOM     11  CE  LYS A 135      29.270  35.054   7.690  1.00 34.25     0.338 C 
ATOM     12  NZ  LYS A 135      29.187  36.526   7.902  1.00 35.99     0.618 N 
ENDBRANCH  10  11
ENDBRANCH   9  10
ENDBRANCH   8   9
ENDBRANCH   7   8
END_RES LYS A 135
