REMARK VINA RESULT:    -5.095      2.042      2.854
REMARK INTER + INTRA:         -14.091
REMARK INTER:                  -9.366
REMARK INTRA:                  -4.725
REMARK UNBOUND:                -5.272
REMARK SMILES CC(=O)N[C@@H]1[C@@H](O)C[C@](O)(C(=O)O)O[C@H]1C(O)[C@H](O)CNC(=O)OCc1cn(-c2ccncc2)nn1
REMARK SMILES IDX 20 1 18 2 16 3 15 4 9 5 8 6 14 7 6 8 5 9 10 10 11 12 12 13
REMARK SMILES IDX 13 14 7 16 4 18 2 19 1 21 3 22 17 23 19 25 21 27 22 28 23 30
REMARK SMILES IDX 24 31 25 32 26 33 27 34 36 35 28 36 35 37 29 38 30 39 34 40
REMARK SMILES IDX 31 41 33 42 32 43
REMARK H PARENT 10 11 13 15 7 17 4 20 17 24 19 26 21 29
REMARK Flexibility Score: inf
ROOT
ATOM      1  C   UNL     1      29.961  27.134  21.457  1.00  0.00     0.154 C 
ENDROOT
BRANCH   1   2
ATOM      2  C   UNL     1      31.428  26.926  21.318  1.00  0.00     0.165 C 
BRANCH   2   3
ATOM      3  C   UNL     1      32.238  27.904  22.153  1.00  0.00     0.176 C 
BRANCH   3   4
ATOM      4  C   UNL     1      33.165  27.244  23.109  1.00  0.00     0.178 C 
ATOM      5  C   UNL     1      33.393  26.427  25.255  1.00  0.00     0.269 C 
ATOM      6  C   UNL     1      34.823  26.189  24.840  1.00  0.00     0.112 C 
ATOM      7  O   UNL     1      32.556  26.708  24.209  1.00  0.00    -0.332 OA
ATOM      8  C   UNL     1      35.400  27.337  24.059  1.00  0.00     0.145 C 
ATOM      9  C   UNL     1      34.244  28.199  23.594  1.00  0.00     0.142 C 
BRANCH   5  10
ATOM     10  O   UNL     1      33.296  27.388  26.262  1.00  0.00    -0.357 OA
ATOM     11  H   UNL     1      33.644  27.050  27.130  1.00  0.00     0.214 HD
ENDBRANCH   5  10
BRANCH   5  12
ATOM     12  C   UNL     1      32.913  25.138  25.866  1.00  0.00     0.364 C 
ATOM     13  O   UNL     1      33.677  24.248  26.269  1.00  0.00    -0.246 OA
BRANCH  12  14
ATOM     14  O   UNL     1      31.531  24.992  25.959  1.00  0.00    -0.477 OA
ATOM     15  H   UNL     1      30.967  24.901  25.117  1.00  0.00     0.296 HD
ENDBRANCH  12  14
ENDBRANCH   5  12
BRANCH   8  16
ATOM     16  O   UNL     1      36.292  28.092  24.820  1.00  0.00    -0.391 OA
ATOM     17  H   UNL     1      36.017  28.070  25.768  1.00  0.00     0.211 HD
ENDBRANCH   8  16
BRANCH   9  18
ATOM     18  N   UNL     1      34.648  29.130  22.567  1.00  0.00    -0.348 N 
ATOM     19  C   UNL     1      34.966  30.478  22.889  1.00  0.00     0.217 C 
ATOM     20  H   UNL     1      34.717  28.847  21.573  1.00  0.00     0.163 HD
ATOM     21  C   UNL     1      35.389  31.469  21.848  1.00  0.00     0.114 C 
ATOM     22  O   UNL     1      34.890  30.849  24.087  1.00  0.00    -0.275 OA
ENDBRANCH   9  18
ENDBRANCH   3   4
BRANCH   3  23
ATOM     23  O   UNL     1      31.444  28.898  22.664  1.00  0.00    -0.388 OA
ATOM     24  H   UNL     1      31.746  29.112  23.589  1.00  0.00     0.211 HD
ENDBRANCH   3  23
ENDBRANCH   2   3
BRANCH   2  25
ATOM     25  O   UNL     1      31.878  27.077  20.019  1.00  0.00    -0.388 OA
ATOM     26  H   UNL     1      32.853  26.989  19.923  1.00  0.00     0.211 HD
ENDBRANCH   2  25
ENDBRANCH   1   2
BRANCH   1  27
ATOM     27  N   UNL     1      29.334  27.305  20.177  1.00  0.00    -0.319 N 
ATOM     28  C   UNL     1      27.966  27.333  19.882  1.00  0.00     0.407 C 
ATOM     29  H   UNL     1      29.981  27.429  19.323  1.00  0.00     0.167 HD
ATOM     30  O   UNL     1      27.123  27.193  20.770  1.00  0.00    -0.225 OA
BRANCH  28  31
ATOM     31  O   UNL     1      27.476  27.519  18.576  1.00  0.00    -0.443 OA
BRANCH  31  32
ATOM     32  C   UNL     1      26.879  28.773  18.226  1.00  0.00     0.294 C 
BRANCH  32  33
ATOM     33  C   UNL     1      27.801  29.595  17.436  1.00  0.00     0.121 A 
ATOM     34  C   UNL     1      28.628  30.618  17.839  1.00  0.00     0.144 A 
ATOM     35  N   UNL     1      27.996  29.469  16.106  1.00  0.00    -0.131 NA
ATOM     36  N   UNL     1      29.280  31.059  16.739  1.00  0.00    -0.220 N 
ATOM     37  N   UNL     1      28.892  30.361  15.702  1.00  0.00    -0.062 NA
BRANCH  36  38
ATOM     38  C   UNL     1      30.243  32.114  16.684  1.00  0.00     0.069 A 
ATOM     39  C   UNL     1      30.925  32.324  15.510  1.00  0.00     0.048 A 
ATOM     40  C   UNL     1      30.481  32.907  17.800  1.00  0.00     0.048 A 
ATOM     41  C   UNL     1      31.850  33.346  15.474  1.00  0.00     0.113 A 
ATOM     42  C   UNL     1      31.406  33.907  17.714  1.00  0.00     0.113 A 
ATOM     43  N   UNL     1      32.070  34.104  16.556  1.00  0.00    -0.265 NA
ENDBRANCH  36  38
ENDBRANCH  32  33
ENDBRANCH  31  32
ENDBRANCH  28  31
ENDBRANCH   1  27
TORSDOF 15
BEGIN_RES LYS A 131
REMARK  4 active torsions:
REMARK  status: ('A' for Active; 'I' for Inactive)
REMARK    1  A    between atoms: CA   and  CB  
REMARK    2  A    between atoms: CB   and  CG  
REMARK    3  A    between atoms: CG   and  CD  
REMARK    4  A    between atoms: CD   and  CE  
ROOT
ATOM      1  CA  LYS A 131      29.867  25.555  16.977  1.00 20.52     0.186 C 
ENDROOT
BRANCH   1   2
ATOM      2  CB  LYS A 131      28.345  25.722  17.026  1.00 20.94     0.034 C 
BRANCH   2   3
ATOM      3  CG  LYS A 131      27.602  24.397  16.946  1.00 22.96     0.005 C 
BRANCH   3   4
ATOM      4  CD  LYS A 131      26.134  24.553  17.230  1.00 24.33     0.041 C 
BRANCH   4   5
ATOM      5  CE  LYS A 131      25.573  23.232  17.747  1.00 26.91     0.338 C 
ATOM      6  NZ  LYS A 131      25.590  23.204  19.228  1.00 27.40     0.618 N 
ENDBRANCH   4   5
ENDBRANCH   3   4
ENDBRANCH   2   3
ENDBRANCH   1   2
END_RES LYS A 131
BEGIN_RES LYS A 135
REMARK  4 active torsions:
REMARK  status: ('A' for Active; 'I' for Inactive)
REMARK    5  A    between atoms: CA   and  CB  
REMARK    6  A    between atoms: CB   and  CG  
REMARK    7  A    between atoms: CG   and  CD  
REMARK    8  A    between atoms: CD   and  CE  
ROOT
ATOM      7  CA  LYS A 135      33.193  34.663   9.290  1.00 25.02     0.186 C 
ENDROOT
BRANCH   7   8
ATOM      8  CB  LYS A 135      32.060  35.360  10.034  1.00 26.63     0.034 C 
BRANCH   8   9
ATOM      9  CG  LYS A 135      30.708  34.739   9.792  1.00 29.45     0.005 C 
BRANCH   9  10
ATOM     10  CD  LYS A 135      30.510  34.445   8.313  1.00 32.00     0.041 C 
BRANCH  10  11
ATOM     11  CE  LYS A 135      29.155  34.942   7.848  1.00 34.25     0.338 C 
ATOM     12  NZ  LYS A 135      28.060  34.371   8.681  1.00 35.99     0.618 N 
ENDBRANCH  10  11
ENDBRANCH   9  10
ENDBRANCH   8   9
ENDBRANCH   7   8
END_RES LYS A 135
