REMARK VINA RESULT:    -4.222      6.686     13.172
REMARK INTER + INTRA:         -14.792
REMARK INTER:                  -9.204
REMARK INTRA:                  -5.588
REMARK UNBOUND:                -7.237
REMARK SMILES CC(=O)N[C@@H]1[C@@H](O)C[C@](O)(C(=O)O)O[C@H]1C(O)[C@H](O)CNC(=O)OCc1cn(-c2ccccc2C(C)C)nn1
REMARK SMILES IDX 21 1 22 2 23 3 20 5 18 6 16 7 15 8 9 9 8 10 14 11 6 12 5 13
REMARK SMILES IDX 10 14 11 16 12 17 13 18 7 20 4 22 2 23 1 25 3 26 17 27 19 29
REMARK SMILES IDX 24 31 25 32 26 33 27 34 39 35 28 36 38 37 29 38 34 39 30 40
REMARK SMILES IDX 33 41 31 42 32 43 35 44 36 45 37 46
REMARK H PARENT 21 4 10 15 13 19 7 21 4 24 17 28 19 30
REMARK Flexibility Score: inf
ROOT
ATOM      1  N   UNL     1      26.699  30.745  19.155  1.00  0.00    -0.319 N 
ATOM      2  C   UNL     1      27.309  29.753  18.364  1.00  0.00     0.407 C 
ATOM      3  O   UNL     1      27.541  28.614  18.818  1.00  0.00    -0.225 OA
ATOM      4  H   UNL     1      26.516  31.687  18.713  1.00  0.00     0.167 HD
ENDROOT
BRANCH   1   5
ATOM      5  C   UNL     1      26.323  30.519  20.507  1.00  0.00     0.154 C 
BRANCH   5   6
ATOM      6  C   UNL     1      27.474  30.610  21.508  1.00  0.00     0.165 C 
BRANCH   6   7
ATOM      7  C   UNL     1      27.338  29.316  22.314  1.00  0.00     0.176 C 
BRANCH   7   8
ATOM      8  C   UNL     1      28.656  28.686  22.635  1.00  0.00     0.178 C 
ATOM      9  C   UNL     1      30.138  27.570  21.245  1.00  0.00     0.269 C 
ATOM     10  C   UNL     1      30.548  26.651  22.340  1.00  0.00     0.112 C 
ATOM     11  O   UNL     1      29.494  28.725  21.573  1.00  0.00    -0.332 OA
ATOM     12  C   UNL     1      29.587  26.552  23.505  1.00  0.00     0.145 C 
ATOM     13  C   UNL     1      28.338  27.268  23.085  1.00  0.00     0.142 C 
BRANCH   9  14
ATOM     14  O   UNL     1      29.428  26.842  20.255  1.00  0.00    -0.357 OA
ATOM     15  H   UNL     1      28.461  26.940  20.321  1.00  0.00     0.214 HD
ENDBRANCH   9  14
BRANCH   9  16
ATOM     16  C   UNL     1      31.412  28.008  20.566  1.00  0.00     0.364 C 
ATOM     17  O   UNL     1      31.834  29.163  20.791  1.00  0.00    -0.246 OA
BRANCH  16  18
ATOM     18  O   UNL     1      32.136  27.185  19.714  1.00  0.00    -0.477 OA
ATOM     19  H   UNL     1      32.483  26.262  19.964  1.00  0.00     0.296 HD
ENDBRANCH  16  18
ENDBRANCH   9  16
BRANCH  12  20
ATOM     20  O   UNL     1      29.282  25.170  23.706  1.00  0.00    -0.391 OA
ATOM     21  H   UNL     1      28.498  25.065  24.294  1.00  0.00     0.211 HD
ENDBRANCH  12  20
BRANCH  13  22
ATOM     22  N   UNL     1      27.225  27.256  23.952  1.00  0.00    -0.348 N 
ATOM     23  C   UNL     1      26.217  26.260  23.975  1.00  0.00     0.217 C 
ATOM     24  H   UNL     1      27.107  28.057  24.661  1.00  0.00     0.163 HD
ATOM     25  C   UNL     1      25.066  26.267  24.886  1.00  0.00     0.114 C 
ATOM     26  O   UNL     1      26.365  25.300  23.105  1.00  0.00    -0.275 OA
ENDBRANCH  13  22
ENDBRANCH   7   8
BRANCH   7  27
ATOM     27  O   UNL     1      26.509  28.499  21.539  1.00  0.00    -0.388 OA
ATOM     28  H   UNL     1      27.038  28.214  20.748  1.00  0.00     0.211 HD
ENDBRANCH   7  27
ENDBRANCH   6   7
BRANCH   6  29
ATOM     29  O   UNL     1      27.410  31.683  22.336  1.00  0.00    -0.388 OA
ATOM     30  H   UNL     1      27.421  32.526  21.888  1.00  0.00     0.211 HD
ENDBRANCH   6  29
ENDBRANCH   5   6
ENDBRANCH   1   5
BRANCH   2  31
ATOM     31  O   UNL     1      27.674  30.017  17.042  1.00  0.00    -0.443 OA
BRANCH  31  32
ATOM     32  C   UNL     1      27.599  31.363  16.596  1.00  0.00     0.294 C 
BRANCH  32  33
ATOM     33  C   UNL     1      29.007  31.812  16.453  1.00  0.00     0.121 A 
ATOM     34  C   UNL     1      29.459  33.086  16.821  1.00  0.00     0.144 A 
ATOM     35  N   UNL     1      30.086  31.107  16.079  1.00  0.00    -0.131 NA
ATOM     36  N   UNL     1      30.793  33.055  16.648  1.00  0.00    -0.220 N 
ATOM     37  N   UNL     1      31.113  31.901  16.223  1.00  0.00    -0.062 NA
BRANCH  36  38
ATOM     38  C   UNL     1      31.658  34.107  17.033  1.00  0.00     0.070 A 
ATOM     39  C   UNL     1      32.439  34.714  16.126  1.00  0.00    -0.020 A 
ATOM     40  C   UNL     1      31.812  34.385  18.399  1.00  0.00     0.029 A 
ATOM     41  C   UNL     1      33.404  35.623  16.561  1.00  0.00     0.006 A 
ATOM     42  C   UNL     1      32.737  35.260  18.836  1.00  0.00     0.002 A 
ATOM     43  C   UNL     1      33.562  35.904  17.925  1.00  0.00     0.000 A 
BRANCH  39  44
ATOM     44  C   UNL     1      32.212  34.549  14.704  1.00  0.00     0.015 C 
ATOM     45  C   UNL     1      33.443  34.873  13.872  1.00  0.00     0.012 C 
ATOM     46  C   UNL     1      31.292  35.783  14.292  1.00  0.00     0.012 C 
ENDBRANCH  39  44
ENDBRANCH  36  38
ENDBRANCH  32  33
ENDBRANCH  31  32
ENDBRANCH   2  31
TORSDOF 16
BEGIN_RES LYS A 131
REMARK  4 active torsions:
REMARK  status: ('A' for Active; 'I' for Inactive)
REMARK    1  A    between atoms: CA   and  CB  
REMARK    2  A    between atoms: CB   and  CG  
REMARK    3  A    between atoms: CG   and  CD  
REMARK    4  A    between atoms: CD   and  CE  
ROOT
ATOM      1  CA  LYS A 131      29.867  25.555  16.977  1.00 20.52     0.186 C 
ENDROOT
BRANCH   1   2
ATOM      2  CB  LYS A 131      28.345  25.722  17.026  1.00 20.94     0.034 C 
BRANCH   2   3
ATOM      3  CG  LYS A 131      27.601  24.405  16.867  1.00 22.96     0.005 C 
BRANCH   3   4
ATOM      4  CD  LYS A 131      26.219  24.461  17.456  1.00 24.33     0.041 C 
BRANCH   4   5
ATOM      5  CE  LYS A 131      26.250  25.263  18.754  1.00 26.91     0.338 C 
ATOM      6  NZ  LYS A 131      25.038  26.106  18.872  1.00 27.40     0.618 N 
ENDBRANCH   4   5
ENDBRANCH   3   4
ENDBRANCH   2   3
ENDBRANCH   1   2
END_RES LYS A 131
BEGIN_RES LYS A 135
REMARK  4 active torsions:
REMARK  status: ('A' for Active; 'I' for Inactive)
REMARK    5  A    between atoms: CA   and  CB  
REMARK    6  A    between atoms: CB   and  CG  
REMARK    7  A    between atoms: CG   and  CD  
REMARK    8  A    between atoms: CD   and  CE  
ROOT
ATOM      7  CA  LYS A 135      33.193  34.663   9.290  1.00 25.02     0.186 C 
ENDROOT
BRANCH   7   8
ATOM      8  CB  LYS A 135      32.060  35.360  10.034  1.00 26.63     0.034 C 
BRANCH   8   9
ATOM      9  CG  LYS A 135      30.866  35.663   9.166  1.00 29.45     0.005 C 
BRANCH   9  10
ATOM     10  CD  LYS A 135      30.306  34.386   8.558  1.00 32.00     0.041 C 
BRANCH  10  11
ATOM     11  CE  LYS A 135      29.023  33.982   9.257  1.00 34.25     0.338 C 
ATOM     12  NZ  LYS A 135      28.308  35.171   9.796  1.00 35.99     0.618 N 
ENDBRANCH  10  11
ENDBRANCH   9  10
ENDBRANCH   8   9
ENDBRANCH   7   8
END_RES LYS A 135
