REMARK VINA RESULT:    -5.460      4.887      9.000
REMARK INTER + INTRA:         -14.951
REMARK INTER:                  -9.552
REMARK INTRA:                  -5.400
REMARK UNBOUND:                -5.502
REMARK SMILES CC(=O)N[C@@H]1[C@@H](O)C[C@](O)(C(=O)O)O[C@H]1C(O)[C@H](O)CNC(=O)OCc1cn([C@@H]2C[C@H]3CC[C@@H](C2)N3C)nn1
REMARK SMILES IDX 20 1 18 2 16 3 15 4 9 5 8 6 14 7 6 8 5 9 10 10 11 12 12 13
REMARK SMILES IDX 13 14 7 16 4 18 2 19 1 21 3 22 17 23 19 25 21 27 22 28 23 30
REMARK SMILES IDX 24 31 25 32 26 33 27 34 39 35 28 36 38 37 29 38 35 39 30 40
REMARK SMILES IDX 34 41 31 42 36 43 33 44 32 45 37 46
REMARK H PARENT 10 11 13 15 7 17 4 20 17 24 19 26 21 29
REMARK Flexibility Score: inf
ROOT
ATOM      1  C   UNL     1      30.432  31.875  17.041  1.00  0.00     0.154 C 
ENDROOT
BRANCH   1   2
ATOM      2  C   UNL     1      30.965  32.587  15.833  1.00  0.00     0.165 C 
BRANCH   2   3
ATOM      3  C   UNL     1      29.835  33.256  15.059  1.00  0.00     0.176 C 
BRANCH   3   4
ATOM      4  C   UNL     1      30.448  34.370  14.213  1.00  0.00     0.178 C 
ATOM      5  C   UNL     1      32.333  35.750  14.346  1.00  0.00     0.269 C 
ATOM      6  C   UNL     1      31.539  37.018  14.355  1.00  0.00     0.112 C 
ATOM      7  O   UNL     1      31.664  34.627  14.707  1.00  0.00    -0.332 OA
ATOM      8  C   UNL     1      30.066  36.839  14.501  1.00  0.00     0.145 C 
ATOM      9  C   UNL     1      29.515  35.534  14.032  1.00  0.00     0.142 C 
BRANCH   5  10
ATOM     10  O   UNL     1      33.381  35.895  15.259  1.00  0.00    -0.357 OA
ATOM     11  H   UNL     1      33.701  35.029  15.611  1.00  0.00     0.214 HD
ENDBRANCH   5  10
BRANCH   5  12
ATOM     12  C   UNL     1      32.968  35.496  13.035  1.00  0.00     0.364 C 
ATOM     13  O   UNL     1      32.715  36.244  12.067  1.00  0.00    -0.246 OA
BRANCH  12  14
ATOM     14  O   UNL     1      33.856  34.452  12.793  1.00  0.00    -0.477 OA
ATOM     15  H   UNL     1      34.498  34.136  13.536  1.00  0.00     0.296 HD
ENDBRANCH  12  14
ENDBRANCH   5  12
BRANCH   8  16
ATOM     16  O   UNL     1      29.755  37.057  15.851  1.00  0.00    -0.391 OA
ATOM     17  H   UNL     1      30.572  37.282  16.355  1.00  0.00     0.211 HD
ENDBRANCH   8  16
BRANCH   9  18
ATOM     18  N   UNL     1      28.942  35.558  12.714  1.00  0.00    -0.348 N 
ATOM     19  C   UNL     1      27.663  35.045  12.396  1.00  0.00     0.217 C 
ATOM     20  H   UNL     1      29.487  35.979  11.914  1.00  0.00     0.163 HD
ATOM     21  C   UNL     1      27.054  35.058  11.049  1.00  0.00     0.114 C 
ATOM     22  O   UNL     1      27.029  34.551  13.359  1.00  0.00    -0.275 OA
ENDBRANCH   9  18
ENDBRANCH   3   4
BRANCH   3  23
ATOM     23  O   UNL     1      28.849  33.753  15.895  1.00  0.00    -0.388 OA
ATOM     24  H   UNL     1      28.353  32.982  16.272  1.00  0.00     0.211 HD
ENDBRANCH   3  23
ENDBRANCH   2   3
BRANCH   2  25
ATOM     25  O   UNL     1      31.634  31.764  14.973  1.00  0.00    -0.388 OA
ATOM     26  H   UNL     1      30.986  31.285  14.377  1.00  0.00     0.211 HD
ENDBRANCH   2  25
ENDBRANCH   1   2
BRANCH   1  27
ATOM     27  N   UNL     1      29.608  30.763  16.713  1.00  0.00    -0.319 N 
ATOM     28  C   UNL     1      28.253  30.626  17.059  1.00  0.00     0.407 C 
ATOM     29  H   UNL     1      30.036  29.955  16.160  1.00  0.00     0.167 HD
ATOM     30  O   UNL     1      27.633  31.488  17.709  1.00  0.00    -0.225 OA
BRANCH  28  31
ATOM     31  O   UNL     1      27.556  29.470  16.657  1.00  0.00    -0.443 OA
BRANCH  31  32
ATOM     32  C   UNL     1      26.218  29.308  17.084  1.00  0.00     0.294 C 
BRANCH  32  33
ATOM     33  C   UNL     1      25.288  29.646  16.006  1.00  0.00     0.120 A 
ATOM     34  C   UNL     1      24.006  29.128  15.855  1.00  0.00     0.138 A 
ATOM     35  N   UNL     1      25.487  30.487  14.993  1.00  0.00    -0.132 NA
ATOM     36  N   UNL     1      23.478  29.677  14.754  1.00  0.00    -0.249 N 
ATOM     37  N   UNL     1      24.389  30.487  14.260  1.00  0.00    -0.067 NA
BRANCH  36  38
ATOM     38  C   UNL     1      22.170  29.451  14.193  1.00  0.00     0.112 C 
ATOM     39  C   UNL     1      21.206  30.492  14.761  1.00  0.00     0.046 C 
ATOM     40  C   UNL     1      22.281  29.691  12.703  1.00  0.00     0.046 C 
ATOM     41  C   UNL     1      19.914  30.417  13.994  1.00  0.00     0.058 C 
ATOM     42  C   UNL     1      20.927  29.808  12.083  1.00  0.00     0.058 C 
ATOM     43  N   UNL     1      20.124  30.858  12.628  1.00  0.00    -0.300 NA
ATOM     44  C   UNL     1      19.511  28.968  13.791  1.00  0.00     0.021 C 
ATOM     45  C   UNL     1      20.138  28.558  12.494  1.00  0.00     0.021 C 
ATOM     46  C   UNL     1      20.725  32.158  12.544  1.00  0.00     0.105 C 
ENDBRANCH  36  38
ENDBRANCH  32  33
ENDBRANCH  31  32
ENDBRANCH  28  31
ENDBRANCH   1  27
TORSDOF 15
BEGIN_RES LYS A 131
REMARK  4 active torsions:
REMARK  status: ('A' for Active; 'I' for Inactive)
REMARK    1  A    between atoms: CA   and  CB  
REMARK    2  A    between atoms: CB   and  CG  
REMARK    3  A    between atoms: CG   and  CD  
REMARK    4  A    between atoms: CD   and  CE  
ROOT
ATOM      1  CA  LYS A 131      29.867  25.555  16.977  1.00 20.52     0.186 C 
ENDROOT
BRANCH   1   2
ATOM      2  CB  LYS A 131      28.345  25.722  17.026  1.00 20.94     0.034 C 
BRANCH   2   3
ATOM      3  CG  LYS A 131      27.601  24.402  16.892  1.00 22.96     0.005 C 
BRANCH   3   4
ATOM      4  CD  LYS A 131      26.138  24.542  17.208  1.00 24.33     0.041 C 
BRANCH   4   5
ATOM      5  CE  LYS A 131      25.589  23.200  17.682  1.00 26.91     0.338 C 
ATOM      6  NZ  LYS A 131      25.543  23.152  19.162  1.00 27.40     0.618 N 
ENDBRANCH   4   5
ENDBRANCH   3   4
ENDBRANCH   2   3
ENDBRANCH   1   2
END_RES LYS A 131
BEGIN_RES LYS A 135
REMARK  4 active torsions:
REMARK  status: ('A' for Active; 'I' for Inactive)
REMARK    5  A    between atoms: CA   and  CB  
REMARK    6  A    between atoms: CB   and  CG  
REMARK    7  A    between atoms: CG   and  CD  
REMARK    8  A    between atoms: CD   and  CE  
ROOT
ATOM      7  CA  LYS A 135      33.193  34.663   9.290  1.00 25.02     0.186 C 
ENDROOT
BRANCH   7   8
ATOM      8  CB  LYS A 135      32.060  35.360  10.034  1.00 26.63     0.034 C 
BRANCH   8   9
ATOM      9  CG  LYS A 135      30.897  35.730   9.150  1.00 29.45     0.005 C 
BRANCH   9  10
ATOM     10  CD  LYS A 135      30.408  34.519   8.371  1.00 32.00     0.041 C 
BRANCH  10  11
ATOM     11  CE  LYS A 135      28.961  34.701   7.957  1.00 34.25     0.338 C 
ATOM     12  NZ  LYS A 135      28.859  35.461   6.680  1.00 35.99     0.618 N 
ENDBRANCH  10  11
ENDBRANCH   9  10
ENDBRANCH   8   9
ENDBRANCH   7   8
END_RES LYS A 135
