REMARK VINA RESULT:    -4.942      3.041      8.243
REMARK INTER + INTRA:         -15.028
REMARK INTER:                  -9.320
REMARK INTRA:                  -5.709
REMARK UNBOUND:                -6.187
REMARK SMILES CC(=O)N[C@@H]1[C@@H](O)C[C@](O)(C(=O)O)O[C@H]1C(O)[C@H](O)CNC(=O)OCc1cn(-c2cc(Cl)ccc2C(=O)N(C)C)nn1
REMARK SMILES IDX 21 1 22 2 23 3 20 5 18 6 16 7 15 8 9 9 8 10 14 11 6 12 5 13
REMARK SMILES IDX 10 14 11 16 12 17 13 18 7 20 4 22 2 23 1 25 3 26 17 27 19 29
REMARK SMILES IDX 24 31 25 32 26 33 27 34 42 35 28 36 41 37 29 38 30 39 35 40
REMARK SMILES IDX 31 41 34 42 32 43 33 44 36 45 37 46 38 47 39 48 40 49
REMARK H PARENT 21 4 10 15 13 19 7 21 4 24 17 28 19 30
REMARK Flexibility Score: inf
ROOT
ATOM      1  N   UNL     1      25.655  37.088  11.213  1.00  0.00    -0.319 N 
ATOM      2  C   UNL     1      25.031  35.973  10.631  1.00  0.00     0.407 C 
ATOM      3  O   UNL     1      24.809  34.951  11.310  1.00  0.00    -0.225 OA
ATOM      4  H   UNL     1      25.833  37.941  10.636  1.00  0.00     0.167 HD
ENDROOT
BRANCH   1   5
ATOM      5  C   UNL     1      26.069  37.111  12.591  1.00  0.00     0.154 C 
BRANCH   5   6
ATOM      6  C   UNL     1      27.520  36.719  12.696  1.00  0.00     0.165 C 
BRANCH   6   7
ATOM      7  C   UNL     1      27.736  35.530  13.598  1.00  0.00     0.176 C 
BRANCH   7   8
ATOM      8  C   UNL     1      29.181  35.274  13.800  1.00  0.00     0.178 C 
ATOM      9  C   UNL     1      31.318  35.443  12.988  1.00  0.00     0.269 C 
ATOM     10  C   UNL     1      31.631  35.102  14.423  1.00  0.00     0.112 C 
ATOM     11  O   UNL     1      29.981  35.417  12.680  1.00  0.00    -0.332 OA
ATOM     12  C   UNL     1      30.859  33.932  14.935  1.00  0.00     0.145 C 
ATOM     13  C   UNL     1      29.452  33.872  14.347  1.00  0.00     0.142 C 
BRANCH   9  14
ATOM     14  O   UNL     1      31.931  34.468  12.179  1.00  0.00    -0.357 OA
ATOM     15  H   UNL     1      31.540  33.592  12.480  1.00  0.00     0.214 HD
ENDBRANCH   9  14
BRANCH   9  16
ATOM     16  C   UNL     1      31.852  36.758  12.618  1.00  0.00     0.364 C 
ATOM     17  O   UNL     1      32.678  36.852  11.678  1.00  0.00    -0.246 OA
BRANCH  16  18
ATOM     18  O   UNL     1      31.502  37.942  13.247  1.00  0.00    -0.477 OA
ATOM     19  H   UNL     1      30.667  38.428  12.885  1.00  0.00     0.296 HD
ENDBRANCH  16  18
ENDBRANCH   9  16
BRANCH  12  20
ATOM     20  O   UNL     1      31.574  32.759  14.623  1.00  0.00    -0.391 OA
ATOM     21  H   UNL     1      32.375  32.770  15.213  1.00  0.00     0.211 HD
ENDBRANCH  12  20
BRANCH  13  22
ATOM     22  N   UNL     1      28.479  33.466  15.302  1.00  0.00    -0.348 N 
ATOM     23  C   UNL     1      28.414  32.115  15.729  1.00  0.00     0.217 C 
ATOM     24  H   UNL     1      27.801  34.140  15.706  1.00  0.00     0.163 HD
ATOM     25  C   UNL     1      27.370  31.736  16.740  1.00  0.00     0.114 C 
ATOM     26  O   UNL     1      29.171  31.218  15.319  1.00  0.00    -0.275 OA
ENDBRANCH  13  22
ENDBRANCH   7   8
BRANCH   7  27
ATOM     27  O   UNL     1      26.994  34.465  13.150  1.00  0.00    -0.388 OA
ATOM     28  H   UNL     1      26.544  34.056  13.956  1.00  0.00     0.211 HD
ENDBRANCH   7  27
ENDBRANCH   6   7
BRANCH   6  29
ATOM     29  O   UNL     1      28.256  37.792  13.287  1.00  0.00    -0.388 OA
ATOM     30  H   UNL     1      29.172  37.818  12.945  1.00  0.00     0.211 HD
ENDBRANCH   6  29
ENDBRANCH   5   6
ENDBRANCH   1   5
BRANCH   2  31
ATOM     31  O   UNL     1      24.628  35.930   9.300  1.00  0.00    -0.443 OA
BRANCH  31  32
ATOM     32  C   UNL     1      24.621  37.119   8.536  1.00  0.00     0.294 C 
BRANCH  32  33
ATOM     33  C   UNL     1      25.915  37.333   7.875  1.00  0.00     0.121 A 
ATOM     34  C   UNL     1      26.810  38.375   8.000  1.00  0.00     0.144 A 
ATOM     35  N   UNL     1      26.473  36.495   6.984  1.00  0.00    -0.131 NA
ATOM     36  N   UNL     1      27.879  38.147   7.190  1.00  0.00    -0.219 N 
ATOM     37  N   UNL     1      27.632  37.005   6.598  1.00  0.00    -0.062 NA
BRANCH  36  38
ATOM     38  C   UNL     1      29.029  38.963   7.011  1.00  0.00     0.081 A 
ATOM     39  C   UNL     1      30.127  38.835   7.849  1.00  0.00     0.049 A 
ATOM     40  C   UNL     1      29.046  39.887   5.992  1.00  0.00     0.065 A 
ATOM     41  C   UNL     1      31.247  39.612   7.693  1.00  0.00     0.043 A 
ATOM     42  C   UNL     1      30.160  40.688   5.805  1.00  0.00     0.017 A 
ATOM     43  Cl  UNL     1      32.647  39.458   8.751  1.00  0.00    -0.084 Cl
ATOM     44  C   UNL     1      31.246  40.534   6.666  1.00  0.00     0.021 A 
BRANCH  40  45
ATOM     45  C   UNL     1      27.896  40.008   5.127  1.00  0.00     0.255 C 
ATOM     46  O   UNL     1      27.720  39.284   4.107  1.00  0.00    -0.269 OA
ATOM     47  N   UNL     1      26.903  40.975   5.409  1.00  0.00    -0.345 N 
ATOM     48  C   UNL     1      27.061  41.824   6.564  1.00  0.00     0.146 C 
ATOM     49  C   UNL     1      25.724  41.140   4.572  1.00  0.00     0.146 C 
ENDBRANCH  40  45
ENDBRANCH  36  38
ENDBRANCH  32  33
ENDBRANCH  31  32
ENDBRANCH   2  31
TORSDOF 16
BEGIN_RES LYS A 131
REMARK  4 active torsions:
REMARK  status: ('A' for Active; 'I' for Inactive)
REMARK    1  A    between atoms: CA   and  CB  
REMARK    2  A    between atoms: CB   and  CG  
REMARK    3  A    between atoms: CG   and  CD  
REMARK    4  A    between atoms: CD   and  CE  
ROOT
ATOM      1  CA  LYS A 131      29.867  25.555  16.977  1.00 20.52     0.186 C 
ENDROOT
BRANCH   1   2
ATOM      2  CB  LYS A 131      28.345  25.722  17.026  1.00 20.94     0.034 C 
BRANCH   2   3
ATOM      3  CG  LYS A 131      27.601  24.404  16.874  1.00 22.96     0.005 C 
BRANCH   3   4
ATOM      4  CD  LYS A 131      26.490  24.262  17.877  1.00 24.33     0.041 C 
BRANCH   4   5
ATOM      5  CE  LYS A 131      25.153  24.544  17.200  1.00 26.91     0.338 C 
ATOM      6  NZ  LYS A 131      24.287  23.342  17.240  1.00 27.40     0.618 N 
ENDBRANCH   4   5
ENDBRANCH   3   4
ENDBRANCH   2   3
ENDBRANCH   1   2
END_RES LYS A 131
BEGIN_RES LYS A 135
REMARK  4 active torsions:
REMARK  status: ('A' for Active; 'I' for Inactive)
REMARK    5  A    between atoms: CA   and  CB  
REMARK    6  A    between atoms: CB   and  CG  
REMARK    7  A    between atoms: CG   and  CD  
REMARK    8  A    between atoms: CD   and  CE  
ROOT
ATOM      7  CA  LYS A 135      33.193  34.663   9.290  1.00 25.02     0.186 C 
ENDROOT
BRANCH   7   8
ATOM      8  CB  LYS A 135      32.060  35.360  10.034  1.00 26.63     0.034 C 
BRANCH   8   9
ATOM      9  CG  LYS A 135      30.796  35.489   9.223  1.00 29.45     0.005 C 
BRANCH   9  10
ATOM     10  CD  LYS A 135      30.139  34.130   9.035  1.00 32.00     0.041 C 
BRANCH  10  11
ATOM     11  CE  LYS A 135      28.670  34.292   8.695  1.00 34.25     0.338 C 
ATOM     12  NZ  LYS A 135      27.805  33.760   9.784  1.00 35.99     0.618 N 
ENDBRANCH  10  11
ENDBRANCH   9  10
ENDBRANCH   8   9
ENDBRANCH   7   8
END_RES LYS A 135
