REMARK VINA RESULT:    -4.672      4.508      7.795
REMARK INTER + INTRA:         -14.459
REMARK INTER:                  -8.428
REMARK INTRA:                  -6.031
REMARK UNBOUND:                -5.964
REMARK SMILES CC(=O)N[C@@H]1[C@@H](O)C[C@](O)(C(=O)O)O[C@H]1C(O)[C@H](O)CNC(=O)OCc1cn(-c2ccc(S(N)(=O)=O)cc2)nn1
REMARK SMILES IDX 21 1 22 2 23 3 20 5 18 6 16 7 15 8 9 9 8 10 14 11 6 12 5 13
REMARK SMILES IDX 10 14 11 16 12 17 13 18 7 20 4 22 2 23 1 25 3 26 17 27 19 29
REMARK SMILES IDX 24 31 25 32 26 33 27 34 40 35 28 36 39 37 29 38 30 39 38 40
REMARK SMILES IDX 31 41 37 42 32 43 33 44 35 45 36 46 34 47
REMARK H PARENT 21 4 10 15 13 19 7 21 4 24 17 28 19 30 34 48 34 49
REMARK Flexibility Score: inf
ROOT
ATOM      1  N   UNL     1      24.302  33.822  15.468  1.00  0.00    -0.319 N 
ATOM      2  C   UNL     1      23.029  34.253  15.068  1.00  0.00     0.407 C 
ATOM      3  O   UNL     1      22.536  35.297  15.526  1.00  0.00    -0.225 OA
ATOM      4  H   UNL     1      24.665  32.927  15.039  1.00  0.00     0.167 HD
ENDROOT
BRANCH   1   5
ATOM      5  C   UNL     1      25.090  34.539  16.407  1.00  0.00     0.154 C 
BRANCH   5   6
ATOM      6  C   UNL     1      26.411  33.851  16.730  1.00  0.00     0.165 C 
BRANCH   6   7
ATOM      7  C   UNL     1      27.381  34.145  15.623  1.00  0.00     0.176 C 
BRANCH   7   8
ATOM      8  C   UNL     1      28.648  33.381  15.690  1.00  0.00     0.178 C 
ATOM      9  C   UNL     1      30.064  32.437  17.282  1.00  0.00     0.269 C 
ATOM     10  C   UNL     1      30.601  31.813  16.017  1.00  0.00     0.112 C 
ATOM     11  O   UNL     1      29.015  33.285  17.059  1.00  0.00    -0.332 OA
ATOM     12  C   UNL     1      30.867  32.811  14.932  1.00  0.00     0.145 C 
ATOM     13  C   UNL     1      29.843  33.917  14.995  1.00  0.00     0.142 C 
BRANCH   9  14
ATOM     14  O   UNL     1      31.099  33.058  18.021  1.00  0.00    -0.357 OA
ATOM     15  H   UNL     1      30.948  32.951  18.994  1.00  0.00     0.214 HD
ENDBRANCH   9  14
BRANCH   9  16
ATOM     16  C   UNL     1      29.579  31.324  18.141  1.00  0.00     0.364 C 
ATOM     17  O   UNL     1      28.377  31.342  18.510  1.00  0.00    -0.246 OA
BRANCH  16  18
ATOM     18  O   UNL     1      30.368  30.269  18.561  1.00  0.00    -0.477 OA
ATOM     19  H   UNL     1      30.803  29.643  17.889  1.00  0.00     0.296 HD
ENDBRANCH  16  18
ENDBRANCH   9  16
BRANCH  12  20
ATOM     20  O   UNL     1      32.171  33.271  15.070  1.00  0.00    -0.391 OA
ATOM     21  H   UNL     1      32.107  34.244  15.245  1.00  0.00     0.211 HD
ENDBRANCH  12  20
BRANCH  13  22
ATOM     22  N   UNL     1      29.660  34.597  13.769  1.00  0.00    -0.348 N 
ATOM     23  C   UNL     1      29.920  35.978  13.617  1.00  0.00     0.217 C 
ATOM     24  H   UNL     1      29.341  34.081  12.926  1.00  0.00     0.163 HD
ATOM     25  C   UNL     1      29.719  36.687  12.306  1.00  0.00     0.114 C 
ATOM     26  O   UNL     1      30.326  36.606  14.612  1.00  0.00    -0.275 OA
ENDBRANCH  13  22
ENDBRANCH   7   8
BRANCH   7  27
ATOM     27  O   UNL     1      26.833  34.357  14.386  1.00  0.00    -0.388 OA
ATOM     28  H   UNL     1      26.976  35.294  14.126  1.00  0.00     0.211 HD
ENDBRANCH   7  27
ENDBRANCH   6   7
BRANCH   6  29
ATOM     29  O   UNL     1      26.172  32.525  16.976  1.00  0.00    -0.388 OA
ATOM     30  H   UNL     1      25.511  32.424  17.715  1.00  0.00     0.211 HD
ENDBRANCH   6  29
ENDBRANCH   5   6
ENDBRANCH   1   5
BRANCH   2  31
ATOM     31  O   UNL     1      22.250  33.541  14.142  1.00  0.00    -0.443 OA
BRANCH  31  32
ATOM     32  C   UNL     1      22.041  34.027  12.854  1.00  0.00     0.294 C 
BRANCH  32  33
ATOM     33  C   UNL     1      23.307  34.399  12.185  1.00  0.00     0.121 A 
ATOM     34  C   UNL     1      23.539  35.273  11.149  1.00  0.00     0.144 A 
ATOM     35  N   UNL     1      24.525  33.900  12.516  1.00  0.00    -0.131 NA
ATOM     36  N   UNL     1      24.855  35.296  10.870  1.00  0.00    -0.220 N 
ATOM     37  N   UNL     1      25.417  34.455  11.715  1.00  0.00    -0.062 NA
BRANCH  36  38
ATOM     38  C   UNL     1      25.542  36.053   9.879  1.00  0.00     0.066 A 
ATOM     39  C   UNL     1      26.586  36.892  10.201  1.00  0.00     0.030 A 
ATOM     40  C   UNL     1      25.185  35.978   8.545  1.00  0.00     0.030 A 
ATOM     41  C   UNL     1      27.260  37.631   9.255  1.00  0.00     0.024 A 
ATOM     42  C   UNL     1      25.858  36.716   7.594  1.00  0.00     0.024 A 
ATOM     43  C   UNL     1      26.904  37.559   7.904  1.00  0.00     0.082 A 
BRANCH  43  44
ATOM     44  S   UNL     1      27.762  38.501   6.706  1.00  0.00     0.238 S 
ATOM     45  O   UNL     1      27.411  39.943   6.939  1.00  0.00    -0.207 OA
ATOM     46  O   UNL     1      29.246  38.369   6.964  1.00  0.00    -0.207 OA
BRANCH  44  47
ATOM     47  N   UNL     1      27.379  38.042   5.101  1.00  0.00    -0.225 NA
ATOM     48  H   UNL     1      27.961  38.472   4.373  1.00  0.00     0.137 HD
ATOM     49  H   UNL     1      27.303  37.006   4.992  1.00  0.00     0.137 HD
ENDBRANCH  44  47
ENDBRANCH  43  44
ENDBRANCH  36  38
ENDBRANCH  32  33
ENDBRANCH  31  32
ENDBRANCH   2  31
TORSDOF 17
BEGIN_RES LYS A 131
REMARK  4 active torsions:
REMARK  status: ('A' for Active; 'I' for Inactive)
REMARK    1  A    between atoms: CA   and  CB  
REMARK    2  A    between atoms: CB   and  CG  
REMARK    3  A    between atoms: CG   and  CD  
REMARK    4  A    between atoms: CD   and  CE  
ROOT
ATOM      1  CA  LYS A 131      29.867  25.555  16.977  1.00 20.52     0.186 C 
ENDROOT
BRANCH   1   2
ATOM      2  CB  LYS A 131      28.345  25.722  17.026  1.00 20.94     0.034 C 
BRANCH   2   3
ATOM      3  CG  LYS A 131      27.601  24.403  16.882  1.00 22.96     0.005 C 
BRANCH   3   4
ATOM      4  CD  LYS A 131      26.671  24.149  18.036  1.00 24.33     0.041 C 
BRANCH   4   5
ATOM      5  CE  LYS A 131      25.554  23.209  17.592  1.00 26.91     0.338 C 
ATOM      6  NZ  LYS A 131      24.254  23.646  18.155  1.00 27.40     0.618 N 
ENDBRANCH   4   5
ENDBRANCH   3   4
ENDBRANCH   2   3
ENDBRANCH   1   2
END_RES LYS A 131
BEGIN_RES LYS A 135
REMARK  4 active torsions:
REMARK  status: ('A' for Active; 'I' for Inactive)
REMARK    5  A    between atoms: CA   and  CB  
REMARK    6  A    between atoms: CB   and  CG  
REMARK    7  A    between atoms: CG   and  CD  
REMARK    8  A    between atoms: CD   and  CE  
ROOT
ATOM      7  CA  LYS A 135      33.193  34.663   9.290  1.00 25.02     0.186 C 
ENDROOT
BRANCH   7   8
ATOM      8  CB  LYS A 135      32.060  35.360  10.034  1.00 26.63     0.034 C 
BRANCH   8   9
ATOM      9  CG  LYS A 135      30.855  35.639   9.173  1.00 29.45     0.005 C 
BRANCH   9  10
ATOM     10  CD  LYS A 135      30.321  34.351   8.564  1.00 32.00     0.041 C 
BRANCH  10  11
ATOM     11  CE  LYS A 135      28.811  34.410   8.436  1.00 34.25     0.338 C 
ATOM     12  NZ  LYS A 135      28.149  33.665   9.543  1.00 35.99     0.618 N 
ENDBRANCH  10  11
ENDBRANCH   9  10
ENDBRANCH   8   9
ENDBRANCH   7   8
END_RES LYS A 135
