REMARK VINA RESULT:    -4.391      3.052      7.680
REMARK INTER + INTRA:         -14.253
REMARK INTER:                  -7.809
REMARK INTRA:                  -6.445
REMARK UNBOUND:                -6.398
REMARK SMILES CC(=O)N[C@@H]1[C@@H](O)C[C@](O)(C(=O)O)O[C@H]1C(O)[C@H](O)CNC(=O)OCc1cn(Cc2ccc(Br)cc2)nn1
REMARK SMILES IDX 21 1 22 2 23 3 20 5 18 6 16 7 15 8 9 9 8 10 14 11 6 12 5 13
REMARK SMILES IDX 10 14 11 16 12 17 13 18 7 20 4 22 2 23 1 25 3 26 17 27 19 29
REMARK SMILES IDX 24 31 25 32 26 33 27 34 38 35 28 36 37 37 29 38 30 39 31 40
REMARK SMILES IDX 36 41 32 42 35 43 33 44 34 45
REMARK H PARENT 21 4 10 15 13 19 7 21 4 24 17 28 19 30
REMARK Flexibility Score: inf
ROOT
ATOM      1  N   UNL     1      25.314  35.724  12.615  1.00  0.00    -0.319 N 
ATOM      2  C   UNL     1      26.305  36.725  12.755  1.00  0.00     0.407 C 
ATOM      3  O   UNL     1      26.242  37.715  13.509  1.00  0.00    -0.225 OA
ATOM      4  H   UNL     1      25.477  34.912  11.940  1.00  0.00     0.167 HD
ENDROOT
BRANCH   1   5
ATOM      5  C   UNL     1      24.104  35.799  13.373  1.00  0.00     0.154 C 
BRANCH   5   6
ATOM      6  C   UNL     1      23.651  34.497  13.982  1.00  0.00     0.165 C 
BRANCH   6   7
ATOM      7  C   UNL     1      24.724  33.472  14.059  1.00  0.00     0.176 C 
BRANCH   7   8
ATOM      8  C   UNL     1      24.846  32.658  15.286  1.00  0.00     0.178 C 
ATOM      9  C   UNL     1      26.856  33.052  16.346  1.00  0.00     0.269 C 
ATOM     10  C   UNL     1      26.772  31.828  17.229  1.00  0.00     0.112 C 
ATOM     11  O   UNL     1      25.545  33.472  16.193  1.00  0.00    -0.332 OA
ATOM     12  C   UNL     1      26.051  30.786  16.445  1.00  0.00     0.145 C 
ATOM     13  C   UNL     1      25.342  31.285  15.201  1.00  0.00     0.142 C 
BRANCH   9  14
ATOM     14  O   UNL     1      27.485  32.681  15.177  1.00  0.00    -0.357 OA
ATOM     15  H   UNL     1      27.582  31.719  15.052  1.00  0.00     0.214 HD
ENDBRANCH   9  14
BRANCH   9  16
ATOM     16  C   UNL     1      27.603  34.092  17.092  1.00  0.00     0.364 C 
ATOM     17  O   UNL     1      27.660  34.131  18.341  1.00  0.00    -0.246 OA
BRANCH  16  18
ATOM     18  O   UNL     1      28.262  35.061  16.340  1.00  0.00    -0.477 OA
ATOM     19  H   UNL     1      29.180  35.405  16.568  1.00  0.00     0.296 HD
ENDBRANCH  16  18
ENDBRANCH   9  16
BRANCH  12  20
ATOM     20  O   UNL     1      27.024  29.860  16.001  1.00  0.00    -0.391 OA
ATOM     21  H   UNL     1      27.808  29.848  16.585  1.00  0.00     0.211 HD
ENDBRANCH  12  20
BRANCH  13  22
ATOM     22  N   UNL     1      24.232  30.314  15.071  1.00  0.00    -0.348 N 
ATOM     23  C   UNL     1      23.863  29.728  13.854  1.00  0.00     0.217 C 
ATOM     24  H   UNL     1      23.741  30.102  15.972  1.00  0.00     0.163 HD
ATOM     25  C   UNL     1      22.723  28.766  13.828  1.00  0.00     0.114 C 
ATOM     26  O   UNL     1      24.472  30.000  12.809  1.00  0.00    -0.275 OA
ENDBRANCH  13  22
ENDBRANCH   7   8
BRANCH   7  27
ATOM     27  O   UNL     1      24.799  32.792  12.853  1.00  0.00    -0.388 OA
ATOM     28  H   UNL     1      25.720  32.885  12.475  1.00  0.00     0.211 HD
ENDBRANCH   7  27
ENDBRANCH   6   7
BRANCH   6  29
ATOM     29  O   UNL     1      22.440  34.026  13.506  1.00  0.00    -0.388 OA
ATOM     30  H   UNL     1      21.666  34.521  13.842  1.00  0.00     0.211 HD
ENDBRANCH   6  29
ENDBRANCH   5   6
ENDBRANCH   1   5
BRANCH   2  31
ATOM     31  O   UNL     1      27.465  36.608  11.991  1.00  0.00    -0.443 OA
BRANCH  31  32
ATOM     32  C   UNL     1      28.722  36.979  12.503  1.00  0.00     0.294 C 
BRANCH  32  33
ATOM     33  C   UNL     1      29.405  35.850  13.160  1.00  0.00     0.120 A 
ATOM     34  C   UNL     1      30.605  35.787  13.828  1.00  0.00     0.138 A 
ATOM     35  N   UNL     1      28.874  34.606  13.180  1.00  0.00    -0.132 NA
ATOM     36  N   UNL     1      30.765  34.507  14.234  1.00  0.00    -0.248 N 
ATOM     37  N   UNL     1      29.707  33.833  13.826  1.00  0.00    -0.067 NA
BRANCH  36  38
ATOM     38  C   UNL     1      31.905  34.011  14.978  1.00  0.00     0.181 C 
BRANCH  38  39
ATOM     39  C   UNL     1      31.374  33.205  16.126  1.00  0.00    -0.026 A 
ATOM     40  C   UNL     1      30.885  31.929  15.887  1.00  0.00     0.007 A 
ATOM     41  C   UNL     1      31.381  33.740  17.396  1.00  0.00     0.007 A 
ATOM     42  C   UNL     1      30.404  31.211  16.951  1.00  0.00     0.016 A 
ATOM     43  C   UNL     1      30.892  33.010  18.480  1.00  0.00     0.016 A 
ATOM     44  C   UNL     1      30.414  31.751  18.216  1.00  0.00     0.017 A 
ATOM     45  Br  UNL     1      29.738  30.725  19.681  1.00  0.00    -0.051 Br
ENDBRANCH  38  39
ENDBRANCH  36  38
ENDBRANCH  32  33
ENDBRANCH  31  32
ENDBRANCH   2  31
TORSDOF 16
BEGIN_RES LYS A 131
REMARK  4 active torsions:
REMARK  status: ('A' for Active; 'I' for Inactive)
REMARK    1  A    between atoms: CA   and  CB  
REMARK    2  A    between atoms: CB   and  CG  
REMARK    3  A    between atoms: CG   and  CD  
REMARK    4  A    between atoms: CD   and  CE  
ROOT
ATOM      1  CA  LYS A 131      29.867  25.555  16.977  1.00 20.52     0.186 C 
ENDROOT
BRANCH   1   2
ATOM      2  CB  LYS A 131      28.345  25.722  17.026  1.00 20.94     0.034 C 
BRANCH   2   3
ATOM      3  CG  LYS A 131      27.599  24.478  16.569  1.00 22.96     0.005 C 
BRANCH   3   4
ATOM      4  CD  LYS A 131      26.991  23.727  17.721  1.00 24.33     0.041 C 
BRANCH   4   5
ATOM      5  CE  LYS A 131      25.476  23.669  17.547  1.00 26.91     0.338 C 
ATOM      6  NZ  LYS A 131      24.897  22.605  18.401  1.00 27.40     0.618 N 
ENDBRANCH   4   5
ENDBRANCH   3   4
ENDBRANCH   2   3
ENDBRANCH   1   2
END_RES LYS A 131
BEGIN_RES LYS A 135
REMARK  4 active torsions:
REMARK  status: ('A' for Active; 'I' for Inactive)
REMARK    5  A    between atoms: CA   and  CB  
REMARK    6  A    between atoms: CB   and  CG  
REMARK    7  A    between atoms: CG   and  CD  
REMARK    8  A    between atoms: CD   and  CE  
ROOT
ATOM      7  CA  LYS A 135      33.193  34.663   9.290  1.00 25.02     0.186 C 
ENDROOT
BRANCH   7   8
ATOM      8  CB  LYS A 135      32.060  35.360  10.034  1.00 26.63     0.034 C 
BRANCH   8   9
ATOM      9  CG  LYS A 135      30.755  34.608   9.986  1.00 29.45     0.005 C 
BRANCH   9  10
ATOM     10  CD  LYS A 135      29.696  35.417   9.254  1.00 32.00     0.041 C 
BRANCH  10  11
ATOM     11  CE  LYS A 135      28.750  34.500   8.502  1.00 34.25     0.338 C 
ATOM     12  NZ  LYS A 135      27.835  33.789   9.437  1.00 35.99     0.618 N 
ENDBRANCH  10  11
ENDBRANCH   9  10
ENDBRANCH   8   9
ENDBRANCH   7   8
END_RES LYS A 135
