REMARK VINA RESULT:    -4.190      3.030      7.158
REMARK INTER + INTRA:         -14.045
REMARK INTER:                  -8.752
REMARK INTRA:                  -5.293
REMARK UNBOUND:                -6.059
REMARK SMILES CC(=O)N[C@@H]1[C@@H](O)C[C@](O)(C(=O)O)O[C@H]1C(O)[C@H](O)CNC(=O)OCc1cn(CCOC(C)=O)nn1
REMARK SMILES IDX 21 1 22 2 23 3 20 5 18 6 16 7 15 8 9 9 8 10 14 11 6 12 5 13
REMARK SMILES IDX 10 14 11 16 12 17 13 18 7 20 4 22 2 23 1 25 3 26 17 27 19 29
REMARK SMILES IDX 24 31 25 32 26 33 27 34 36 35 28 36 35 37 29 38 30 39 31 40
REMARK SMILES IDX 32 41 34 42 33 43
REMARK H PARENT 21 4 10 15 13 19 7 21 4 24 17 28 19 30
REMARK Flexibility Score: inf
ROOT
ATOM      1  N   UNL     1      31.558  33.903  18.183  1.00  0.00    -0.319 N 
ATOM      2  C   UNL     1      32.219  34.398  19.330  1.00  0.00     0.407 C 
ATOM      3  O   UNL     1      32.008  33.897  20.444  1.00  0.00    -0.225 OA
ATOM      4  H   UNL     1      31.792  34.391  17.275  1.00  0.00     0.167 HD
ENDROOT
BRANCH   1   5
ATOM      5  C   UNL     1      30.616  32.805  18.179  1.00  0.00     0.154 C 
BRANCH   5   6
ATOM      6  C   UNL     1      30.202  32.434  16.806  1.00  0.00     0.165 C 
BRANCH   6   7
ATOM      7  C   UNL     1      30.959  33.099  15.677  1.00  0.00     0.176 C 
BRANCH   7   8
ATOM      8  C   UNL     1      30.100  33.719  14.616  1.00  0.00     0.178 C 
ATOM      9  C   UNL     1      31.805  35.150  13.939  1.00  0.00     0.269 C 
ATOM     10  C   UNL     1      31.408  36.112  14.992  1.00  0.00     0.112 C 
ATOM     11  O   UNL     1      30.862  34.229  13.567  1.00  0.00    -0.332 OA
ATOM     12  C   UNL     1      30.014  36.018  15.497  1.00  0.00     0.145 C 
ATOM     13  C   UNL     1      29.215  34.846  15.044  1.00  0.00     0.142 C 
BRANCH   9  14
ATOM     14  O   UNL     1      32.954  34.410  14.311  1.00  0.00    -0.357 OA
ATOM     15  H   UNL     1      33.738  34.997  14.428  1.00  0.00     0.214 HD
ENDBRANCH   9  14
BRANCH   9  16
ATOM     16  C   UNL     1      32.210  35.870  12.699  1.00  0.00     0.364 C 
ATOM     17  O   UNL     1      31.502  36.826  12.231  1.00  0.00    -0.246 OA
BRANCH  16  18
ATOM     18  O   UNL     1      33.353  35.572  11.974  1.00  0.00    -0.477 OA
ATOM     19  H   UNL     1      34.255  35.746  12.430  1.00  0.00     0.296 HD
ENDBRANCH  16  18
ENDBRANCH   9  16
BRANCH  12  20
ATOM     20  O   UNL     1      30.060  35.996  16.894  1.00  0.00    -0.391 OA
ATOM     21  H   UNL     1      30.960  36.302  17.225  1.00  0.00     0.211 HD
ENDBRANCH  12  20
BRANCH  13  22
ATOM     22  N   UNL     1      28.330  35.125  13.937  1.00  0.00    -0.348 N 
ATOM     23  C   UNL     1      27.058  34.557  13.810  1.00  0.00     0.217 C 
ATOM     24  H   UNL     1      28.677  35.779  13.212  1.00  0.00     0.163 HD
ATOM     25  C   UNL     1      26.127  34.827  12.685  1.00  0.00     0.114 C 
ATOM     26  O   UNL     1      26.693  33.774  14.708  1.00  0.00    -0.275 OA
ENDBRANCH  13  22
ENDBRANCH   7   8
BRANCH   7  27
ATOM     27  O   UNL     1      31.544  31.965  14.992  1.00  0.00    -0.388 OA
ATOM     28  H   UNL     1      32.515  32.051  15.239  1.00  0.00     0.211 HD
ENDBRANCH   7  27
ENDBRANCH   6   7
BRANCH   6  29
ATOM     29  O   UNL     1      28.873  32.274  16.552  1.00  0.00    -0.388 OA
ATOM     30  H   UNL     1      28.646  31.399  16.202  1.00  0.00     0.211 HD
ENDBRANCH   6  29
ENDBRANCH   5   6
ENDBRANCH   1   5
BRANCH   2  31
ATOM     31  O   UNL     1      33.130  35.473  19.219  1.00  0.00    -0.443 OA
BRANCH  31  32
ATOM     32  C   UNL     1      33.418  36.029  17.936  1.00  0.00     0.294 C 
BRANCH  32  33
ATOM     33  C   UNL     1      34.876  35.947  17.724  1.00  0.00     0.120 A 
ATOM     34  C   UNL     1      35.526  36.039  16.504  1.00  0.00     0.138 A 
ATOM     35  N   UNL     1      35.834  35.764  18.643  1.00  0.00    -0.132 NA
ATOM     36  N   UNL     1      36.841  35.910  16.733  1.00  0.00    -0.249 N 
ATOM     37  N   UNL     1      36.999  35.745  18.026  1.00  0.00    -0.067 NA
BRANCH  36  38
ATOM     38  C   UNL     1      37.863  35.951  15.712  1.00  0.00     0.187 C 
BRANCH  38  39
ATOM     39  C   UNL     1      38.580  34.622  15.701  1.00  0.00     0.256 C 
BRANCH  39  40
ATOM     40  O   UNL     1      37.835  33.689  14.973  1.00  0.00    -0.464 OA
BRANCH  40  41
ATOM     41  C   UNL     1      37.645  33.814  13.629  1.00  0.00     0.302 C 
ATOM     42  O   UNL     1      36.504  33.821  13.132  1.00  0.00    -0.253 OA
ATOM     43  C   UNL     1      38.823  33.948  12.703  1.00  0.00     0.139 C 
ENDBRANCH  40  41
ENDBRANCH  39  40
ENDBRANCH  38  39
ENDBRANCH  36  38
ENDBRANCH  32  33
ENDBRANCH  31  32
ENDBRANCH   2  31
TORSDOF 18
BEGIN_RES LYS A 131
REMARK  4 active torsions:
REMARK  status: ('A' for Active; 'I' for Inactive)
REMARK    1  A    between atoms: CA   and  CB  
REMARK    2  A    between atoms: CB   and  CG  
REMARK    3  A    between atoms: CG   and  CD  
REMARK    4  A    between atoms: CD   and  CE  
ROOT
ATOM      1  CA  LYS A 131      29.867  25.555  16.977  1.00 20.52     0.186 C 
ENDROOT
BRANCH   1   2
ATOM      2  CB  LYS A 131      28.345  25.722  17.026  1.00 20.94     0.034 C 
BRANCH   2   3
ATOM      3  CG  LYS A 131      27.601  24.401  16.902  1.00 22.96     0.005 C 
BRANCH   3   4
ATOM      4  CD  LYS A 131      26.146  24.535  17.254  1.00 24.33     0.041 C 
BRANCH   4   5
ATOM      5  CE  LYS A 131      26.005  24.780  18.753  1.00 26.91     0.338 C 
ATOM      6  NZ  LYS A 131      25.045  25.879  19.011  1.00 27.40     0.618 N 
ENDBRANCH   4   5
ENDBRANCH   3   4
ENDBRANCH   2   3
ENDBRANCH   1   2
END_RES LYS A 131
BEGIN_RES LYS A 135
REMARK  4 active torsions:
REMARK  status: ('A' for Active; 'I' for Inactive)
REMARK    5  A    between atoms: CA   and  CB  
REMARK    6  A    between atoms: CB   and  CG  
REMARK    7  A    between atoms: CG   and  CD  
REMARK    8  A    between atoms: CD   and  CE  
ROOT
ATOM      7  CA  LYS A 135      33.193  34.663   9.290  1.00 25.02     0.186 C 
ENDROOT
BRANCH   7   8
ATOM      8  CB  LYS A 135      32.060  35.360  10.034  1.00 26.63     0.034 C 
BRANCH   8   9
ATOM      9  CG  LYS A 135      30.785  35.456   9.236  1.00 29.45     0.005 C 
BRANCH   9  10
ATOM     10  CD  LYS A 135      30.000  34.156   9.320  1.00 32.00     0.041 C 
BRANCH  10  11
ATOM     11  CE  LYS A 135      28.718  34.357  10.105  1.00 34.25     0.338 C 
ATOM     12  NZ  LYS A 135      27.540  33.856   9.346  1.00 35.99     0.618 N 
ENDBRANCH  10  11
ENDBRANCH   9  10
ENDBRANCH   8   9
ENDBRANCH   7   8
END_RES LYS A 135
