REMARK VINA RESULT:    -4.741      1.811      2.377
REMARK INTER + INTRA:         -14.002
REMARK INTER:                  -7.208
REMARK INTRA:                  -6.794
REMARK UNBOUND:                -5.796
REMARK SMILES CC(=O)N[C@@H]1[C@@H](O)C[C@](O)(C(=O)O)O[C@H]1C(O)[C@H](O)CNC(=O)OCc1cn(C2CCCCC2)nn1
REMARK SMILES IDX 20 1 18 2 16 3 15 4 9 5 8 6 14 7 6 8 5 9 10 10 11 12 12 13
REMARK SMILES IDX 13 14 7 16 4 18 2 19 1 21 3 22 17 23 19 25 21 27 22 28 23 30
REMARK SMILES IDX 24 31 25 32 26 33 27 34 36 35 28 36 35 37 29 38 30 39 34 40
REMARK SMILES IDX 31 41 33 42 32 43
REMARK H PARENT 10 11 13 15 7 17 4 20 17 24 19 26 21 29
REMARK Flexibility Score: inf
ROOT
ATOM      1  C   UNL     1      26.473  27.766  20.149  1.00  0.00     0.154 C 
ENDROOT
BRANCH   1   2
ATOM      2  C   UNL     1      27.950  27.631  20.490  1.00  0.00     0.165 C 
BRANCH   2   3
ATOM      3  C   UNL     1      28.543  29.005  20.435  1.00  0.00     0.176 C 
BRANCH   3   4
ATOM      4  C   UNL     1      29.246  29.449  21.700  1.00  0.00     0.178 C 
ATOM      5  C   UNL     1      28.694  31.684  22.189  1.00  0.00     0.269 C 
ATOM      6  C   UNL     1      30.157  32.035  22.398  1.00  0.00     0.112 C 
ATOM      7  O   UNL     1      28.520  30.360  22.416  1.00  0.00    -0.332 OA
ATOM      8  C   UNL     1      31.047  31.217  21.501  1.00  0.00     0.145 C 
ATOM      9  C   UNL     1      30.697  29.743  21.544  1.00  0.00     0.142 C 
BRANCH   5  10
ATOM     10  O   UNL     1      28.246  32.148  20.953  1.00  0.00    -0.357 OA
ATOM     11  H   UNL     1      27.684  31.420  20.538  1.00  0.00     0.214 HD
ENDBRANCH   5  10
BRANCH   5  12
ATOM     12  C   UNL     1      27.958  32.426  23.250  1.00  0.00     0.364 C 
ATOM     13  O   UNL     1      27.633  31.844  24.309  1.00  0.00    -0.246 OA
BRANCH  12  14
ATOM     14  O   UNL     1      27.640  33.740  23.066  1.00  0.00    -0.477 OA
ATOM     15  H   UNL     1      27.353  34.373  23.802  1.00  0.00     0.296 HD
ENDBRANCH  12  14
ENDBRANCH   5  12
BRANCH   8  16
ATOM     16  O   UNL     1      31.039  31.711  20.203  1.00  0.00    -0.391 OA
ATOM     17  H   UNL     1      31.311  32.661  20.201  1.00  0.00     0.211 HD
ENDBRANCH   8  16
BRANCH   9  18
ATOM     18  N   UNL     1      31.485  29.099  22.597  1.00  0.00    -0.348 N 
ATOM     19  C   UNL     1      32.012  27.814  22.351  1.00  0.00     0.217 C 
ATOM     20  H   UNL     1      31.661  29.562  23.509  1.00  0.00     0.163 HD
ATOM     21  C   UNL     1      32.829  27.075  23.363  1.00  0.00     0.114 C 
ATOM     22  O   UNL     1      31.830  27.199  21.253  1.00  0.00    -0.275 OA
ENDBRANCH   9  18
ENDBRANCH   3   4
BRANCH   3  23
ATOM     23  O   UNL     1      29.216  29.262  19.270  1.00  0.00    -0.388 OA
ATOM     24  H   UNL     1      29.787  28.489  18.961  1.00  0.00     0.211 HD
ENDBRANCH   3  23
ENDBRANCH   2   3
BRANCH   2  25
ATOM     25  O   UNL     1      28.500  26.712  19.629  1.00  0.00    -0.388 OA
ATOM     26  H   UNL     1      27.794  26.183  19.226  1.00  0.00     0.211 HD
ENDBRANCH   2  25
ENDBRANCH   1   2
BRANCH   1  27
ATOM     27  N   UNL     1      26.328  28.840  19.195  1.00  0.00    -0.319 N 
ATOM     28  C   UNL     1      25.791  28.708  17.890  1.00  0.00     0.407 C 
ATOM     29  H   UNL     1      26.634  29.830  19.447  1.00  0.00     0.167 HD
ATOM     30  O   UNL     1      25.404  27.582  17.495  1.00  0.00    -0.225 OA
BRANCH  28  31
ATOM     31  O   UNL     1      25.685  29.800  17.034  1.00  0.00    -0.443 OA
BRANCH  31  32
ATOM     32  C   UNL     1      26.692  30.042  16.085  1.00  0.00     0.294 C 
BRANCH  32  33
ATOM     33  C   UNL     1      27.739  30.883  16.722  1.00  0.00     0.120 A 
ATOM     34  C   UNL     1      28.981  31.221  16.167  1.00  0.00     0.138 A 
ATOM     35  N   UNL     1      27.750  31.489  17.925  1.00  0.00    -0.132 NA
ATOM     36  N   UNL     1      29.663  31.992  17.031  1.00  0.00    -0.249 N 
ATOM     37  N   UNL     1      28.889  32.137  18.092  1.00  0.00    -0.067 NA
BRANCH  36  38
ATOM     38  C   UNL     1      30.993  32.553  16.836  1.00  0.00     0.109 C 
ATOM     39  C   UNL     1      31.323  32.543  15.359  1.00  0.00     0.027 C 
ATOM     40  C   UNL     1      31.022  33.988  17.314  1.00  0.00     0.027 C 
ATOM     41  C   UNL     1      31.207  33.929  14.752  1.00  0.00     0.002 C 
ATOM     42  C   UNL     1      32.347  34.574  16.860  1.00  0.00     0.002 C 
ATOM     43  C   UNL     1      32.225  34.847  15.374  1.00  0.00     0.000 C 
ENDBRANCH  36  38
ENDBRANCH  32  33
ENDBRANCH  31  32
ENDBRANCH  28  31
ENDBRANCH   1  27
TORSDOF 15
BEGIN_RES LYS A 131
REMARK  4 active torsions:
REMARK  status: ('A' for Active; 'I' for Inactive)
REMARK    1  A    between atoms: CA   and  CB  
REMARK    2  A    between atoms: CB   and  CG  
REMARK    3  A    between atoms: CG   and  CD  
REMARK    4  A    between atoms: CD   and  CE  
ROOT
ATOM      1  CA  LYS A 131      29.867  25.555  16.977  1.00 20.52     0.186 C 
ENDROOT
BRANCH   1   2
ATOM      2  CB  LYS A 131      28.345  25.722  17.026  1.00 20.94     0.034 C 
BRANCH   2   3
ATOM      3  CG  LYS A 131      27.602  24.398  16.929  1.00 22.96     0.005 C 
BRANCH   3   4
ATOM      4  CD  LYS A 131      26.532  24.272  17.978  1.00 24.33     0.041 C 
BRANCH   4   5
ATOM      5  CE  LYS A 131      25.230  23.818  17.324  1.00 26.91     0.338 C 
ATOM      6  NZ  LYS A 131      25.046  22.358  17.494  1.00 27.40     0.618 N 
ENDBRANCH   4   5
ENDBRANCH   3   4
ENDBRANCH   2   3
ENDBRANCH   1   2
END_RES LYS A 131
BEGIN_RES LYS A 135
REMARK  4 active torsions:
REMARK  status: ('A' for Active; 'I' for Inactive)
REMARK    5  A    between atoms: CA   and  CB  
REMARK    6  A    between atoms: CB   and  CG  
REMARK    7  A    between atoms: CG   and  CD  
REMARK    8  A    between atoms: CD   and  CE  
ROOT
ATOM      7  CA  LYS A 135      33.193  34.663   9.290  1.00 25.02     0.186 C 
ENDROOT
BRANCH   7   8
ATOM      8  CB  LYS A 135      32.060  35.360  10.034  1.00 26.63     0.034 C 
BRANCH   8   9
ATOM      9  CG  LYS A 135      30.819  35.550   9.200  1.00 29.45     0.005 C 
BRANCH   9  10
ATOM     10  CD  LYS A 135      30.068  34.236   9.049  1.00 32.00     0.041 C 
BRANCH  10  11
ATOM     11  CE  LYS A 135      28.700  34.472   8.437  1.00 34.25     0.338 C 
ATOM     12  NZ  LYS A 135      28.801  35.291   7.197  1.00 35.99     0.618 N 
ENDBRANCH  10  11
ENDBRANCH   9  10
ENDBRANCH   8   9
ENDBRANCH   7   8
END_RES LYS A 135
