REMARK VINA RESULT:    -4.994      4.122      6.597
REMARK INTER + INTRA:         -14.659
REMARK INTER:                  -7.569
REMARK INTRA:                  -7.090
REMARK UNBOUND:                -5.578
REMARK SMILES CC(=O)N[C@@H]1[C@@H](O)C[C@](O)(C(=O)O)O[C@H]1C(O)[C@H](O)CNC(=O)OCc1cn(C(C)(C)C(=O)O)nn1
REMARK SMILES IDX 21 1 22 2 23 3 20 5 18 6 16 7 15 8 9 9 8 10 14 11 6 12 5 13
REMARK SMILES IDX 10 14 11 16 12 17 13 18 7 20 4 22 2 23 1 25 3 26 17 27 19 29
REMARK SMILES IDX 24 31 25 32 26 33 27 34 36 35 28 36 35 37 29 38 30 39 31 40
REMARK SMILES IDX 32 41 33 42 34 43
REMARK H PARENT 21 4 10 15 13 19 7 21 4 24 17 28 19 30 34 44
REMARK Flexibility Score: inf
ROOT
ATOM      1  N   UNL     1      26.180  31.333  18.705  1.00  0.00    -0.319 N 
ATOM      2  C   UNL     1      26.784  32.178  19.665  1.00  0.00     0.407 C 
ATOM      3  O   UNL     1      27.267  33.312  19.323  1.00  0.00    -0.225 OA
ATOM      4  H   UNL     1      25.788  30.417  18.993  1.00  0.00     0.167 HD
ENDROOT
BRANCH   1   5
ATOM      5  C   UNL     1      26.127  31.790  17.340  1.00  0.00     0.154 C 
BRANCH   5   6
ATOM      6  C   UNL     1      26.681  30.849  16.331  1.00  0.00     0.165 C 
BRANCH   6   7
ATOM      7  C   UNL     1      28.183  30.719  16.388  1.00  0.00     0.176 C 
BRANCH   7   8
ATOM      8  C   UNL     1      28.774  32.132  16.437  1.00  0.00     0.178 C 
ATOM      9  C   UNL     1      29.264  33.859  14.957  1.00  0.00     0.269 C 
ATOM     10  C   UNL     1      30.639  34.029  15.566  1.00  0.00     0.112 C 
ATOM     11  O   UNL     1      28.740  32.600  15.128  1.00  0.00    -0.332 OA
ATOM     12  C   UNL     1      31.172  32.700  16.013  1.00  0.00     0.145 C 
ATOM     13  C   UNL     1      30.186  32.072  16.979  1.00  0.00     0.142 C 
BRANCH   9  14
ATOM     14  O   UNL     1      29.428  34.034  13.574  1.00  0.00    -0.357 OA
ATOM     15  H   UNL     1      28.644  34.475  13.199  1.00  0.00     0.214 HD
ENDBRANCH   9  14
BRANCH   9  16
ATOM     16  C   UNL     1      28.345  34.911  15.443  1.00  0.00     0.364 C 
ATOM     17  O   UNL     1      28.777  35.836  16.161  1.00  0.00    -0.246 OA
BRANCH  16  18
ATOM     18  O   UNL     1      26.995  34.912  15.127  1.00  0.00    -0.477 OA
ATOM     19  H   UNL     1      26.307  35.385  15.695  1.00  0.00     0.296 HD
ENDBRANCH  16  18
ENDBRANCH   9  16
BRANCH  12  20
ATOM     20  O   UNL     1      31.493  31.863  14.971  1.00  0.00    -0.391 OA
ATOM     21  H   UNL     1      31.341  30.909  15.146  1.00  0.00     0.211 HD
ENDBRANCH  12  20
BRANCH  13  22
ATOM     22  N   UNL     1      30.296  32.820  18.230  1.00  0.00    -0.348 N 
ATOM     23  C   UNL     1      30.574  32.166  19.461  1.00  0.00     0.217 C 
ATOM     24  H   UNL     1      30.170  33.854  18.233  1.00  0.00     0.163 HD
ATOM     25  C   UNL     1      30.690  32.915  20.747  1.00  0.00     0.114 C 
ATOM     26  O   UNL     1      30.720  30.904  19.404  1.00  0.00    -0.275 OA
ENDBRANCH  13  22
ENDBRANCH   7   8
BRANCH   7  27
ATOM     27  O   UNL     1      28.661  29.939  17.403  1.00  0.00    -0.388 OA
ATOM     28  H   UNL     1      28.447  30.325  18.274  1.00  0.00     0.211 HD
ENDBRANCH   7  27
ENDBRANCH   6   7
BRANCH   6  29
ATOM     29  O   UNL     1      26.321  31.379  15.065  1.00  0.00    -0.388 OA
ATOM     30  H   UNL     1      26.856  32.210  14.911  1.00  0.00     0.211 HD
ENDBRANCH   6  29
ENDBRANCH   5   6
ENDBRANCH   1   5
BRANCH   2  31
ATOM     31  O   UNL     1      26.899  31.861  21.003  1.00  0.00    -0.443 OA
BRANCH  31  32
ATOM     32  C   UNL     1      26.534  30.561  21.499  1.00  0.00     0.294 C 
BRANCH  32  33
ATOM     33  C   UNL     1      27.648  29.631  21.182  1.00  0.00     0.120 A 
ATOM     34  C   UNL     1      28.752  29.393  21.985  1.00  0.00     0.139 A 
ATOM     35  N   UNL     1      27.834  28.848  20.102  1.00  0.00    -0.132 NA
ATOM     36  N   UNL     1      29.562  28.491  21.384  1.00  0.00    -0.235 N 
ATOM     37  N   UNL     1      28.972  28.183  20.244  1.00  0.00    -0.066 NA
BRANCH  36  38
ATOM     38  C   UNL     1      30.812  27.990  21.917  1.00  0.00     0.155 C 
ATOM     39  C   UNL     1      31.255  28.832  23.095  1.00  0.00     0.049 C 
ATOM     40  C   UNL     1      30.630  26.551  22.355  1.00  0.00     0.049 C 
BRANCH  38  41
ATOM     41  C   UNL     1      31.897  28.070  20.895  1.00  0.00     0.331 C 
ATOM     42  O   UNL     1      32.746  28.988  21.025  1.00  0.00    -0.250 OA
BRANCH  41  43
ATOM     43  O   UNL     1      31.987  27.182  19.841  1.00  0.00    -0.479 OA
ATOM     44  H   UNL     1      31.661  27.501  18.933  1.00  0.00     0.296 HD
ENDBRANCH  41  43
ENDBRANCH  38  41
ENDBRANCH  36  38
ENDBRANCH  32  33
ENDBRANCH  31  32
ENDBRANCH   2  31
TORSDOF 17
BEGIN_RES LYS A 131
REMARK  4 active torsions:
REMARK  status: ('A' for Active; 'I' for Inactive)
REMARK    1  A    between atoms: CA   and  CB  
REMARK    2  A    between atoms: CB   and  CG  
REMARK    3  A    between atoms: CG   and  CD  
REMARK    4  A    between atoms: CD   and  CE  
ROOT
ATOM      1  CA  LYS A 131      29.867  25.555  16.977  1.00 20.52     0.186 C 
ENDROOT
BRANCH   1   2
ATOM      2  CB  LYS A 131      28.345  25.722  17.026  1.00 20.94     0.034 C 
BRANCH   2   3
ATOM      3  CG  LYS A 131      27.602  24.398  16.930  1.00 22.96     0.005 C 
BRANCH   3   4
ATOM      4  CD  LYS A 131      26.522  24.279  17.969  1.00 24.33     0.041 C 
BRANCH   4   5
ATOM      5  CE  LYS A 131      26.050  25.671  18.376  1.00 26.91     0.338 C 
ATOM      6  NZ  LYS A 131      25.922  25.766  19.849  1.00 27.40     0.618 N 
ENDBRANCH   4   5
ENDBRANCH   3   4
ENDBRANCH   2   3
ENDBRANCH   1   2
END_RES LYS A 131
BEGIN_RES LYS A 135
REMARK  4 active torsions:
REMARK  status: ('A' for Active; 'I' for Inactive)
REMARK    5  A    between atoms: CA   and  CB  
REMARK    6  A    between atoms: CB   and  CG  
REMARK    7  A    between atoms: CG   and  CD  
REMARK    8  A    between atoms: CD   and  CE  
ROOT
ATOM      7  CA  LYS A 135      33.193  34.663   9.290  1.00 25.02     0.186 C 
ENDROOT
BRANCH   7   8
ATOM      8  CB  LYS A 135      32.060  35.360  10.034  1.00 26.63     0.034 C 
BRANCH   8   9
ATOM      9  CG  LYS A 135      30.844  35.613   9.180  1.00 29.45     0.005 C 
BRANCH   9  10
ATOM     10  CD  LYS A 135      30.217  34.300   8.737  1.00 32.00     0.041 C 
BRANCH  10  11
ATOM     11  CE  LYS A 135      28.716  34.450   8.587  1.00 34.25     0.338 C 
ATOM     12  NZ  LYS A 135      27.991  33.657   9.618  1.00 35.99     0.618 N 
ENDBRANCH  10  11
ENDBRANCH   9  10
ENDBRANCH   8   9
ENDBRANCH   7   8
END_RES LYS A 135
