REMARK VINA RESULT:    -6.124      0.000      0.000
REMARK INTER + INTRA:         -16.683
REMARK INTER:                 -11.511
REMARK INTRA:                  -5.172
REMARK UNBOUND:                -6.084
REMARK SMILES CC(=O)N[C@@H]1[C@@H](O)C[C@](O)(C(=O)O)O[C@H]1C(O)[C@H](O)CNC(=O)OCc1cn(-c2c3ccccc3nc3ccccc23)nn1
REMARK SMILES IDX 20 1 18 2 16 3 15 4 9 5 8 6 14 7 6 8 5 9 10 10 11 12 12 13
REMARK SMILES IDX 13 14 7 16 4 18 2 19 1 21 3 22 17 23 19 25 21 27 22 28 23 30
REMARK SMILES IDX 24 31 25 32 26 33 27 34 44 35 28 36 43 37 29 38 30 39 42 40
REMARK SMILES IDX 31 41 35 42 37 43 41 44 32 45 34 46 36 47 38 48 40 49 33 50
REMARK SMILES IDX 39 51
REMARK H PARENT 10 11 13 15 7 17 4 20 17 24 19 26 21 29
REMARK Flexibility Score: inf
ROOT
ATOM      1  C   UNL     1      24.641  37.193   9.164  1.00  0.00     0.154 C 
ENDROOT
BRANCH   1   2
ATOM      2  C   UNL     1      25.738  37.334   8.144  1.00  0.00     0.165 C 
BRANCH   2   3
ATOM      3  C   UNL     1      26.933  37.882   8.859  1.00  0.00     0.176 C 
BRANCH   3   4
ATOM      4  C   UNL     1      28.141  38.105   7.961  1.00  0.00     0.178 C 
ATOM      5  C   UNL     1      28.874  39.579   6.404  1.00  0.00     0.269 C 
ATOM      6  C   UNL     1      29.189  38.559   5.343  1.00  0.00     0.112 C 
ATOM      7  O   UNL     1      27.846  39.207   7.208  1.00  0.00    -0.332 OA
ATOM      8  C   UNL     1      28.615  37.205   5.646  1.00  0.00     0.145 C 
ATOM      9  C   UNL     1      28.432  36.931   7.101  1.00  0.00     0.142 C 
BRANCH   5  10
ATOM     10  O   UNL     1      28.414  40.768   5.745  1.00  0.00    -0.357 OA
ATOM     11  H   UNL     1      27.474  40.643   5.466  1.00  0.00     0.214 HD
ENDBRANCH   5  10
BRANCH   5  12
ATOM     12  C   UNL     1      30.115  40.010   7.092  1.00  0.00     0.364 C 
ATOM     13  O   UNL     1      30.177  41.083   7.749  1.00  0.00    -0.246 OA
BRANCH  12  14
ATOM     14  O   UNL     1      31.298  39.254   7.055  1.00  0.00    -0.477 OA
ATOM     15  H   UNL     1      31.813  39.186   6.190  1.00  0.00     0.296 HD
ENDBRANCH  12  14
ENDBRANCH   5  12
BRANCH   8  16
ATOM     16  O   UNL     1      27.409  37.067   4.952  1.00  0.00    -0.391 OA
ATOM     17  H   UNL     1      26.676  36.788   5.555  1.00  0.00     0.211 HD
ENDBRANCH   8  16
BRANCH   9  18
ATOM     18  N   UNL     1      29.560  36.118   7.570  1.00  0.00    -0.348 N 
ATOM     19  C   UNL     1      29.383  34.882   8.251  1.00  0.00     0.217 C 
ATOM     20  H   UNL     1      30.549  36.417   7.421  1.00  0.00     0.163 HD
ATOM     21  C   UNL     1      30.546  34.066   8.719  1.00  0.00     0.114 C 
ATOM     22  O   UNL     1      28.223  34.448   8.475  1.00  0.00    -0.275 OA
ENDBRANCH   9  18
ENDBRANCH   3   4
BRANCH   3  23
ATOM     23  O   UNL     1      27.304  37.004   9.865  1.00  0.00    -0.388 OA
ATOM     24  H   UNL     1      26.958  37.361  10.719  1.00  0.00     0.211 HD
ENDBRANCH   3  23
ENDBRANCH   2   3
BRANCH   2  25
ATOM     25  O   UNL     1      25.319  38.119   7.096  1.00  0.00    -0.388 OA
ATOM     26  H   UNL     1      25.242  39.062   7.433  1.00  0.00     0.211 HD
ENDBRANCH   2  25
ENDBRANCH   1   2
BRANCH   1  27
ATOM     27  N   UNL     1      24.584  35.958   9.866  1.00  0.00    -0.319 N 
ATOM     28  C   UNL     1      23.844  35.735  11.046  1.00  0.00     0.407 C 
ATOM     29  H   UNL     1      25.127  35.089   9.518  1.00  0.00     0.167 HD
ATOM     30  O   UNL     1      23.173  36.640  11.581  1.00  0.00    -0.225 OA
BRANCH  28  31
ATOM     31  O   UNL     1      23.821  34.483  11.682  1.00  0.00    -0.443 OA
BRANCH  31  32
ATOM     32  C   UNL     1      24.476  34.299  12.937  1.00  0.00     0.294 C 
BRANCH  32  33
ATOM     33  C   UNL     1      25.909  34.622  12.747  1.00  0.00     0.121 A 
ATOM     34  C   UNL     1      26.772  35.127  13.698  1.00  0.00     0.144 A 
ATOM     35  N   UNL     1      26.673  34.500  11.634  1.00  0.00    -0.131 NA
ATOM     36  N   UNL     1      27.993  35.293  13.164  1.00  0.00    -0.219 N 
ATOM     37  N   UNL     1      27.913  34.908  11.909  1.00  0.00    -0.062 NA
BRANCH  36  38
ATOM     38  C   UNL     1      29.153  35.783  13.803  1.00  0.00     0.085 A 
ATOM     39  C   UNL     1      29.401  37.157  13.859  1.00  0.00     0.027 A 
ATOM     40  C   UNL     1      30.077  34.938  14.395  1.00  0.00     0.027 A 
ATOM     41  C   UNL     1      28.519  38.051  13.289  1.00  0.00     0.012 A 
ATOM     42  C   UNL     1      30.506  37.659  14.472  1.00  0.00     0.073 A 
ATOM     43  C   UNL     1      31.191  35.467  15.011  1.00  0.00     0.073 A 
ATOM     44  C   UNL     1      29.835  33.589  14.336  1.00  0.00     0.012 A 
ATOM     45  C   UNL     1      28.718  39.414  13.317  1.00  0.00     0.001 A 
ATOM     46  C   UNL     1      30.720  39.032  14.509  1.00  0.00     0.029 A 
ATOM     47  N   UNL     1      31.381  36.803  15.036  1.00  0.00    -0.248 NA
ATOM     48  C   UNL     1      32.081  34.590  15.583  1.00  0.00     0.029 A 
ATOM     49  C   UNL     1      30.758  32.724  14.927  1.00  0.00     0.001 A 
ATOM     50  C   UNL     1      29.852  39.940  13.945  1.00  0.00     0.002 A 
ATOM     51  C   UNL     1      31.885  33.210  15.553  1.00  0.00     0.002 A 
ENDBRANCH  36  38
ENDBRANCH  32  33
ENDBRANCH  31  32
ENDBRANCH  28  31
ENDBRANCH   1  27
TORSDOF 15
BEGIN_RES LYS A 131
REMARK  4 active torsions:
REMARK  status: ('A' for Active; 'I' for Inactive)
REMARK    1  A    between atoms: CA   and  CB  
REMARK    2  A    between atoms: CB   and  CG  
REMARK    3  A    between atoms: CG   and  CD  
REMARK    4  A    between atoms: CD   and  CE  
ROOT
ATOM      1  CA  LYS A 131      29.867  25.555  16.977  1.00 20.52     0.186 C 
ENDROOT
BRANCH   1   2
ATOM      2  CB  LYS A 131      28.345  25.722  17.026  1.00 20.94     0.034 C 
BRANCH   2   3
ATOM      3  CG  LYS A 131      27.601  24.403  16.881  1.00 22.96     0.005 C 
BRANCH   3   4
ATOM      4  CD  LYS A 131      26.165  24.513  17.312  1.00 24.33     0.041 C 
BRANCH   4   5
ATOM      5  CE  LYS A 131      26.099  25.094  18.720  1.00 26.91     0.338 C 
ATOM      6  NZ  LYS A 131      25.417  24.153  19.639  1.00 27.40     0.618 N 
ENDBRANCH   4   5
ENDBRANCH   3   4
ENDBRANCH   2   3
ENDBRANCH   1   2
END_RES LYS A 131
BEGIN_RES LYS A 135
REMARK  4 active torsions:
REMARK  status: ('A' for Active; 'I' for Inactive)
REMARK    5  A    between atoms: CA   and  CB  
REMARK    6  A    between atoms: CB   and  CG  
REMARK    7  A    between atoms: CG   and  CD  
REMARK    8  A    between atoms: CD   and  CE  
ROOT
ATOM      7  CA  LYS A 135      33.193  34.663   9.290  1.00 25.02     0.186 C 
ENDROOT
BRANCH   7   8
ATOM      8  CB  LYS A 135      32.060  35.360  10.034  1.00 26.63     0.034 C 
BRANCH   8   9
ATOM      9  CG  LYS A 135      32.457  35.871  11.395  1.00 29.45     0.005 C 
BRANCH   9  10
ATOM     10  CD  LYS A 135      32.258  37.376  11.483  1.00 32.00     0.041 C 
BRANCH  10  11
ATOM     11  CE  LYS A 135      31.081  37.808  10.629  1.00 34.25     0.338 C 
ATOM     12  NZ  LYS A 135      31.009  39.292  10.527  1.00 35.99     0.618 N 
ENDBRANCH  10  11
ENDBRANCH   9  10
ENDBRANCH   8   9
ENDBRANCH   7   8
END_RES LYS A 135
