REMARK VINA RESULT:    -4.916      3.203      6.827
REMARK INTER + INTRA:         -15.401
REMARK INTER:                  -9.090
REMARK INTRA:                  -6.312
REMARK UNBOUND:                -5.744
REMARK SMILES CC(=O)N[C@@H]1[C@@H](O)C[C@](O)(C(=O)O)O[C@H]1C(O)[C@H](O)CNC(=O)OCc1cn([C@@H](CC(=O)O)C(=O)O)nn1
REMARK SMILES IDX 21 1 22 2 23 3 20 5 18 6 16 7 15 8 9 9 8 10 14 11 6 12 5 13
REMARK SMILES IDX 10 14 11 16 12 17 13 18 7 20 4 22 2 23 1 25 3 26 17 27 19 29
REMARK SMILES IDX 24 31 25 32 26 33 27 34 38 35 28 36 37 37 29 38 30 39 31 40
REMARK SMILES IDX 32 41 33 42 34 44 35 45 36 46
REMARK H PARENT 21 4 10 15 13 19 7 21 4 24 17 28 19 30 33 43 36 47
REMARK Flexibility Score: inf
ROOT
ATOM      1  N   UNL     1      27.430  28.119  17.645  1.00  0.00    -0.319 N 
ATOM      2  C   UNL     1      26.215  27.610  18.194  1.00  0.00     0.407 C 
ATOM      3  O   UNL     1      25.144  28.104  17.825  1.00  0.00    -0.225 OA
ATOM      4  H   UNL     1      28.302  27.651  18.006  1.00  0.00     0.167 HD
ENDROOT
BRANCH   1   5
ATOM      5  C   UNL     1      27.509  29.175  16.684  1.00  0.00     0.154 C 
BRANCH   5   6
ATOM      6  C   UNL     1      28.211  30.385  17.265  1.00  0.00     0.165 C 
BRANCH   6   7
ATOM      7  C   UNL     1      29.101  31.051  16.232  1.00  0.00     0.176 C 
BRANCH   7   8
ATOM      8  C   UNL     1      28.738  32.460  15.930  1.00  0.00     0.178 C 
ATOM      9  C   UNL     1      30.915  33.060  15.386  1.00  0.00     0.269 C 
ATOM     10  C   UNL     1      31.212  33.312  16.804  1.00  0.00     0.112 C 
ATOM     11  O   UNL     1      29.602  33.036  14.994  1.00  0.00    -0.332 OA
ATOM     12  C   UNL     1      30.089  33.532  17.738  1.00  0.00     0.145 C 
ATOM     13  C   UNL     1      28.719  33.330  17.155  1.00  0.00     0.142 C 
BRANCH   9  14
ATOM     14  O   UNL     1      31.458  31.819  14.964  1.00  0.00    -0.357 OA
ATOM     15  H   UNL     1      31.007  31.140  15.533  1.00  0.00     0.214 HD
ENDBRANCH   9  14
BRANCH   9  16
ATOM     16  C   UNL     1      31.591  34.061  14.515  1.00  0.00     0.364 C 
ATOM     17  O   UNL     1      32.566  34.762  14.870  1.00  0.00    -0.246 OA
BRANCH  16  18
ATOM     18  O   UNL     1      31.105  34.222  13.227  1.00  0.00    -0.477 OA
ATOM     19  H   UNL     1      30.772  35.130  12.876  1.00  0.00     0.296 HD
ENDBRANCH  16  18
ENDBRANCH   9  16
BRANCH  12  20
ATOM     20  O   UNL     1      30.233  32.737  18.872  1.00  0.00    -0.391 OA
ATOM     21  H   UNL     1      29.459  32.188  19.082  1.00  0.00     0.211 HD
ENDBRANCH  12  20
BRANCH  13  22
ATOM     22  N   UNL     1      28.124  34.640  16.793  1.00  0.00    -0.348 N 
ATOM     23  C   UNL     1      26.803  34.968  17.176  1.00  0.00     0.217 C 
ATOM     24  H   UNL     1      28.659  35.348  16.248  1.00  0.00     0.163 HD
ATOM     25  C   UNL     1      26.163  36.271  16.832  1.00  0.00     0.114 C 
ATOM     26  O   UNL     1      26.149  34.128  17.829  1.00  0.00    -0.275 OA
ENDBRANCH  13  22
ENDBRANCH   7   8
BRANCH   7  27
ATOM     27  O   UNL     1      28.892  30.249  15.073  1.00  0.00    -0.388 OA
ATOM     28  H   UNL     1      28.284  29.500  15.279  1.00  0.00     0.211 HD
ENDBRANCH   7  27
ENDBRANCH   6   7
BRANCH   6  29
ATOM     29  O   UNL     1      28.889  29.984  18.409  1.00  0.00    -0.388 OA
ATOM     30  H   UNL     1      29.061  29.011  18.443  1.00  0.00     0.211 HD
ENDBRANCH   6  29
ENDBRANCH   5   6
ENDBRANCH   1   5
BRANCH   2  31
ATOM     31  O   UNL     1      26.194  26.583  19.124  1.00  0.00    -0.443 OA
BRANCH  31  32
ATOM     32  C   UNL     1      26.216  26.875  20.499  1.00  0.00     0.294 C 
BRANCH  32  33
ATOM     33  C   UNL     1      27.260  27.865  20.857  1.00  0.00     0.120 A 
ATOM     34  C   UNL     1      28.544  27.506  21.189  1.00  0.00     0.139 A 
ATOM     35  N   UNL     1      27.201  29.193  20.932  1.00  0.00    -0.132 NA
ATOM     36  N   UNL     1      29.235  28.642  21.459  1.00  0.00    -0.237 N 
ATOM     37  N   UNL     1      28.398  29.626  21.294  1.00  0.00    -0.066 NA
BRANCH  36  38
ATOM     38  C   UNL     1      30.643  28.633  21.848  1.00  0.00     0.229 C 
BRANCH  38  39
ATOM     39  C   UNL     1      31.095  27.214  22.058  1.00  0.00     0.161 C 
BRANCH  39  40
ATOM     40  C   UNL     1      32.140  27.103  23.088  1.00  0.00     0.306 C 
ATOM     41  O   UNL     1      31.797  27.003  24.292  1.00  0.00    -0.252 OA
BRANCH  40  42
ATOM     42  O   UNL     1      33.473  27.111  22.706  1.00  0.00    -0.481 OA
ATOM     43  H   UNL     1      34.148  27.656  23.266  1.00  0.00     0.296 HD
ENDBRANCH  40  42
ENDBRANCH  39  40
ENDBRANCH  38  39
BRANCH  38  44
ATOM     44  C   UNL     1      31.442  29.185  20.720  1.00  0.00     0.329 C 
ATOM     45  O   UNL     1      32.387  28.570  20.164  1.00  0.00    -0.250 OA
BRANCH  44  46
ATOM     46  O   UNL     1      31.129  30.450  20.256  1.00  0.00    -0.480 OA
ATOM     47  H   UNL     1      30.229  30.677  19.849  1.00  0.00     0.296 HD
ENDBRANCH  44  46
ENDBRANCH  38  44
ENDBRANCH  36  38
ENDBRANCH  32  33
ENDBRANCH  31  32
ENDBRANCH   2  31
TORSDOF 20
BEGIN_RES LYS A 131
REMARK  4 active torsions:
REMARK  status: ('A' for Active; 'I' for Inactive)
REMARK    1  A    between atoms: CA   and  CB  
REMARK    2  A    between atoms: CB   and  CG  
REMARK    3  A    between atoms: CG   and  CD  
REMARK    4  A    between atoms: CD   and  CE  
ROOT
ATOM      1  CA  LYS A 131      29.867  25.555  16.977  1.00 20.52     0.186 C 
ENDROOT
BRANCH   1   2
ATOM      2  CB  LYS A 131      28.345  25.722  17.026  1.00 20.94     0.034 C 
BRANCH   2   3
ATOM      3  CG  LYS A 131      27.599  24.475  16.578  1.00 22.96     0.005 C 
BRANCH   3   4
ATOM      4  CD  LYS A 131      27.232  23.587  17.735  1.00 24.33     0.041 C 
BRANCH   4   5
ATOM      5  CE  LYS A 131      25.739  23.280  17.687  1.00 26.91     0.338 C 
ATOM      6  NZ  LYS A 131      25.017  24.332  16.934  1.00 27.40     0.618 N 
ENDBRANCH   4   5
ENDBRANCH   3   4
ENDBRANCH   2   3
ENDBRANCH   1   2
END_RES LYS A 131
BEGIN_RES LYS A 135
REMARK  4 active torsions:
REMARK  status: ('A' for Active; 'I' for Inactive)
REMARK    5  A    between atoms: CA   and  CB  
REMARK    6  A    between atoms: CB   and  CG  
REMARK    7  A    between atoms: CG   and  CD  
REMARK    8  A    between atoms: CD   and  CE  
ROOT
ATOM      7  CA  LYS A 135      33.193  34.663   9.290  1.00 25.02     0.186 C 
ENDROOT
BRANCH   7   8
ATOM      8  CB  LYS A 135      32.060  35.360  10.034  1.00 26.63     0.034 C 
BRANCH   8   9
ATOM      9  CG  LYS A 135      30.800  35.500   9.219  1.00 29.45     0.005 C 
BRANCH   9  10
ATOM     10  CD  LYS A 135      29.595  35.011  10.005  1.00 32.00     0.041 C 
BRANCH  10  11
ATOM     11  CE  LYS A 135      28.827  33.971   9.212  1.00 34.25     0.338 C 
ATOM     12  NZ  LYS A 135      27.795  34.608   8.349  1.00 35.99     0.618 N 
ENDBRANCH  10  11
ENDBRANCH   9  10
ENDBRANCH   8   9
ENDBRANCH   7   8
END_RES LYS A 135
