REMARK VINA RESULT:    -4.359      3.582      6.923
REMARK INTER + INTRA:         -14.908
REMARK INTER:                  -7.768
REMARK INTRA:                  -7.141
REMARK UNBOUND:                -7.109
REMARK SMILES CC(=O)N[C@@H]1[C@@H](O)C[C@](O)(C(=O)O)O[C@H]1C(O)[C@H](O)CNC(=O)OCc1cn(-c2ncn3c2c(=O)n(C(C)C)c2ccccc23)nn1
REMARK SMILES IDX 21 1 22 2 23 3 20 5 18 6 16 7 15 8 9 9 8 10 14 11 6 12 5 13
REMARK SMILES IDX 10 14 11 16 12 17 13 18 7 20 4 22 2 23 1 25 3 26 17 27 19 29
REMARK SMILES IDX 24 31 25 32 26 33 27 34 47 35 28 36 46 37 29 38 30 39 33 40
REMARK SMILES IDX 31 41 32 42 34 43 45 44 36 45 35 46 44 47 40 48 43 49 41 50
REMARK SMILES IDX 42 51 37 52 38 53 39 54
REMARK H PARENT 21 4 10 15 13 19 7 21 4 24 17 28 19 30
REMARK Flexibility Score: inf
ROOT
ATOM      1  N   UNL     1      26.603  31.089  21.050  1.00  0.00    -0.319 N 
ATOM      2  C   UNL     1      25.377  30.580  21.479  1.00  0.00     0.407 C 
ATOM      3  O   UNL     1      24.386  31.274  21.709  1.00  0.00    -0.225 OA
ATOM      4  H   UNL     1      27.381  30.343  20.855  1.00  0.00     0.167 HD
ENDROOT
BRANCH   1   5
ATOM      5  C   UNL     1      26.931  32.448  20.847  1.00  0.00     0.154 C 
BRANCH   5   6
ATOM      6  C   UNL     1      26.551  33.038  19.563  1.00  0.00     0.165 C 
BRANCH   6   7
ATOM      7  C   UNL     1      26.785  32.373  18.269  1.00  0.00     0.176 C 
BRANCH   7   8
ATOM      8  C   UNL     1      28.331  32.268  18.122  1.00  0.00     0.178 C 
ATOM      9  C   UNL     1      28.746  32.845  15.883  1.00  0.00     0.269 C 
ATOM     10  C   UNL     1      29.385  31.517  15.653  1.00  0.00     0.112 C 
ATOM     11  O   UNL     1      28.727  33.164  17.201  1.00  0.00    -0.332 OA
ATOM     12  C   UNL     1      28.856  30.411  16.530  1.00  0.00     0.145 C 
ATOM     13  C   UNL     1      28.751  30.853  17.973  1.00  0.00     0.142 C 
BRANCH   9  14
ATOM     14  O   UNL     1      27.409  32.825  15.412  1.00  0.00    -0.357 OA
ATOM     15  H   UNL     1      27.424  32.218  14.625  1.00  0.00     0.214 HD
ENDBRANCH   9  14
BRANCH   9  16
ATOM     16  C   UNL     1      29.527  33.836  15.069  1.00  0.00     0.364 C 
ATOM     17  O   UNL     1      29.162  34.105  13.917  1.00  0.00    -0.246 OA
BRANCH  16  18
ATOM     18  O   UNL     1      30.639  34.440  15.605  1.00  0.00    -0.477 OA
ATOM     19  H   UNL     1      31.539  33.951  15.628  1.00  0.00     0.296 HD
ENDBRANCH  16  18
ENDBRANCH   9  16
BRANCH  12  20
ATOM     20  O   UNL     1      27.629  29.915  16.085  1.00  0.00    -0.391 OA
ATOM     21  H   UNL     1      27.661  28.928  16.070  1.00  0.00     0.211 HD
ENDBRANCH  12  20
BRANCH  13  22
ATOM     22  N   UNL     1      30.063  30.605  18.587  1.00  0.00    -0.348 N 
ATOM     23  C   UNL     1      30.205  30.053  19.876  1.00  0.00     0.217 C 
ATOM     24  H   UNL     1      30.954  30.841  18.067  1.00  0.00     0.163 HD
ATOM     25  C   UNL     1      31.534  29.804  20.493  1.00  0.00     0.114 C 
ATOM     26  O   UNL     1      29.176  29.750  20.552  1.00  0.00    -0.275 OA
ENDBRANCH  13  22
ENDBRANCH   7   8
BRANCH   7  27
ATOM     27  O   UNL     1      26.250  31.088  18.154  1.00  0.00    -0.388 OA
ATOM     28  H   UNL     1      26.980  30.398  18.237  1.00  0.00     0.211 HD
ENDBRANCH   7  27
ENDBRANCH   6   7
BRANCH   6  29
ATOM     29  O   UNL     1      27.183  34.339  19.534  1.00  0.00    -0.388 OA
ATOM     30  H   UNL     1      28.047  34.309  19.981  1.00  0.00     0.211 HD
ENDBRANCH   6  29
ENDBRANCH   5   6
ENDBRANCH   1   5
BRANCH   2  31
ATOM     31  O   UNL     1      25.202  29.192  21.681  1.00  0.00    -0.443 OA
BRANCH  31  32
ATOM     32  C   UNL     1      26.088  28.254  21.141  1.00  0.00     0.294 C 
BRANCH  32  33
ATOM     33  C   UNL     1      25.849  28.123  19.682  1.00  0.00     0.121 A 
ATOM     34  C   UNL     1      24.621  27.968  19.045  1.00  0.00     0.146 A 
ATOM     35  N   UNL     1      26.746  28.130  18.679  1.00  0.00    -0.131 NA
ATOM     36  N   UNL     1      24.803  27.887  17.697  1.00  0.00    -0.200 N 
ATOM     37  N   UNL     1      26.098  27.990  17.540  1.00  0.00    -0.060 NA
BRANCH  36  38
ATOM     38  C   UNL     1      23.736  27.729  16.766  1.00  0.00     0.186 A 
ATOM     39  N   UNL     1      22.936  26.628  16.653  1.00  0.00    -0.216 NA
ATOM     40  C   UNL     1      23.285  28.606  15.815  1.00  0.00     0.158 A 
ATOM     41  C   UNL     1      22.046  26.842  15.675  1.00  0.00     0.207 A 
ATOM     42  N   UNL     1      22.233  28.059  15.131  1.00  0.00    -0.291 N 
ATOM     43  C   UNL     1      23.682  29.856  15.457  1.00  0.00     0.279 A 
ATOM     44  C   UNL     1      21.603  28.717  14.140  1.00  0.00     0.071 A 
ATOM     45  N   UNL     1      23.088  30.542  14.483  1.00  0.00    -0.302 N 
ATOM     46  O   UNL     1      24.641  30.422  16.039  1.00  0.00    -0.267 OA
ATOM     47  C   UNL     1      20.546  28.133  13.473  1.00  0.00     0.029 A 
ATOM     48  C   UNL     1      22.053  29.982  13.823  1.00  0.00     0.068 A 
ATOM     49  C   UNL     1      19.879  28.785  12.449  1.00  0.00     0.002 A 
ATOM     50  C   UNL     1      21.369  30.614  12.795  1.00  0.00     0.028 A 
ATOM     51  C   UNL     1      20.309  30.041  12.119  1.00  0.00     0.002 A 
BRANCH  45  52
ATOM     52  C   UNL     1      23.458  31.872  14.056  1.00  0.00     0.085 C 
ATOM     53  C   UNL     1      24.762  31.750  13.296  1.00  0.00     0.031 C 
ATOM     54  C   UNL     1      23.670  32.849  15.168  1.00  0.00     0.031 C 
ENDBRANCH  45  52
ENDBRANCH  36  38
ENDBRANCH  32  33
ENDBRANCH  31  32
ENDBRANCH   2  31
TORSDOF 16
BEGIN_RES LYS A 131
REMARK  4 active torsions:
REMARK  status: ('A' for Active; 'I' for Inactive)
REMARK    1  A    between atoms: CA   and  CB  
REMARK    2  A    between atoms: CB   and  CG  
REMARK    3  A    between atoms: CG   and  CD  
REMARK    4  A    between atoms: CD   and  CE  
ROOT
ATOM      1  CA  LYS A 131      29.867  25.555  16.977  1.00 20.52     0.186 C 
ENDROOT
BRANCH   1   2
ATOM      2  CB  LYS A 131      28.345  25.722  17.026  1.00 20.94     0.034 C 
BRANCH   2   3
ATOM      3  CG  LYS A 131      27.601  24.401  16.903  1.00 22.96     0.005 C 
BRANCH   3   4
ATOM      4  CD  LYS A 131      26.160  24.522  17.313  1.00 24.33     0.041 C 
BRANCH   4   5
ATOM      5  CE  LYS A 131      25.904  23.652  18.539  1.00 26.91     0.338 C 
ATOM      6  NZ  LYS A 131      25.468  24.485  19.685  1.00 27.40     0.618 N 
ENDBRANCH   4   5
ENDBRANCH   3   4
ENDBRANCH   2   3
ENDBRANCH   1   2
END_RES LYS A 131
BEGIN_RES LYS A 135
REMARK  4 active torsions:
REMARK  status: ('A' for Active; 'I' for Inactive)
REMARK    5  A    between atoms: CA   and  CB  
REMARK    6  A    between atoms: CB   and  CG  
REMARK    7  A    between atoms: CG   and  CD  
REMARK    8  A    between atoms: CD   and  CE  
ROOT
ATOM      7  CA  LYS A 135      33.193  34.663   9.290  1.00 25.02     0.186 C 
ENDROOT
BRANCH   7   8
ATOM      8  CB  LYS A 135      32.060  35.360  10.034  1.00 26.63     0.034 C 
BRANCH   8   9
ATOM      9  CG  LYS A 135      30.789  35.468   9.232  1.00 29.45     0.005 C 
BRANCH   9  10
ATOM     10  CD  LYS A 135      29.995  34.173   9.308  1.00 32.00     0.041 C 
BRANCH  10  11
ATOM     11  CE  LYS A 135      28.731  34.370  10.124  1.00 34.25     0.338 C 
ATOM     12  NZ  LYS A 135      27.547  33.800   9.424  1.00 35.99     0.618 N 
ENDBRANCH  10  11
ENDBRANCH   9  10
ENDBRANCH   8   9
ENDBRANCH   7   8
END_RES LYS A 135
