REMARK VINA RESULT:    -5.684      0.000      0.000
REMARK INTER + INTRA:         -17.196
REMARK INTER:                 -10.788
REMARK INTRA:                  -6.408
REMARK UNBOUND:                -6.527
REMARK SMILES CC(=O)N[C@@H]1[C@@H](O)C[C@](O)(C(=O)O)O[C@H]1C(O)[C@H](O)CNC(=O)OCc1cn(-c2ccc(S(=O)(=O)c3ccc(N)cc3)cc2)nn1
REMARK SMILES IDX 21 1 22 2 23 3 20 5 18 6 16 7 15 8 9 9 8 10 14 11 6 12 5 13
REMARK SMILES IDX 10 14 11 16 12 17 13 18 7 20 4 22 2 23 1 25 3 26 17 27 19 29
REMARK SMILES IDX 24 31 25 32 26 33 27 34 46 35 28 36 45 37 29 38 30 39 44 40
REMARK SMILES IDX 31 41 43 42 32 43 33 44 34 45 35 46 36 47 37 48 42 49 38 50
REMARK SMILES IDX 41 51 39 52 40 53
REMARK H PARENT 21 4 10 15 13 19 7 21 4 24 17 28 19 30 40 54 40 55
REMARK Flexibility Score: inf
ROOT
ATOM      1  N   UNL     1      29.618  26.989  20.346  1.00  0.00    -0.319 N 
ATOM      2  C   UNL     1      28.318  27.534  20.466  1.00  0.00     0.407 C 
ATOM      3  O   UNL     1      27.974  28.092  21.514  1.00  0.00    -0.225 OA
ATOM      4  H   UNL     1      29.828  26.530  19.406  1.00  0.00     0.167 HD
ENDROOT
BRANCH   1   5
ATOM      5  C   UNL     1      30.632  27.016  21.375  1.00  0.00     0.154 C 
BRANCH   5   6
ATOM      6  C   UNL     1      31.822  27.761  20.876  1.00  0.00     0.165 C 
BRANCH   6   7
ATOM      7  C   UNL     1      31.633  29.263  20.903  1.00  0.00     0.176 C 
BRANCH   7   8
ATOM      8  C   UNL     1      32.862  30.038  21.237  1.00  0.00     0.178 C 
ATOM      9  C   UNL     1      34.500  30.054  22.876  1.00  0.00     0.269 C 
ATOM     10  C   UNL     1      34.956  31.390  22.378  1.00  0.00     0.112 C 
ATOM     11  O   UNL     1      33.809  29.319  21.929  1.00  0.00    -0.332 OA
ATOM     12  C   UNL     1      33.917  32.172  21.657  1.00  0.00     0.145 C 
ATOM     13  C   UNL     1      32.586  31.413  21.791  1.00  0.00     0.142 C 
BRANCH   9  14
ATOM     14  O   UNL     1      33.763  30.175  24.077  1.00  0.00    -0.357 OA
ATOM     15  H   UNL     1      33.003  30.760  23.913  1.00  0.00     0.214 HD
ENDBRANCH   9  14
BRANCH   9  16
ATOM     16  C   UNL     1      35.718  29.269  23.234  1.00  0.00     0.364 C 
ATOM     17  O   UNL     1      35.608  28.012  23.380  1.00  0.00    -0.246 OA
BRANCH  16  18
ATOM     18  O   UNL     1      36.961  29.819  23.415  1.00  0.00    -0.477 OA
ATOM     19  H   UNL     1      37.164  30.374  24.245  1.00  0.00     0.296 HD
ENDBRANCH  16  18
ENDBRANCH   9  16
BRANCH  12  20
ATOM     20  O   UNL     1      33.785  33.476  22.107  1.00  0.00    -0.391 OA
ATOM     21  H   UNL     1      33.910  33.494  23.109  1.00  0.00     0.211 HD
ENDBRANCH  12  20
BRANCH  13  22
ATOM     22  N   UNL     1      31.609  32.053  20.919  1.00  0.00    -0.348 N 
ATOM     23  C   UNL     1      30.486  32.715  21.474  1.00  0.00     0.217 C 
ATOM     24  H   UNL     1      31.699  32.044  19.881  1.00  0.00     0.163 HD
ATOM     25  C   UNL     1      29.457  33.382  20.601  1.00  0.00     0.114 C 
ATOM     26  O   UNL     1      30.283  32.784  22.705  1.00  0.00    -0.275 OA
ENDBRANCH  13  22
ENDBRANCH   7   8
BRANCH   7  27
ATOM     27  O   UNL     1      31.121  29.602  19.645  1.00  0.00    -0.388 OA
ATOM     28  H   UNL     1      30.780  30.520  19.696  1.00  0.00     0.211 HD
ENDBRANCH   7  27
ENDBRANCH   6   7
BRANCH   6  29
ATOM     29  O   UNL     1      32.228  27.286  19.637  1.00  0.00    -0.388 OA
ATOM     30  H   UNL     1      32.440  26.322  19.723  1.00  0.00     0.211 HD
ENDBRANCH   6  29
ENDBRANCH   5   6
ENDBRANCH   1   5
BRANCH   2  31
ATOM     31  O   UNL     1      27.379  27.476  19.441  1.00  0.00    -0.443 OA
BRANCH  31  32
ATOM     32  C   UNL     1      26.695  28.632  18.981  1.00  0.00     0.294 C 
BRANCH  32  33
ATOM     33  C   UNL     1      27.406  29.279  17.842  1.00  0.00     0.121 A 
ATOM     34  C   UNL     1      28.144  30.426  17.949  1.00  0.00     0.144 A 
ATOM     35  N   UNL     1      27.461  28.890  16.561  1.00  0.00    -0.131 NA
ATOM     36  N   UNL     1      28.637  30.714  16.723  1.00  0.00    -0.220 N 
ATOM     37  N   UNL     1      28.206  29.774  15.929  1.00  0.00    -0.062 NA
BRANCH  36  38
ATOM     38  C   UNL     1      29.455  31.842  16.457  1.00  0.00     0.066 A 
ATOM     39  C   UNL     1      30.745  31.673  16.004  1.00  0.00     0.030 A 
ATOM     40  C   UNL     1      29.010  33.134  16.634  1.00  0.00     0.030 A 
ATOM     41  C   UNL     1      31.576  32.746  15.731  1.00  0.00     0.023 A 
ATOM     42  C   UNL     1      29.841  34.226  16.362  1.00  0.00     0.023 A 
ATOM     43  C   UNL     1      31.124  34.031  15.911  1.00  0.00     0.072 A 
BRANCH  43  44
ATOM     44  S   UNL     1      32.163  35.370  15.571  1.00  0.00     0.206 S 
ATOM     45  O   UNL     1      31.348  36.585  15.285  1.00  0.00    -0.219 OA
ATOM     46  O   UNL     1      33.054  35.123  14.389  1.00  0.00    -0.219 OA
BRANCH  44  47
ATOM     47  C   UNL     1      33.202  35.610  16.972  1.00  0.00     0.072 A 
ATOM     48  C   UNL     1      32.699  35.350  18.219  1.00  0.00     0.023 A 
ATOM     49  C   UNL     1      34.514  36.053  16.836  1.00  0.00     0.023 A 
ATOM     50  C   UNL     1      33.483  35.525  19.352  1.00  0.00     0.027 A 
ATOM     51  C   UNL     1      35.323  36.238  17.946  1.00  0.00     0.027 A 
ATOM     52  C   UNL     1      34.781  35.968  19.180  1.00  0.00     0.031 A 
BRANCH  52  53
ATOM     53  N   UNL     1      35.589  36.150  20.324  1.00  0.00    -0.399 N 
ATOM     54  H   UNL     1      36.140  37.016  20.444  1.00  0.00     0.156 HD
ATOM     55  H   UNL     1      35.626  35.407  21.043  1.00  0.00     0.156 HD
ENDBRANCH  52  53
ENDBRANCH  44  47
ENDBRANCH  43  44
ENDBRANCH  36  38
ENDBRANCH  32  33
ENDBRANCH  31  32
ENDBRANCH   2  31
TORSDOF 18
BEGIN_RES LYS A 131
REMARK  4 active torsions:
REMARK  status: ('A' for Active; 'I' for Inactive)
REMARK    1  A    between atoms: CA   and  CB  
REMARK    2  A    between atoms: CB   and  CG  
REMARK    3  A    between atoms: CG   and  CD  
REMARK    4  A    between atoms: CD   and  CE  
ROOT
ATOM      1  CA  LYS A 131      29.867  25.555  16.977  1.00 20.52     0.186 C 
ENDROOT
BRANCH   1   2
ATOM      2  CB  LYS A 131      28.345  25.722  17.026  1.00 20.94     0.034 C 
BRANCH   2   3
ATOM      3  CG  LYS A 131      27.601  24.403  16.887  1.00 22.96     0.005 C 
BRANCH   3   4
ATOM      4  CD  LYS A 131      26.626  24.182  18.010  1.00 24.33     0.041 C 
BRANCH   4   5
ATOM      5  CE  LYS A 131      25.597  23.136  17.592  1.00 26.91     0.338 C 
ATOM      6  NZ  LYS A 131      24.270  23.455  18.169  1.00 27.40     0.618 N 
ENDBRANCH   4   5
ENDBRANCH   3   4
ENDBRANCH   2   3
ENDBRANCH   1   2
END_RES LYS A 131
BEGIN_RES LYS A 135
REMARK  4 active torsions:
REMARK  status: ('A' for Active; 'I' for Inactive)
REMARK    5  A    between atoms: CA   and  CB  
REMARK    6  A    between atoms: CB   and  CG  
REMARK    7  A    between atoms: CG   and  CD  
REMARK    8  A    between atoms: CD   and  CE  
ROOT
ATOM      7  CA  LYS A 135      33.193  34.663   9.290  1.00 25.02     0.186 C 
ENDROOT
BRANCH   7   8
ATOM      8  CB  LYS A 135      32.060  35.360  10.034  1.00 26.63     0.034 C 
BRANCH   8   9
ATOM      9  CG  LYS A 135      30.890  35.715   9.154  1.00 29.45     0.005 C 
BRANCH   9  10
ATOM     10  CD  LYS A 135      30.387  34.488   8.409  1.00 32.00     0.041 C 
BRANCH  10  11
ATOM     11  CE  LYS A 135      28.871  34.478   8.362  1.00 34.25     0.338 C 
ATOM     12  NZ  LYS A 135      28.365  35.245   7.190  1.00 35.99     0.618 N 
ENDBRANCH  10  11
ENDBRANCH   9  10
ENDBRANCH   8   9
ENDBRANCH   7   8
END_RES LYS A 135
