REMARK VINA RESULT:    -4.473      3.126      7.141
REMARK INTER + INTRA:         -15.245
REMARK INTER:                 -11.047
REMARK INTRA:                  -4.197
REMARK UNBOUND:                -6.980
REMARK SMILES CC(=O)N[C@@H]1[C@@H](O)C[C@](O)(C(=O)O)O[C@H]1C(O)[C@H](O)CNC(=O)OCc1cn(Cc2ccc(C#N)cc2)nn1
REMARK SMILES IDX 21 1 22 2 23 3 20 5 18 6 16 7 15 8 9 9 8 10 14 11 6 12 5 13
REMARK SMILES IDX 10 14 11 16 12 17 13 18 7 20 4 22 2 23 1 25 3 26 17 27 19 29
REMARK SMILES IDX 24 31 25 32 26 33 27 34 39 35 28 36 38 37 29 38 30 39 31 40
REMARK SMILES IDX 37 41 32 42 36 43 33 44 34 45 35 46
REMARK H PARENT 21 4 10 15 13 19 7 21 4 24 17 28 19 30
REMARK Flexibility Score: inf
ROOT
ATOM      1  N   UNL     1      30.754  33.027  14.316  1.00  0.00    -0.319 N 
ATOM      2  C   UNL     1      30.584  34.442  14.266  1.00  0.00     0.407 C 
ATOM      3  O   UNL     1      31.153  35.167  15.154  1.00  0.00    -0.225 OA
ATOM      4  H   UNL     1      30.286  32.462  13.583  1.00  0.00     0.167 HD
ENDROOT
BRANCH   1   5
ATOM      5  C   UNL     1      31.542  32.452  15.344  1.00  0.00     0.154 C 
BRANCH   5   6
ATOM      6  C   UNL     1      30.796  31.926  16.547  1.00  0.00     0.165 C 
BRANCH   6   7
ATOM      7  C   UNL     1      29.343  31.607  16.256  1.00  0.00     0.176 C 
BRANCH   7   8
ATOM      8  C   UNL     1      28.557  31.314  17.488  1.00  0.00     0.178 C 
ATOM      9  C   UNL     1      28.504  29.875  19.317  1.00  0.00     0.269 C 
ATOM     10  C   UNL     1      27.338  30.751  19.718  1.00  0.00     0.112 C 
ATOM     11  O   UNL     1      29.233  30.380  18.282  1.00  0.00    -0.332 OA
ATOM     12  C   UNL     1      26.410  31.042  18.592  1.00  0.00     0.145 C 
ATOM     13  C   UNL     1      27.173  30.785  17.281  1.00  0.00     0.142 C 
BRANCH   9  14
ATOM     14  O   UNL     1      28.012  28.580  19.046  1.00  0.00    -0.357 OA
ATOM     15  H   UNL     1      27.289  28.390  19.714  1.00  0.00     0.214 HD
ENDBRANCH   9  14
BRANCH   9  16
ATOM     16  C   UNL     1      29.384  29.768  20.500  1.00  0.00     0.364 C 
ATOM     17  O   UNL     1      30.470  30.390  20.517  1.00  0.00    -0.246 OA
BRANCH  16  18
ATOM     18  O   UNL     1      29.015  28.995  21.576  1.00  0.00    -0.477 OA
ATOM     19  H   UNL     1      29.619  28.734  22.335  1.00  0.00     0.296 HD
ENDBRANCH  16  18
ENDBRANCH   9  16
BRANCH  12  20
ATOM     20  O   UNL     1      25.231  30.325  18.627  1.00  0.00    -0.391 OA
ATOM     21  H   UNL     1      24.482  30.997  18.647  1.00  0.00     0.211 HD
ENDBRANCH  12  20
BRANCH  13  22
ATOM     22  N   UNL     1      26.452  31.320  16.167  1.00  0.00    -0.348 N 
ATOM     23  C   UNL     1      25.483  30.530  15.459  1.00  0.00     0.217 C 
ATOM     24  H   UNL     1      26.590  32.312  15.824  1.00  0.00     0.163 HD
ATOM     25  C   UNL     1      24.735  31.099  14.298  1.00  0.00     0.114 C 
ATOM     26  O   UNL     1      25.244  29.346  15.800  1.00  0.00    -0.275 OA
ENDBRANCH  13  22
ENDBRANCH   7   8
BRANCH   7  27
ATOM     27  O   UNL     1      29.244  30.690  15.261  1.00  0.00    -0.388 OA
ATOM     28  H   UNL     1      29.677  29.847  15.407  1.00  0.00     0.211 HD
ENDBRANCH   7  27
ENDBRANCH   6   7
BRANCH   6  29
ATOM     29  O   UNL     1      30.856  32.991  17.482  1.00  0.00    -0.388 OA
ATOM     30  H   UNL     1      29.973  33.357  17.676  1.00  0.00     0.211 HD
ENDBRANCH   6  29
ENDBRANCH   5   6
ENDBRANCH   1   5
BRANCH   2  31
ATOM     31  O   UNL     1      29.838  35.110  13.313  1.00  0.00    -0.443 OA
BRANCH  31  32
ATOM     32  C   UNL     1      28.463  35.319  13.548  1.00  0.00     0.294 C 
BRANCH  32  33
ATOM     33  C   UNL     1      27.642  35.018  12.352  1.00  0.00     0.120 A 
ATOM     34  C   UNL     1      28.074  34.665  11.083  1.00  0.00     0.138 A 
ATOM     35  N   UNL     1      26.304  35.034  12.299  1.00  0.00    -0.132 NA
ATOM     36  N   UNL     1      26.999  34.481  10.313  1.00  0.00    -0.248 N 
ATOM     37  N   UNL     1      25.949  34.711  11.073  1.00  0.00    -0.067 NA
BRANCH  36  38
ATOM     38  C   UNL     1      26.971  34.097   8.918  1.00  0.00     0.181 C 
BRANCH  38  39
ATOM     39  C   UNL     1      27.142  35.214   7.990  1.00  0.00    -0.026 A 
ATOM     40  C   UNL     1      26.311  36.302   8.063  1.00  0.00     0.007 A 
ATOM     41  C   UNL     1      28.144  35.170   7.032  1.00  0.00     0.007 A 
ATOM     42  C   UNL     1      26.457  37.363   7.189  1.00  0.00     0.020 A 
ATOM     43  C   UNL     1      28.312  36.223   6.143  1.00  0.00     0.020 A 
ATOM     44  C   UNL     1      27.453  37.319   6.236  1.00  0.00     0.052 A 
BRANCH  44  45
ATOM     45  C   UNL     1      27.613  38.413   5.323  1.00  0.00     0.099 C 
ATOM     46  N   UNL     1      27.760  39.307   4.581  1.00  0.00    -0.192 NA
ENDBRANCH  44  45
ENDBRANCH  38  39
ENDBRANCH  36  38
ENDBRANCH  32  33
ENDBRANCH  31  32
ENDBRANCH   2  31
TORSDOF 17
BEGIN_RES LYS A 131
REMARK  4 active torsions:
REMARK  status: ('A' for Active; 'I' for Inactive)
REMARK    1  A    between atoms: CA   and  CB  
REMARK    2  A    between atoms: CB   and  CG  
REMARK    3  A    between atoms: CG   and  CD  
REMARK    4  A    between atoms: CD   and  CE  
ROOT
ATOM      1  CA  LYS A 131      29.867  25.555  16.977  1.00 20.52     0.186 C 
ENDROOT
BRANCH   1   2
ATOM      2  CB  LYS A 131      28.345  25.722  17.026  1.00 20.94     0.034 C 
BRANCH   2   3
ATOM      3  CG  LYS A 131      27.601  24.402  16.891  1.00 22.96     0.005 C 
BRANCH   3   4
ATOM      4  CD  LYS A 131      26.151  24.528  17.266  1.00 24.33     0.041 C 
BRANCH   4   5
ATOM      5  CE  LYS A 131      25.992  24.303  18.766  1.00 26.91     0.338 C 
ATOM      6  NZ  LYS A 131      25.556  25.551  19.436  1.00 27.40     0.618 N 
ENDBRANCH   4   5
ENDBRANCH   3   4
ENDBRANCH   2   3
ENDBRANCH   1   2
END_RES LYS A 131
BEGIN_RES LYS A 135
REMARK  4 active torsions:
REMARK  status: ('A' for Active; 'I' for Inactive)
REMARK    5  A    between atoms: CA   and  CB  
REMARK    6  A    between atoms: CB   and  CG  
REMARK    7  A    between atoms: CG   and  CD  
REMARK    8  A    between atoms: CD   and  CE  
ROOT
ATOM      7  CA  LYS A 135      33.193  34.663   9.290  1.00 25.02     0.186 C 
ENDROOT
BRANCH   7   8
ATOM      8  CB  LYS A 135      32.060  35.360  10.034  1.00 26.63     0.034 C 
BRANCH   8   9
ATOM      9  CG  LYS A 135      30.874  35.682   9.161  1.00 29.45     0.005 C 
BRANCH   9  10
ATOM     10  CD  LYS A 135      30.725  37.186   8.993  1.00 32.00     0.041 C 
BRANCH  10  11
ATOM     11  CE  LYS A 135      29.438  37.669   9.634  1.00 34.25     0.338 C 
ATOM     12  NZ  LYS A 135      29.644  37.995  11.072  1.00 35.99     0.618 N 
ENDBRANCH  10  11
ENDBRANCH   9  10
ENDBRANCH   8   9
ENDBRANCH   7   8
END_RES LYS A 135
