REMARK VINA RESULT:    -4.349      8.774     14.261
REMARK INTER + INTRA:         -14.567
REMARK INTER:                  -7.982
REMARK INTRA:                  -6.585
REMARK UNBOUND:                -6.277
REMARK SMILES CC(=O)N[C@@H]1[C@@H](O)C[C@](O)(C(=O)O)O[C@H]1C(O)[C@H](O)CNC(=O)OCc1cn(CCNS(C)(=O)=O)nn1
REMARK SMILES IDX 21 1 22 2 23 3 20 5 18 6 16 7 15 8 9 9 8 10 14 11 6 12 5 13
REMARK SMILES IDX 10 14 11 16 12 17 13 18 7 20 4 22 2 23 1 25 3 26 17 27 19 29
REMARK SMILES IDX 24 31 25 32 26 33 27 34 37 35 28 36 36 37 29 38 30 39 31 40
REMARK SMILES IDX 32 42 34 43 35 44 33 45
REMARK H PARENT 21 4 10 15 13 19 7 21 4 24 17 28 19 30 31 41
REMARK Flexibility Score: inf
ROOT
ATOM      1  N   UNL     1      27.100  35.798   7.280  1.00  0.00    -0.319 N 
ATOM      2  C   UNL     1      26.960  34.919   8.373  1.00  0.00     0.407 C 
ATOM      3  O   UNL     1      27.862  34.159   8.761  1.00  0.00    -0.225 OA
ATOM      4  H   UNL     1      26.259  36.408   7.047  1.00  0.00     0.167 HD
ENDROOT
BRANCH   1   5
ATOM      5  C   UNL     1      28.252  35.941   6.471  1.00  0.00     0.154 C 
BRANCH   5   6
ATOM      6  C   UNL     1      28.377  37.216   5.675  1.00  0.00     0.165 C 
BRANCH   6   7
ATOM      7  C   UNL     1      28.719  38.305   6.644  1.00  0.00     0.176 C 
BRANCH   7   8
ATOM      8  C   UNL     1      27.738  39.425   6.786  1.00  0.00     0.178 C 
ATOM      9  C   UNL     1      25.447  39.757   7.157  1.00  0.00     0.269 C 
ATOM     10  C   UNL     1      25.462  40.990   6.320  1.00  0.00     0.112 C 
ATOM     11  O   UNL     1      26.530  38.969   7.124  1.00  0.00    -0.332 OA
ATOM     12  C   UNL     1      26.487  40.958   5.218  1.00  0.00     0.145 C 
ATOM     13  C   UNL     1      27.804  40.452   5.697  1.00  0.00     0.142 C 
BRANCH   9  14
ATOM     14  O   UNL     1      24.326  38.998   6.798  1.00  0.00    -0.357 OA
ATOM     15  H   UNL     1      23.945  39.374   5.976  1.00  0.00     0.214 HD
ENDBRANCH   9  14
BRANCH   9  16
ATOM     16  C   UNL     1      25.223  40.170   8.573  1.00  0.00     0.364 C 
ATOM     17  O   UNL     1      25.878  39.734   9.538  1.00  0.00    -0.246 OA
BRANCH  16  18
ATOM     18  O   UNL     1      24.221  41.110   8.878  1.00  0.00    -0.477 OA
ATOM     19  H   UNL     1      23.892  41.771   8.187  1.00  0.00     0.296 HD
ENDBRANCH  16  18
ENDBRANCH   9  16
BRANCH  12  20
ATOM     20  O   UNL     1      25.960  40.251   4.145  1.00  0.00    -0.391 OA
ATOM     21  H   UNL     1      26.673  40.202   3.458  1.00  0.00     0.211 HD
ENDBRANCH  12  20
BRANCH  13  22
ATOM     22  N   UNL     1      28.609  41.599   6.074  1.00  0.00    -0.348 N 
ATOM     23  C   UNL     1      29.780  42.001   5.376  1.00  0.00     0.217 C 
ATOM     24  H   UNL     1      28.354  42.207   6.909  1.00  0.00     0.163 HD
ATOM     25  C   UNL     1      30.580  43.196   5.806  1.00  0.00     0.114 C 
ATOM     26  O   UNL     1      30.115  41.308   4.381  1.00  0.00    -0.275 OA
ENDBRANCH  13  22
ENDBRANCH   7   8
BRANCH   7  27
ATOM     27  O   UNL     1      29.977  38.801   6.190  1.00  0.00    -0.388 OA
ATOM     28  H   UNL     1      29.910  39.126   5.268  1.00  0.00     0.211 HD
ENDBRANCH   7  27
ENDBRANCH   6   7
BRANCH   6  29
ATOM     29  O   UNL     1      27.241  37.400   4.935  1.00  0.00    -0.388 OA
ATOM     30  H   UNL     1      26.531  37.817   5.438  1.00  0.00     0.211 HD
ENDBRANCH   6  29
ENDBRANCH   5   6
ENDBRANCH   1   5
BRANCH   2  31
ATOM     31  O   UNL     1      25.757  34.879   9.071  1.00  0.00    -0.443 OA
BRANCH  31  32
ATOM     32  C   UNL     1      25.397  35.806  10.063  1.00  0.00     0.294 C 
BRANCH  32  33
ATOM     33  C   UNL     1      24.218  36.590   9.646  1.00  0.00     0.120 A 
ATOM     34  C   UNL     1      23.441  37.449  10.398  1.00  0.00     0.138 A 
ATOM     35  N   UNL     1      23.690  36.597   8.426  1.00  0.00    -0.132 NA
ATOM     36  N   UNL     1      22.472  37.947   9.618  1.00  0.00    -0.251 N 
ATOM     37  N   UNL     1      22.652  37.408   8.418  1.00  0.00    -0.067 NA
BRANCH  36  38
ATOM     38  C   UNL     1      21.416  38.877   9.923  1.00  0.00     0.162 C 
BRANCH  38  39
ATOM     39  C   UNL     1      20.654  39.306   8.682  1.00  0.00     0.122 C 
BRANCH  39  40
ATOM     40  N   UNL     1      21.568  40.061   7.852  1.00  0.00    -0.214 NA
ATOM     41  H   UNL     1      21.683  39.644   6.918  1.00  0.00     0.141 HD
BRANCH  40  42
ATOM     42  S   UNL     1      21.113  41.713   7.717  1.00  0.00     0.208 S 
ATOM     43  O   UNL     1      19.638  41.748   7.408  1.00  0.00    -0.213 OA
ATOM     44  O   UNL     1      21.430  42.427   8.991  1.00  0.00    -0.213 OA
ATOM     45  C   UNL     1      21.972  42.498   6.372  1.00  0.00     0.176 C 
ENDBRANCH  40  42
ENDBRANCH  39  40
ENDBRANCH  38  39
ENDBRANCH  36  38
ENDBRANCH  32  33
ENDBRANCH  31  32
ENDBRANCH   2  31
TORSDOF 18
BEGIN_RES LYS A 131
REMARK  4 active torsions:
REMARK  status: ('A' for Active; 'I' for Inactive)
REMARK    1  A    between atoms: CA   and  CB  
REMARK    2  A    between atoms: CB   and  CG  
REMARK    3  A    between atoms: CG   and  CD  
REMARK    4  A    between atoms: CD   and  CE  
ROOT
ATOM      1  CA  LYS A 131      29.867  25.555  16.977  1.00 20.52     0.186 C 
ENDROOT
BRANCH   1   2
ATOM      2  CB  LYS A 131      28.345  25.722  17.026  1.00 20.94     0.034 C 
BRANCH   2   3
ATOM      3  CG  LYS A 131      27.601  24.403  16.887  1.00 22.96     0.005 C 
BRANCH   3   4
ATOM      4  CD  LYS A 131      26.163  24.516  17.311  1.00 24.33     0.041 C 
BRANCH   4   5
ATOM      5  CE  LYS A 131      25.832  23.394  18.291  1.00 26.91     0.338 C 
ATOM      6  NZ  LYS A 131      25.104  22.302  17.602  1.00 27.40     0.618 N 
ENDBRANCH   4   5
ENDBRANCH   3   4
ENDBRANCH   2   3
ENDBRANCH   1   2
END_RES LYS A 131
BEGIN_RES LYS A 135
REMARK  4 active torsions:
REMARK  status: ('A' for Active; 'I' for Inactive)
REMARK    5  A    between atoms: CA   and  CB  
REMARK    6  A    between atoms: CB   and  CG  
REMARK    7  A    between atoms: CG   and  CD  
REMARK    8  A    between atoms: CD   and  CE  
ROOT
ATOM      7  CA  LYS A 135      33.193  34.663   9.290  1.00 25.02     0.186 C 
ENDROOT
BRANCH   7   8
ATOM      8  CB  LYS A 135      32.060  35.360  10.034  1.00 26.63     0.034 C 
BRANCH   8   9
ATOM      9  CG  LYS A 135      30.843  35.610   9.181  1.00 29.45     0.005 C 
BRANCH   9  10
ATOM     10  CD  LYS A 135      30.289  37.004   9.432  1.00 32.00     0.041 C 
BRANCH  10  11
ATOM     11  CE  LYS A 135      29.533  37.047  10.747  1.00 34.25     0.338 C 
ATOM     12  NZ  LYS A 135      28.252  37.794  10.605  1.00 35.99     0.618 N 
ENDBRANCH  10  11
ENDBRANCH   9  10
ENDBRANCH   8   9
ENDBRANCH   7   8
END_RES LYS A 135
