REMARK VINA RESULT:    -5.455      2.079      3.435
REMARK INTER + INTRA:         -16.070
REMARK INTER:                  -9.436
REMARK INTRA:                  -6.634
REMARK UNBOUND:                -5.671
REMARK SMILES CCOC(=O)c1cccc(-n2cc(COC(=O)NC[C@@H](O)C(O)[C@@H]3O[C@@](O)(C(=O)O)C[C@H](O)[C@H]3NC(C)=O)nn2)c1
REMARK SMILES IDX 18 1 16 2 17 3 19 5 20 6 22 7 24 8 26 9 31 10 25 11 32 12
REMARK SMILES IDX 34 13 27 14 28 16 29 17 30 18 33 20 35 22 36 23 37 25 38 26
REMARK SMILES IDX 23 27 21 29 15 31 14 32 13 33 12 34 39 35 11 36 40 37 10 38
REMARK SMILES IDX 41 39 9 40 6 41 8 42 7 43 4 44 5 45 3 46 2 47 1 48
REMARK H PARENT 18 4 27 15 30 19 33 21 35 24 23 28 21 30
REMARK Flexibility Score: inf
ROOT
ATOM      1  N   UNL     1      25.757  27.906  18.203  1.00  0.00    -0.319 N 
ATOM      2  C   UNL     1      24.837  28.824  17.629  1.00  0.00     0.407 C 
ATOM      3  O   UNL     1      24.064  29.453  18.393  1.00  0.00    -0.225 OA
ATOM      4  H   UNL     1      26.388  27.397  17.553  1.00  0.00     0.167 HD
ENDROOT
BRANCH   1   5
ATOM      5  C   UNL     1      25.815  27.687  19.634  1.00  0.00     0.154 C 
BRANCH   5   6
ATOM      6  C   UNL     1      27.208  27.523  20.142  1.00  0.00     0.165 C 
BRANCH   6   7
ATOM      7  C   UNL     1      27.983  28.800  20.198  1.00  0.00     0.176 C 
BRANCH   7   8
ATOM      8  C   UNL     1      29.295  28.601  21.001  1.00  0.00     0.178 C 
ATOM      9  C   UNL     1      31.405  27.807  20.809  1.00  0.00     0.269 C 
ATOM     10  C   UNL     1      31.198  26.711  21.829  1.00  0.00     0.112 C 
ATOM     11  O   UNL     1      30.231  28.050  20.167  1.00  0.00    -0.332 OA
ATOM     12  C   UNL     1      30.125  27.043  22.821  1.00  0.00     0.145 C 
ATOM     13  C   UNL     1      29.000  27.855  22.249  1.00  0.00     0.142 C 
BRANCH   9  14
ATOM     14  O   UNL     1      32.284  27.242  19.842  1.00  0.00    -0.357 OA
ATOM     15  H   UNL     1      31.835  26.590  19.275  1.00  0.00     0.214 HD
ENDBRANCH   9  14
BRANCH   9  16
ATOM     16  C   UNL     1      32.085  28.964  21.407  1.00  0.00     0.364 C 
ATOM     17  O   UNL     1      32.810  28.884  22.456  1.00  0.00    -0.246 OA
BRANCH  16  18
ATOM     18  O   UNL     1      31.927  30.220  20.791  1.00  0.00    -0.477 OA
ATOM     19  H   UNL     1      32.733  30.857  20.814  1.00  0.00     0.296 HD
ENDBRANCH  16  18
ENDBRANCH   9  16
BRANCH  12  20
ATOM     20  O   UNL     1      29.664  25.858  23.393  1.00  0.00    -0.391 OA
ATOM     21  H   UNL     1      28.731  25.648  23.136  1.00  0.00     0.211 HD
ENDBRANCH  12  20
BRANCH  13  22
ATOM     22  N   UNL     1      28.439  28.761  23.235  1.00  0.00    -0.348 N 
ATOM     23  C   UNL     1      27.367  28.378  24.084  1.00  0.00     0.217 C 
ATOM     24  H   UNL     1      28.858  29.735  23.310  1.00  0.00     0.163 HD
ATOM     25  C   UNL     1      26.845  29.361  25.068  1.00  0.00     0.114 C 
ATOM     26  O   UNL     1      26.852  27.210  24.011  1.00  0.00    -0.275 OA
ENDBRANCH  13  22
ENDBRANCH   7   8
BRANCH   7  27
ATOM     27  O   UNL     1      28.318  29.335  18.979  1.00  0.00    -0.388 OA
ATOM     28  H   UNL     1      28.497  28.690  18.272  1.00  0.00     0.211 HD
ENDBRANCH   7  27
ENDBRANCH   6   7
BRANCH   6  29
ATOM     29  O   UNL     1      27.870  26.505  19.462  1.00  0.00    -0.388 OA
ATOM     30  H   UNL     1      28.830  26.764  19.408  1.00  0.00     0.211 HD
ENDBRANCH   6  29
ENDBRANCH   5   6
ENDBRANCH   1   5
BRANCH   2  31
ATOM     31  O   UNL     1      24.742  29.068  16.270  1.00  0.00    -0.443 OA
BRANCH  31  32
ATOM     32  C   UNL     1      25.168  30.289  15.695  1.00  0.00     0.294 C 
BRANCH  32  33
ATOM     33  C   UNL     1      26.624  30.459  15.860  1.00  0.00     0.121 A 
ATOM     34  C   UNL     1      27.353  31.631  15.971  1.00  0.00     0.144 A 
ATOM     35  N   UNL     1      27.549  29.478  15.936  1.00  0.00    -0.131 NA
ATOM     36  N   UNL     1      28.661  31.331  16.106  1.00  0.00    -0.220 N 
ATOM     37  N   UNL     1      28.738  29.998  16.079  1.00  0.00    -0.062 NA
BRANCH  36  38
ATOM     38  C   UNL     1      29.764  32.202  16.249  1.00  0.00     0.067 A 
ATOM     39  C   UNL     1      30.171  32.654  17.490  1.00  0.00     0.044 A 
ATOM     40  C   UNL     1      30.479  32.633  15.154  1.00  0.00     0.028 A 
ATOM     41  C   UNL     1      31.243  33.505  17.673  1.00  0.00     0.062 A 
ATOM     42  C   UNL     1      31.565  33.490  15.306  1.00  0.00     0.003 A 
ATOM     43  C   UNL     1      31.934  33.916  16.557  1.00  0.00     0.016 A 
BRANCH  41  44
ATOM     44  C   UNL     1      31.651  33.966  18.995  1.00  0.00     0.338 C 
ATOM     45  O   UNL     1      32.125  35.121  19.125  1.00  0.00    -0.246 OA
BRANCH  44  46
ATOM     46  O   UNL     1      31.535  33.179  20.129  1.00  0.00    -0.462 OA
BRANCH  46  47
ATOM     47  C   UNL     1      30.627  33.471  21.172  1.00  0.00     0.230 C 
ATOM     48  C   UNL     1      31.407  33.743  22.425  1.00  0.00     0.049 C 
ENDBRANCH  46  47
ENDBRANCH  44  46
ENDBRANCH  41  44
ENDBRANCH  36  38
ENDBRANCH  32  33
ENDBRANCH  31  32
ENDBRANCH   2  31
TORSDOF 18
BEGIN_RES LYS A 131
REMARK  4 active torsions:
REMARK  status: ('A' for Active; 'I' for Inactive)
REMARK    1  A    between atoms: CA   and  CB  
REMARK    2  A    between atoms: CB   and  CG  
REMARK    3  A    between atoms: CG   and  CD  
REMARK    4  A    between atoms: CD   and  CE  
ROOT
ATOM      1  CA  LYS A 131      29.867  25.555  16.977  1.00 20.52     0.186 C 
ENDROOT
BRANCH   1   2
ATOM      2  CB  LYS A 131      28.345  25.722  17.026  1.00 20.94     0.034 C 
BRANCH   2   3
ATOM      3  CG  LYS A 131      27.601  24.406  16.860  1.00 22.96     0.005 C 
BRANCH   3   4
ATOM      4  CD  LYS A 131      26.146  24.528  17.223  1.00 24.33     0.041 C 
BRANCH   4   5
ATOM      5  CE  LYS A 131      25.760  23.394  18.167  1.00 26.91     0.338 C 
ATOM      6  NZ  LYS A 131      25.462  23.924  19.519  1.00 27.40     0.618 N 
ENDBRANCH   4   5
ENDBRANCH   3   4
ENDBRANCH   2   3
ENDBRANCH   1   2
END_RES LYS A 131
BEGIN_RES LYS A 135
REMARK  4 active torsions:
REMARK  status: ('A' for Active; 'I' for Inactive)
REMARK    5  A    between atoms: CA   and  CB  
REMARK    6  A    between atoms: CB   and  CG  
REMARK    7  A    between atoms: CG   and  CD  
REMARK    8  A    between atoms: CD   and  CE  
ROOT
ATOM      7  CA  LYS A 135      33.193  34.663   9.290  1.00 25.02     0.186 C 
ENDROOT
BRANCH   7   8
ATOM      8  CB  LYS A 135      32.060  35.360  10.034  1.00 26.63     0.034 C 
BRANCH   8   9
ATOM      9  CG  LYS A 135      30.815  35.540   9.204  1.00 29.45     0.005 C 
BRANCH   9  10
ATOM     10  CD  LYS A 135      30.136  34.202   8.959  1.00 32.00     0.041 C 
BRANCH  10  11
ATOM     11  CE  LYS A 135      28.671  34.403   8.618  1.00 34.25     0.338 C 
ATOM     12  NZ  LYS A 135      27.793  33.672   9.573  1.00 35.99     0.618 N 
ENDBRANCH  10  11
ENDBRANCH   9  10
ENDBRANCH   8   9
ENDBRANCH   7   8
END_RES LYS A 135
