REMARK VINA RESULT:    -4.692      3.709      8.025
REMARK INTER + INTRA:         -15.199
REMARK INTER:                  -7.623
REMARK INTRA:                  -7.576
REMARK UNBOUND:                -6.804
REMARK SMILES CC(=O)N[C@@H]1[C@@H](O)C[C@](O)(C(=O)O)O[C@H]1C(O)[C@H](O)CNC(=O)OCc1cn(-c2ccccc2C(C)=O)nn1
REMARK SMILES IDX 21 1 22 2 23 3 20 5 18 6 16 7 15 8 9 9 8 10 14 11 6 12 5 13
REMARK SMILES IDX 10 14 11 16 12 17 13 18 7 20 4 22 2 23 1 25 3 26 17 27 19 29
REMARK SMILES IDX 24 31 25 32 26 33 27 34 39 35 28 36 38 37 29 38 34 39 30 40
REMARK SMILES IDX 33 41 31 42 32 43 35 44 37 45 36 46
REMARK H PARENT 21 4 10 15 13 19 7 21 4 24 17 28 19 30
REMARK Flexibility Score: inf
ROOT
ATOM      1  N   UNL     1      26.017  28.852  18.970  1.00  0.00    -0.319 N 
ATOM      2  C   UNL     1      26.613  28.967  17.667  1.00  0.00     0.407 C 
ATOM      3  O   UNL     1      27.108  27.944  17.136  1.00  0.00    -0.225 OA
ATOM      4  H   UNL     1      25.612  29.719  19.374  1.00  0.00     0.167 HD
ENDROOT
BRANCH   1   5
ATOM      5  C   UNL     1      26.008  27.586  19.643  1.00  0.00     0.154 C 
BRANCH   5   6
ATOM      6  C   UNL     1      26.753  27.513  20.935  1.00  0.00     0.165 C 
BRANCH   6   7
ATOM      7  C   UNL     1      28.241  27.628  20.799  1.00  0.00     0.176 C 
BRANCH   7   8
ATOM      8  C   UNL     1      28.815  28.935  21.281  1.00  0.00     0.178 C 
ATOM      9  C   UNL     1      29.049  31.172  20.761  1.00  0.00     0.269 C 
ATOM     10  C   UNL     1      30.559  31.153  20.901  1.00  0.00     0.112 C 
ATOM     11  O   UNL     1      28.596  29.951  20.417  1.00  0.00    -0.332 OA
ATOM     12  C   UNL     1      31.110  29.767  20.852  1.00  0.00     0.145 C 
ATOM     13  C   UNL     1      30.289  28.771  21.582  1.00  0.00     0.142 C 
BRANCH   9  14
ATOM     14  O   UNL     1      28.825  32.084  19.673  1.00  0.00    -0.357 OA
ATOM     15  H   UNL     1      28.858  33.022  20.037  1.00  0.00     0.214 HD
ENDBRANCH   9  14
BRANCH   9  16
ATOM     16  C   UNL     1      28.458  31.829  21.932  1.00  0.00     0.364 C 
ATOM     17  O   UNL     1      28.943  31.756  23.084  1.00  0.00    -0.246 OA
BRANCH  16  18
ATOM     18  O   UNL     1      27.294  32.593  21.820  1.00  0.00    -0.477 OA
ATOM     19  H   UNL     1      27.190  33.452  22.348  1.00  0.00     0.296 HD
ENDBRANCH  16  18
ENDBRANCH   9  16
BRANCH  12  20
ATOM     20  O   UNL     1      31.192  29.378  19.504  1.00  0.00    -0.391 OA
ATOM     21  H   UNL     1      31.596  28.484  19.391  1.00  0.00     0.211 HD
ENDBRANCH  12  20
BRANCH  13  22
ATOM     22  N   UNL     1      30.601  28.740  22.975  1.00  0.00    -0.348 N 
ATOM     23  C   UNL     1      30.727  27.532  23.715  1.00  0.00     0.217 C 
ATOM     24  H   UNL     1      30.750  29.632  23.483  1.00  0.00     0.163 HD
ATOM     25  C   UNL     1      31.054  27.555  25.164  1.00  0.00     0.114 C 
ATOM     26  O   UNL     1      30.567  26.410  23.169  1.00  0.00    -0.275 OA
ENDBRANCH  13  22
ENDBRANCH   7   8
BRANCH   7  27
ATOM     27  O   UNL     1      28.740  27.171  19.607  1.00  0.00    -0.388 OA
ATOM     28  H   UNL     1      28.939  26.195  19.726  1.00  0.00     0.211 HD
ENDBRANCH   7  27
ENDBRANCH   6   7
BRANCH   6  29
ATOM     29  O   UNL     1      26.527  26.160  21.425  1.00  0.00    -0.388 OA
ATOM     30  H   UNL     1      25.565  26.174  21.675  1.00  0.00     0.211 HD
ENDBRANCH   6  29
ENDBRANCH   5   6
ENDBRANCH   1   5
BRANCH   2  31
ATOM     31  O   UNL     1      26.671  30.152  16.973  1.00  0.00    -0.443 OA
BRANCH  31  32
ATOM     32  C   UNL     1      27.564  30.338  15.878  1.00  0.00     0.294 C 
BRANCH  32  33
ATOM     33  C   UNL     1      28.787  31.070  16.293  1.00  0.00     0.121 A 
ATOM     34  C   UNL     1      29.248  32.278  15.840  1.00  0.00     0.144 A 
ATOM     35  N   UNL     1      29.694  30.661  17.222  1.00  0.00    -0.131 NA
ATOM     36  N   UNL     1      30.416  32.563  16.505  1.00  0.00    -0.220 N 
ATOM     37  N   UNL     1      30.642  31.557  17.327  1.00  0.00    -0.062 NA
BRANCH  36  38
ATOM     38  C   UNL     1      31.272  33.680  16.337  1.00  0.00     0.077 A 
ATOM     39  C   UNL     1      31.358  34.728  17.187  1.00  0.00     0.043 A 
ATOM     40  C   UNL     1      32.077  33.620  15.178  1.00  0.00     0.029 A 
ATOM     41  C   UNL     1      32.260  35.757  16.900  1.00  0.00     0.014 A 
ATOM     42  C   UNL     1      32.959  34.637  14.909  1.00  0.00     0.002 A 
ATOM     43  C   UNL     1      33.034  35.692  15.780  1.00  0.00     0.001 A 
BRANCH  39  44
ATOM     44  C   UNL     1      30.565  34.869  18.388  1.00  0.00     0.161 C 
ATOM     45  O   UNL     1      31.019  34.277  19.450  1.00  0.00    -0.294 OA
ATOM     46  C   UNL     1      29.308  35.598  18.556  1.00  0.00     0.093 C 
ENDBRANCH  39  44
ENDBRANCH  36  38
ENDBRANCH  32  33
ENDBRANCH  31  32
ENDBRANCH   2  31
TORSDOF 16
BEGIN_RES LYS A 131
REMARK  4 active torsions:
REMARK  status: ('A' for Active; 'I' for Inactive)
REMARK    1  A    between atoms: CA   and  CB  
REMARK    2  A    between atoms: CB   and  CG  
REMARK    3  A    between atoms: CG   and  CD  
REMARK    4  A    between atoms: CD   and  CE  
ROOT
ATOM      1  CA  LYS A 131      29.867  25.555  16.977  1.00 20.52     0.186 C 
ENDROOT
BRANCH   1   2
ATOM      2  CB  LYS A 131      28.345  25.722  17.026  1.00 20.94     0.034 C 
BRANCH   2   3
ATOM      3  CG  LYS A 131      27.601  24.401  16.907  1.00 22.96     0.005 C 
BRANCH   3   4
ATOM      4  CD  LYS A 131      26.534  24.254  17.956  1.00 24.33     0.041 C 
BRANCH   4   5
ATOM      5  CE  LYS A 131      25.178  24.077  17.281  1.00 26.91     0.338 C 
ATOM      6  NZ  LYS A 131      24.440  25.361  17.253  1.00 27.40     0.618 N 
ENDBRANCH   4   5
ENDBRANCH   3   4
ENDBRANCH   2   3
ENDBRANCH   1   2
END_RES LYS A 131
BEGIN_RES LYS A 135
REMARK  4 active torsions:
REMARK  status: ('A' for Active; 'I' for Inactive)
REMARK    5  A    between atoms: CA   and  CB  
REMARK    6  A    between atoms: CB   and  CG  
REMARK    7  A    between atoms: CG   and  CD  
REMARK    8  A    between atoms: CD   and  CE  
ROOT
ATOM      7  CA  LYS A 135      33.193  34.663   9.290  1.00 25.02     0.186 C 
ENDROOT
BRANCH   7   8
ATOM      8  CB  LYS A 135      32.060  35.360  10.034  1.00 26.63     0.034 C 
BRANCH   8   9
ATOM      9  CG  LYS A 135      30.710  34.735   9.798  1.00 29.45     0.005 C 
BRANCH   9  10
ATOM     10  CD  LYS A 135      30.466  34.528   8.311  1.00 32.00     0.041 C 
BRANCH  10  11
ATOM     11  CE  LYS A 135      29.020  34.823   7.962  1.00 34.25     0.338 C 
ATOM     12  NZ  LYS A 135      28.918  35.544   6.663  1.00 35.99     0.618 N 
ENDBRANCH  10  11
ENDBRANCH   9  10
ENDBRANCH   8   9
ENDBRANCH   7   8
END_RES LYS A 135
