REMARK VINA RESULT:    -5.153      4.683      7.780
REMARK INTER + INTRA:         -15.406
REMARK INTER:                  -9.140
REMARK INTRA:                  -6.266
REMARK UNBOUND:                -6.187
REMARK SMILES CC(=O)N[C@@H]1[C@@H](O)C[C@](O)(C(=O)O)O[C@H]1C(O)[C@H](O)CNC(=O)OCc1cn(-c2cc(Cl)ccc2C(=O)N(C)C)nn1
REMARK SMILES IDX 21 1 22 2 23 3 20 5 18 6 16 7 15 8 9 9 8 10 14 11 6 12 5 13
REMARK SMILES IDX 10 14 11 16 12 17 13 18 7 20 4 22 2 23 1 25 3 26 17 27 19 29
REMARK SMILES IDX 24 31 25 32 26 33 27 34 42 35 28 36 41 37 29 38 30 39 35 40
REMARK SMILES IDX 31 41 34 42 32 43 33 44 36 45 37 46 38 47 39 48 40 49
REMARK H PARENT 21 4 10 15 13 19 7 21 4 24 17 28 19 30
REMARK Flexibility Score: inf
ROOT
ATOM      1  N   UNL     1      32.196  33.507  14.894  1.00  0.00    -0.319 N 
ATOM      2  C   UNL     1      31.519  32.892  15.958  1.00  0.00     0.407 C 
ATOM      3  O   UNL     1      31.517  33.417  17.090  1.00  0.00    -0.225 OA
ATOM      4  H   UNL     1      32.188  33.061  13.949  1.00  0.00     0.167 HD
ENDROOT
BRANCH   1   5
ATOM      5  C   UNL     1      32.914  34.746  15.045  1.00  0.00     0.154 C 
BRANCH   5   6
ATOM      6  C   UNL     1      33.319  35.271  13.692  1.00  0.00     0.165 C 
BRANCH   6   7
ATOM      7  C   UNL     1      32.135  35.573  12.809  1.00  0.00     0.176 C 
BRANCH   7   8
ATOM      8  C   UNL     1      31.168  36.455  13.502  1.00  0.00     0.178 C 
ATOM      9  C   UNL     1      29.374  36.642  14.919  1.00  0.00     0.269 C 
ATOM     10  C   UNL     1      29.815  38.083  14.895  1.00  0.00     0.112 C 
ATOM     11  O   UNL     1      30.072  35.824  14.066  1.00  0.00    -0.332 OA
ATOM     12  C   UNL     1      30.044  38.609  13.517  1.00  0.00     0.145 C 
ATOM     13  C   UNL     1      30.611  37.544  12.584  1.00  0.00     0.142 C 
BRANCH   9  14
ATOM     14  O   UNL     1      28.033  36.603  14.497  1.00  0.00    -0.357 OA
ATOM     15  H   UNL     1      27.984  35.845  13.838  1.00  0.00     0.214 HD
ENDBRANCH   9  14
BRANCH   9  16
ATOM     16  C   UNL     1      29.455  36.076  16.270  1.00  0.00     0.364 C 
ATOM     17  O   UNL     1      30.112  36.675  17.155  1.00  0.00    -0.246 OA
BRANCH  16  18
ATOM     18  O   UNL     1      28.841  34.894  16.654  1.00  0.00    -0.477 OA
ATOM     19  H   UNL     1      29.341  34.321  17.352  1.00  0.00     0.296 HD
ENDBRANCH  16  18
ENDBRANCH   9  16
BRANCH  12  20
ATOM     20  O   UNL     1      28.818  39.097  13.020  1.00  0.00    -0.391 OA
ATOM     21  H   UNL     1      28.589  38.506  12.253  1.00  0.00     0.211 HD
ENDBRANCH  12  20
BRANCH  13  22
ATOM     22  N   UNL     1      31.599  38.063  11.701  1.00  0.00    -0.348 N 
ATOM     23  C   UNL     1      31.216  38.720  10.504  1.00  0.00     0.217 C 
ATOM     24  H   UNL     1      32.612  37.976  11.909  1.00  0.00     0.163 HD
ATOM     25  C   UNL     1      32.296  39.252   9.605  1.00  0.00     0.114 C 
ATOM     26  O   UNL     1      30.036  38.886  10.148  1.00  0.00    -0.275 OA
ENDBRANCH  13  22
ENDBRANCH   7   8
BRANCH   7  27
ATOM     27  O   UNL     1      31.624  34.405  12.300  1.00  0.00    -0.388 OA
ATOM     28  H   UNL     1      32.248  33.662  12.575  1.00  0.00     0.211 HD
ENDBRANCH   7  27
ENDBRANCH   6   7
BRANCH   6  29
ATOM     29  O   UNL     1      34.070  34.269  13.004  1.00  0.00    -0.388 OA
ATOM     30  H   UNL     1      33.699  33.379  13.169  1.00  0.00     0.211 HD
ENDBRANCH   6  29
ENDBRANCH   5   6
ENDBRANCH   1   5
BRANCH   2  31
ATOM     31  O   UNL     1      30.824  31.694  15.832  1.00  0.00    -0.443 OA
BRANCH  31  32
ATOM     32  C   UNL     1      30.121  31.177  16.944  1.00  0.00     0.294 C 
BRANCH  32  33
ATOM     33  C   UNL     1      28.669  31.218  16.718  1.00  0.00     0.121 A 
ATOM     34  C   UNL     1      27.960  31.270  15.536  1.00  0.00     0.144 A 
ATOM     35  N   UNL     1      27.738  31.210  17.687  1.00  0.00    -0.131 NA
ATOM     36  N   UNL     1      26.629  31.293  15.813  1.00  0.00    -0.219 N 
ATOM     37  N   UNL     1      26.543  31.255  17.121  1.00  0.00    -0.062 NA
BRANCH  36  38
ATOM     38  C   UNL     1      25.545  31.346  14.896  1.00  0.00     0.081 A 
ATOM     39  C   UNL     1      25.053  30.188  14.312  1.00  0.00     0.049 A 
ATOM     40  C   UNL     1      24.984  32.563  14.587  1.00  0.00     0.065 A 
ATOM     41  C   UNL     1      24.008  30.217  13.423  1.00  0.00     0.043 A 
ATOM     42  C   UNL     1      23.928  32.630  13.694  1.00  0.00     0.017 A 
ATOM     43  Cl  UNL     1      23.374  28.753  12.676  1.00  0.00    -0.084 Cl
ATOM     44  C   UNL     1      23.457  31.447  13.125  1.00  0.00     0.021 A 
BRANCH  40  45
ATOM     45  C   UNL     1      25.507  33.760  15.203  1.00  0.00     0.255 C 
ATOM     46  O   UNL     1      26.505  34.390  14.751  1.00  0.00    -0.269 OA
ATOM     47  N   UNL     1      24.894  34.277  16.367  1.00  0.00    -0.345 N 
ATOM     48  C   UNL     1      23.751  33.592  16.918  1.00  0.00     0.146 C 
ATOM     49  C   UNL     1      25.378  35.479  17.029  1.00  0.00     0.146 C 
ENDBRANCH  40  45
ENDBRANCH  36  38
ENDBRANCH  32  33
ENDBRANCH  31  32
ENDBRANCH   2  31
TORSDOF 16
BEGIN_RES LYS A 131
REMARK  4 active torsions:
REMARK  status: ('A' for Active; 'I' for Inactive)
REMARK    1  A    between atoms: CA   and  CB  
REMARK    2  A    between atoms: CB   and  CG  
REMARK    3  A    between atoms: CG   and  CD  
REMARK    4  A    between atoms: CD   and  CE  
ROOT
ATOM      1  CA  LYS A 131      29.867  25.555  16.977  1.00 20.52     0.186 C 
ENDROOT
BRANCH   1   2
ATOM      2  CB  LYS A 131      28.345  25.722  17.026  1.00 20.94     0.034 C 
BRANCH   2   3
ATOM      3  CG  LYS A 131      27.600  24.408  16.843  1.00 22.96     0.005 C 
BRANCH   3   4
ATOM      4  CD  LYS A 131      26.204  24.467  17.399  1.00 24.33     0.041 C 
BRANCH   4   5
ATOM      5  CE  LYS A 131      26.227  25.154  18.760  1.00 26.91     0.338 C 
ATOM      6  NZ  LYS A 131      25.324  24.458  19.708  1.00 27.40     0.618 N 
ENDBRANCH   4   5
ENDBRANCH   3   4
ENDBRANCH   2   3
ENDBRANCH   1   2
END_RES LYS A 131
BEGIN_RES LYS A 135
REMARK  4 active torsions:
REMARK  status: ('A' for Active; 'I' for Inactive)
REMARK    5  A    between atoms: CA   and  CB  
REMARK    6  A    between atoms: CB   and  CG  
REMARK    7  A    between atoms: CG   and  CD  
REMARK    8  A    between atoms: CD   and  CE  
ROOT
ATOM      7  CA  LYS A 135      33.193  34.663   9.290  1.00 25.02     0.186 C 
ENDROOT
BRANCH   7   8
ATOM      8  CB  LYS A 135      32.060  35.360  10.034  1.00 26.63     0.034 C 
BRANCH   8   9
ATOM      9  CG  LYS A 135      30.789  35.469   9.231  1.00 29.45     0.005 C 
BRANCH   9  10
ATOM     10  CD  LYS A 135      30.209  34.091   8.955  1.00 32.00     0.041 C 
BRANCH  10  11
ATOM     11  CE  LYS A 135      28.738  34.049   9.324  1.00 34.25     0.338 C 
ATOM     12  NZ  LYS A 135      28.524  34.500  10.727  1.00 35.99     0.618 N 
ENDBRANCH  10  11
ENDBRANCH   9  10
ENDBRANCH   8   9
ENDBRANCH   7   8
END_RES LYS A 135
