REMARK VINA RESULT:    -5.126      4.565      8.434
REMARK INTER + INTRA:         -15.115
REMARK INTER:                  -8.437
REMARK INTRA:                  -6.678
REMARK UNBOUND:                -5.794
REMARK SMILES CC(=O)N[C@@H]1[C@@H](O)C[C@](O)(C(=O)O)O[C@H]1C(O)[C@H](O)CNC(=O)OCc1cn(Cc2cc(Br)cc(Br)c2O)nn1
REMARK SMILES IDX 21 1 22 2 23 3 20 5 18 6 16 7 15 8 9 9 8 10 14 11 6 12 5 13
REMARK SMILES IDX 10 14 11 16 12 17 13 18 7 20 4 22 2 23 1 25 3 26 17 27 19 29
REMARK SMILES IDX 24 31 25 32 26 33 27 34 40 35 28 36 39 37 29 38 30 39 31 40
REMARK SMILES IDX 37 41 32 42 35 43 33 44 34 45 36 46 38 47
REMARK H PARENT 21 4 10 15 13 19 7 21 4 24 17 28 19 30 38 48
REMARK Flexibility Score: inf
ROOT
ATOM      1  N   UNL     1      27.111  31.640  15.791  1.00  0.00    -0.319 N 
ATOM      2  C   UNL     1      25.798  31.121  15.606  1.00  0.00     0.407 C 
ATOM      3  O   UNL     1      25.650  29.888  15.449  1.00  0.00    -0.225 OA
ATOM      4  H   UNL     1      27.207  32.663  15.918  1.00  0.00     0.167 HD
ENDROOT
BRANCH   1   5
ATOM      5  C   UNL     1      28.273  30.793  15.801  1.00  0.00     0.154 C 
BRANCH   5   6
ATOM      6  C   UNL     1      29.489  31.547  16.257  1.00  0.00     0.165 C 
BRANCH   6   7
ATOM      7  C   UNL     1      30.106  32.365  15.144  1.00  0.00     0.176 C 
BRANCH   7   8
ATOM      8  C   UNL     1      29.822  33.858  15.390  1.00  0.00     0.178 C 
ATOM      9  C   UNL     1      27.978  35.036  14.525  1.00  0.00     0.269 C 
ATOM     10  C   UNL     1      28.911  36.256  14.510  1.00  0.00     0.112 C 
ATOM     11  O   UNL     1      28.502  34.035  15.272  1.00  0.00    -0.332 OA
ATOM     12  C   UNL     1      30.133  35.754  13.756  1.00  0.00     0.145 C 
ATOM     13  C   UNL     1      30.752  34.687  14.611  1.00  0.00     0.142 C 
BRANCH   9  14
ATOM     14  O   UNL     1      27.756  34.722  13.199  1.00  0.00    -0.357 OA
ATOM     15  H   UNL     1      28.310  35.242  12.567  1.00  0.00     0.214 HD
ENDBRANCH   9  14
BRANCH   9  16
ATOM     16  C   UNL     1      26.684  35.430  15.136  1.00  0.00     0.364 C 
ATOM     17  O   UNL     1      26.227  34.739  16.080  1.00  0.00    -0.246 OA
BRANCH  16  18
ATOM     18  O   UNL     1      25.961  36.536  14.699  1.00  0.00    -0.477 OA
ATOM     19  H   UNL     1      26.398  37.075  13.938  1.00  0.00     0.296 HD
ENDBRANCH  16  18
ENDBRANCH   9  16
BRANCH  12  20
ATOM     20  O   UNL     1      29.776  35.282  12.494  1.00  0.00    -0.391 OA
ATOM     21  H   UNL     1      29.933  36.005  11.853  1.00  0.00     0.211 HD
ENDBRANCH  12  20
BRANCH  13  22
ATOM     22  N   UNL     1      31.767  35.343  15.435  1.00  0.00    -0.348 N 
ATOM     23  C   UNL     1      33.160  35.167  15.239  1.00  0.00     0.217 C 
ATOM     24  H   UNL     1      31.491  35.988  16.226  1.00  0.00     0.163 HD
ATOM     25  C   UNL     1      34.162  35.857  16.106  1.00  0.00     0.114 C 
ATOM     26  O   UNL     1      33.566  34.414  14.317  1.00  0.00    -0.275 OA
ENDBRANCH  13  22
ENDBRANCH   7   8
BRANCH   7  27
ATOM     27  O   UNL     1      31.440  32.113  14.935  1.00  0.00    -0.388 OA
ATOM     28  H   UNL     1      31.815  31.489  15.591  1.00  0.00     0.211 HD
ENDBRANCH   7  27
ENDBRANCH   6   7
BRANCH   6  29
ATOM     29  O   UNL     1      30.371  30.697  16.887  1.00  0.00    -0.388 OA
ATOM     30  H   UNL     1      31.311  30.925  16.764  1.00  0.00     0.211 HD
ENDBRANCH   6  29
ENDBRANCH   5   6
ENDBRANCH   1   5
BRANCH   2  31
ATOM     31  O   UNL     1      24.708  31.955  15.599  1.00  0.00    -0.443 OA
BRANCH  31  32
ATOM     32  C   UNL     1      23.775  31.963  14.533  1.00  0.00     0.294 C 
BRANCH  32  33
ATOM     33  C   UNL     1      24.082  33.113  13.642  1.00  0.00     0.120 A 
ATOM     34  C   UNL     1      23.349  34.286  13.513  1.00  0.00     0.138 A 
ATOM     35  N   UNL     1      25.106  33.274  12.783  1.00  0.00    -0.132 NA
ATOM     36  N   UNL     1      23.942  35.083  12.611  1.00  0.00    -0.248 N 
ATOM     37  N   UNL     1      25.032  34.434  12.170  1.00  0.00    -0.067 NA
BRANCH  36  38
ATOM     38  C   UNL     1      23.525  36.386  12.174  1.00  0.00     0.185 C 
BRANCH  38  39
ATOM     39  C   UNL     1      23.495  36.521  10.695  1.00  0.00     0.018 A 
ATOM     40  C   UNL     1      22.289  36.337  10.048  1.00  0.00     0.025 A 
ATOM     41  C   UNL     1      24.605  36.820   9.942  1.00  0.00     0.134 A 
ATOM     42  C   UNL     1      22.148  36.437   8.682  1.00  0.00     0.019 A 
ATOM     43  C   UNL     1      24.489  36.927   8.553  1.00  0.00     0.061 A 
ATOM     44  Br  UNL     1      20.475  36.179   7.817  1.00  0.00    -0.051 Br
ATOM     45  C   UNL     1      23.278  36.738   7.933  1.00  0.00     0.035 A 
ATOM     46  Br  UNL     1      26.089  37.347   7.578  1.00  0.00    -0.047 Br
BRANCH  41  47
ATOM     47  O   UNL     1      25.827  37.012  10.559  1.00  0.00    -0.506 OA
ATOM     48  H   UNL     1      26.444  37.736  10.219  1.00  0.00     0.293 HD
ENDBRANCH  41  47
ENDBRANCH  38  39
ENDBRANCH  36  38
ENDBRANCH  32  33
ENDBRANCH  31  32
ENDBRANCH   2  31
TORSDOF 17
BEGIN_RES LYS A 131
REMARK  4 active torsions:
REMARK  status: ('A' for Active; 'I' for Inactive)
REMARK    1  A    between atoms: CA   and  CB  
REMARK    2  A    between atoms: CB   and  CG  
REMARK    3  A    between atoms: CG   and  CD  
REMARK    4  A    between atoms: CD   and  CE  
ROOT
ATOM      1  CA  LYS A 131      29.867  25.555  16.977  1.00 20.52     0.186 C 
ENDROOT
BRANCH   1   2
ATOM      2  CB  LYS A 131      28.345  25.722  17.026  1.00 20.94     0.034 C 
BRANCH   2   3
ATOM      3  CG  LYS A 131      27.601  24.402  16.890  1.00 22.96     0.005 C 
BRANCH   3   4
ATOM      4  CD  LYS A 131      26.172  24.508  17.344  1.00 24.33     0.041 C 
BRANCH   4   5
ATOM      5  CE  LYS A 131      25.984  23.707  18.627  1.00 26.91     0.338 C 
ATOM      6  NZ  LYS A 131      25.451  24.572  19.706  1.00 27.40     0.618 N 
ENDBRANCH   4   5
ENDBRANCH   3   4
ENDBRANCH   2   3
ENDBRANCH   1   2
END_RES LYS A 131
BEGIN_RES LYS A 135
REMARK  4 active torsions:
REMARK  status: ('A' for Active; 'I' for Inactive)
REMARK    5  A    between atoms: CA   and  CB  
REMARK    6  A    between atoms: CB   and  CG  
REMARK    7  A    between atoms: CG   and  CD  
REMARK    8  A    between atoms: CD   and  CE  
ROOT
ATOM      7  CA  LYS A 135      33.193  34.663   9.290  1.00 25.02     0.186 C 
ENDROOT
BRANCH   7   8
ATOM      8  CB  LYS A 135      32.060  35.360  10.034  1.00 26.63     0.034 C 
BRANCH   8   9
ATOM      9  CG  LYS A 135      30.811  35.528   9.208  1.00 29.45     0.005 C 
BRANCH   9  10
ATOM     10  CD  LYS A 135      30.114  34.191   9.011  1.00 32.00     0.041 C 
BRANCH  10  11
ATOM     11  CE  LYS A 135      28.647  34.397   8.687  1.00 34.25     0.338 C 
ATOM     12  NZ  LYS A 135      27.777  33.692   9.669  1.00 35.99     0.618 N 
ENDBRANCH  10  11
ENDBRANCH   9  10
ENDBRANCH   8   9
ENDBRANCH   7   8
END_RES LYS A 135
