REMARK VINA RESULT:    -4.089      3.325      5.373
REMARK INTER + INTRA:         -14.358
REMARK INTER:                  -8.326
REMARK INTRA:                  -6.031
REMARK UNBOUND:                -7.042
REMARK SMILES CC(=O)N[C@@H]1[C@@H](O)C[C@](O)(C(=O)O)O[C@H]1C(O)[C@H](O)CNC(=O)OCc1cn(-c2ncccc2C#N)nn1
REMARK SMILES IDX 21 1 22 2 23 3 20 5 18 6 16 7 15 8 9 9 8 10 14 11 6 12 5 13
REMARK SMILES IDX 10 14 11 16 12 17 13 18 7 20 4 22 2 23 1 25 3 26 17 27 19 29
REMARK SMILES IDX 24 31 25 32 26 33 27 34 38 35 28 36 37 37 29 38 30 39 34 40
REMARK SMILES IDX 31 41 33 42 32 43 35 44 36 45
REMARK H PARENT 21 4 10 15 13 19 7 21 4 24 17 28 19 30
REMARK Flexibility Score: inf
ROOT
ATOM      1  N   UNL     1      27.300  37.225   5.852  1.00  0.00    -0.319 N 
ATOM      2  C   UNL     1      27.743  36.098   6.625  1.00  0.00     0.407 C 
ATOM      3  O   UNL     1      28.879  35.631   6.495  1.00  0.00    -0.225 OA
ATOM      4  H   UNL     1      26.299  37.526   6.097  1.00  0.00     0.167 HD
ENDROOT
BRANCH   1   5
ATOM      5  C   UNL     1      28.065  37.906   4.922  1.00  0.00     0.154 C 
BRANCH   5   6
ATOM      6  C   UNL     1      28.530  39.342   5.272  1.00  0.00     0.165 C 
BRANCH   6   7
ATOM      7  C   UNL     1      29.920  39.163   5.748  1.00  0.00     0.176 C 
BRANCH   7   8
ATOM      8  C   UNL     1      30.896  40.276   5.619  1.00  0.00     0.178 C 
ATOM      9  C   UNL     1      33.171  39.834   6.019  1.00  0.00     0.269 C 
ATOM     10  C   UNL     1      33.520  41.275   6.299  1.00  0.00     0.112 C 
ATOM     11  O   UNL     1      32.106  39.716   5.124  1.00  0.00    -0.332 OA
ATOM     12  C   UNL     1      32.244  42.141   6.293  1.00  0.00     0.145 C 
ATOM     13  C   UNL     1      31.147  41.153   6.759  1.00  0.00     0.142 C 
BRANCH   9  14
ATOM     14  O   UNL     1      32.992  39.138   7.205  1.00  0.00    -0.357 OA
ATOM     15  H   UNL     1      32.189  38.597   7.244  1.00  0.00     0.214 HD
ENDBRANCH   9  14
BRANCH   9  16
ATOM     16  C   UNL     1      34.322  39.277   5.280  1.00  0.00     0.364 C 
ATOM     17  O   UNL     1      34.651  39.360   4.160  1.00  0.00    -0.246 OA
BRANCH  16  18
ATOM     18  O   UNL     1      35.202  38.474   6.157  1.00  0.00    -0.477 OA
ATOM     19  H   UNL     1      35.517  37.585   5.763  1.00  0.00     0.296 HD
ENDBRANCH  16  18
ENDBRANCH   9  16
BRANCH  12  20
ATOM     20  O   UNL     1      32.363  43.205   7.149  1.00  0.00    -0.391 OA
ATOM     21  H   UNL     1      33.266  43.290   7.501  1.00  0.00     0.211 HD
ENDBRANCH  12  20
BRANCH  13  22
ATOM     22  N   UNL     1      29.989  41.968   7.154  1.00  0.00    -0.348 N 
ATOM     23  C   UNL     1      29.724  42.136   8.522  1.00  0.00     0.217 C 
ATOM     24  H   UNL     1      29.423  42.402   6.451  1.00  0.00     0.163 HD
ATOM     25  C   UNL     1      28.767  42.844   9.288  1.00  0.00     0.114 C 
ATOM     26  O   UNL     1      30.655  41.440   9.236  1.00  0.00    -0.275 OA
ENDBRANCH  13  22
ENDBRANCH   7   8
BRANCH   7  27
ATOM     27  O   UNL     1      29.971  38.412   6.887  1.00  0.00    -0.388 OA
ATOM     28  H   UNL     1      29.422  37.585   6.827  1.00  0.00     0.211 HD
ENDBRANCH   7  27
ENDBRANCH   6   7
BRANCH   6  29
ATOM     29  O   UNL     1      27.595  39.818   6.146  1.00  0.00    -0.388 OA
ATOM     30  H   UNL     1      27.896  39.656   7.075  1.00  0.00     0.211 HD
ENDBRANCH   6  29
ENDBRANCH   5   6
ENDBRANCH   1   5
BRANCH   2  31
ATOM     31  O   UNL     1      26.861  35.529   7.546  1.00  0.00    -0.443 OA
BRANCH  31  32
ATOM     32  C   UNL     1      25.907  36.344   8.261  1.00  0.00     0.294 C 
BRANCH  32  33
ATOM     33  C   UNL     1      26.793  37.297   9.025  1.00  0.00     0.121 A 
ATOM     34  C   UNL     1      27.389  37.065  10.229  1.00  0.00     0.146 A 
ATOM     35  N   UNL     1      27.192  38.488   8.578  1.00  0.00    -0.131 NA
ATOM     36  N   UNL     1      28.164  38.166  10.473  1.00  0.00    -0.201 N 
ATOM     37  N   UNL     1      28.015  39.008   9.441  1.00  0.00    -0.060 NA
BRANCH  36  38
ATOM     38  C   UNL     1      28.989  38.386  11.572  1.00  0.00     0.173 A 
ATOM     39  N   UNL     1      28.438  38.667  12.825  1.00  0.00    -0.236 NA
ATOM     40  C   UNL     1      30.367  38.455  11.546  1.00  0.00     0.097 A 
ATOM     41  C   UNL     1      29.189  38.956  13.803  1.00  0.00     0.113 A 
ATOM     42  C   UNL     1      31.138  38.761  12.576  1.00  0.00     0.025 A 
ATOM     43  C   UNL     1      30.602  39.053  13.864  1.00  0.00     0.022 A 
BRANCH  40  44
ATOM     44  C   UNL     1      31.052  38.237  10.214  1.00  0.00     0.103 C 
ATOM     45  N   UNL     1      31.496  38.081   9.320  1.00  0.00    -0.192 NA
ENDBRANCH  40  44
ENDBRANCH  36  38
ENDBRANCH  32  33
ENDBRANCH  31  32
ENDBRANCH   2  31
TORSDOF 16
BEGIN_RES LYS A 131
REMARK  4 active torsions:
REMARK  status: ('A' for Active; 'I' for Inactive)
REMARK    1  A    between atoms: CA   and  CB  
REMARK    2  A    between atoms: CB   and  CG  
REMARK    3  A    between atoms: CG   and  CD  
REMARK    4  A    between atoms: CD   and  CE  
ROOT
ATOM      1  CA  LYS A 131      29.867  25.555  16.977  1.00 20.52     0.186 C 
ENDROOT
BRANCH   1   2
ATOM      2  CB  LYS A 131      28.345  25.722  17.026  1.00 20.94     0.034 C 
BRANCH   2   3
ATOM      3  CG  LYS A 131      27.602  24.400  16.914  1.00 22.96     0.005 C 
BRANCH   3   4
ATOM      4  CD  LYS A 131      26.498  24.283  17.929  1.00 24.33     0.041 C 
BRANCH   4   5
ATOM      5  CE  LYS A 131      25.168  24.648  17.278  1.00 26.91     0.338 C 
ATOM      6  NZ  LYS A 131      24.511  25.749  18.023  1.00 27.40     0.618 N 
ENDBRANCH   4   5
ENDBRANCH   3   4
ENDBRANCH   2   3
ENDBRANCH   1   2
END_RES LYS A 131
BEGIN_RES LYS A 135
REMARK  4 active torsions:
REMARK  status: ('A' for Active; 'I' for Inactive)
REMARK    5  A    between atoms: CA   and  CB  
REMARK    6  A    between atoms: CB   and  CG  
REMARK    7  A    between atoms: CG   and  CD  
REMARK    8  A    between atoms: CD   and  CE  
ROOT
ATOM      7  CA  LYS A 135      33.193  34.663   9.290  1.00 25.02     0.186 C 
ENDROOT
BRANCH   7   8
ATOM      8  CB  LYS A 135      32.060  35.360  10.034  1.00 26.63     0.034 C 
BRANCH   8   9
ATOM      9  CG  LYS A 135      30.739  34.643   9.927  1.00 29.45     0.005 C 
BRANCH   9  10
ATOM     10  CD  LYS A 135      29.948  34.780  11.220  1.00 32.00     0.041 C 
BRANCH  10  11
ATOM     11  CE  LYS A 135      30.885  34.928  12.403  1.00 34.25     0.338 C 
ATOM     12  NZ  LYS A 135      30.151  35.395  13.612  1.00 35.99     0.618 N 
ENDBRANCH  10  11
ENDBRANCH   9  10
ENDBRANCH   8   9
ENDBRANCH   7   8
END_RES LYS A 135
