REMARK VINA RESULT:    -5.214      5.432     11.384
REMARK INTER + INTRA:         -15.332
REMARK INTER:                  -8.856
REMARK INTRA:                  -6.476
REMARK UNBOUND:                -6.003
REMARK SMILES CC(=O)N[C@@H]1[C@@H](O)C[C@](O)(C(=O)O)O[C@H]1C(O)[C@H](O)CNC(=O)OCc1cn(Cc2ccc3c(c2)OCO3)nn1
REMARK SMILES IDX 21 1 22 2 23 3 20 5 18 6 16 7 15 8 9 9 8 10 14 11 6 12 5 13
REMARK SMILES IDX 10 14 11 16 12 17 13 18 7 20 4 22 2 23 1 25 3 26 17 27 19 29
REMARK SMILES IDX 24 31 25 32 26 33 27 34 40 35 28 36 39 37 29 38 30 39 31 40
REMARK SMILES IDX 35 41 32 42 34 43 33 44 36 45 38 46 37 47
REMARK H PARENT 21 4 10 15 13 19 7 21 4 24 17 28 19 30
REMARK Flexibility Score: inf
ROOT
ATOM      1  N   UNL     1      25.764  30.188  18.516  1.00  0.00    -0.319 N 
ATOM      2  C   UNL     1      24.877  30.671  17.514  1.00  0.00     0.407 C 
ATOM      3  O   UNL     1      23.980  29.898  17.044  1.00  0.00    -0.225 OA
ATOM      4  H   UNL     1      26.479  30.836  18.877  1.00  0.00     0.167 HD
ENDROOT
BRANCH   1   5
ATOM      5  C   UNL     1      25.594  28.825  18.951  1.00  0.00     0.154 C 
BRANCH   5   6
ATOM      6  C   UNL     1      26.786  27.959  18.692  1.00  0.00     0.165 C 
BRANCH   6   7
ATOM      7  C   UNL     1      27.315  27.303  19.947  1.00  0.00     0.176 C 
BRANCH   7   8
ATOM      8  C   UNL     1      28.163  28.286  20.750  1.00  0.00     0.178 C 
ATOM      9  C   UNL     1      30.336  27.741  21.359  1.00  0.00     0.269 C 
ATOM     10  C   UNL     1      30.245  28.442  22.695  1.00  0.00     0.112 C 
ATOM     11  O   UNL     1      29.483  28.231  20.412  1.00  0.00    -0.332 OA
ATOM     12  C   UNL     1      28.884  29.067  22.919  1.00  0.00     0.145 C 
ATOM     13  C   UNL     1      27.877  28.180  22.224  1.00  0.00     0.142 C 
BRANCH   9  14
ATOM     14  O   UNL     1      30.175  26.351  21.518  1.00  0.00    -0.357 OA
ATOM     15  H   UNL     1      30.775  25.980  22.191  1.00  0.00     0.214 HD
ENDBRANCH   9  14
BRANCH   9  16
ATOM     16  C   UNL     1      31.727  27.938  20.867  1.00  0.00     0.364 C 
ATOM     17  O   UNL     1      32.539  28.663  21.517  1.00  0.00    -0.246 OA
BRANCH  16  18
ATOM     18  O   UNL     1      32.215  27.363  19.706  1.00  0.00    -0.477 OA
ATOM     19  H   UNL     1      33.077  27.752  19.309  1.00  0.00     0.296 HD
ENDBRANCH  16  18
ENDBRANCH   9  16
BRANCH  12  20
ATOM     20  O   UNL     1      28.611  29.227  24.274  1.00  0.00    -0.391 OA
ATOM     21  H   UNL     1      29.137  28.550  24.764  1.00  0.00     0.211 HD
ENDBRANCH  12  20
BRANCH  13  22
ATOM     22  N   UNL     1      26.526  28.520  22.495  1.00  0.00    -0.348 N 
ATOM     23  C   UNL     1      25.637  27.639  23.164  1.00  0.00     0.217 C 
ATOM     24  H   UNL     1      26.191  29.476  22.173  1.00  0.00     0.163 HD
ATOM     25  C   UNL     1      24.216  28.030  23.435  1.00  0.00     0.114 C 
ATOM     26  O   UNL     1      26.105  26.526  23.514  1.00  0.00    -0.275 OA
ENDBRANCH  13  22
ENDBRANCH   7   8
BRANCH   7  27
ATOM     27  O   UNL     1      28.158  26.264  19.557  1.00  0.00    -0.388 OA
ATOM     28  H   UNL     1      28.608  26.499  18.709  1.00  0.00     0.211 HD
ENDBRANCH   7  27
ENDBRANCH   6   7
BRANCH   6  29
ATOM     29  O   UNL     1      27.776  28.761  18.125  1.00  0.00    -0.388 OA
ATOM     30  H   UNL     1      27.848  28.630  17.148  1.00  0.00     0.211 HD
ENDBRANCH   6  29
ENDBRANCH   5   6
ENDBRANCH   1   5
BRANCH   2  31
ATOM     31  O   UNL     1      24.942  31.967  17.014  1.00  0.00    -0.443 OA
BRANCH  31  32
ATOM     32  C   UNL     1      25.537  32.172  15.738  1.00  0.00     0.294 C 
BRANCH  32  33
ATOM     33  C   UNL     1      26.906  31.608  15.708  1.00  0.00     0.120 A 
ATOM     34  C   UNL     1      28.053  32.340  15.817  1.00  0.00     0.138 A 
ATOM     35  N   UNL     1      27.282  30.337  15.572  1.00  0.00    -0.132 NA
ATOM     36  N   UNL     1      29.090  31.494  15.744  1.00  0.00    -0.248 N 
ATOM     37  N   UNL     1      28.608  30.283  15.595  1.00  0.00    -0.067 NA
BRANCH  36  38
ATOM     38  C   UNL     1      30.484  31.872  15.818  1.00  0.00     0.181 C 
BRANCH  38  39
ATOM     39  C   UNL     1      30.743  32.308  17.219  1.00  0.00    -0.023 A 
ATOM     40  C   UNL     1      31.264  33.563  17.434  1.00  0.00     0.010 A 
ATOM     41  C   UNL     1      30.480  31.499  18.296  1.00  0.00     0.056 A 
ATOM     42  C   UNL     1      31.513  33.991  18.734  1.00  0.00     0.051 A 
ATOM     43  C   UNL     1      30.729  31.928  19.584  1.00  0.00     0.166 A 
ATOM     44  C   UNL     1      31.247  33.173  19.813  1.00  0.00     0.165 A 
ATOM     45  O   UNL     1      30.544  31.292  20.797  1.00  0.00    -0.454 OA
ATOM     46  O   UNL     1      31.402  33.360  21.171  1.00  0.00    -0.454 OA
ATOM     47  C   UNL     1      30.754  32.263  21.798  1.00  0.00     0.468 C 
ENDBRANCH  38  39
ENDBRANCH  36  38
ENDBRANCH  32  33
ENDBRANCH  31  32
ENDBRANCH   2  31
TORSDOF 16
BEGIN_RES LYS A 131
REMARK  4 active torsions:
REMARK  status: ('A' for Active; 'I' for Inactive)
REMARK    1  A    between atoms: CA   and  CB  
REMARK    2  A    between atoms: CB   and  CG  
REMARK    3  A    between atoms: CG   and  CD  
REMARK    4  A    between atoms: CD   and  CE  
ROOT
ATOM      1  CA  LYS A 131      29.867  25.555  16.977  1.00 20.52     0.186 C 
ENDROOT
BRANCH   1   2
ATOM      2  CB  LYS A 131      28.345  25.722  17.026  1.00 20.94     0.034 C 
BRANCH   2   3
ATOM      3  CG  LYS A 131      27.599  24.484  16.553  1.00 22.96     0.005 C 
BRANCH   3   4
ATOM      4  CD  LYS A 131      27.038  23.688  17.699  1.00 24.33     0.041 C 
BRANCH   4   5
ATOM      5  CE  LYS A 131      25.703  24.288  18.130  1.00 26.91     0.338 C 
ATOM      6  NZ  LYS A 131      24.683  24.097  17.072  1.00 27.40     0.618 N 
ENDBRANCH   4   5
ENDBRANCH   3   4
ENDBRANCH   2   3
ENDBRANCH   1   2
END_RES LYS A 131
BEGIN_RES LYS A 135
REMARK  4 active torsions:
REMARK  status: ('A' for Active; 'I' for Inactive)
REMARK    5  A    between atoms: CA   and  CB  
REMARK    6  A    between atoms: CB   and  CG  
REMARK    7  A    between atoms: CG   and  CD  
REMARK    8  A    between atoms: CD   and  CE  
ROOT
ATOM      7  CA  LYS A 135      33.193  34.663   9.290  1.00 25.02     0.186 C 
ENDROOT
BRANCH   7   8
ATOM      8  CB  LYS A 135      32.060  35.360  10.034  1.00 26.63     0.034 C 
BRANCH   8   9
ATOM      9  CG  LYS A 135      30.720  34.695   9.852  1.00 29.45     0.005 C 
BRANCH   9  10
ATOM     10  CD  LYS A 135      30.317  34.694   8.385  1.00 32.00     0.041 C 
BRANCH  10  11
ATOM     11  CE  LYS A 135      28.820  34.493   8.245  1.00 34.25     0.338 C 
ATOM     12  NZ  LYS A 135      28.245  33.873   9.471  1.00 35.99     0.618 N 
ENDBRANCH  10  11
ENDBRANCH   9  10
ENDBRANCH   8   9
ENDBRANCH   7   8
END_RES LYS A 135
