REMARK VINA RESULT:    -4.848      3.114      5.659
REMARK INTER + INTRA:         -13.555
REMARK INTER:                  -7.338
REMARK INTRA:                  -6.217
REMARK UNBOUND:                -5.164
REMARK SMILES CC(=O)N[C@@H]1[C@@H](O)C[C@](O)(C(=O)O)O[C@H]1C(O)[C@H](O)CNC(=O)OCc1cn(-c2cccnc2)nn1
REMARK SMILES IDX 20 1 18 2 16 3 15 4 9 5 8 6 14 7 6 8 5 9 10 10 11 12 12 13
REMARK SMILES IDX 13 14 7 16 4 18 2 19 1 21 3 22 17 23 19 25 21 27 22 28 23 30
REMARK SMILES IDX 24 31 25 32 26 33 27 34 36 35 28 36 35 37 29 38 30 39 34 40
REMARK SMILES IDX 31 41 33 42 32 43
REMARK H PARENT 10 11 13 15 7 17 4 20 17 24 19 26 21 29
REMARK Flexibility Score: inf
ROOT
ATOM      1  C   UNL     1      29.687  31.532  20.147  1.00  0.00     0.154 C 
ENDROOT
BRANCH   1   2
ATOM      2  C   UNL     1      30.673  31.879  19.092  1.00  0.00     0.165 C 
BRANCH   2   3
ATOM      3  C   UNL     1      30.969  33.328  19.001  1.00  0.00     0.176 C 
BRANCH   3   4
ATOM      4  C   UNL     1      30.921  33.979  17.663  1.00  0.00     0.178 C 
ATOM      5  C   UNL     1      31.359  33.828  15.444  1.00  0.00     0.269 C 
ATOM      6  C   UNL     1      31.064  35.275  15.264  1.00  0.00     0.112 C 
ATOM      7  O   UNL     1      31.720  33.425  16.716  1.00  0.00    -0.332 OA
ATOM      8  C   UNL     1      30.474  35.995  16.425  1.00  0.00     0.145 C 
ATOM      9  C   UNL     1      31.127  35.466  17.735  1.00  0.00     0.142 C 
BRANCH   5  10
ATOM     10  O   UNL     1      32.513  33.578  14.635  1.00  0.00    -0.357 OA
ATOM     11  H   UNL     1      32.867  32.726  14.980  1.00  0.00     0.214 HD
ENDBRANCH   5  10
BRANCH   5  12
ATOM     12  C   UNL     1      30.300  32.948  14.900  1.00  0.00     0.364 C 
ATOM     13  O   UNL     1      29.340  33.451  14.265  1.00  0.00    -0.246 OA
BRANCH  12  14
ATOM     14  O   UNL     1      30.274  31.566  15.034  1.00  0.00    -0.477 OA
ATOM     15  H   UNL     1      31.189  31.104  15.063  1.00  0.00     0.296 HD
ENDBRANCH  12  14
ENDBRANCH   5  12
BRANCH   8  16
ATOM     16  O   UNL     1      30.795  37.352  16.387  1.00  0.00    -0.391 OA
ATOM     17  H   UNL     1      31.515  37.538  17.039  1.00  0.00     0.211 HD
ENDBRANCH   8  16
BRANCH   9  18
ATOM     18  N   UNL     1      30.316  35.997  18.797  1.00  0.00    -0.348 N 
ATOM     19  C   UNL     1      30.685  37.103  19.595  1.00  0.00     0.217 C 
ATOM     20  H   UNL     1      29.385  35.545  19.003  1.00  0.00     0.163 HD
ATOM     21  C   UNL     1      29.779  37.575  20.667  1.00  0.00     0.114 C 
ATOM     22  O   UNL     1      31.779  37.675  19.387  1.00  0.00    -0.275 OA
ENDBRANCH   9  18
ENDBRANCH   3   4
BRANCH   3  23
ATOM     23  O   UNL     1      31.988  33.761  19.828  1.00  0.00    -0.388 OA
ATOM     24  H   UNL     1      31.753  34.413  20.505  1.00  0.00     0.211 HD
ENDBRANCH   3  23
ENDBRANCH   2   3
BRANCH   2  25
ATOM     25  O   UNL     1      30.166  31.501  17.824  1.00  0.00    -0.388 OA
ATOM     26  H   UNL     1      29.747  30.624  17.935  1.00  0.00     0.211 HD
ENDBRANCH   2  25
ENDBRANCH   1   2
BRANCH   1  27
ATOM     27  N   UNL     1      28.559  30.746  19.745  1.00  0.00    -0.319 N 
ATOM     28  C   UNL     1      28.433  29.367  19.863  1.00  0.00     0.407 C 
ATOM     29  H   UNL     1      27.728  31.257  19.314  1.00  0.00     0.167 HD
ATOM     30  O   UNL     1      29.337  28.670  20.341  1.00  0.00    -0.225 OA
BRANCH  28  31
ATOM     31  O   UNL     1      27.284  28.667  19.453  1.00  0.00    -0.443 OA
BRANCH  31  32
ATOM     32  C   UNL     1      27.214  28.088  18.170  1.00  0.00     0.294 C 
BRANCH  32  33
ATOM     33  C   UNL     1      27.123  29.110  17.112  1.00  0.00     0.121 A 
ATOM     34  C   UNL     1      25.932  29.454  16.493  1.00  0.00     0.144 A 
ATOM     35  N   UNL     1      28.054  29.876  16.544  1.00  0.00    -0.131 NA
ATOM     36  N   UNL     1      26.181  30.408  15.579  1.00  0.00    -0.219 N 
ATOM     37  N   UNL     1      27.465  30.653  15.622  1.00  0.00    -0.062 NA
BRANCH  36  38
ATOM     38  C   UNL     1      25.234  31.047  14.716  1.00  0.00     0.085 A 
ATOM     39  C   UNL     1      24.379  30.312  13.914  1.00  0.00     0.031 A 
ATOM     40  C   UNL     1      25.163  32.425  14.674  1.00  0.00     0.139 A 
ATOM     41  C   UNL     1      23.473  30.981  13.089  1.00  0.00     0.022 A 
ATOM     42  N   UNL     1      24.270  33.051  13.858  1.00  0.00    -0.262 NA
ATOM     43  C   UNL     1      23.426  32.363  13.068  1.00  0.00     0.111 A 
ENDBRANCH  36  38
ENDBRANCH  32  33
ENDBRANCH  31  32
ENDBRANCH  28  31
ENDBRANCH   1  27
TORSDOF 15
BEGIN_RES LYS A 131
REMARK  4 active torsions:
REMARK  status: ('A' for Active; 'I' for Inactive)
REMARK    1  A    between atoms: CA   and  CB  
REMARK    2  A    between atoms: CB   and  CG  
REMARK    3  A    between atoms: CG   and  CD  
REMARK    4  A    between atoms: CD   and  CE  
ROOT
ATOM      1  CA  LYS A 131      29.867  25.555  16.977  1.00 20.52     0.186 C 
ENDROOT
BRANCH   1   2
ATOM      2  CB  LYS A 131      28.345  25.722  17.026  1.00 20.94     0.034 C 
BRANCH   2   3
ATOM      3  CG  LYS A 131      27.602  24.400  16.912  1.00 22.96     0.005 C 
BRANCH   3   4
ATOM      4  CD  LYS A 131      26.154  24.529  17.299  1.00 24.33     0.041 C 
BRANCH   4   5
ATOM      5  CE  LYS A 131      25.849  23.578  18.451  1.00 26.91     0.338 C 
ATOM      6  NZ  LYS A 131      25.504  24.339  19.675  1.00 27.40     0.618 N 
ENDBRANCH   4   5
ENDBRANCH   3   4
ENDBRANCH   2   3
ENDBRANCH   1   2
END_RES LYS A 131
BEGIN_RES LYS A 135
REMARK  4 active torsions:
REMARK  status: ('A' for Active; 'I' for Inactive)
REMARK    5  A    between atoms: CA   and  CB  
REMARK    6  A    between atoms: CB   and  CG  
REMARK    7  A    between atoms: CG   and  CD  
REMARK    8  A    between atoms: CD   and  CE  
ROOT
ATOM      7  CA  LYS A 135      33.193  34.663   9.290  1.00 25.02     0.186 C 
ENDROOT
BRANCH   7   8
ATOM      8  CB  LYS A 135      32.060  35.360  10.034  1.00 26.63     0.034 C 
BRANCH   8   9
ATOM      9  CG  LYS A 135      30.711  34.730   9.803  1.00 29.45     0.005 C 
BRANCH   9  10
ATOM     10  CD  LYS A 135      30.459  34.531   8.317  1.00 32.00     0.041 C 
BRANCH  10  11
ATOM     11  CE  LYS A 135      29.020  34.865   7.971  1.00 34.25     0.338 C 
ATOM     12  NZ  LYS A 135      28.927  35.520   6.636  1.00 35.99     0.618 N 
ENDBRANCH  10  11
ENDBRANCH   9  10
ENDBRANCH   8   9
ENDBRANCH   7   8
END_RES LYS A 135
