REMARK VINA RESULT:    -5.687      1.851      3.967
REMARK INTER + INTRA:         -15.927
REMARK INTER:                  -9.554
REMARK INTRA:                  -6.373
REMARK UNBOUND:                -6.084
REMARK SMILES CC(=O)N[C@@H]1[C@@H](O)C[C@](O)(C(=O)O)O[C@H]1C(O)[C@H](O)CNC(=O)OCc1cn(-c2c3ccccc3nc3ccccc23)nn1
REMARK SMILES IDX 20 1 18 2 16 3 15 4 9 5 8 6 14 7 6 8 5 9 10 10 11 12 12 13
REMARK SMILES IDX 13 14 7 16 4 18 2 19 1 21 3 22 17 23 19 25 21 27 22 28 23 30
REMARK SMILES IDX 24 31 25 32 26 33 27 34 44 35 28 36 43 37 29 38 30 39 42 40
REMARK SMILES IDX 31 41 35 42 37 43 41 44 32 45 34 46 36 47 38 48 40 49 33 50
REMARK SMILES IDX 39 51
REMARK H PARENT 10 11 13 15 7 17 4 20 17 24 19 26 21 29
REMARK Flexibility Score: inf
ROOT
ATOM      1  C   UNL     1      23.289  38.410   9.591  1.00  0.00     0.154 C 
ENDROOT
BRANCH   1   2
ATOM      2  C   UNL     1      23.723  38.786   8.200  1.00  0.00     0.165 C 
BRANCH   2   3
ATOM      3  C   UNL     1      24.731  39.883   8.337  1.00  0.00     0.176 C 
BRANCH   3   4
ATOM      4  C   UNL     1      26.136  39.490   7.902  1.00  0.00     0.178 C 
ATOM      5  C   UNL     1      27.154  37.982   6.552  1.00  0.00     0.269 C 
ATOM      6  C   UNL     1      28.114  37.455   7.586  1.00  0.00     0.112 C 
ATOM      7  O   UNL     1      25.981  38.403   7.087  1.00  0.00    -0.332 OA
ATOM      8  C   UNL     1      27.765  37.885   8.980  1.00  0.00     0.145 C 
ATOM      9  C   UNL     1      27.017  39.174   9.054  1.00  0.00     0.142 C 
BRANCH   5  10
ATOM     10  O   UNL     1      26.796  36.892   5.692  1.00  0.00    -0.357 OA
ATOM     11  H   UNL     1      26.868  37.182   4.750  1.00  0.00     0.214 HD
ENDBRANCH   5  10
BRANCH   5  12
ATOM     12  C   UNL     1      27.841  38.939   5.651  1.00  0.00     0.364 C 
ATOM     13  O   UNL     1      27.359  39.266   4.534  1.00  0.00    -0.246 OA
BRANCH  12  14
ATOM     14  O   UNL     1      29.066  39.539   5.980  1.00  0.00    -0.477 OA
ATOM     15  H   UNL     1      29.827  38.961   6.303  1.00  0.00     0.296 HD
ENDBRANCH  12  14
ENDBRANCH   5  12
BRANCH   8  16
ATOM     16  O   UNL     1      27.051  36.853   9.599  1.00  0.00    -0.391 OA
ATOM     17  H   UNL     1      26.221  36.642   9.103  1.00  0.00     0.211 HD
ENDBRANCH   8  16
BRANCH   9  18
ATOM     18  N   UNL     1      27.963  40.246   9.387  1.00  0.00    -0.348 N 
ATOM     19  C   UNL     1      28.012  40.851  10.673  1.00  0.00     0.217 C 
ATOM     20  H   UNL     1      28.645  40.611   8.686  1.00  0.00     0.163 HD
ATOM     21  C   UNL     1      28.985  41.940  10.995  1.00  0.00     0.114 C 
ATOM     22  O   UNL     1      27.224  40.471  11.577  1.00  0.00    -0.275 OA
ENDBRANCH   9  18
ENDBRANCH   3   4
BRANCH   3  23
ATOM     23  O   UNL     1      24.791  40.284   9.663  1.00  0.00    -0.388 OA
ATOM     24  H   UNL     1      25.718  40.147   9.977  1.00  0.00     0.211 HD
ENDBRANCH   3  23
ENDBRANCH   2   3
BRANCH   2  25
ATOM     25  O   UNL     1      22.634  39.134   7.437  1.00  0.00    -0.388 OA
ATOM     26  H   UNL     1      21.897  38.484   7.643  1.00  0.00     0.211 HD
ENDBRANCH   2  25
ENDBRANCH   1   2
BRANCH   1  27
ATOM     27  N   UNL     1      24.051  37.401  10.241  1.00  0.00    -0.319 N 
ATOM     28  C   UNL     1      23.868  36.014  10.065  1.00  0.00     0.407 C 
ATOM     29  H   UNL     1      24.843  37.655  10.933  1.00  0.00     0.167 HD
ATOM     30  O   UNL     1      22.987  35.558   9.309  1.00  0.00    -0.225 OA
BRANCH  28  31
ATOM     31  O   UNL     1      24.667  35.069  10.730  1.00  0.00    -0.443 OA
BRANCH  31  32
ATOM     32  C   UNL     1      24.391  34.714  12.085  1.00  0.00     0.294 C 
BRANCH  32  33
ATOM     33  C   UNL     1      25.571  35.095  12.897  1.00  0.00     0.121 A 
ATOM     34  C   UNL     1      26.887  34.774  12.636  1.00  0.00     0.144 A 
ATOM     35  N   UNL     1      25.624  35.818  14.042  1.00  0.00    -0.131 NA
ATOM     36  N   UNL     1      27.680  35.290  13.589  1.00  0.00    -0.219 N 
ATOM     37  N   UNL     1      26.894  35.920  14.434  1.00  0.00    -0.062 NA
BRANCH  36  38
ATOM     38  C   UNL     1      29.085  35.192  13.687  1.00  0.00     0.085 A 
ATOM     39  C   UNL     1      29.671  34.148  14.408  1.00  0.00     0.027 A 
ATOM     40  C   UNL     1      29.929  36.106  13.079  1.00  0.00     0.027 A 
ATOM     41  C   UNL     1      28.885  33.205  15.037  1.00  0.00     0.012 A 
ATOM     42  C   UNL     1      31.020  34.024  14.516  1.00  0.00     0.073 A 
ATOM     43  C   UNL     1      31.295  35.962  13.200  1.00  0.00     0.073 A 
ATOM     44  C   UNL     1      29.354  37.132  12.373  1.00  0.00     0.012 A 
ATOM     45  C   UNL     1      29.413  32.158  15.760  1.00  0.00     0.001 A 
ATOM     46  C   UNL     1      31.568  32.972  15.243  1.00  0.00     0.029 A 
ATOM     47  N   UNL     1      31.808  34.934  13.910  1.00  0.00    -0.248 NA
ATOM     48  C   UNL     1      32.093  36.894  12.582  1.00  0.00     0.029 A 
ATOM     49  C   UNL     1      30.192  38.063  11.756  1.00  0.00     0.001 A 
ATOM     50  C   UNL     1      30.800  32.021  15.877  1.00  0.00     0.002 A 
ATOM     51  C   UNL     1      31.562  37.957  11.852  1.00  0.00     0.002 A 
ENDBRANCH  36  38
ENDBRANCH  32  33
ENDBRANCH  31  32
ENDBRANCH  28  31
ENDBRANCH   1  27
TORSDOF 15
BEGIN_RES LYS A 131
REMARK  4 active torsions:
REMARK  status: ('A' for Active; 'I' for Inactive)
REMARK    1  A    between atoms: CA   and  CB  
REMARK    2  A    between atoms: CB   and  CG  
REMARK    3  A    between atoms: CG   and  CD  
REMARK    4  A    between atoms: CD   and  CE  
ROOT
ATOM      1  CA  LYS A 131      29.867  25.555  16.977  1.00 20.52     0.186 C 
ENDROOT
BRANCH   1   2
ATOM      2  CB  LYS A 131      28.345  25.722  17.026  1.00 20.94     0.034 C 
BRANCH   2   3
ATOM      3  CG  LYS A 131      27.603  24.395  16.973  1.00 22.96     0.005 C 
BRANCH   3   4
ATOM      4  CD  LYS A 131      26.436  24.361  17.921  1.00 24.33     0.041 C 
BRANCH   4   5
ATOM      5  CE  LYS A 131      25.428  23.318  17.449  1.00 26.91     0.338 C 
ATOM      6  NZ  LYS A 131      24.168  23.971  17.021  1.00 27.40     0.618 N 
ENDBRANCH   4   5
ENDBRANCH   3   4
ENDBRANCH   2   3
ENDBRANCH   1   2
END_RES LYS A 131
BEGIN_RES LYS A 135
REMARK  4 active torsions:
REMARK  status: ('A' for Active; 'I' for Inactive)
REMARK    5  A    between atoms: CA   and  CB  
REMARK    6  A    between atoms: CB   and  CG  
REMARK    7  A    between atoms: CG   and  CD  
REMARK    8  A    between atoms: CD   and  CE  
ROOT
ATOM      7  CA  LYS A 135      33.193  34.663   9.290  1.00 25.02     0.186 C 
ENDROOT
BRANCH   7   8
ATOM      8  CB  LYS A 135      32.060  35.360  10.034  1.00 26.63     0.034 C 
BRANCH   8   9
ATOM      9  CG  LYS A 135      30.805  35.513   9.214  1.00 29.45     0.005 C 
BRANCH   9  10
ATOM     10  CD  LYS A 135      30.139  34.163   8.995  1.00 32.00     0.041 C 
BRANCH  10  11
ATOM     11  CE  LYS A 135      28.917  34.023   9.883  1.00 34.25     0.338 C 
ATOM     12  NZ  LYS A 135      27.687  33.802   9.071  1.00 35.99     0.618 N 
ENDBRANCH  10  11
ENDBRANCH   9  10
ENDBRANCH   8   9
ENDBRANCH   7   8
END_RES LYS A 135
