REMARK VINA RESULT:    -5.007      8.953     16.142
REMARK INTER + INTRA:         -14.184
REMARK INTER:                  -7.389
REMARK INTRA:                  -6.795
REMARK UNBOUND:                -5.226
REMARK SMILES COc1ccc(-n2cc(COC(=O)NC[C@@H](O)C(O)[C@@H]3O[C@@](O)(C(=O)O)C[C@H](O)[C@H]3NC(C)=O)nn2)cc1
REMARK SMILES IDX 14 1 12 2 13 3 15 5 16 6 18 7 20 8 22 9 27 10 21 11 28 12
REMARK SMILES IDX 30 13 23 14 24 16 25 17 26 18 29 20 31 22 32 23 33 25 34 26
REMARK SMILES IDX 19 27 17 29 11 31 10 32 9 33 8 34 35 35 7 36 36 37 6 38 5 39
REMARK SMILES IDX 37 40 4 41 38 42 3 43 2 44 1 45
REMARK H PARENT 14 4 23 15 26 19 29 21 31 24 19 28 17 30
REMARK Flexibility Score: inf
ROOT
ATOM      1  N   UNL     1      27.975  38.737   4.938  1.00  0.00    -0.319 N 
ATOM      2  C   UNL     1      29.058  38.361   5.760  1.00  0.00     0.407 C 
ATOM      3  O   UNL     1      30.054  39.083   5.918  1.00  0.00    -0.225 OA
ATOM      4  H   UNL     1      27.195  38.005   4.872  1.00  0.00     0.167 HD
ENDROOT
BRANCH   1   5
ATOM      5  C   UNL     1      27.788  39.925   4.208  1.00  0.00     0.154 C 
BRANCH   5   6
ATOM      6  C   UNL     1      26.792  40.903   4.639  1.00  0.00     0.165 C 
BRANCH   6   7
ATOM      7  C   UNL     1      26.762  41.355   6.013  1.00  0.00     0.176 C 
BRANCH   7   8
ATOM      8  C   UNL     1      25.844  40.567   6.972  1.00  0.00     0.178 C 
ATOM      9  C   UNL     1      23.561  40.901   7.463  1.00  0.00     0.269 C 
ATOM     10  C   UNL     1      23.922  41.626   8.769  1.00  0.00     0.112 C 
ATOM     11  O   UNL     1      24.595  41.057   6.631  1.00  0.00    -0.332 OA
ATOM     12  C   UNL     1      25.051  40.871   9.356  1.00  0.00     0.145 C 
ATOM     13  C   UNL     1      26.219  40.642   8.379  1.00  0.00     0.142 C 
BRANCH   9  14
ATOM     14  O   UNL     1      22.520  41.709   6.930  1.00  0.00    -0.357 OA
ATOM     15  H   UNL     1      22.291  41.430   6.011  1.00  0.00     0.214 HD
ENDBRANCH   9  14
BRANCH   9  16
ATOM     16  C   UNL     1      23.027  39.568   7.662  1.00  0.00     0.364 C 
ATOM     17  O   UNL     1      22.219  39.341   8.597  1.00  0.00    -0.246 OA
BRANCH  16  18
ATOM     18  O   UNL     1      23.330  38.448   6.885  1.00  0.00    -0.477 OA
ATOM     19  H   UNL     1      23.749  38.524   5.955  1.00  0.00     0.296 HD
ENDBRANCH  16  18
ENDBRANCH   9  16
BRANCH  12  20
ATOM     20  O   UNL     1      25.606  41.479  10.493  1.00  0.00    -0.391 OA
ATOM     21  H   UNL     1      26.279  42.135  10.127  1.00  0.00     0.211 HD
ENDBRANCH  12  20
BRANCH  13  22
ATOM     22  N   UNL     1      26.871  39.508   8.957  1.00  0.00    -0.348 N 
ATOM     23  C   UNL     1      28.221  39.373   9.281  1.00  0.00     0.217 C 
ATOM     24  H   UNL     1      26.234  38.680   9.157  1.00  0.00     0.163 HD
ATOM     25  C   UNL     1      28.762  38.114   9.881  1.00  0.00     0.114 C 
ATOM     26  O   UNL     1      28.957  40.338   9.051  1.00  0.00    -0.275 OA
ENDBRANCH  13  22
ENDBRANCH   7   8
BRANCH   7  27
ATOM     27  O   UNL     1      28.053  41.426   6.526  1.00  0.00    -0.388 OA
ATOM     28  H   UNL     1      28.379  40.549   6.850  1.00  0.00     0.211 HD
ENDBRANCH   7  27
ENDBRANCH   6   7
BRANCH   6  29
ATOM     29  O   UNL     1      25.510  40.528   4.145  1.00  0.00    -0.388 OA
ATOM     30  H   UNL     1      25.414  39.540   4.173  1.00  0.00     0.211 HD
ENDBRANCH   6  29
ENDBRANCH   5   6
ENDBRANCH   1   5
BRANCH   2  31
ATOM     31  O   UNL     1      29.056  37.131   6.449  1.00  0.00    -0.443 OA
BRANCH  31  32
ATOM     32  C   UNL     1      28.050  36.185   6.180  1.00  0.00     0.294 C 
BRANCH  32  33
ATOM     33  C   UNL     1      26.978  36.302   7.180  1.00  0.00     0.121 A 
ATOM     34  C   UNL     1      26.876  35.475   8.305  1.00  0.00     0.144 A 
ATOM     35  N   UNL     1      25.941  37.130   7.268  1.00  0.00    -0.131 NA
ATOM     36  N   UNL     1      25.791  35.847   9.008  1.00  0.00    -0.220 N 
ATOM     37  N   UNL     1      25.247  36.862   8.341  1.00  0.00    -0.062 NA
BRANCH  36  38
ATOM     38  C   UNL     1      25.313  35.279  10.219  1.00  0.00     0.067 A 
ATOM     39  C   UNL     1      26.132  34.648  11.126  1.00  0.00     0.032 A 
ATOM     40  C   UNL     1      23.955  35.346  10.544  1.00  0.00     0.032 A 
ATOM     41  C   UNL     1      25.646  34.100  12.308  1.00  0.00     0.048 A 
ATOM     42  C   UNL     1      23.475  34.801  11.718  1.00  0.00     0.048 A 
ATOM     43  C   UNL     1      24.308  34.173  12.614  1.00  0.00     0.119 A 
BRANCH  43  44
ATOM     44  O   UNL     1      23.836  33.635  13.773  1.00  0.00    -0.497 OA
ATOM     45  C   UNL     1      24.630  32.722  14.501  1.00  0.00     0.278 C 
ENDBRANCH  43  44
ENDBRANCH  36  38
ENDBRANCH  32  33
ENDBRANCH  31  32
ENDBRANCH   2  31
TORSDOF 16
BEGIN_RES LYS A 131
REMARK  4 active torsions:
REMARK  status: ('A' for Active; 'I' for Inactive)
REMARK    1  A    between atoms: CA   and  CB  
REMARK    2  A    between atoms: CB   and  CG  
REMARK    3  A    between atoms: CG   and  CD  
REMARK    4  A    between atoms: CD   and  CE  
ROOT
ATOM      1  CA  LYS A 131      29.867  25.555  16.977  1.00 20.52     0.186 C 
ENDROOT
BRANCH   1   2
ATOM      2  CB  LYS A 131      28.345  25.722  17.026  1.00 20.94     0.034 C 
BRANCH   2   3
ATOM      3  CG  LYS A 131      27.600  24.408  16.847  1.00 22.96     0.005 C 
BRANCH   3   4
ATOM      4  CD  LYS A 131      26.544  24.208  17.898  1.00 24.33     0.041 C 
BRANCH   4   5
ATOM      5  CE  LYS A 131      25.164  24.280  17.253  1.00 26.91     0.338 C 
ATOM      6  NZ  LYS A 131      24.498  22.957  17.301  1.00 27.40     0.618 N 
ENDBRANCH   4   5
ENDBRANCH   3   4
ENDBRANCH   2   3
ENDBRANCH   1   2
END_RES LYS A 131
BEGIN_RES LYS A 135
REMARK  4 active torsions:
REMARK  status: ('A' for Active; 'I' for Inactive)
REMARK    5  A    between atoms: CA   and  CB  
REMARK    6  A    between atoms: CB   and  CG  
REMARK    7  A    between atoms: CG   and  CD  
REMARK    8  A    between atoms: CD   and  CE  
ROOT
ATOM      7  CA  LYS A 135      33.193  34.663   9.290  1.00 25.02     0.186 C 
ENDROOT
BRANCH   7   8
ATOM      8  CB  LYS A 135      32.060  35.360  10.034  1.00 26.63     0.034 C 
BRANCH   8   9
ATOM      9  CG  LYS A 135      30.702  34.769   9.754  1.00 29.45     0.005 C 
BRANCH   9  10
ATOM     10  CD  LYS A 135      29.810  34.868  10.982  1.00 32.00     0.041 C 
BRANCH  10  11
ATOM     11  CE  LYS A 135      30.608  35.339  12.183  1.00 34.25     0.338 C 
ATOM     12  NZ  LYS A 135      30.581  34.327  13.275  1.00 35.99     0.618 N 
ENDBRANCH  10  11
ENDBRANCH   9  10
ENDBRANCH   8   9
ENDBRANCH   7   8
END_RES LYS A 135
