REMARK VINA RESULT:    -5.279      4.089     11.629
REMARK INTER + INTRA:         -15.448
REMARK INTER:                  -8.825
REMARK INTRA:                  -6.623
REMARK UNBOUND:                -6.003
REMARK SMILES CC(=O)N[C@@H]1[C@@H](O)C[C@](O)(C(=O)O)O[C@H]1C(O)[C@H](O)CNC(=O)OCc1cn(Cc2ccc3c(c2)OCO3)nn1
REMARK SMILES IDX 21 1 22 2 23 3 20 5 18 6 16 7 15 8 9 9 8 10 14 11 6 12 5 13
REMARK SMILES IDX 10 14 11 16 12 17 13 18 7 20 4 22 2 23 1 25 3 26 17 27 19 29
REMARK SMILES IDX 24 31 25 32 26 33 27 34 40 35 28 36 39 37 29 38 30 39 31 40
REMARK SMILES IDX 35 41 32 42 34 43 33 44 36 45 38 46 37 47
REMARK H PARENT 21 4 10 15 13 19 7 21 4 24 17 28 19 30
REMARK Flexibility Score: inf
ROOT
ATOM      1  N   UNL     1      28.004  28.528  18.427  1.00  0.00    -0.319 N 
ATOM      2  C   UNL     1      27.155  28.766  17.310  1.00  0.00     0.407 C 
ATOM      3  O   UNL     1      26.218  27.943  17.048  1.00  0.00    -0.225 OA
ATOM      4  H   UNL     1      28.752  29.211  18.614  1.00  0.00     0.167 HD
ENDROOT
BRANCH   1   5
ATOM      5  C   UNL     1      27.749  27.349  19.214  1.00  0.00     0.154 C 
BRANCH   5   6
ATOM      6  C   UNL     1      27.677  27.613  20.684  1.00  0.00     0.165 C 
BRANCH   6   7
ATOM      7  C   UNL     1      29.039  27.628  21.342  1.00  0.00     0.176 C 
BRANCH   7   8
ATOM      8  C   UNL     1      29.367  29.022  21.868  1.00  0.00     0.178 C 
ATOM      9  C   UNL     1      29.847  30.752  20.397  1.00  0.00     0.269 C 
ATOM     10  C   UNL     1      30.882  31.373  21.305  1.00  0.00     0.112 C 
ATOM     11  O   UNL     1      28.905  30.009  21.049  1.00  0.00    -0.332 OA
ATOM     12  C   UNL     1      31.057  30.590  22.590  1.00  0.00     0.145 C 
ATOM     13  C   UNL     1      30.819  29.136  22.250  1.00  0.00     0.142 C 
BRANCH   9  14
ATOM     14  O   UNL     1      30.469  30.005  19.378  1.00  0.00    -0.357 OA
ATOM     15  H   UNL     1      30.015  29.160  19.203  1.00  0.00     0.214 HD
ENDBRANCH   9  14
BRANCH   9  16
ATOM     16  C   UNL     1      29.150  31.875  19.712  1.00  0.00     0.364 C 
ATOM     17  O   UNL     1      29.626  33.050  19.763  1.00  0.00    -0.246 OA
BRANCH  16  18
ATOM     18  O   UNL     1      27.974  31.723  18.998  1.00  0.00    -0.477 OA
ATOM     19  H   UNL     1      27.369  30.933  19.241  1.00  0.00     0.296 HD
ENDBRANCH  16  18
ENDBRANCH   9  16
BRANCH  12  20
ATOM     20  O   UNL     1      32.308  30.808  23.157  1.00  0.00    -0.391 OA
ATOM     21  H   UNL     1      32.303  30.396  24.054  1.00  0.00     0.211 HD
ENDBRANCH  12  20
BRANCH  13  22
ATOM     22  N   UNL     1      31.128  28.239  23.305  1.00  0.00    -0.348 N 
ATOM     23  C   UNL     1      32.413  27.657  23.459  1.00  0.00     0.217 C 
ATOM     24  H   UNL     1      30.351  28.011  23.993  1.00  0.00     0.163 HD
ATOM     25  C   UNL     1      32.707  26.714  24.585  1.00  0.00     0.114 C 
ATOM     26  O   UNL     1      33.281  27.975  22.606  1.00  0.00    -0.275 OA
ENDBRANCH  13  22
ENDBRANCH   7   8
BRANCH   7  27
ATOM     27  O   UNL     1      29.985  27.330  20.362  1.00  0.00    -0.388 OA
ATOM     28  H   UNL     1      29.624  26.647  19.745  1.00  0.00     0.211 HD
ENDBRANCH   7  27
ENDBRANCH   6   7
BRANCH   6  29
ATOM     29  O   UNL     1      26.887  26.617  21.256  1.00  0.00    -0.388 OA
ATOM     30  H   UNL     1      27.037  25.735  20.837  1.00  0.00     0.211 HD
ENDBRANCH   6  29
ENDBRANCH   5   6
ENDBRANCH   1   5
BRANCH   2  31
ATOM     31  O   UNL     1      27.301  29.869  16.476  1.00  0.00    -0.443 OA
BRANCH  31  32
ATOM     32  C   UNL     1      28.547  30.060  15.815  1.00  0.00     0.294 C 
BRANCH  32  33
ATOM     33  C   UNL     1      29.064  31.424  16.068  1.00  0.00     0.120 A 
ATOM     34  C   UNL     1      30.384  31.743  16.211  1.00  0.00     0.138 A 
ATOM     35  N   UNL     1      28.384  32.562  16.203  1.00  0.00    -0.132 NA
ATOM     36  N   UNL     1      30.465  33.063  16.430  1.00  0.00    -0.248 N 
ATOM     37  N   UNL     1      29.246  33.547  16.422  1.00  0.00    -0.067 NA
BRANCH  36  38
ATOM     38  C   UNL     1      31.692  33.802  16.635  1.00  0.00     0.181 C 
BRANCH  38  39
ATOM     39  C   UNL     1      31.909  34.633  15.417  1.00  0.00    -0.023 A 
ATOM     40  C   UNL     1      32.922  34.287  14.552  1.00  0.00     0.010 A 
ATOM     41  C   UNL     1      31.133  35.728  15.133  1.00  0.00     0.056 A 
ATOM     42  C   UNL     1      33.142  35.048  13.410  1.00  0.00     0.051 A 
ATOM     43  C   UNL     1      31.355  36.481  13.997  1.00  0.00     0.166 A 
ATOM     44  C   UNL     1      32.358  36.148  13.129  1.00  0.00     0.165 A 
ATOM     45  O   UNL     1      30.707  37.605  13.521  1.00  0.00    -0.454 OA
ATOM     46  O   UNL     1      32.374  37.048  12.083  1.00  0.00    -0.454 OA
ATOM     47  C   UNL     1      31.195  37.830  12.217  1.00  0.00     0.468 C 
ENDBRANCH  38  39
ENDBRANCH  36  38
ENDBRANCH  32  33
ENDBRANCH  31  32
ENDBRANCH   2  31
TORSDOF 16
BEGIN_RES LYS A 131
REMARK  4 active torsions:
REMARK  status: ('A' for Active; 'I' for Inactive)
REMARK    1  A    between atoms: CA   and  CB  
REMARK    2  A    between atoms: CB   and  CG  
REMARK    3  A    between atoms: CG   and  CD  
REMARK    4  A    between atoms: CD   and  CE  
ROOT
ATOM      1  CA  LYS A 131      29.867  25.555  16.977  1.00 20.52     0.186 C 
ENDROOT
BRANCH   1   2
ATOM      2  CB  LYS A 131      28.345  25.722  17.026  1.00 20.94     0.034 C 
BRANCH   2   3
ATOM      3  CG  LYS A 131      27.599  24.456  16.633  1.00 22.96     0.005 C 
BRANCH   3   4
ATOM      4  CD  LYS A 131      26.816  23.881  17.781  1.00 24.33     0.041 C 
BRANCH   4   5
ATOM      5  CE  LYS A 131      25.352  23.738  17.377  1.00 26.91     0.338 C 
ATOM      6  NZ  LYS A 131      24.787  22.477  17.912  1.00 27.40     0.618 N 
ENDBRANCH   4   5
ENDBRANCH   3   4
ENDBRANCH   2   3
ENDBRANCH   1   2
END_RES LYS A 131
BEGIN_RES LYS A 135
REMARK  4 active torsions:
REMARK  status: ('A' for Active; 'I' for Inactive)
REMARK    5  A    between atoms: CA   and  CB  
REMARK    6  A    between atoms: CB   and  CG  
REMARK    7  A    between atoms: CG   and  CD  
REMARK    8  A    between atoms: CD   and  CE  
ROOT
ATOM      7  CA  LYS A 135      33.193  34.663   9.290  1.00 25.02     0.186 C 
ENDROOT
BRANCH   7   8
ATOM      8  CB  LYS A 135      32.060  35.360  10.034  1.00 26.63     0.034 C 
BRANCH   8   9
ATOM      9  CG  LYS A 135      30.775  35.426   9.249  1.00 29.45     0.005 C 
BRANCH   9  10
ATOM     10  CD  LYS A 135      30.179  34.038   9.078  1.00 32.00     0.041 C 
BRANCH  10  11
ATOM     11  CE  LYS A 135      28.664  34.104   9.082  1.00 34.25     0.338 C 
ATOM     12  NZ  LYS A 135      28.159  34.925   7.947  1.00 35.99     0.618 N 
ENDBRANCH  10  11
ENDBRANCH   9  10
ENDBRANCH   8   9
ENDBRANCH   7   8
END_RES LYS A 135
