REMARK VINA RESULT:    -5.280      3.988      9.880
REMARK INTER + INTRA:         -17.627
REMARK INTER:                  -9.910
REMARK INTRA:                  -7.717
REMARK UNBOUND:                -7.717
REMARK SMILES CC(=O)N[C@@H]1[C@@H](O)C[C@](O)(C(=O)O)O[C@H]1C(O)[C@H](O)CNC(=O)OCc1cn(-c2ccc(-c3c4ccc(=O)cc-4oc4cc(O)ccc34)c(C(=O)[O-])c2)nn1
REMARK SMILES IDX 21 1 22 2 23 3 20 5 18 6 16 7 15 8 9 9 8 10 14 11 6 12 5 13
REMARK SMILES IDX 10 14 11 16 12 17 13 18 7 20 4 22 2 23 1 25 3 26 17 27 19 29
REMARK SMILES IDX 24 31 25 32 26 33 27 34 55 35 28 36 54 37 29 38 53 39 30 40
REMARK SMILES IDX 49 41 31 42 32 43 50 44 51 45 52 46 33 47 48 48 34 49 47 50
REMARK SMILES IDX 42 51 40 52 35 53 46 54 43 55 41 56 39 57 36 58 44 59 37 60
REMARK SMILES IDX 38 61 45 62
REMARK H PARENT 21 4 10 15 13 19 7 21 4 24 17 28 19 30 45 63
REMARK Flexibility Score: inf
ROOT
ATOM      1  N   UNL     1      26.484  40.196   7.799  1.00  0.00    -0.319 N 
ATOM      2  C   UNL     1      27.263  39.183   7.141  1.00  0.00     0.407 C 
ATOM      3  O   UNL     1      26.841  38.782   6.021  1.00  0.00    -0.225 OA
ATOM      4  H   UNL     1      26.783  40.561   8.722  1.00  0.00     0.167 HD
ENDROOT
BRANCH   1   5
ATOM      5  C   UNL     1      25.281  40.720   7.199  1.00  0.00     0.154 C 
BRANCH   5   6
ATOM      6  C   UNL     1      24.197  40.758   8.225  1.00  0.00     0.165 C 
BRANCH   6   7
ATOM      7  C   UNL     1      23.315  39.511   8.170  1.00  0.00     0.176 C 
BRANCH   7   8
ATOM      8  C   UNL     1      23.342  38.784   9.505  1.00  0.00     0.178 C 
ATOM      9  C   UNL     1      25.386  38.011  10.310  1.00  0.00     0.269 C 
ATOM     10  C   UNL     1      24.719  36.957  11.167  1.00  0.00     0.112 C 
ATOM     11  O   UNL     1      24.532  39.066  10.112  1.00  0.00    -0.332 OA
ATOM     12  C   UNL     1      23.436  36.516  10.563  1.00  0.00     0.145 C 
ATOM     13  C   UNL     1      23.008  37.339   9.373  1.00  0.00     0.142 C 
BRANCH   9  14
ATOM     14  O   UNL     1      25.819  37.402   9.160  1.00  0.00    -0.357 OA
ATOM     15  H   UNL     1      25.649  37.905   8.344  1.00  0.00     0.214 HD
ENDBRANCH   9  14
BRANCH   9  16
ATOM     16  C   UNL     1      26.553  38.510  11.077  1.00  0.00     0.364 C 
ATOM     17  O   UNL     1      26.848  37.989  12.181  1.00  0.00    -0.246 OA
BRANCH  16  18
ATOM     18  O   UNL     1      27.360  39.546  10.635  1.00  0.00    -0.477 OA
ATOM     19  H   UNL     1      27.594  40.346  11.243  1.00  0.00     0.296 HD
ENDBRANCH  16  18
ENDBRANCH   9  16
BRANCH  12  20
ATOM     20  O   UNL     1      23.475  35.181  10.169  1.00  0.00    -0.391 OA
ATOM     21  H   UNL     1      23.384  34.547  10.914  1.00  0.00     0.211 HD
ENDBRANCH  12  20
BRANCH  13  22
ATOM     22  N   UNL     1      21.552  37.163   9.267  1.00  0.00    -0.348 N 
ATOM     23  C   UNL     1      20.906  36.713   8.102  1.00  0.00     0.217 C 
ATOM     24  H   UNL     1      20.988  37.391  10.117  1.00  0.00     0.163 HD
ATOM     25  C   UNL     1      19.434  36.562   8.073  1.00  0.00     0.114 C 
ATOM     26  O   UNL     1      21.650  36.451   7.100  1.00  0.00    -0.275 OA
ENDBRANCH  13  22
ENDBRANCH   7   8
BRANCH   7  27
ATOM     27  O   UNL     1      23.849  38.711   7.154  1.00  0.00    -0.388 OA
ATOM     28  H   UNL     1      23.925  37.793   7.531  1.00  0.00     0.211 HD
ENDBRANCH   7  27
ENDBRANCH   6   7
BRANCH   6  29
ATOM     29  O   UNL     1      23.425  41.913   8.126  1.00  0.00    -0.388 OA
ATOM     30  H   UNL     1      23.736  42.628   8.730  1.00  0.00     0.211 HD
ENDBRANCH   6  29
ENDBRANCH   5   6
ENDBRANCH   1   5
BRANCH   2  31
ATOM     31  O   UNL     1      28.405  38.658   7.666  1.00  0.00    -0.443 OA
BRANCH  31  32
ATOM     32  C   UNL     1      29.668  39.223   7.403  1.00  0.00     0.294 C 
BRANCH  32  33
ATOM     33  C   UNL     1      30.577  38.901   8.521  1.00  0.00     0.121 A 
ATOM     34  C   UNL     1      30.254  38.228   9.701  1.00  0.00     0.144 A 
ATOM     35  N   UNL     1      31.880  39.197   8.630  1.00  0.00    -0.131 NA
ATOM     36  N   UNL     1      31.357  38.141  10.466  1.00  0.00    -0.220 N 
ATOM     37  N   UNL     1      32.320  38.734   9.793  1.00  0.00    -0.062 NA
BRANCH  36  38
ATOM     38  C   UNL     1      31.385  37.519  11.741  1.00  0.00     0.067 A 
ATOM     39  C   UNL     1      30.442  37.684  12.712  1.00  0.00     0.039 A 
ATOM     40  C   UNL     1      32.461  36.675  12.029  1.00  0.00     0.029 A 
ATOM     41  C   UNL     1      30.513  37.054  13.951  1.00  0.00     0.007 A 
ATOM     42  C   UNL     1      32.551  36.044  13.240  1.00  0.00     0.012 A 
ATOM     43  C   UNL     1      31.568  36.236  14.209  1.00  0.00    -0.008 A 
BRANCH  41  44
ATOM     44  C   UNL     1      29.482  37.254  14.967  1.00  0.00     0.072 C 
ATOM     45  O   UNL     1      28.458  36.503  15.023  1.00  0.00    -0.545 OA
ATOM     46  O   UNL     1      29.600  38.262  15.886  1.00  0.00    -0.545 OA
ENDBRANCH  41  44
BRANCH  43  47
ATOM     47  C   UNL     1      31.756  35.522  15.463  1.00  0.00     0.004 A 
ATOM     48  C   UNL     1      31.241  34.273  15.732  1.00  0.00     0.026 A 
ATOM     49  C   UNL     1      32.503  36.129  16.458  1.00  0.00     0.026 A 
ATOM     50  C   UNL     1      30.490  33.635  14.764  1.00  0.00     0.016 A 
ATOM     51  C   UNL     1      31.459  33.641  16.951  1.00  0.00     0.139 A 
ATOM     52  C   UNL     1      32.703  35.427  17.716  1.00  0.00     0.139 A 
ATOM     53  C   UNL     1      33.062  37.376  16.291  1.00  0.00     0.016 A 
ATOM     54  C   UNL     1      29.951  32.377  14.989  1.00  0.00     0.047 A 
ATOM     55  C   UNL     1      30.937  32.393  17.204  1.00  0.00     0.093 A 
ATOM     56  O   UNL     1      32.167  34.221  17.890  1.00  0.00    -0.456 OA
ATOM     57  C   UNL     1      33.438  36.016  18.702  1.00  0.00     0.099 A 
ATOM     58  C   UNL     1      33.790  37.924  17.309  1.00  0.00     0.053 A 
ATOM     59  C   UNL     1      30.184  31.774  16.209  1.00  0.00     0.119 A 
ATOM     60  C   UNL     1      33.988  37.265  18.512  1.00  0.00     0.182 A 
ATOM     61  O   UNL     1      34.668  37.813  19.420  1.00  0.00    -0.290 OA
BRANCH  59  62
ATOM     62  O   UNL     1      29.649  30.519  16.442  1.00  0.00    -0.508 OA
ATOM     63  H   UNL     1      29.644  30.065  17.336  1.00  0.00     0.293 HD
ENDBRANCH  59  62
ENDBRANCH  43  47
ENDBRANCH  36  38
ENDBRANCH  32  33
ENDBRANCH  31  32
ENDBRANCH   2  31
TORSDOF 18
BEGIN_RES LYS A 131
REMARK  4 active torsions:
REMARK  status: ('A' for Active; 'I' for Inactive)
REMARK    1  A    between atoms: CA   and  CB  
REMARK    2  A    between atoms: CB   and  CG  
REMARK    3  A    between atoms: CG   and  CD  
REMARK    4  A    between atoms: CD   and  CE  
ROOT
ATOM      1  CA  LYS A 131      29.867  25.555  16.977  1.00 20.52     0.186 C 
ENDROOT
BRANCH   1   2
ATOM      2  CB  LYS A 131      28.345  25.722  17.026  1.00 20.94     0.034 C 
BRANCH   2   3
ATOM      3  CG  LYS A 131      27.601  24.401  16.904  1.00 22.96     0.005 C 
BRANCH   3   4
ATOM      4  CD  LYS A 131      26.230  24.464  17.517  1.00 24.33     0.041 C 
BRANCH   4   5
ATOM      5  CE  LYS A 131      25.649  23.057  17.610  1.00 26.91     0.338 C 
ATOM      6  NZ  LYS A 131      24.253  23.038  17.113  1.00 27.40     0.618 N 
ENDBRANCH   4   5
ENDBRANCH   3   4
ENDBRANCH   2   3
ENDBRANCH   1   2
END_RES LYS A 131
BEGIN_RES LYS A 135
REMARK  4 active torsions:
REMARK  status: ('A' for Active; 'I' for Inactive)
REMARK    5  A    between atoms: CA   and  CB  
REMARK    6  A    between atoms: CB   and  CG  
REMARK    7  A    between atoms: CG   and  CD  
REMARK    8  A    between atoms: CD   and  CE  
ROOT
ATOM      7  CA  LYS A 135      33.193  34.663   9.290  1.00 25.02     0.186 C 
ENDROOT
BRANCH   7   8
ATOM      8  CB  LYS A 135      32.060  35.360  10.034  1.00 26.63     0.034 C 
BRANCH   8   9
ATOM      9  CG  LYS A 135      30.731  34.663   9.897  1.00 29.45     0.005 C 
BRANCH   9  10
ATOM     10  CD  LYS A 135      30.322  34.570   8.436  1.00 32.00     0.041 C 
BRANCH  10  11
ATOM     11  CE  LYS A 135      28.811  34.565   8.305  1.00 34.25     0.338 C 
ATOM     12  NZ  LYS A 135      28.177  33.834   9.437  1.00 35.99     0.618 N 
ENDBRANCH  10  11
ENDBRANCH   9  10
ENDBRANCH   8   9
ENDBRANCH   7   8
END_RES LYS A 135
