REMARK VINA RESULT:    -4.519      4.175      8.158
REMARK INTER + INTRA:         -14.841
REMARK INTER:                  -8.449
REMARK INTRA:                  -6.393
REMARK UNBOUND:                -6.624
REMARK SMILES CC(=O)N[C@@H]1[C@@H](O)C[C@](O)(C(=O)O)O[C@H]1C(O)[C@H](O)CNC(=O)OCc1cn(-c2cccc(S(N)(=O)=O)c2)nn1
REMARK SMILES IDX 21 1 22 2 23 3 20 5 18 6 16 7 15 8 9 9 8 10 14 11 6 12 5 13
REMARK SMILES IDX 10 14 11 16 12 17 13 18 7 20 4 22 2 23 1 25 3 26 17 27 19 29
REMARK SMILES IDX 24 31 25 32 26 33 27 34 40 35 28 36 39 37 29 38 38 39 30 40
REMARK SMILES IDX 33 41 31 42 32 43 34 44 36 45 37 46 35 47
REMARK H PARENT 21 4 10 15 13 19 7 21 4 24 17 28 19 30 35 48 35 49
REMARK Flexibility Score: inf
ROOT
ATOM      1  N   UNL     1      29.609  30.707  18.140  1.00  0.00    -0.319 N 
ATOM      2  C   UNL     1      28.739  30.330  19.195  1.00  0.00     0.407 C 
ATOM      3  O   UNL     1      28.472  31.162  20.079  1.00  0.00    -0.225 OA
ATOM      4  H   UNL     1      29.790  29.952  17.425  1.00  0.00     0.167 HD
ENDROOT
BRANCH   1   5
ATOM      5  C   UNL     1      30.202  32.017  18.045  1.00  0.00     0.154 C 
BRANCH   5   6
ATOM      6  C   UNL     1      30.577  32.340  16.614  1.00  0.00     0.165 C 
BRANCH   6   7
ATOM      7  C   UNL     1      29.441  33.117  15.964  1.00  0.00     0.176 C 
BRANCH   7   8
ATOM      8  C   UNL     1      29.857  33.475  14.539  1.00  0.00     0.178 C 
ATOM      9  C   UNL     1      31.572  34.997  14.198  1.00  0.00     0.269 C 
ATOM     10  C   UNL     1      30.964  35.526  12.920  1.00  0.00     0.112 C 
ATOM     11  O   UNL     1      31.197  33.697  14.473  1.00  0.00    -0.332 OA
ATOM     12  C   UNL     1      29.566  35.058  12.700  1.00  0.00     0.145 C 
ATOM     13  C   UNL     1      28.995  34.596  14.041  1.00  0.00     0.142 C 
BRANCH   9  14
ATOM     14  O   UNL     1      31.280  35.813  15.288  1.00  0.00    -0.357 OA
ATOM     15  H   UNL     1      30.928  35.235  16.035  1.00  0.00     0.214 HD
ENDBRANCH   9  14
BRANCH   9  16
ATOM     16  C   UNL     1      33.047  35.006  14.012  1.00  0.00     0.364 C 
ATOM     17  O   UNL     1      33.832  35.250  14.966  1.00  0.00    -0.246 OA
BRANCH  16  18
ATOM     18  O   UNL     1      33.634  34.743  12.773  1.00  0.00    -0.477 OA
ATOM     19  H   UNL     1      34.415  34.101  12.701  1.00  0.00     0.296 HD
ENDBRANCH  16  18
ENDBRANCH   9  16
BRANCH  12  20
ATOM     20  O   UNL     1      28.738  36.001  12.116  1.00  0.00    -0.391 OA
ATOM     21  H   UNL     1      28.353  35.702  11.244  1.00  0.00     0.211 HD
ENDBRANCH  12  20
BRANCH  13  22
ATOM     22  N   UNL     1      27.661  34.062  13.827  1.00  0.00    -0.348 N 
ATOM     23  C   UNL     1      26.483  34.827  14.073  1.00  0.00     0.217 C 
ATOM     24  H   UNL     1      27.562  33.069  13.476  1.00  0.00     0.163 HD
ATOM     25  C   UNL     1      25.171  34.178  13.818  1.00  0.00     0.114 C 
ATOM     26  O   UNL     1      26.618  35.992  14.484  1.00  0.00    -0.275 OA
ENDBRANCH  13  22
ENDBRANCH   7   8
BRANCH   7  27
ATOM     27  O   UNL     1      28.342  32.279  15.896  1.00  0.00    -0.388 OA
ATOM     28  H   UNL     1      27.523  32.735  16.203  1.00  0.00     0.211 HD
ENDBRANCH   7  27
ENDBRANCH   6   7
BRANCH   6  29
ATOM     29  O   UNL     1      30.775  31.127  15.932  1.00  0.00    -0.388 OA
ATOM     30  H   UNL     1      29.941  30.561  15.957  1.00  0.00     0.211 HD
ENDBRANCH   6  29
ENDBRANCH   5   6
ENDBRANCH   1   5
BRANCH   2  31
ATOM     31  O   UNL     1      28.181  29.049  19.258  1.00  0.00    -0.443 OA
BRANCH  31  32
ATOM     32  C   UNL     1      26.816  28.830  18.966  1.00  0.00     0.294 C 
BRANCH  32  33
ATOM     33  C   UNL     1      26.502  29.318  17.600  1.00  0.00     0.121 A 
ATOM     34  C   UNL     1      25.251  29.714  17.168  1.00  0.00     0.144 A 
ATOM     35  N   UNL     1      27.324  29.468  16.555  1.00  0.00    -0.131 NA
ATOM     36  N   UNL     1      25.409  30.078  15.886  1.00  0.00    -0.220 N 
ATOM     37  N   UNL     1      26.668  29.932  15.502  1.00  0.00    -0.062 NA
BRANCH  36  38
ATOM     38  C   UNL     1      24.373  30.559  15.032  1.00  0.00     0.068 A 
ATOM     39  C   UNL     1      23.344  31.355  15.484  1.00  0.00     0.050 A 
ATOM     40  C   UNL     1      24.368  30.232  13.686  1.00  0.00     0.028 A 
ATOM     41  C   UNL     1      22.335  31.821  14.643  1.00  0.00     0.084 A 
ATOM     42  C   UNL     1      23.389  30.677  12.840  1.00  0.00     0.004 A 
ATOM     43  C   UNL     1      22.375  31.471  13.321  1.00  0.00     0.022 A 
BRANCH  41  44
ATOM     44  S   UNL     1      21.042  32.823  15.218  1.00  0.00     0.238 S 
ATOM     45  O   UNL     1      20.768  33.882  14.181  1.00  0.00    -0.207 OA
ATOM     46  O   UNL     1      21.491  33.551  16.463  1.00  0.00    -0.207 OA
BRANCH  44  47
ATOM     47  N   UNL     1      19.609  31.919  15.493  1.00  0.00    -0.225 NA
ATOM     48  H   UNL     1      19.778  30.921  15.277  1.00  0.00     0.137 HD
ATOM     49  H   UNL     1      18.794  32.292  14.963  1.00  0.00     0.137 HD
ENDBRANCH  44  47
ENDBRANCH  41  44
ENDBRANCH  36  38
ENDBRANCH  32  33
ENDBRANCH  31  32
ENDBRANCH   2  31
TORSDOF 17
BEGIN_RES LYS A 131
REMARK  4 active torsions:
REMARK  status: ('A' for Active; 'I' for Inactive)
REMARK    1  A    between atoms: CA   and  CB  
REMARK    2  A    between atoms: CB   and  CG  
REMARK    3  A    between atoms: CG   and  CD  
REMARK    4  A    between atoms: CD   and  CE  
ROOT
ATOM      1  CA  LYS A 131      29.867  25.555  16.977  1.00 20.52     0.186 C 
ENDROOT
BRANCH   1   2
ATOM      2  CB  LYS A 131      28.345  25.722  17.026  1.00 20.94     0.034 C 
BRANCH   2   3
ATOM      3  CG  LYS A 131      27.602  24.400  16.913  1.00 22.96     0.005 C 
BRANCH   3   4
ATOM      4  CD  LYS A 131      26.156  24.528  17.305  1.00 24.33     0.041 C 
BRANCH   4   5
ATOM      5  CE  LYS A 131      25.892  23.695  18.556  1.00 26.91     0.338 C 
ATOM      6  NZ  LYS A 131      25.521  24.569  19.693  1.00 27.40     0.618 N 
ENDBRANCH   4   5
ENDBRANCH   3   4
ENDBRANCH   2   3
ENDBRANCH   1   2
END_RES LYS A 131
BEGIN_RES LYS A 135
REMARK  4 active torsions:
REMARK  status: ('A' for Active; 'I' for Inactive)
REMARK    5  A    between atoms: CA   and  CB  
REMARK    6  A    between atoms: CB   and  CG  
REMARK    7  A    between atoms: CG   and  CD  
REMARK    8  A    between atoms: CD   and  CE  
ROOT
ATOM      7  CA  LYS A 135      33.193  34.663   9.290  1.00 25.02     0.186 C 
ENDROOT
BRANCH   7   8
ATOM      8  CB  LYS A 135      32.060  35.360  10.034  1.00 26.63     0.034 C 
BRANCH   8   9
ATOM      9  CG  LYS A 135      30.804  35.510   9.215  1.00 29.45     0.005 C 
BRANCH   9  10
ATOM     10  CD  LYS A 135      30.124  34.162   9.024  1.00 32.00     0.041 C 
BRANCH  10  11
ATOM     11  CE  LYS A 135      28.658  34.349   8.683  1.00 34.25     0.338 C 
ATOM     12  NZ  LYS A 135      27.785  33.661   9.673  1.00 35.99     0.618 N 
ENDBRANCH  10  11
ENDBRANCH   9  10
ENDBRANCH   8   9
ENDBRANCH   7   8
END_RES LYS A 135
