REMARK VINA RESULT:    -4.370      5.168      9.719
REMARK INTER + INTRA:         -13.349
REMARK INTER:                  -8.793
REMARK INTRA:                  -4.556
REMARK UNBOUND:                -5.786
REMARK SMILES CC(=O)N[C@@H]1[C@@H](O)C[C@](O)(C(=O)O)O[C@H]1C(O)[C@H](O)CNC(=O)OCc1cn(C2CCN(C)CC2)nn1
REMARK SMILES IDX 20 1 18 2 16 3 15 4 9 5 8 6 14 7 6 8 5 9 10 10 11 12 12 13
REMARK SMILES IDX 13 14 7 16 4 18 2 19 1 21 3 22 17 23 19 25 21 27 22 28 23 30
REMARK SMILES IDX 24 31 25 32 26 33 27 34 37 35 28 36 36 37 29 38 30 39 35 40
REMARK SMILES IDX 31 41 34 42 32 43 33 44
REMARK H PARENT 10 11 13 15 7 17 4 20 17 24 19 26 21 29
REMARK Flexibility Score: inf
ROOT
ATOM      1  C   UNL     1      29.826  31.062  16.184  1.00  0.00     0.154 C 
ENDROOT
BRANCH   1   2
ATOM      2  C   UNL     1      30.484  32.346  15.801  1.00  0.00     0.165 C 
BRANCH   2   3
ATOM      3  C   UNL     1      29.551  33.278  15.056  1.00  0.00     0.176 C 
BRANCH   3   4
ATOM      4  C   UNL     1      30.361  34.302  14.290  1.00  0.00     0.178 C 
ATOM      5  C   UNL     1      32.137  35.810  14.452  1.00  0.00     0.269 C 
ATOM      6  C   UNL     1      31.340  36.863  13.746  1.00  0.00     0.112 C 
ATOM      7  O   UNL     1      31.425  34.779  14.989  1.00  0.00    -0.332 OA
ATOM      8  C   UNL     1      30.278  36.256  12.869  1.00  0.00     0.145 C 
ATOM      9  C   UNL     1      29.434  35.350  13.761  1.00  0.00     0.142 C 
BRANCH   5  10
ATOM     10  O   UNL     1      32.915  36.462  15.449  1.00  0.00    -0.357 OA
ATOM     11  H   UNL     1      33.162  37.376  15.165  1.00  0.00     0.214 HD
ENDBRANCH   5  10
BRANCH   5  12
ATOM     12  C   UNL     1      33.096  35.225  13.480  1.00  0.00     0.364 C 
ATOM     13  O   UNL     1      33.266  35.774  12.362  1.00  0.00    -0.246 OA
BRANCH  12  14
ATOM     14  O   UNL     1      33.847  34.083  13.712  1.00  0.00    -0.477 OA
ATOM     15  H   UNL     1      34.865  34.097  13.775  1.00  0.00     0.296 HD
ENDBRANCH  12  14
ENDBRANCH   5  12
BRANCH   8  16
ATOM     16  O   UNL     1      29.460  37.235  12.298  1.00  0.00    -0.391 OA
ATOM     17  H   UNL     1      29.937  37.788  11.641  1.00  0.00     0.211 HD
ENDBRANCH   8  16
BRANCH   9  18
ATOM     18  N   UNL     1      28.458  34.738  12.849  1.00  0.00    -0.348 N 
ATOM     19  C   UNL     1      27.118  35.169  12.785  1.00  0.00     0.217 C 
ATOM     20  H   UNL     1      28.802  33.974  12.254  1.00  0.00     0.163 HD
ATOM     21  C   UNL     1      26.131  34.531  11.845  1.00  0.00     0.114 C 
ATOM     22  O   UNL     1      26.755  36.109  13.538  1.00  0.00    -0.275 OA
ENDBRANCH   9  18
ENDBRANCH   3   4
BRANCH   3  23
ATOM     23  O   UNL     1      28.686  33.852  15.958  1.00  0.00    -0.388 OA
ATOM     24  H   UNL     1      27.916  33.254  16.136  1.00  0.00     0.211 HD
ENDBRANCH   3  23
ENDBRANCH   2   3
BRANCH   2  25
ATOM     25  O   UNL     1      31.562  32.044  14.936  1.00  0.00    -0.388 OA
ATOM     26  H   UNL     1      32.381  31.828  15.456  1.00  0.00     0.211 HD
ENDBRANCH   2  25
ENDBRANCH   1   2
BRANCH   1  27
ATOM     27  N   UNL     1      28.588  30.937  15.446  1.00  0.00    -0.319 N 
ATOM     28  C   UNL     1      27.342  30.575  16.024  1.00  0.00     0.407 C 
ATOM     29  H   UNL     1      28.542  31.116  14.397  1.00  0.00     0.167 HD
ATOM     30  O   UNL     1      27.282  30.346  17.241  1.00  0.00    -0.225 OA
BRANCH  28  31
ATOM     31  O   UNL     1      26.178  30.466  15.272  1.00  0.00    -0.443 OA
BRANCH  31  32
ATOM     32  C   UNL     1      25.027  29.848  15.813  1.00  0.00     0.294 C 
BRANCH  32  33
ATOM     33  C   UNL     1      24.011  29.612  14.756  1.00  0.00     0.120 A 
ATOM     34  C   UNL     1      22.773  29.051  14.880  1.00  0.00     0.138 A 
ATOM     35  N   UNL     1      24.144  29.919  13.452  1.00  0.00    -0.132 NA
ATOM     36  N   UNL     1      22.181  29.025  13.674  1.00  0.00    -0.249 N 
ATOM     37  N   UNL     1      23.054  29.567  12.821  1.00  0.00    -0.067 NA
BRANCH  36  38
ATOM     38  C   UNL     1      20.862  28.509  13.383  1.00  0.00     0.111 C 
ATOM     39  C   UNL     1      20.362  28.994  12.040  1.00  0.00     0.043 C 
ATOM     40  C   UNL     1      19.898  28.803  14.494  1.00  0.00     0.043 C 
ATOM     41  C   UNL     1      19.730  30.364  12.119  1.00  0.00     0.086 C 
ATOM     42  C   UNL     1      19.366  30.201  14.487  1.00  0.00     0.086 C 
ATOM     43  N   UNL     1      18.801  30.487  13.203  1.00  0.00    -0.306 NA
ATOM     44  C   UNL     1      17.604  29.719  13.015  1.00  0.00     0.105 C 
ENDBRANCH  36  38
ENDBRANCH  32  33
ENDBRANCH  31  32
ENDBRANCH  28  31
ENDBRANCH   1  27
TORSDOF 15
BEGIN_RES LYS A 131
REMARK  4 active torsions:
REMARK  status: ('A' for Active; 'I' for Inactive)
REMARK    1  A    between atoms: CA   and  CB  
REMARK    2  A    between atoms: CB   and  CG  
REMARK    3  A    between atoms: CG   and  CD  
REMARK    4  A    between atoms: CD   and  CE  
ROOT
ATOM      1  CA  LYS A 131      29.867  25.555  16.977  1.00 20.52     0.186 C 
ENDROOT
BRANCH   1   2
ATOM      2  CB  LYS A 131      28.345  25.722  17.026  1.00 20.94     0.034 C 
BRANCH   2   3
ATOM      3  CG  LYS A 131      27.601  24.406  16.858  1.00 22.96     0.005 C 
BRANCH   3   4
ATOM      4  CD  LYS A 131      26.426  24.297  17.791  1.00 24.33     0.041 C 
BRANCH   4   5
ATOM      5  CE  LYS A 131      26.054  25.683  18.305  1.00 26.91     0.338 C 
ATOM      6  NZ  LYS A 131      25.809  25.646  19.767  1.00 27.40     0.618 N 
ENDBRANCH   4   5
ENDBRANCH   3   4
ENDBRANCH   2   3
ENDBRANCH   1   2
END_RES LYS A 131
BEGIN_RES LYS A 135
REMARK  4 active torsions:
REMARK  status: ('A' for Active; 'I' for Inactive)
REMARK    5  A    between atoms: CA   and  CB  
REMARK    6  A    between atoms: CB   and  CG  
REMARK    7  A    between atoms: CG   and  CD  
REMARK    8  A    between atoms: CD   and  CE  
ROOT
ATOM      7  CA  LYS A 135      33.193  34.663   9.290  1.00 25.02     0.186 C 
ENDROOT
BRANCH   7   8
ATOM      8  CB  LYS A 135      32.060  35.360  10.034  1.00 26.63     0.034 C 
BRANCH   8   9
ATOM      9  CG  LYS A 135      30.747  34.625   9.957  1.00 29.45     0.005 C 
BRANCH   9  10
ATOM     10  CD  LYS A 135      30.291  34.489   8.513  1.00 32.00     0.041 C 
BRANCH  10  11
ATOM     11  CE  LYS A 135      28.779  34.572   8.421  1.00 34.25     0.338 C 
ATOM     12  NZ  LYS A 135      28.275  35.844   9.008  1.00 35.99     0.618 N 
ENDBRANCH  10  11
ENDBRANCH   9  10
ENDBRANCH   8   9
ENDBRANCH   7   8
END_RES LYS A 135
