REMARK VINA RESULT:    -4.980      4.698      8.612
REMARK INTER + INTRA:         -14.477
REMARK INTER:                  -8.760
REMARK INTRA:                  -5.717
REMARK UNBOUND:                -5.276
REMARK SMILES COc1ccc(Cn2cc(COC(=O)NC[C@@H](O)C(O)[C@@H]3O[C@@](O)(C(=O)O)C[C@H](O)[C@H]3NC(C)=O)nn2)cc1
REMARK SMILES IDX 15 1 13 2 14 3 16 5 17 6 19 7 21 8 23 9 28 10 22 11 29 12
REMARK SMILES IDX 31 13 24 14 25 16 26 17 27 18 30 20 32 22 33 23 34 25 35 26
REMARK SMILES IDX 20 27 18 29 12 31 11 32 10 33 9 34 36 35 8 36 37 37 7 38
REMARK SMILES IDX 6 39 5 40 38 41 4 42 39 43 3 44 2 45 1 46
REMARK H PARENT 15 4 24 15 27 19 30 21 32 24 20 28 18 30
REMARK Flexibility Score: inf
ROOT
ATOM      1  N   UNL     1      23.050  32.557  14.333  1.00  0.00    -0.319 N 
ATOM      2  C   UNL     1      23.445  31.474  13.519  1.00  0.00     0.407 C 
ATOM      3  O   UNL     1      22.689  30.938  12.673  1.00  0.00    -0.225 OA
ATOM      4  H   UNL     1      23.761  32.923  15.009  1.00  0.00     0.167 HD
ENDROOT
BRANCH   1   5
ATOM      5  C   UNL     1      21.762  33.173  14.289  1.00  0.00     0.154 C 
BRANCH   5   6
ATOM      6  C   UNL     1      21.748  34.562  13.747  1.00  0.00     0.165 C 
BRANCH   6   7
ATOM      7  C   UNL     1      21.944  34.608  12.248  1.00  0.00     0.176 C 
BRANCH   7   8
ATOM      8  C   UNL     1      23.351  34.824  11.819  1.00  0.00     0.178 C 
ATOM      9  C   UNL     1      25.330  35.900  12.347  1.00  0.00     0.269 C 
ATOM     10  C   UNL     1      25.579  36.280  10.915  1.00  0.00     0.112 C 
ATOM     11  O   UNL     1      24.033  35.677  12.683  1.00  0.00    -0.332 OA
ATOM     12  C   UNL     1      24.702  35.515   9.946  1.00  0.00     0.145 C 
ATOM     13  C   UNL     1      23.311  35.569  10.480  1.00  0.00     0.142 C 
BRANCH   9  14
ATOM     14  O   UNL     1      25.744  37.030  13.101  1.00  0.00    -0.357 OA
ATOM     15  H   UNL     1      25.795  36.714  14.035  1.00  0.00     0.214 HD
ENDBRANCH   9  14
BRANCH   9  16
ATOM     16  C   UNL     1      26.270  34.808  12.696  1.00  0.00     0.364 C 
ATOM     17  O   UNL     1      27.413  34.700  12.161  1.00  0.00    -0.246 OA
BRANCH  16  18
ATOM     18  O   UNL     1      25.945  33.833  13.637  1.00  0.00    -0.477 OA
ATOM     19  H   UNL     1      26.206  32.875  13.497  1.00  0.00     0.296 HD
ENDBRANCH  16  18
ENDBRANCH   9  16
BRANCH  12  20
ATOM     20  O   UNL     1      24.830  36.048   8.678  1.00  0.00    -0.391 OA
ATOM     21  H   UNL     1      25.474  35.531   8.170  1.00  0.00     0.211 HD
ENDBRANCH  12  20
BRANCH  13  22
ATOM     22  N   UNL     1      22.307  35.087   9.588  1.00  0.00    -0.348 N 
ATOM     23  C   UNL     1      21.587  35.872   8.676  1.00  0.00     0.217 C 
ATOM     24  H   UNL     1      22.088  34.054   9.611  1.00  0.00     0.163 HD
ATOM     25  C   UNL     1      20.567  35.248   7.800  1.00  0.00     0.114 C 
ATOM     26  O   UNL     1      21.798  37.086   8.598  1.00  0.00    -0.275 OA
ENDBRANCH  13  22
ENDBRANCH   7   8
BRANCH   7  27
ATOM     27  O   UNL     1      21.424  33.462  11.686  1.00  0.00    -0.388 OA
ATOM     28  H   UNL     1      20.545  33.184  12.026  1.00  0.00     0.211 HD
ENDBRANCH   7  27
ENDBRANCH   6   7
BRANCH   6  29
ATOM     29  O   UNL     1      22.583  35.417  14.403  1.00  0.00    -0.388 OA
ATOM     30  H   UNL     1      22.036  36.199  14.718  1.00  0.00     0.211 HD
ENDBRANCH   6  29
ENDBRANCH   5   6
ENDBRANCH   1   5
BRANCH   2  31
ATOM     31  O   UNL     1      24.746  30.952  13.644  1.00  0.00    -0.443 OA
BRANCH  31  32
ATOM     32  C   UNL     1      25.055  30.200  14.796  1.00  0.00     0.294 C 
BRANCH  32  33
ATOM     33  C   UNL     1      26.067  30.858  15.642  1.00  0.00     0.120 A 
ATOM     34  C   UNL     1      27.255  30.302  16.125  1.00  0.00     0.138 A 
ATOM     35  N   UNL     1      26.054  32.114  16.120  1.00  0.00    -0.132 NA
ATOM     36  N   UNL     1      27.896  31.223  16.857  1.00  0.00    -0.248 N 
ATOM     37  N   UNL     1      27.149  32.310  16.839  1.00  0.00    -0.067 NA
BRANCH  36  38
ATOM     38  C   UNL     1      29.154  31.086  17.544  1.00  0.00     0.181 C 
BRANCH  38  39
ATOM     39  C   UNL     1      30.154  32.053  17.043  1.00  0.00    -0.026 A 
ATOM     40  C   UNL     1      30.658  31.938  15.767  1.00  0.00     0.009 A 
ATOM     41  C   UNL     1      30.583  33.070  17.855  1.00  0.00     0.009 A 
ATOM     42  C   UNL     1      31.600  32.853  15.304  1.00  0.00     0.047 A 
ATOM     43  C   UNL     1      31.524  33.993  17.403  1.00  0.00     0.047 A 
ATOM     44  C   UNL     1      32.025  33.879  16.132  1.00  0.00     0.118 A 
BRANCH  44  45
ATOM     45  O   UNL     1      32.970  34.787  15.649  1.00  0.00    -0.497 OA
ATOM     46  C   UNL     1      33.315  34.769  14.274  1.00  0.00     0.278 C 
ENDBRANCH  44  45
ENDBRANCH  38  39
ENDBRANCH  36  38
ENDBRANCH  32  33
ENDBRANCH  31  32
ENDBRANCH   2  31
TORSDOF 17
BEGIN_RES LYS A 131
REMARK  4 active torsions:
REMARK  status: ('A' for Active; 'I' for Inactive)
REMARK    1  A    between atoms: CA   and  CB  
REMARK    2  A    between atoms: CB   and  CG  
REMARK    3  A    between atoms: CG   and  CD  
REMARK    4  A    between atoms: CD   and  CE  
ROOT
ATOM      1  CA  LYS A 131      29.867  25.555  16.977  1.00 20.52     0.186 C 
ENDROOT
BRANCH   1   2
ATOM      2  CB  LYS A 131      28.345  25.722  17.026  1.00 20.94     0.034 C 
BRANCH   2   3
ATOM      3  CG  LYS A 131      27.601  24.406  16.857  1.00 22.96     0.005 C 
BRANCH   3   4
ATOM      4  CD  LYS A 131      26.748  24.081  18.052  1.00 24.33     0.041 C 
BRANCH   4   5
ATOM      5  CE  LYS A 131      25.715  25.185  18.256  1.00 26.91     0.338 C 
ATOM      6  NZ  LYS A 131      25.823  25.751  19.621  1.00 27.40     0.618 N 
ENDBRANCH   4   5
ENDBRANCH   3   4
ENDBRANCH   2   3
ENDBRANCH   1   2
END_RES LYS A 131
BEGIN_RES LYS A 135
REMARK  4 active torsions:
REMARK  status: ('A' for Active; 'I' for Inactive)
REMARK    5  A    between atoms: CA   and  CB  
REMARK    6  A    between atoms: CB   and  CG  
REMARK    7  A    between atoms: CG   and  CD  
REMARK    8  A    between atoms: CD   and  CE  
ROOT
ATOM      7  CA  LYS A 135      33.193  34.663   9.290  1.00 25.02     0.186 C 
ENDROOT
BRANCH   7   8
ATOM      8  CB  LYS A 135      32.060  35.360  10.034  1.00 26.63     0.034 C 
BRANCH   8   9
ATOM      9  CG  LYS A 135      30.788  35.465   9.233  1.00 29.45     0.005 C 
BRANCH   9  10
ATOM     10  CD  LYS A 135      30.249  34.083   8.898  1.00 32.00     0.041 C 
BRANCH  10  11
ATOM     11  CE  LYS A 135      28.739  34.052   9.039  1.00 34.25     0.338 C 
ATOM     12  NZ  LYS A 135      28.092  35.005   8.095  1.00 35.99     0.618 N 
ENDBRANCH  10  11
ENDBRANCH   9  10
ENDBRANCH   8   9
ENDBRANCH   7   8
END_RES LYS A 135
