REMARK VINA RESULT:    -4.771      3.046      6.942
REMARK INTER + INTRA:         -16.028
REMARK INTER:                  -9.751
REMARK INTRA:                  -6.277
REMARK UNBOUND:                -6.934
REMARK SMILES CC(=O)N[C@@H]1[C@@H](O)C[C@](O)(C(=O)O)O[C@H]1C(O)[C@H](O)CNC(=O)OCc1cn(C(C)CC(=O)c2ccccc2)nn1
REMARK SMILES IDX 21 1 22 2 23 3 20 5 18 6 16 7 15 8 9 9 8 10 14 11 6 12 5 13
REMARK SMILES IDX 10 14 11 16 12 17 13 18 7 20 4 22 2 23 1 25 3 26 17 27 19 29
REMARK SMILES IDX 24 31 25 32 26 33 27 34 41 35 28 36 40 37 29 38 30 39 31 40
REMARK SMILES IDX 32 41 33 42 34 43 35 44 39 45 36 46 38 47 37 48
REMARK H PARENT 21 4 10 15 13 19 7 21 4 24 17 28 19 30
REMARK Flexibility Score: inf
ROOT
ATOM      1  N   UNL     1      30.403  34.435  19.217  1.00  0.00    -0.319 N 
ATOM      2  C   UNL     1      30.914  35.765  19.207  1.00  0.00     0.407 C 
ATOM      3  O   UNL     1      30.229  36.672  19.714  1.00  0.00    -0.225 OA
ATOM      4  H   UNL     1      31.048  33.716  18.767  1.00  0.00     0.167 HD
ENDROOT
BRANCH   1   5
ATOM      5  C   UNL     1      29.126  34.054  19.778  1.00  0.00     0.154 C 
BRANCH   5   6
ATOM      6  C   UNL     1      28.029  34.049  18.737  1.00  0.00     0.165 C 
BRANCH   6   7
ATOM      7  C   UNL     1      28.390  33.191  17.543  1.00  0.00     0.176 C 
BRANCH   7   8
ATOM      8  C   UNL     1      27.294  32.248  17.144  1.00  0.00     0.178 C 
ATOM      9  C   UNL     1      28.029  30.122  17.768  1.00  0.00     0.269 C 
ATOM     10  C   UNL     1      28.213  29.695  16.333  1.00  0.00     0.112 C 
ATOM     11  O   UNL     1      27.170  31.161  17.967  1.00  0.00    -0.332 OA
ATOM     12  C   UNL     1      28.452  30.847  15.404  1.00  0.00     0.145 C 
ATOM     13  C   UNL     1      27.373  31.871  15.676  1.00  0.00     0.142 C 
BRANCH   9  14
ATOM     14  O   UNL     1      29.296  30.307  18.365  1.00  0.00    -0.357 OA
ATOM     15  H   UNL     1      29.968  30.607  17.722  1.00  0.00     0.214 HD
ENDBRANCH   9  14
BRANCH   9  16
ATOM     16  C   UNL     1      27.432  28.927  18.470  1.00  0.00     0.364 C 
ATOM     17  O   UNL     1      26.973  28.967  19.619  1.00  0.00    -0.246 OA
BRANCH  16  18
ATOM     18  O   UNL     1      27.430  27.743  17.714  1.00  0.00    -0.477 OA
ATOM     19  H   UNL     1      28.264  27.430  17.242  1.00  0.00     0.296 HD
ENDBRANCH  16  18
ENDBRANCH   9  16
BRANCH  12  20
ATOM     20  O   UNL     1      29.720  31.368  15.501  1.00  0.00    -0.391 OA
ATOM     21  H   UNL     1      30.382  30.637  15.541  1.00  0.00     0.211 HD
ENDBRANCH  12  20
BRANCH  13  22
ATOM     22  N   UNL     1      26.102  31.190  15.374  1.00  0.00    -0.348 N 
ATOM     23  C   UNL     1      25.111  31.879  14.623  1.00  0.00     0.217 C 
ATOM     24  H   UNL     1      25.906  30.222  15.693  1.00  0.00     0.163 HD
ATOM     25  C   UNL     1      23.836  31.177  14.326  1.00  0.00     0.114 C 
ATOM     26  O   UNL     1      25.347  33.045  14.239  1.00  0.00    -0.275 OA
ENDBRANCH  13  22
ENDBRANCH   7   8
BRANCH   7  27
ATOM     27  O   UNL     1      28.711  34.066  16.502  1.00  0.00    -0.388 OA
ATOM     28  H   UNL     1      28.344  33.697  15.645  1.00  0.00     0.211 HD
ENDBRANCH   7  27
ENDBRANCH   6   7
BRANCH   6  29
ATOM     29  O   UNL     1      27.790  35.376  18.325  1.00  0.00    -0.388 OA
ATOM     30  H   UNL     1      28.071  36.030  19.012  1.00  0.00     0.211 HD
ENDBRANCH   6  29
ENDBRANCH   5   6
ENDBRANCH   1   5
BRANCH   2  31
ATOM     31  O   UNL     1      32.136  36.089  18.661  1.00  0.00    -0.443 OA
BRANCH  31  32
ATOM     32  C   UNL     1      32.902  35.264  17.812  1.00  0.00     0.294 C 
BRANCH  32  33
ATOM     33  C   UNL     1      32.245  34.906  16.552  1.00  0.00     0.120 A 
ATOM     34  C   UNL     1      32.004  35.774  15.479  1.00  0.00     0.138 A 
ATOM     35  N   UNL     1      31.745  33.709  16.152  1.00  0.00    -0.132 NA
ATOM     36  N   UNL     1      31.399  35.094  14.524  1.00  0.00    -0.249 N 
ATOM     37  N   UNL     1      31.252  33.869  14.939  1.00  0.00    -0.067 NA
BRANCH  36  38
ATOM     38  C   UNL     1      30.970  35.660  13.206  1.00  0.00     0.114 C 
ATOM     39  C   UNL     1      32.265  35.990  12.509  1.00  0.00     0.034 C 
BRANCH  38  40
ATOM     40  C   UNL     1      30.202  34.621  12.533  1.00  0.00     0.108 C 
BRANCH  40  41
ATOM     41  C   UNL     1      28.786  34.740  12.383  1.00  0.00     0.164 C 
ATOM     42  O   UNL     1      28.148  34.722  13.557  1.00  0.00    -0.294 OA
BRANCH  41  43
ATOM     43  C   UNL     1      27.907  34.871  11.263  1.00  0.00     0.018 A 
ATOM     44  C   UNL     1      28.115  34.033  10.140  1.00  0.00     0.012 A 
ATOM     45  C   UNL     1      26.845  35.737  11.179  1.00  0.00     0.012 A 
ATOM     46  C   UNL     1      27.299  34.094   9.039  1.00  0.00     0.001 A 
ATOM     47  C   UNL     1      26.040  35.771  10.048  1.00  0.00     0.001 A 
ATOM     48  C   UNL     1      26.243  34.969   8.974  1.00  0.00     0.000 A 
ENDBRANCH  41  43
ENDBRANCH  40  41
ENDBRANCH  38  40
ENDBRANCH  36  38
ENDBRANCH  32  33
ENDBRANCH  31  32
ENDBRANCH   2  31
TORSDOF 18
BEGIN_RES LYS A 131
REMARK  4 active torsions:
REMARK  status: ('A' for Active; 'I' for Inactive)
REMARK    1  A    between atoms: CA   and  CB  
REMARK    2  A    between atoms: CB   and  CG  
REMARK    3  A    between atoms: CG   and  CD  
REMARK    4  A    between atoms: CD   and  CE  
ROOT
ATOM      1  CA  LYS A 131      29.867  25.555  16.977  1.00 20.52     0.186 C 
ENDROOT
BRANCH   1   2
ATOM      2  CB  LYS A 131      28.345  25.722  17.026  1.00 20.94     0.034 C 
BRANCH   2   3
ATOM      3  CG  LYS A 131      27.599  24.477  16.570  1.00 22.96     0.005 C 
BRANCH   3   4
ATOM      4  CD  LYS A 131      26.999  23.722  17.723  1.00 24.33     0.041 C 
BRANCH   4   5
ATOM      5  CE  LYS A 131      25.886  24.555  18.353  1.00 26.91     0.338 C 
ATOM      6  NZ  LYS A 131      24.827  24.843  17.357  1.00 27.40     0.618 N 
ENDBRANCH   4   5
ENDBRANCH   3   4
ENDBRANCH   2   3
ENDBRANCH   1   2
END_RES LYS A 131
BEGIN_RES LYS A 135
REMARK  4 active torsions:
REMARK  status: ('A' for Active; 'I' for Inactive)
REMARK    5  A    between atoms: CA   and  CB  
REMARK    6  A    between atoms: CB   and  CG  
REMARK    7  A    between atoms: CG   and  CD  
REMARK    8  A    between atoms: CD   and  CE  
ROOT
ATOM      7  CA  LYS A 135      33.193  34.663   9.290  1.00 25.02     0.186 C 
ENDROOT
BRANCH   7   8
ATOM      8  CB  LYS A 135      32.060  35.360  10.034  1.00 26.63     0.034 C 
BRANCH   8   9
ATOM      9  CG  LYS A 135      30.897  35.730   9.150  1.00 29.45     0.005 C 
BRANCH   9  10
ATOM     10  CD  LYS A 135      30.457  37.162   9.413  1.00 32.00     0.041 C 
BRANCH  10  11
ATOM     11  CE  LYS A 135      29.127  37.442   8.740  1.00 34.25     0.338 C 
ATOM     12  NZ  LYS A 135      29.066  36.817   7.390  1.00 35.99     0.618 N 
ENDBRANCH  10  11
ENDBRANCH   9  10
ENDBRANCH   8   9
ENDBRANCH   7   8
END_RES LYS A 135
