REMARK VINA RESULT:    -6.576      5.967     11.872
REMARK INTER + INTRA:         -16.927
REMARK INTER:                 -10.391
REMARK INTRA:                  -6.536
REMARK UNBOUND:                -4.777
REMARK SMILES CC(=O)N[C@@H]1[C@@H](O)C[C@](O)(C(=O)O)O[C@H]1C(O)[C@H](O)CNC(=O)OCc1cn(C(C)(C)C(=O)c2c[nH]c3ccccc23)nn1
REMARK SMILES IDX 21 1 22 2 23 3 20 5 18 6 16 7 15 8 9 9 8 10 14 11 6 12 5 13
REMARK SMILES IDX 10 14 11 16 12 17 13 18 7 20 4 22 2 23 1 25 3 26 17 27 19 29
REMARK SMILES IDX 24 31 25 32 26 33 27 34 44 35 28 36 43 37 29 38 30 39 31 40
REMARK SMILES IDX 32 41 33 42 34 43 35 44 42 45 36 46 37 47 41 48 38 50 40 51
REMARK SMILES IDX 39 52
REMARK H PARENT 21 4 10 15 13 19 7 21 4 24 17 28 19 30 36 49
REMARK Flexibility Score: inf
ROOT
ATOM      1  N   UNL     1      29.105  27.416  20.162  1.00  0.00    -0.319 N 
ATOM      2  C   UNL     1      27.743  27.629  20.480  1.00  0.00     0.407 C 
ATOM      3  O   UNL     1      27.317  27.446  21.622  1.00  0.00    -0.225 OA
ATOM      4  H   UNL     1      29.368  27.613  19.137  1.00  0.00     0.167 HD
ENDROOT
BRANCH   1   5
ATOM      5  C   UNL     1      30.126  26.971  21.070  1.00  0.00     0.154 C 
BRANCH   5   6
ATOM      6  C   UNL     1      31.439  27.651  20.955  1.00  0.00     0.165 C 
BRANCH   6   7
ATOM      7  C   UNL     1      31.355  29.165  21.081  1.00  0.00     0.176 C 
BRANCH   7   8
ATOM      8  C   UNL     1      32.687  29.768  21.445  1.00  0.00     0.178 C 
ATOM      9  C   UNL     1      33.675  28.938  23.370  1.00  0.00     0.269 C 
ATOM     10  C   UNL     1      34.170  30.288  23.841  1.00  0.00     0.112 C 
ATOM     11  O   UNL     1      33.570  28.878  21.986  1.00  0.00    -0.332 OA
ATOM     12  C   UNL     1      33.904  31.368  22.813  1.00  0.00     0.145 C 
ATOM     13  C   UNL     1      32.524  31.049  22.234  1.00  0.00     0.142 C 
BRANCH   9  14
ATOM     14  O   UNL     1      32.476  28.566  23.976  1.00  0.00    -0.357 OA
ATOM     15  H   UNL     1      31.842  28.185  23.304  1.00  0.00     0.214 HD
ENDBRANCH   9  14
BRANCH   9  16
ATOM     16  C   UNL     1      34.695  27.934  23.775  1.00  0.00     0.364 C 
ATOM     17  O   UNL     1      34.847  27.662  25.008  1.00  0.00    -0.246 OA
BRANCH  16  18
ATOM     18  O   UNL     1      35.500  27.268  22.880  1.00  0.00    -0.477 OA
ATOM     19  H   UNL     1      36.403  27.614  22.581  1.00  0.00     0.296 HD
ENDBRANCH  16  18
ENDBRANCH   9  16
BRANCH  12  20
ATOM     20  O   UNL     1      33.946  32.632  23.353  1.00  0.00    -0.391 OA
ATOM     21  H   UNL     1      34.860  32.762  23.762  1.00  0.00     0.211 HD
ENDBRANCH  12  20
BRANCH  13  22
ATOM     22  N   UNL     1      32.061  32.099  21.368  1.00  0.00    -0.348 N 
ATOM     23  C   UNL     1      31.216  33.163  21.844  1.00  0.00     0.217 C 
ATOM     24  H   UNL     1      32.303  32.156  20.348  1.00  0.00     0.163 HD
ATOM     25  C   UNL     1      30.722  34.249  20.996  1.00  0.00     0.114 C 
ATOM     26  O   UNL     1      30.905  33.119  23.077  1.00  0.00    -0.275 OA
ENDBRANCH  13  22
ENDBRANCH   7   8
BRANCH   7  27
ATOM     27  O   UNL     1      30.962  29.622  19.820  1.00  0.00    -0.388 OA
ATOM     28  H   UNL     1      30.090  30.062  19.829  1.00  0.00     0.211 HD
ENDBRANCH   7  27
ENDBRANCH   6   7
BRANCH   6  29
ATOM     29  O   UNL     1      32.023  27.393  19.730  1.00  0.00    -0.388 OA
ATOM     30  H   UNL     1      31.430  26.766  19.240  1.00  0.00     0.211 HD
ENDBRANCH   6  29
ENDBRANCH   5   6
ENDBRANCH   1   5
BRANCH   2  31
ATOM     31  O   UNL     1      26.818  28.055  19.522  1.00  0.00    -0.443 OA
BRANCH  31  32
ATOM     32  C   UNL     1      27.049  27.848  18.160  1.00  0.00     0.294 C 
BRANCH  32  33
ATOM     33  C   UNL     1      27.531  29.099  17.519  1.00  0.00     0.120 A 
ATOM     34  C   UNL     1      27.889  30.267  18.175  1.00  0.00     0.139 A 
ATOM     35  N   UNL     1      27.724  29.370  16.212  1.00  0.00    -0.132 NA
ATOM     36  N   UNL     1      28.277  31.185  17.268  1.00  0.00    -0.239 N 
ATOM     37  N   UNL     1      28.165  30.608  16.084  1.00  0.00    -0.066 NA
BRANCH  36  38
ATOM     38  C   UNL     1      28.734  32.557  17.562  1.00  0.00     0.122 C 
ATOM     39  C   UNL     1      28.100  33.501  16.599  1.00  0.00     0.046 C 
ATOM     40  C   UNL     1      28.218  32.809  18.992  1.00  0.00     0.046 C 
BRANCH  38  41
ATOM     41  C   UNL     1      30.194  32.533  17.594  1.00  0.00     0.192 C 
ATOM     42  O   UNL     1      30.823  31.995  18.572  1.00  0.00    -0.291 OA
BRANCH  41  43
ATOM     43  C   UNL     1      31.066  33.097  16.570  1.00  0.00     0.045 A 
ATOM     44  C   UNL     1      31.223  32.581  15.284  1.00  0.00     0.095 A 
ATOM     45  C   UNL     1      31.873  34.194  16.728  1.00  0.00     0.010 A 
ATOM     46  N   UNL     1      32.116  33.359  14.677  1.00  0.00    -0.360 N 
ATOM     47  C   UNL     1      32.534  34.340  15.505  1.00  0.00     0.046 A 
ATOM     48  C   UNL     1      32.120  35.092  17.762  1.00  0.00     0.011 A 
ATOM     49  H   UNL     1      32.452  33.243  13.710  1.00  0.00     0.166 HD
ATOM     50  C   UNL     1      33.424  35.387  15.367  1.00  0.00     0.027 A 
ATOM     51  C   UNL     1      33.007  36.114  17.591  1.00  0.00     0.001 A 
ATOM     52  C   UNL     1      33.656  36.262  16.401  1.00  0.00     0.002 A 
ENDBRANCH  41  43
ENDBRANCH  38  41
ENDBRANCH  36  38
ENDBRANCH  32  33
ENDBRANCH  31  32
ENDBRANCH   2  31
TORSDOF 17
BEGIN_RES LYS A 131
REMARK  4 active torsions:
REMARK  status: ('A' for Active; 'I' for Inactive)
REMARK    1  A    between atoms: CA   and  CB  
REMARK    2  A    between atoms: CB   and  CG  
REMARK    3  A    between atoms: CG   and  CD  
REMARK    4  A    between atoms: CD   and  CE  
ROOT
ATOM      1  CA  LYS A 131      29.867  25.555  16.977  1.00 20.52     0.186 C 
ENDROOT
BRANCH   1   2
ATOM      2  CB  LYS A 131      28.345  25.722  17.026  1.00 20.94     0.034 C 
BRANCH   2   3
ATOM      3  CG  LYS A 131      27.600  24.414  16.809  1.00 22.96     0.005 C 
BRANCH   3   4
ATOM      4  CD  LYS A 131      26.517  24.203  17.831  1.00 24.33     0.041 C 
BRANCH   4   5
ATOM      5  CE  LYS A 131      25.154  24.389  17.174  1.00 26.91     0.338 C 
ATOM      6  NZ  LYS A 131      24.158  23.470  17.774  1.00 27.40     0.618 N 
ENDBRANCH   4   5
ENDBRANCH   3   4
ENDBRANCH   2   3
ENDBRANCH   1   2
END_RES LYS A 131
BEGIN_RES LYS A 135
REMARK  4 active torsions:
REMARK  status: ('A' for Active; 'I' for Inactive)
REMARK    5  A    between atoms: CA   and  CB  
REMARK    6  A    between atoms: CB   and  CG  
REMARK    7  A    between atoms: CG   and  CD  
REMARK    8  A    between atoms: CD   and  CE  
ROOT
ATOM      7  CA  LYS A 135      33.193  34.663   9.290  1.00 25.02     0.186 C 
ENDROOT
BRANCH   7   8
ATOM      8  CB  LYS A 135      32.060  35.360  10.034  1.00 26.63     0.034 C 
BRANCH   8   9
ATOM      9  CG  LYS A 135      30.700  34.781   9.740  1.00 29.45     0.005 C 
BRANCH   9  10
ATOM     10  CD  LYS A 135      30.427  34.785   8.244  1.00 32.00     0.041 C 
BRANCH  10  11
ATOM     11  CE  LYS A 135      29.269  35.708   7.917  1.00 34.25     0.338 C 
ATOM     12  NZ  LYS A 135      28.792  35.498   6.522  1.00 35.99     0.618 N 
ENDBRANCH  10  11
ENDBRANCH   9  10
ENDBRANCH   8   9
ENDBRANCH   7   8
END_RES LYS A 135
