REMARK VINA RESULT:    -4.720      3.010      6.641
REMARK INTER + INTRA:         -13.965
REMARK INTER:                  -7.898
REMARK INTRA:                  -6.066
REMARK UNBOUND:                -5.796
REMARK SMILES CC(=O)N[C@@H]1[C@@H](O)C[C@](O)(C(=O)O)O[C@H]1C(O)[C@H](O)CNC(=O)OCc1cn(C2CCCCC2)nn1
REMARK SMILES IDX 20 1 18 2 16 3 15 4 9 5 8 6 14 7 6 8 5 9 10 10 11 12 12 13
REMARK SMILES IDX 13 14 7 16 4 18 2 19 1 21 3 22 17 23 19 25 21 27 22 28 23 30
REMARK SMILES IDX 24 31 25 32 26 33 27 34 36 35 28 36 35 37 29 38 30 39 34 40
REMARK SMILES IDX 31 41 33 42 32 43
REMARK H PARENT 10 11 13 15 7 17 4 20 17 24 19 26 21 29
REMARK Flexibility Score: inf
ROOT
ATOM      1  C   UNL     1      26.599  32.851  16.251  1.00  0.00     0.154 C 
ENDROOT
BRANCH   1   2
ATOM      2  C   UNL     1      27.447  34.043  16.671  1.00  0.00     0.165 C 
BRANCH   2   3
ATOM      3  C   UNL     1      28.523  34.204  15.643  1.00  0.00     0.176 C 
BRANCH   3   4
ATOM      4  C   UNL     1      29.875  34.606  16.190  1.00  0.00     0.178 C 
ATOM      5  C   UNL     1      31.327  35.169  14.425  1.00  0.00     0.269 C 
ATOM      6  C   UNL     1      32.425  34.293  15.004  1.00  0.00     0.112 C 
ATOM      7  O   UNL     1      30.496  35.553  15.423  1.00  0.00    -0.332 OA
ATOM      8  C   UNL     1      31.849  33.095  15.711  1.00  0.00     0.145 C 
ATOM      9  C   UNL     1      30.727  33.478  16.655  1.00  0.00     0.142 C 
BRANCH   5  10
ATOM     10  O   UNL     1      30.716  34.545  13.339  1.00  0.00    -0.357 OA
ATOM     11  H   UNL     1      30.733  35.191  12.564  1.00  0.00     0.214 HD
ENDBRANCH   5  10
BRANCH   5  12
ATOM     12  C   UNL     1      32.022  36.386  13.922  1.00  0.00     0.364 C 
ATOM     13  O   UNL     1      32.355  36.464  12.718  1.00  0.00    -0.246 OA
BRANCH  12  14
ATOM     14  O   UNL     1      32.294  37.416  14.775  1.00  0.00    -0.477 OA
ATOM     15  H   UNL     1      31.598  38.034  15.173  1.00  0.00     0.296 HD
ENDBRANCH  12  14
ENDBRANCH   5  12
BRANCH   8  16
ATOM     16  O   UNL     1      31.450  32.122  14.804  1.00  0.00    -0.391 OA
ATOM     17  H   UNL     1      31.720  32.380  13.889  1.00  0.00     0.211 HD
ENDBRANCH   8  16
BRANCH   9  18
ATOM     18  N   UNL     1      31.293  33.751  17.978  1.00  0.00    -0.348 N 
ATOM     19  C   UNL     1      30.940  32.903  19.049  1.00  0.00     0.217 C 
ATOM     20  H   UNL     1      31.941  34.545  18.143  1.00  0.00     0.163 HD
ATOM     21  C   UNL     1      31.465  33.100  20.436  1.00  0.00     0.114 C 
ATOM     22  O   UNL     1      30.151  31.915  18.907  1.00  0.00    -0.275 OA
ENDBRANCH   9  18
ENDBRANCH   3   4
BRANCH   3  23
ATOM     23  O   UNL     1      28.543  33.199  14.712  1.00  0.00    -0.388 OA
ATOM     24  H   UNL     1      29.143  33.396  13.925  1.00  0.00     0.211 HD
ENDBRANCH   3  23
ENDBRANCH   2   3
BRANCH   2  25
ATOM     25  O   UNL     1      27.882  33.819  17.955  1.00  0.00    -0.388 OA
ATOM     26  H   UNL     1      27.551  34.521  18.537  1.00  0.00     0.211 HD
ENDBRANCH   2  25
ENDBRANCH   1   2
BRANCH   1  27
ATOM     27  N   UNL     1      26.887  31.755  17.147  1.00  0.00    -0.319 N 
ATOM     28  C   UNL     1      27.579  30.571  16.793  1.00  0.00     0.407 C 
ATOM     29  H   UNL     1      26.573  31.795  18.165  1.00  0.00     0.167 HD
ATOM     30  O   UNL     1      27.989  30.425  15.616  1.00  0.00    -0.225 OA
BRANCH  28  31
ATOM     31  O   UNL     1      27.816  29.563  17.723  1.00  0.00    -0.443 OA
BRANCH  31  32
ATOM     32  C   UNL     1      27.076  29.527  18.917  1.00  0.00     0.294 C 
BRANCH  32  33
ATOM     33  C   UNL     1      28.027  29.617  20.056  1.00  0.00     0.120 A 
ATOM     34  C   UNL     1      29.153  28.809  20.260  1.00  0.00     0.138 A 
ATOM     35  N   UNL     1      28.035  30.450  21.114  1.00  0.00    -0.132 NA
ATOM     36  N   UNL     1      29.771  29.178  21.395  1.00  0.00    -0.249 N 
ATOM     37  N   UNL     1      29.066  30.179  21.893  1.00  0.00    -0.067 NA
BRANCH  36  38
ATOM     38  C   UNL     1      30.976  28.590  21.962  1.00  0.00     0.109 C 
ATOM     39  C   UNL     1      32.104  28.709  20.961  1.00  0.00     0.027 C 
ATOM     40  C   UNL     1      31.377  29.342  23.212  1.00  0.00     0.027 C 
ATOM     41  C   UNL     1      33.077  29.808  21.343  1.00  0.00     0.002 C 
ATOM     42  C   UNL     1      32.755  28.837  23.604  1.00  0.00     0.002 C 
ATOM     43  C   UNL     1      33.746  29.469  22.648  1.00  0.00     0.000 C 
ENDBRANCH  36  38
ENDBRANCH  32  33
ENDBRANCH  31  32
ENDBRANCH  28  31
ENDBRANCH   1  27
TORSDOF 15
BEGIN_RES LYS A 131
REMARK  4 active torsions:
REMARK  status: ('A' for Active; 'I' for Inactive)
REMARK    1  A    between atoms: CA   and  CB  
REMARK    2  A    between atoms: CB   and  CG  
REMARK    3  A    between atoms: CG   and  CD  
REMARK    4  A    between atoms: CD   and  CE  
ROOT
ATOM      1  CA  LYS A 131      29.867  25.555  16.977  1.00 20.52     0.186 C 
ENDROOT
BRANCH   1   2
ATOM      2  CB  LYS A 131      28.345  25.722  17.026  1.00 20.94     0.034 C 
BRANCH   2   3
ATOM      3  CG  LYS A 131      27.601  24.402  16.889  1.00 22.96     0.005 C 
BRANCH   3   4
ATOM      4  CD  LYS A 131      26.145  24.534  17.241  1.00 24.33     0.041 C 
BRANCH   4   5
ATOM      5  CE  LYS A 131      25.929  24.092  18.685  1.00 26.91     0.338 C 
ATOM      6  NZ  LYS A 131      25.764  25.270  19.569  1.00 27.40     0.618 N 
ENDBRANCH   4   5
ENDBRANCH   3   4
ENDBRANCH   2   3
ENDBRANCH   1   2
END_RES LYS A 131
BEGIN_RES LYS A 135
REMARK  4 active torsions:
REMARK  status: ('A' for Active; 'I' for Inactive)
REMARK    5  A    between atoms: CA   and  CB  
REMARK    6  A    between atoms: CB   and  CG  
REMARK    7  A    between atoms: CG   and  CD  
REMARK    8  A    between atoms: CD   and  CE  
ROOT
ATOM      7  CA  LYS A 135      33.193  34.663   9.290  1.00 25.02     0.186 C 
ENDROOT
BRANCH   7   8
ATOM      8  CB  LYS A 135      32.060  35.360  10.034  1.00 26.63     0.034 C 
BRANCH   8   9
ATOM      9  CG  LYS A 135      30.808  35.520   9.211  1.00 29.45     0.005 C 
BRANCH   9  10
ATOM     10  CD  LYS A 135      30.158  34.169   8.955  1.00 32.00     0.041 C 
BRANCH  10  11
ATOM     11  CE  LYS A 135      28.696  34.342   8.589  1.00 34.25     0.338 C 
ATOM     12  NZ  LYS A 135      27.811  33.695   9.597  1.00 35.99     0.618 N 
ENDBRANCH  10  11
ENDBRANCH   9  10
ENDBRANCH   8   9
ENDBRANCH   7   8
END_RES LYS A 135
