REMARK VINA RESULT:    -5.236      3.552      6.459
REMARK INTER + INTRA:         -15.098
REMARK INTER:                 -10.521
REMARK INTRA:                  -4.577
REMARK UNBOUND:                -5.118
REMARK SMILES COc1ccc(Cn2cc(COC(=O)NC[C@@H](O)C(O)[C@@H]3O[C@@](O)(C(=O)O)C[C@H](O)[C@H]3NC(C)=O)nn2)cc1OC
REMARK SMILES IDX 15 1 13 2 14 3 16 5 17 6 19 7 21 8 23 9 28 10 22 11 29 12
REMARK SMILES IDX 31 13 24 14 25 16 26 17 27 18 30 20 32 22 33 23 34 25 35 26
REMARK SMILES IDX 20 27 18 29 12 31 11 32 10 33 9 34 36 35 8 36 37 37 7 38
REMARK SMILES IDX 6 39 38 40 5 41 39 42 4 43 3 44 40 45 41 46 2 47 1 48
REMARK H PARENT 15 4 24 15 27 19 30 21 32 24 20 28 18 30
REMARK Flexibility Score: inf
ROOT
ATOM      1  N   UNL     1      30.593  36.306  13.058  1.00  0.00    -0.319 N 
ATOM      2  C   UNL     1      29.922  37.535  13.015  1.00  0.00     0.407 C 
ATOM      3  O   UNL     1      30.541  38.611  12.877  1.00  0.00    -0.225 OA
ATOM      4  H   UNL     1      29.992  35.436  13.188  1.00  0.00     0.167 HD
ENDROOT
BRANCH   1   5
ATOM      5  C   UNL     1      32.028  36.113  12.940  1.00  0.00     0.154 C 
BRANCH   5   6
ATOM      6  C   UNL     1      32.469  34.924  13.715  1.00  0.00     0.165 C 
BRANCH   6   7
ATOM      7  C   UNL     1      31.436  34.386  14.675  1.00  0.00     0.176 C 
BRANCH   7   8
ATOM      8  C   UNL     1      31.967  34.002  16.015  1.00  0.00     0.178 C 
ATOM      9  C   UNL     1      30.306  32.709  17.019  1.00  0.00     0.269 C 
ATOM     10  C   UNL     1      30.647  33.123  18.444  1.00  0.00     0.112 C 
ATOM     11  O   UNL     1      31.476  32.714  16.309  1.00  0.00    -0.332 OA
ATOM     12  C   UNL     1      31.858  34.011  18.420  1.00  0.00     0.145 C 
ATOM     13  C   UNL     1      31.838  34.931  17.144  1.00  0.00     0.142 C 
BRANCH   9  14
ATOM     14  O   UNL     1      29.292  33.501  16.493  1.00  0.00    -0.357 OA
ATOM     15  H   UNL     1      28.408  33.050  16.508  1.00  0.00     0.214 HD
ENDBRANCH   9  14
BRANCH   9  16
ATOM     16  C   UNL     1      29.786  31.310  17.034  1.00  0.00     0.364 C 
ATOM     17  O   UNL     1      29.403  30.819  18.121  1.00  0.00    -0.246 OA
BRANCH  16  18
ATOM     18  O   UNL     1      29.711  30.529  15.891  1.00  0.00    -0.477 OA
ATOM     19  H   UNL     1      30.271  29.675  15.774  1.00  0.00     0.296 HD
ENDBRANCH  16  18
ENDBRANCH   9  16
BRANCH  12  20
ATOM     20  O   UNL     1      31.938  34.826  19.544  1.00  0.00    -0.391 OA
ATOM     21  H   UNL     1      31.269  35.543  19.517  1.00  0.00     0.211 HD
ENDBRANCH  12  20
BRANCH  13  22
ATOM     22  N   UNL     1      33.052  35.739  17.330  1.00  0.00    -0.348 N 
ATOM     23  C   UNL     1      33.222  37.043  16.809  1.00  0.00     0.217 C 
ATOM     24  H   UNL     1      33.870  35.351  17.886  1.00  0.00     0.163 HD
ATOM     25  C   UNL     1      34.463  37.834  17.010  1.00  0.00     0.114 C 
ATOM     26  O   UNL     1      32.295  37.569  16.144  1.00  0.00    -0.275 OA
ENDBRANCH  13  22
ENDBRANCH   7   8
BRANCH   7  27
ATOM     27  O   UNL     1      30.951  33.141  14.103  1.00  0.00    -0.388 OA
ATOM     28  H   UNL     1      30.115  32.918  14.579  1.00  0.00     0.211 HD
ENDBRANCH   7  27
ENDBRANCH   6   7
BRANCH   6  29
ATOM     29  O   UNL     1      33.749  34.956  14.203  1.00  0.00    -0.388 OA
ATOM     30  H   UNL     1      34.326  34.243  13.869  1.00  0.00     0.211 HD
ENDBRANCH   6  29
ENDBRANCH   5   6
ENDBRANCH   1   5
BRANCH   2  31
ATOM     31  O   UNL     1      28.516  37.597  13.127  1.00  0.00    -0.443 OA
BRANCH  31  32
ATOM     32  C   UNL     1      27.812  36.366  13.359  1.00  0.00     0.294 C 
BRANCH  32  33
ATOM     33  C   UNL     1      27.624  35.617  12.119  1.00  0.00     0.120 A 
ATOM     34  C   UNL     1      26.712  35.885  11.130  1.00  0.00     0.138 A 
ATOM     35  N   UNL     1      28.327  34.538  11.737  1.00  0.00    -0.132 NA
ATOM     36  N   UNL     1      26.873  34.974  10.176  1.00  0.00    -0.248 N 
ATOM     37  N   UNL     1      27.846  34.174  10.556  1.00  0.00    -0.067 NA
BRANCH  36  38
ATOM     38  C   UNL     1      26.120  34.855   8.933  1.00  0.00     0.181 C 
BRANCH  38  39
ATOM     39  C   UNL     1      26.781  35.715   7.902  1.00  0.00    -0.023 A 
ATOM     40  C   UNL     1      26.335  37.024   7.718  1.00  0.00     0.056 A 
ATOM     41  C   UNL     1      27.828  35.271   7.123  1.00  0.00     0.010 A 
ATOM     42  C   UNL     1      26.919  37.849   6.789  1.00  0.00     0.161 A 
ATOM     43  C   UNL     1      28.436  36.077   6.180  1.00  0.00     0.051 A 
ATOM     44  C   UNL     1      27.967  37.361   6.030  1.00  0.00     0.160 A 
BRANCH  42  45
ATOM     45  O   UNL     1      26.484  39.157   6.594  1.00  0.00    -0.493 OA
ATOM     46  C   UNL     1      26.241  39.961   7.735  1.00  0.00     0.278 C 
ENDBRANCH  42  45
BRANCH  44  47
ATOM     47  O   UNL     1      28.550  38.201   5.095  1.00  0.00    -0.493 OA
ATOM     48  C   UNL     1      29.607  39.080   5.431  1.00  0.00     0.278 C 
ENDBRANCH  44  47
ENDBRANCH  38  39
ENDBRANCH  36  38
ENDBRANCH  32  33
ENDBRANCH  31  32
ENDBRANCH   2  31
TORSDOF 18
BEGIN_RES LYS A 131
REMARK  4 active torsions:
REMARK  status: ('A' for Active; 'I' for Inactive)
REMARK    1  A    between atoms: CA   and  CB  
REMARK    2  A    between atoms: CB   and  CG  
REMARK    3  A    between atoms: CG   and  CD  
REMARK    4  A    between atoms: CD   and  CE  
ROOT
ATOM      1  CA  LYS A 131      29.867  25.555  16.977  1.00 20.52     0.186 C 
ENDROOT
BRANCH   1   2
ATOM      2  CB  LYS A 131      28.345  25.722  17.026  1.00 20.94     0.034 C 
BRANCH   2   3
ATOM      3  CG  LYS A 131      27.601  24.402  16.890  1.00 22.96     0.005 C 
BRANCH   3   4
ATOM      4  CD  LYS A 131      26.151  24.528  17.269  1.00 24.33     0.041 C 
BRANCH   4   5
ATOM      5  CE  LYS A 131      26.037  24.777  18.769  1.00 26.91     0.338 C 
ATOM      6  NZ  LYS A 131      25.514  23.573  19.457  1.00 27.40     0.618 N 
ENDBRANCH   4   5
ENDBRANCH   3   4
ENDBRANCH   2   3
ENDBRANCH   1   2
END_RES LYS A 131
BEGIN_RES LYS A 135
REMARK  4 active torsions:
REMARK  status: ('A' for Active; 'I' for Inactive)
REMARK    5  A    between atoms: CA   and  CB  
REMARK    6  A    between atoms: CB   and  CG  
REMARK    7  A    between atoms: CG   and  CD  
REMARK    8  A    between atoms: CD   and  CE  
ROOT
ATOM      7  CA  LYS A 135      33.193  34.663   9.290  1.00 25.02     0.186 C 
ENDROOT
BRANCH   7   8
ATOM      8  CB  LYS A 135      32.060  35.360  10.034  1.00 26.63     0.034 C 
BRANCH   8   9
ATOM      9  CG  LYS A 135      30.800  35.499   9.219  1.00 29.45     0.005 C 
BRANCH   9  10
ATOM     10  CD  LYS A 135      30.131  36.837   9.490  1.00 32.00     0.041 C 
BRANCH  10  11
ATOM     11  CE  LYS A 135      30.820  37.943   8.714  1.00 34.25     0.338 C 
ATOM     12  NZ  LYS A 135      31.506  38.895   9.631  1.00 35.99     0.618 N 
ENDBRANCH  10  11
ENDBRANCH   9  10
ENDBRANCH   8   9
ENDBRANCH   7   8
END_RES LYS A 135
