REMARK VINA RESULT:    -4.643      4.266      7.255
REMARK INTER + INTRA:         -14.526
REMARK INTER:                  -8.561
REMARK INTRA:                  -5.965
REMARK UNBOUND:                -6.490
REMARK SMILES CC(=O)N[C@@H]1[C@@H](O)C[C@](O)(C(=O)O)O[C@H]1C(O)[C@H](O)CNC(=O)OCc1cn(-c2ccc3[nH]ncc3c2)nn1
REMARK SMILES IDX 20 1 18 2 16 3 15 4 9 5 8 6 14 7 6 8 5 9 10 10 11 12 12 13
REMARK SMILES IDX 13 14 7 16 4 18 2 19 1 21 3 22 17 23 19 25 21 27 22 28 23 30
REMARK SMILES IDX 24 31 25 32 26 33 27 34 39 35 28 36 38 37 29 38 30 39 37 40
REMARK SMILES IDX 31 41 36 42 32 43 35 44 33 45 34 46
REMARK H PARENT 10 11 13 15 7 17 4 20 17 24 19 26 21 29 33 47
REMARK Flexibility Score: inf
ROOT
ATOM      1  C   UNL     1      27.827  27.395  19.968  1.00  0.00     0.154 C 
ENDROOT
BRANCH   1   2
ATOM      2  C   UNL     1      28.873  28.035  20.771  1.00  0.00     0.165 C 
BRANCH   2   3
ATOM      3  C   UNL     1      29.053  29.513  20.361  1.00  0.00     0.176 C 
BRANCH   3   4
ATOM      4  C   UNL     1      29.725  30.329  21.377  1.00  0.00     0.178 C 
ATOM      5  C   UNL     1      28.395  32.226  21.700  1.00  0.00     0.269 C 
ATOM      6  C   UNL     1      29.087  32.798  20.495  1.00  0.00     0.112 C 
ATOM      7  O   UNL     1      28.964  31.095  22.209  1.00  0.00    -0.332 OA
ATOM      8  C   UNL     1      30.550  32.530  20.456  1.00  0.00     0.145 C 
ATOM      9  C   UNL     1      30.905  31.116  20.790  1.00  0.00     0.142 C 
BRANCH   5  10
ATOM     10  O   UNL     1      27.058  31.984  21.390  1.00  0.00    -0.357 OA
ATOM     11  H   UNL     1      26.767  32.473  20.582  1.00  0.00     0.214 HD
ENDBRANCH   5  10
BRANCH   5  12
ATOM     12  C   UNL     1      28.438  33.264  22.755  1.00  0.00     0.364 C 
ATOM     13  O   UNL     1      29.200  33.134  23.727  1.00  0.00    -0.246 OA
BRANCH  12  14
ATOM     14  O   UNL     1      27.628  34.376  22.657  1.00  0.00    -0.477 OA
ATOM     15  H   UNL     1      26.856  34.571  23.309  1.00  0.00     0.296 HD
ENDBRANCH  12  14
ENDBRANCH   5  12
BRANCH   8  16
ATOM     16  O   UNL     1      31.021  32.887  19.178  1.00  0.00    -0.391 OA
ATOM     17  H   UNL     1      31.656  32.176  18.925  1.00  0.00     0.211 HD
ENDBRANCH   8  16
BRANCH   9  18
ATOM     18  N   UNL     1      32.085  31.005  21.606  1.00  0.00    -0.348 N 
ATOM     19  C   UNL     1      32.951  29.880  21.545  1.00  0.00     0.217 C 
ATOM     20  H   UNL     1      32.334  31.785  22.287  1.00  0.00     0.163 HD
ATOM     21  C   UNL     1      34.149  29.814  22.403  1.00  0.00     0.114 C 
ATOM     22  O   UNL     1      32.672  28.949  20.747  1.00  0.00    -0.275 OA
ENDBRANCH   9  18
ENDBRANCH   3   4
BRANCH   3  23
ATOM     23  O   UNL     1      30.000  29.369  19.284  1.00  0.00    -0.388 OA
ATOM     24  H   UNL     1      29.543  29.465  18.417  1.00  0.00     0.211 HD
ENDBRANCH   3  23
ENDBRANCH   2   3
BRANCH   2  25
ATOM     25  O   UNL     1      30.108  27.415  20.341  1.00  0.00    -0.388 OA
ATOM     26  H   UNL     1      30.252  27.626  19.377  1.00  0.00     0.211 HD
ENDBRANCH   2  25
ENDBRANCH   1   2
BRANCH   1  27
ATOM     27  N   UNL     1      27.766  27.761  18.581  1.00  0.00    -0.319 N 
ATOM     28  C   UNL     1      26.628  28.399  18.019  1.00  0.00     0.407 C 
ATOM     29  H   UNL     1      28.579  27.613  17.963  1.00  0.00     0.167 HD
ATOM     30  O   UNL     1      25.651  28.643  18.774  1.00  0.00    -0.225 OA
BRANCH  28  31
ATOM     31  O   UNL     1      26.533  28.763  16.696  1.00  0.00    -0.443 OA
BRANCH  31  32
ATOM     32  C   UNL     1      26.371  30.091  16.236  1.00  0.00     0.294 C 
BRANCH  32  33
ATOM     33  C   UNL     1      27.728  30.734  16.215  1.00  0.00     0.121 A 
ATOM     34  C   UNL     1      28.154  31.807  15.464  1.00  0.00     0.144 A 
ATOM     35  N   UNL     1      28.815  30.367  16.951  1.00  0.00    -0.131 NA
ATOM     36  N   UNL     1      29.462  32.026  15.786  1.00  0.00    -0.220 N 
ATOM     37  N   UNL     1      29.835  31.138  16.689  1.00  0.00    -0.062 NA
BRANCH  36  38
ATOM     38  C   UNL     1      30.267  33.050  15.223  1.00  0.00     0.067 A 
ATOM     39  C   UNL     1      31.602  33.132  15.573  1.00  0.00     0.030 A 
ATOM     40  C   UNL     1      29.790  33.986  14.331  1.00  0.00     0.040 A 
ATOM     41  C   UNL     1      32.433  34.105  15.059  1.00  0.00     0.030 A 
ATOM     42  C   UNL     1      30.595  34.958  13.809  1.00  0.00     0.022 A 
ATOM     43  C   UNL     1      31.941  35.039  14.163  1.00  0.00     0.065 A 
ATOM     44  C   UNL     1      30.393  35.991  12.925  1.00  0.00     0.143 A 
ATOM     45  N   UNL     1      32.489  36.076  13.510  1.00  0.00    -0.278 N 
ATOM     46  N   UNL     1      31.574  36.654  12.766  1.00  0.00    -0.183 NA
ATOM     47  H   UNL     1      33.481  36.366  13.587  1.00  0.00     0.190 HD
ENDBRANCH  36  38
ENDBRANCH  32  33
ENDBRANCH  31  32
ENDBRANCH  28  31
ENDBRANCH   1  27
TORSDOF 15
BEGIN_RES LYS A 131
REMARK  4 active torsions:
REMARK  status: ('A' for Active; 'I' for Inactive)
REMARK    1  A    between atoms: CA   and  CB  
REMARK    2  A    between atoms: CB   and  CG  
REMARK    3  A    between atoms: CG   and  CD  
REMARK    4  A    between atoms: CD   and  CE  
ROOT
ATOM      1  CA  LYS A 131      29.867  25.555  16.977  1.00 20.52     0.186 C 
ENDROOT
BRANCH   1   2
ATOM      2  CB  LYS A 131      28.345  25.722  17.026  1.00 20.94     0.034 C 
BRANCH   2   3
ATOM      3  CG  LYS A 131      27.602  24.399  16.922  1.00 22.96     0.005 C 
BRANCH   3   4
ATOM      4  CD  LYS A 131      26.146  24.538  17.271  1.00 24.33     0.041 C 
BRANCH   4   5
ATOM      5  CE  LYS A 131      25.955  24.295  18.764  1.00 26.91     0.338 C 
ATOM      6  NZ  LYS A 131      24.936  25.220  19.314  1.00 27.40     0.618 N 
ENDBRANCH   4   5
ENDBRANCH   3   4
ENDBRANCH   2   3
ENDBRANCH   1   2
END_RES LYS A 131
BEGIN_RES LYS A 135
REMARK  4 active torsions:
REMARK  status: ('A' for Active; 'I' for Inactive)
REMARK    5  A    between atoms: CA   and  CB  
REMARK    6  A    between atoms: CB   and  CG  
REMARK    7  A    between atoms: CG   and  CD  
REMARK    8  A    between atoms: CD   and  CE  
ROOT
ATOM      7  CA  LYS A 135      33.193  34.663   9.290  1.00 25.02     0.186 C 
ENDROOT
BRANCH   7   8
ATOM      8  CB  LYS A 135      32.060  35.360  10.034  1.00 26.63     0.034 C 
BRANCH   8   9
ATOM      9  CG  LYS A 135      30.780  35.440   9.243  1.00 29.45     0.005 C 
BRANCH   9  10
ATOM     10  CD  LYS A 135      29.974  34.159   9.395  1.00 32.00     0.041 C 
BRANCH  10  11
ATOM     11  CE  LYS A 135      28.659  34.437  10.098  1.00 34.25     0.338 C 
ATOM     12  NZ  LYS A 135      27.528  33.755   9.410  1.00 35.99     0.618 N 
ENDBRANCH  10  11
ENDBRANCH   9  10
ENDBRANCH   8   9
ENDBRANCH   7   8
END_RES LYS A 135
