REMARK VINA RESULT:    -6.242      3.794      7.135
REMARK INTER + INTRA:         -15.382
REMARK INTER:                  -8.324
REMARK INTRA:                  -7.058
REMARK UNBOUND:                -4.578
REMARK SMILES CC(=O)N[C@@H]1[C@@H](O)C[C@](O)(C(=O)O)O[C@H]1C(O)[C@H](O)CNC(=O)OCc1cn(C2c3ccccc3-c3ccccc32)nn1
REMARK SMILES IDX 20 1 18 2 16 3 15 4 9 5 8 6 14 7 6 8 5 9 10 10 11 12 12 13
REMARK SMILES IDX 13 14 7 16 4 18 2 19 1 21 3 22 17 23 19 25 21 27 22 28 23 30
REMARK SMILES IDX 24 31 25 32 26 33 27 34 43 35 28 36 42 37 29 38 30 39 41 40
REMARK SMILES IDX 31 41 35 42 36 43 40 44 32 45 34 46 37 47 39 48 33 49 38 50
REMARK H PARENT 10 11 13 15 7 17 4 20 17 24 19 26 21 29
REMARK Flexibility Score: inf
ROOT
ATOM      1  C   UNL     1      25.242  42.176   9.761  1.00  0.00     0.154 C 
ENDROOT
BRANCH   1   2
ATOM      2  C   UNL     1      24.979  40.768  10.149  1.00  0.00     0.165 C 
BRANCH   2   3
ATOM      3  C   UNL     1      26.078  40.154  10.956  1.00  0.00     0.176 C 
BRANCH   3   4
ATOM      4  C   UNL     1      26.082  38.652  11.029  1.00  0.00     0.178 C 
ATOM      5  C   UNL     1      25.098  37.886  13.011  1.00  0.00     0.269 C 
ATOM      6  C   UNL     1      25.804  36.546  13.005  1.00  0.00     0.112 C 
ATOM      7  O   UNL     1      24.926  38.304  11.730  1.00  0.00    -0.332 OA
ATOM      8  C   UNL     1      27.013  36.637  12.149  1.00  0.00     0.145 C 
ATOM      9  C   UNL     1      27.313  38.065  11.665  1.00  0.00     0.142 C 
BRANCH   5  10
ATOM     10  O   UNL     1      25.793  38.710  13.855  1.00  0.00    -0.357 OA
ATOM     11  H   UNL     1      26.755  38.510  13.863  1.00  0.00     0.214 HD
ENDBRANCH   5  10
BRANCH   5  12
ATOM     12  C   UNL     1      23.740  37.633  13.584  1.00  0.00     0.364 C 
ATOM     13  O   UNL     1      23.624  37.412  14.811  1.00  0.00    -0.246 OA
BRANCH  12  14
ATOM     14  O   UNL     1      22.590  37.630  12.808  1.00  0.00    -0.477 OA
ATOM     15  H   UNL     1      22.503  38.264  12.002  1.00  0.00     0.296 HD
ENDBRANCH  12  14
ENDBRANCH   5  12
BRANCH   8  16
ATOM     16  O   UNL     1      28.167  36.162  12.750  1.00  0.00    -0.391 OA
ATOM     17  H   UNL     1      28.025  35.823  13.663  1.00  0.00     0.211 HD
ENDBRANCH   8  16
BRANCH   9  18
ATOM     18  N   UNL     1      28.342  37.885  10.666  1.00  0.00    -0.348 N 
ATOM     19  C   UNL     1      29.716  38.187  10.853  1.00  0.00     0.217 C 
ATOM     20  H   UNL     1      28.055  37.502   9.741  1.00  0.00     0.163 HD
ATOM     21  C   UNL     1      30.724  37.972   9.765  1.00  0.00     0.114 C 
ATOM     22  O   UNL     1      30.064  38.646  11.971  1.00  0.00    -0.275 OA
ENDBRANCH   9  18
ENDBRANCH   3   4
BRANCH   3  23
ATOM     23  O   UNL     1      27.349  40.637  10.668  1.00  0.00    -0.388 OA
ATOM     24  H   UNL     1      27.628  41.404  11.193  1.00  0.00     0.211 HD
ENDBRANCH   3  23
ENDBRANCH   2   3
BRANCH   2  25
ATOM     25  O   UNL     1      24.837  39.988   9.003  1.00  0.00    -0.388 OA
ATOM     26  H   UNL     1      25.197  40.413   8.201  1.00  0.00     0.211 HD
ENDBRANCH   2  25
ENDBRANCH   1   2
BRANCH   1  27
ATOM     27  N   UNL     1      26.204  42.373   8.742  1.00  0.00    -0.319 N 
ATOM     28  C   UNL     1      25.901  42.432   7.370  1.00  0.00     0.407 C 
ATOM     29  H   UNL     1      27.235  42.488   9.011  1.00  0.00     0.167 HD
ATOM     30  O   UNL     1      24.756  42.325   6.943  1.00  0.00    -0.225 OA
BRANCH  28  31
ATOM     31  O   UNL     1      26.913  42.618   6.410  1.00  0.00    -0.443 OA
BRANCH  31  32
ATOM     32  C   UNL     1      27.542  41.566   5.744  1.00  0.00     0.294 C 
BRANCH  32  33
ATOM     33  C   UNL     1      27.445  40.267   6.453  1.00  0.00     0.120 A 
ATOM     34  C   UNL     1      26.936  39.069   6.014  1.00  0.00     0.139 A 
ATOM     35  N   UNL     1      27.873  40.079   7.703  1.00  0.00    -0.132 NA
ATOM     36  N   UNL     1      27.072  38.201   7.010  1.00  0.00    -0.240 N 
ATOM     37  N   UNL     1      27.639  38.826   8.021  1.00  0.00    -0.066 NA
BRANCH  36  38
ATOM     38  C   UNL     1      26.679  36.800   7.020  1.00  0.00     0.170 C 
ATOM     39  C   UNL     1      25.481  36.574   7.847  1.00  0.00    -0.011 A 
ATOM     40  C   UNL     1      27.710  35.929   7.561  1.00  0.00    -0.011 A 
ATOM     41  C   UNL     1      24.202  37.152   7.766  1.00  0.00     0.007 A 
ATOM     42  C   UNL     1      25.798  35.643   8.794  1.00  0.00    -0.012 A 
ATOM     43  C   UNL     1      27.191  35.235   8.622  1.00  0.00    -0.012 A 
ATOM     44  C   UNL     1      29.054  35.693   7.208  1.00  0.00     0.007 A 
ATOM     45  C   UNL     1      23.253  36.757   8.676  1.00  0.00     0.000 A 
ATOM     46  C   UNL     1      24.808  35.268   9.702  1.00  0.00     0.009 A 
ATOM     47  C   UNL     1      27.929  34.308   9.365  1.00  0.00     0.009 A 
ATOM     48  C   UNL     1      29.796  34.790   7.922  1.00  0.00     0.000 A 
ATOM     49  C   UNL     1      23.546  35.818   9.645  1.00  0.00     0.001 A 
ATOM     50  C   UNL     1      29.238  34.106   8.989  1.00  0.00     0.001 A 
ENDBRANCH  36  38
ENDBRANCH  32  33
ENDBRANCH  31  32
ENDBRANCH  28  31
ENDBRANCH   1  27
TORSDOF 15
BEGIN_RES LYS A 131
REMARK  4 active torsions:
REMARK  status: ('A' for Active; 'I' for Inactive)
REMARK    1  A    between atoms: CA   and  CB  
REMARK    2  A    between atoms: CB   and  CG  
REMARK    3  A    between atoms: CG   and  CD  
REMARK    4  A    between atoms: CD   and  CE  
ROOT
ATOM      1  CA  LYS A 131      29.867  25.555  16.977  1.00 20.52     0.186 C 
ENDROOT
BRANCH   1   2
ATOM      2  CB  LYS A 131      28.345  25.722  17.026  1.00 20.94     0.034 C 
BRANCH   2   3
ATOM      3  CG  LYS A 131      27.601  24.406  16.861  1.00 22.96     0.005 C 
BRANCH   3   4
ATOM      4  CD  LYS A 131      26.750  24.082  18.057  1.00 24.33     0.041 C 
BRANCH   4   5
ATOM      5  CE  LYS A 131      26.250  25.376  18.692  1.00 26.91     0.338 C 
ATOM      6  NZ  LYS A 131      24.884  25.695  18.214  1.00 27.40     0.618 N 
ENDBRANCH   4   5
ENDBRANCH   3   4
ENDBRANCH   2   3
ENDBRANCH   1   2
END_RES LYS A 131
BEGIN_RES LYS A 135
REMARK  4 active torsions:
REMARK  status: ('A' for Active; 'I' for Inactive)
REMARK    5  A    between atoms: CA   and  CB  
REMARK    6  A    between atoms: CB   and  CG  
REMARK    7  A    between atoms: CG   and  CD  
REMARK    8  A    between atoms: CD   and  CE  
ROOT
ATOM      7  CA  LYS A 135      33.193  34.663   9.290  1.00 25.02     0.186 C 
ENDROOT
BRANCH   7   8
ATOM      8  CB  LYS A 135      32.060  35.360  10.034  1.00 26.63     0.034 C 
BRANCH   8   9
ATOM      9  CG  LYS A 135      32.377  35.652  11.478  1.00 29.45     0.005 C 
BRANCH   9  10
ATOM     10  CD  LYS A 135      31.289  35.103  12.388  1.00 32.00     0.041 C 
BRANCH  10  11
ATOM     11  CE  LYS A 135      31.680  35.267  13.844  1.00 34.25     0.338 C 
ATOM     12  NZ  LYS A 135      31.876  36.703  14.188  1.00 35.99     0.618 N 
ENDBRANCH  10  11
ENDBRANCH   9  10
ENDBRANCH   8   9
ENDBRANCH   7   8
END_RES LYS A 135
