REMARK VINA RESULT:    -9.177      3.226      5.949
REMARK INTER + INTRA:         -13.474
REMARK INTER:                  -8.645
REMARK INTRA:                  -4.829
REMARK UNBOUND:                 4.555
REMARK SMILES CC(=O)N[C@@H]1[C@@H](O)C[C@](O)(C(=O)O)O[C@H]1C(O)[C@H](O)CNC(=O)OCc1cn(C2CCc3ccccc3NC2=O)nn1
REMARK SMILES IDX 24 1 22 2 21 3 23 5 20 6 18 7 16 8 15 9 9 10 8 11 14 12 6 13
REMARK SMILES IDX 5 14 10 15 11 17 12 18 13 19 7 21 4 23 2 24 1 26 3 27 17 28
REMARK SMILES IDX 19 30 25 32 26 33 27 34 42 35 28 36 41 37 29 38 39 40 38 41
REMARK SMILES IDX 40 42 37 44 32 45 36 46 33 47 35 48 34 49 31 50 30 51
REMARK H PARENT 21 4 10 16 13 20 7 22 4 25 17 29 19 31 38 43
REMARK Flexibility Score: 80.00
ROOT
ATOM      1  O   UNL     1      30.663  36.183  18.716  1.00  0.00    -0.443 OA
ENDROOT
BRANCH   1   2
ATOM      2  C   UNL     1      31.297  35.183  18.019  1.00  0.00     0.407 C 
ATOM      3  N   UNL     1      30.564  34.023  17.599  1.00  0.00    -0.319 N 
ATOM      4  H   UNL     1      29.549  34.003  17.854  1.00  0.00     0.167 HD
ATOM      5  O   UNL     1      32.519  35.239  17.727  1.00  0.00    -0.225 OA
BRANCH   3   6
ATOM      6  C   UNL     1      31.195  32.943  16.863  1.00  0.00     0.154 C 
BRANCH   6   7
ATOM      7  C   UNL     1      30.145  32.272  16.012  1.00  0.00     0.165 C 
BRANCH   7   8
ATOM      8  C   UNL     1      29.801  30.882  16.503  1.00  0.00     0.176 C 
BRANCH   8   9
ATOM      9  C   UNL     1      28.335  30.821  16.960  1.00  0.00     0.178 C 
ATOM     10  C   UNL     1      26.495  32.271  16.841  1.00  0.00     0.269 C 
ATOM     11  C   UNL     1      26.079  31.683  18.154  1.00  0.00     0.112 C 
ATOM     12  O   UNL     1      27.677  31.808  16.334  1.00  0.00    -0.332 OA
ATOM     13  C   UNL     1      27.303  31.746  19.053  1.00  0.00     0.145 C 
ATOM     14  C   UNL     1      28.353  30.846  18.453  1.00  0.00     0.142 C 
BRANCH  10  15
ATOM     15  O   UNL     1      26.672  33.658  17.023  1.00  0.00    -0.357 OA
ATOM     16  H   UNL     1      27.143  33.745  17.892  1.00  0.00     0.214 HD
ENDBRANCH  10  15
BRANCH  10  17
ATOM     17  C   UNL     1      25.456  32.106  15.794  1.00  0.00     0.364 C 
ATOM     18  O   UNL     1      25.769  31.596  14.696  1.00  0.00    -0.246 OA
BRANCH  17  19
ATOM     19  O   UNL     1      24.134  32.499  15.989  1.00  0.00    -0.477 OA
ATOM     20  H   UNL     1      23.689  32.998  15.205  1.00  0.00     0.296 HD
ENDBRANCH  17  19
ENDBRANCH  10  17
BRANCH  13  21
ATOM     21  O   UNL     1      27.767  33.057  19.022  1.00  0.00    -0.391 OA
ATOM     22  H   UNL     1      27.091  33.624  19.465  1.00  0.00     0.211 HD
ENDBRANCH  13  21
BRANCH  14  23
ATOM     23  N   UNL     1      28.072  29.501  18.923  1.00  0.00    -0.348 N 
ATOM     24  C   UNL     1      28.774  28.880  19.989  1.00  0.00     0.217 C 
ATOM     25  H   UNL     1      27.297  28.946  18.446  1.00  0.00     0.163 HD
ATOM     26  C   UNL     1      28.397  27.500  20.378  1.00  0.00     0.114 C 
ATOM     27  O   UNL     1      29.691  29.527  20.560  1.00  0.00    -0.275 OA
ENDBRANCH  14  23
ENDBRANCH   8   9
BRANCH   8  28
ATOM     28  O   UNL     1      30.608  30.648  17.622  1.00  0.00    -0.388 OA
ATOM     29  H   UNL     1      31.548  30.890  17.481  1.00  0.00     0.211 HD
ENDBRANCH   8  28
ENDBRANCH   7   8
BRANCH   7  30
ATOM     30  O   UNL     1      30.522  32.243  14.674  1.00  0.00    -0.388 OA
ATOM     31  H   UNL     1      30.790  33.122  14.335  1.00  0.00     0.211 HD
ENDBRANCH   7  30
ENDBRANCH   6   7
ENDBRANCH   3   6
ENDBRANCH   1   2
BRANCH   1  32
ATOM     32  C   UNL     1      29.997  37.246  18.055  1.00  0.00     0.294 C 
BRANCH  32  33
ATOM     33  C   UNL     1      29.290  36.765  16.842  1.00  0.00     0.120 A 
ATOM     34  C   UNL     1      29.672  37.070  15.531  1.00  0.00     0.139 A 
ATOM     35  N   UNL     1      28.199  35.988  16.716  1.00  0.00    -0.132 NA
ATOM     36  N   UNL     1      28.816  36.480  14.680  1.00  0.00    -0.240 N 
ATOM     37  N   UNL     1      27.945  35.838  15.428  1.00  0.00    -0.066 NA
BRANCH  36  38
ATOM     38  C   UNL     1      28.843  36.546  13.235  1.00  0.00     0.198 CG0
ATOM     39  G   UNL     1      27.561  37.144  12.754  1.00  0.00     0.000 G0
BRANCH  38  40
ATOM     40  C   UNL     1      29.115  35.209  12.636  1.00  0.00     0.249 C 
ATOM     41  N   UNL     1      28.550  34.530  11.530  1.00  0.00    -0.324 N 
ATOM     42  O   UNL     1      30.021  34.591  13.248  1.00  0.00    -0.272 OA
ATOM     43  H   UNL     1      28.705  33.504  11.435  1.00  0.00     0.170 HD
BRANCH  41  44
ATOM     44  C   UNL     1      27.755  35.097  10.473  1.00  0.00     0.044 A 
ATOM     45  C   UNL     1      27.366  36.417  10.337  1.00  0.00    -0.024 A 
ATOM     46  C   UNL     1      27.401  34.129   9.554  1.00  0.00     0.026 A 
ATOM     47  C   UNL     1      26.611  36.761   9.258  1.00  0.00     0.006 A 
ATOM     48  C   UNL     1      26.637  34.480   8.463  1.00  0.00     0.002 A 
ATOM     49  C   UNL     1      26.251  35.794   8.328  1.00  0.00     0.000 A 
BRANCH  45  50
ATOM     50  C   UNL     1      27.687  37.539  11.260  1.00  0.00     0.040 C 
BRANCH  50  51
ATOM     51  C   UNL     1      27.560  37.140  12.720  1.00  0.00     0.042 CG0
ATOM     52  G   UNL     1      28.822  36.550  13.260  1.00  0.00     0.000 G0
ENDBRANCH  50  51
ENDBRANCH  45  50
ENDBRANCH  41  44
ENDBRANCH  38  40
ENDBRANCH  36  38
ENDBRANCH  32  33
ENDBRANCH   1  32
TORSDOF 15
BEGIN_RES LYS A 131
REMARK  4 active torsions:
REMARK  status: ('A' for Active; 'I' for Inactive)
REMARK    1  A    between atoms: CA   and  CB  
REMARK    2  A    between atoms: CB   and  CG  
REMARK    3  A    between atoms: CG   and  CD  
REMARK    4  A    between atoms: CD   and  CE  
ROOT
ATOM      1  CA  LYS A 131      29.867  25.555  16.977  1.00 20.52     0.186 C 
ENDROOT
BRANCH   1   2
ATOM      2  CB  LYS A 131      28.345  25.722  17.026  1.00 20.94     0.034 C 
BRANCH   2   3
ATOM      3  CG  LYS A 131      27.599  24.465  16.605  1.00 22.96     0.005 C 
BRANCH   3   4
ATOM      4  CD  LYS A 131      26.281  24.325  17.314  1.00 24.33     0.041 C 
BRANCH   4   5
ATOM      5  CE  LYS A 131      26.052  25.539  18.208  1.00 26.91     0.338 C 
ATOM      6  NZ  LYS A 131      25.657  25.113  19.572  1.00 27.40     0.618 N 
ENDBRANCH   4   5
ENDBRANCH   3   4
ENDBRANCH   2   3
ENDBRANCH   1   2
END_RES LYS A 131
BEGIN_RES LYS A 135
REMARK  4 active torsions:
REMARK  status: ('A' for Active; 'I' for Inactive)
REMARK    5  A    between atoms: CA   and  CB  
REMARK    6  A    between atoms: CB   and  CG  
REMARK    7  A    between atoms: CG   and  CD  
REMARK    8  A    between atoms: CD   and  CE  
ROOT
ATOM      7  CA  LYS A 135      33.193  34.663   9.290  1.00 25.02     0.186 C 
ENDROOT
BRANCH   7   8
ATOM      8  CB  LYS A 135      32.060  35.360  10.034  1.00 26.63     0.034 C 
BRANCH   8   9
ATOM      9  CG  LYS A 135      30.864  35.659   9.167  1.00 29.45     0.005 C 
BRANCH   9  10
ATOM     10  CD  LYS A 135      30.644  37.159   9.054  1.00 32.00     0.041 C 
BRANCH  10  11
ATOM     11  CE  LYS A 135      31.298  37.882  10.216  1.00 34.25     0.338 C 
ATOM     12  NZ  LYS A 135      31.970  39.131   9.762  1.00 35.99     0.618 N 
ENDBRANCH  10  11
ENDBRANCH   9  10
ENDBRANCH   8   9
ENDBRANCH   7   8
END_RES LYS A 135
