REMARK VINA RESULT:    -4.391      2.311      5.150
REMARK INTER + INTRA:         -14.406
REMARK INTER:                  -8.874
REMARK INTRA:                  -5.532
REMARK UNBOUND:                -6.292
REMARK SMILES CC(=O)N[C@@H]1[C@@H](O)C[C@](O)(C(=O)O)O[C@H]1C(O)[C@H](O)CNC(=O)OCc1cn(CCC2OCCO2)nn1
REMARK SMILES IDX 21 1 22 2 23 3 20 5 18 6 16 7 15 8 9 9 8 10 14 11 6 12 5 13
REMARK SMILES IDX 10 14 11 16 12 17 13 18 7 20 4 22 2 23 1 25 3 26 17 27 19 29
REMARK SMILES IDX 24 31 25 32 26 33 27 34 37 35 28 36 36 37 29 38 30 39 31 40
REMARK SMILES IDX 32 41 35 42 33 43 34 44
REMARK H PARENT 21 4 10 15 13 19 7 21 4 24 17 28 19 30
REMARK Flexibility Score: inf
ROOT
ATOM      1  N   UNL     1      31.687  35.590  14.417  1.00  0.00    -0.319 N 
ATOM      2  C   UNL     1      32.068  36.062  13.138  1.00  0.00     0.407 C 
ATOM      3  O   UNL     1      33.129  35.601  12.595  1.00  0.00    -0.225 OA
ATOM      4  H   UNL     1      30.830  35.956  14.865  1.00  0.00     0.167 HD
ENDROOT
BRANCH   1   5
ATOM      5  C   UNL     1      32.488  34.612  15.075  1.00  0.00     0.154 C 
BRANCH   5   6
ATOM      6  C   UNL     1      31.834  34.009  16.288  1.00  0.00     0.165 C 
BRANCH   6   7
ATOM      7  C   UNL     1      31.317  32.623  16.048  1.00  0.00     0.176 C 
BRANCH   7   8
ATOM      8  C   UNL     1      29.969  32.437  16.709  1.00  0.00     0.178 C 
ATOM      9  C   UNL     1      28.888  30.996  18.180  1.00  0.00     0.269 C 
ATOM     10  C   UNL     1      27.665  31.091  17.316  1.00  0.00     0.112 C 
ATOM     11  O   UNL     1      30.055  31.374  17.570  1.00  0.00    -0.332 OA
ATOM     12  C   UNL     1      28.117  30.998  15.873  1.00  0.00     0.145 C 
ATOM     13  C   UNL     1      28.952  32.240  15.594  1.00  0.00     0.142 C 
BRANCH   9  14
ATOM     14  O   UNL     1      29.040  29.634  18.532  1.00  0.00    -0.357 OA
ATOM     15  H   UNL     1      28.371  29.350  19.184  1.00  0.00     0.214 HD
ENDBRANCH   9  14
BRANCH   9  16
ATOM     16  C   UNL     1      28.657  31.707  19.478  1.00  0.00     0.364 C 
ATOM     17  O   UNL     1      27.527  32.028  19.908  1.00  0.00    -0.246 OA
BRANCH  16  18
ATOM     18  O   UNL     1      29.778  32.020  20.234  1.00  0.00    -0.477 OA
ATOM     19  H   UNL     1      30.127  31.448  20.996  1.00  0.00     0.296 HD
ENDBRANCH  16  18
ENDBRANCH   9  16
BRANCH  12  20
ATOM     20  O   UNL     1      28.944  29.872  15.744  1.00  0.00    -0.391 OA
ATOM     21  H   UNL     1      28.431  29.060  15.519  1.00  0.00     0.211 HD
ENDBRANCH  12  20
BRANCH  13  22
ATOM     22  N   UNL     1      28.051  33.377  15.490  1.00  0.00    -0.348 N 
ATOM     23  C   UNL     1      28.230  34.306  14.434  1.00  0.00     0.217 C 
ATOM     24  H   UNL     1      27.267  33.517  16.191  1.00  0.00     0.163 HD
ATOM     25  C   UNL     1      27.364  35.497  14.243  1.00  0.00     0.114 C 
ATOM     26  O   UNL     1      29.176  34.100  13.620  1.00  0.00    -0.275 OA
ENDBRANCH  13  22
ENDBRANCH   7   8
BRANCH   7  27
ATOM     27  O   UNL     1      31.291  32.321  14.687  1.00  0.00    -0.388 OA
ATOM     28  H   UNL     1      30.878  33.019  14.134  1.00  0.00     0.211 HD
ENDBRANCH   7  27
ENDBRANCH   6   7
BRANCH   6  29
ATOM     29  O   UNL     1      30.792  34.831  16.694  1.00  0.00    -0.388 OA
ATOM     30  H   UNL     1      29.921  34.568  16.344  1.00  0.00     0.211 HD
ENDBRANCH   6  29
ENDBRANCH   5   6
ENDBRANCH   1   5
BRANCH   2  31
ATOM     31  O   UNL     1      31.376  36.995  12.419  1.00  0.00    -0.443 OA
BRANCH  31  32
ATOM     32  C   UNL     1      30.025  37.366  12.615  1.00  0.00     0.294 C 
BRANCH  32  33
ATOM     33  C   UNL     1      29.302  37.562  11.337  1.00  0.00     0.120 A 
ATOM     34  C   UNL     1      28.019  37.160  11.050  1.00  0.00     0.138 A 
ATOM     35  N   UNL     1      29.759  38.161  10.225  1.00  0.00    -0.132 NA
ATOM     36  N   UNL     1      27.734  37.523   9.781  1.00  0.00    -0.252 N 
ATOM     37  N   UNL     1      28.807  38.127   9.305  1.00  0.00    -0.067 NA
BRANCH  36  38
ATOM     38  C   UNL     1      26.501  37.320   9.031  1.00  0.00     0.151 C 
BRANCH  38  39
ATOM     39  C   UNL     1      25.711  36.166   9.610  1.00  0.00     0.086 C 
BRANCH  39  40
ATOM     40  C   UNL     1      24.252  36.472   9.648  1.00  0.00     0.251 C 
ATOM     41  O   UNL     1      23.480  35.488  10.252  1.00  0.00    -0.350 OA
ATOM     42  O   UNL     1      23.688  36.714   8.405  1.00  0.00    -0.350 OA
ATOM     43  C   UNL     1      22.186  35.653   9.765  1.00  0.00     0.192 C 
ATOM     44  C   UNL     1      22.351  36.406   8.478  1.00  0.00     0.192 C 
ENDBRANCH  39  40
ENDBRANCH  38  39
ENDBRANCH  36  38
ENDBRANCH  32  33
ENDBRANCH  31  32
ENDBRANCH   2  31
TORSDOF 17
BEGIN_RES LYS A 131
REMARK  4 active torsions:
REMARK  status: ('A' for Active; 'I' for Inactive)
REMARK    1  A    between atoms: CA   and  CB  
REMARK    2  A    between atoms: CB   and  CG  
REMARK    3  A    between atoms: CG   and  CD  
REMARK    4  A    between atoms: CD   and  CE  
ROOT
ATOM      1  CA  LYS A 131      29.867  25.555  16.977  1.00 20.52     0.186 C 
ENDROOT
BRANCH   1   2
ATOM      2  CB  LYS A 131      28.345  25.722  17.026  1.00 20.94     0.034 C 
BRANCH   2   3
ATOM      3  CG  LYS A 131      27.601  24.402  16.895  1.00 22.96     0.005 C 
BRANCH   3   4
ATOM      4  CD  LYS A 131      26.186  24.497  17.394  1.00 24.33     0.041 C 
BRANCH   4   5
ATOM      5  CE  LYS A 131      26.139  25.399  18.623  1.00 26.91     0.338 C 
ATOM      6  NZ  LYS A 131      25.460  24.712  19.746  1.00 27.40     0.618 N 
ENDBRANCH   4   5
ENDBRANCH   3   4
ENDBRANCH   2   3
ENDBRANCH   1   2
END_RES LYS A 131
BEGIN_RES LYS A 135
REMARK  4 active torsions:
REMARK  status: ('A' for Active; 'I' for Inactive)
REMARK    5  A    between atoms: CA   and  CB  
REMARK    6  A    between atoms: CB   and  CG  
REMARK    7  A    between atoms: CG   and  CD  
REMARK    8  A    between atoms: CD   and  CE  
ROOT
ATOM      7  CA  LYS A 135      33.193  34.663   9.290  1.00 25.02     0.186 C 
ENDROOT
BRANCH   7   8
ATOM      8  CB  LYS A 135      32.060  35.360  10.034  1.00 26.63     0.034 C 
BRANCH   8   9
ATOM      9  CG  LYS A 135      30.722  34.688   9.861  1.00 29.45     0.005 C 
BRANCH   9  10
ATOM     10  CD  LYS A 135      30.302  34.699   8.399  1.00 32.00     0.041 C 
BRANCH  10  11
ATOM     11  CE  LYS A 135      28.810  34.454   8.272  1.00 34.25     0.338 C 
ATOM     12  NZ  LYS A 135      28.271  33.786   9.489  1.00 35.99     0.618 N 
ENDBRANCH  10  11
ENDBRANCH   9  10
ENDBRANCH   8   9
ENDBRANCH   7   8
END_RES LYS A 135
