REMARK VINA RESULT:    -4.717      1.779      2.188
REMARK INTER + INTRA:         -14.467
REMARK INTER:                  -8.346
REMARK INTRA:                  -6.121
REMARK UNBOUND:                -5.477
REMARK SMILES CC(=O)N[C@@H]1[C@@H](O)C[C@](O)(C(=O)O)O[C@H]1C(O)[C@H](O)CNC(=O)OCc1cn(CC(O)CO)nn1
REMARK SMILES IDX 21 1 22 2 23 3 20 5 18 6 16 7 15 8 9 9 8 10 14 11 6 12 5 13
REMARK SMILES IDX 10 14 11 16 12 17 13 18 7 20 4 22 2 23 1 25 3 26 17 27 19 29
REMARK SMILES IDX 24 31 25 32 26 33 27 34 35 35 28 36 34 37 29 38 30 39 31 40
REMARK SMILES IDX 32 42 33 43
REMARK H PARENT 21 4 10 15 13 19 7 21 4 24 17 28 19 30 31 41 33 44
REMARK Flexibility Score: inf
ROOT
ATOM      1  N   UNL     1      25.620  29.296  19.605  1.00  0.00    -0.319 N 
ATOM      2  C   UNL     1      24.751  29.183  18.491  1.00  0.00     0.407 C 
ATOM      3  O   UNL     1      23.887  28.291  18.434  1.00  0.00    -0.225 OA
ATOM      4  H   UNL     1      26.327  30.091  19.559  1.00  0.00     0.167 HD
ENDROOT
BRANCH   1   5
ATOM      5  C   UNL     1      25.544  28.398  20.707  1.00  0.00     0.154 C 
BRANCH   5   6
ATOM      6  C   UNL     1      26.888  28.077  21.324  1.00  0.00     0.165 C 
BRANCH   6   7
ATOM      7  C   UNL     1      27.936  28.728  20.430  1.00  0.00     0.176 C 
BRANCH   7   8
ATOM      8  C   UNL     1      29.214  29.002  21.231  1.00  0.00     0.178 C 
ATOM      9  C   UNL     1      30.657  30.556  20.282  1.00  0.00     0.269 C 
ATOM     10  C   UNL     1      31.832  29.996  21.059  1.00  0.00     0.112 C 
ATOM     11  O   UNL     1      29.534  30.316  21.036  1.00  0.00    -0.332 OA
ATOM     12  C   UNL     1      31.678  28.515  21.096  1.00  0.00     0.145 C 
ATOM     13  C   UNL     1      30.277  28.019  20.853  1.00  0.00     0.142 C 
BRANCH   9  14
ATOM     14  O   UNL     1      30.650  29.912  19.046  1.00  0.00    -0.357 OA
ATOM     15  H   UNL     1      30.666  30.541  18.290  1.00  0.00     0.214 HD
ENDBRANCH   9  14
BRANCH   9  16
ATOM     16  C   UNL     1      30.790  32.022  20.081  1.00  0.00     0.364 C 
ATOM     17  O   UNL     1      31.755  32.617  20.622  1.00  0.00    -0.246 OA
BRANCH  16  18
ATOM     18  O   UNL     1      29.869  32.698  19.316  1.00  0.00    -0.477 OA
ATOM     19  H   UNL     1      29.274  32.200  18.662  1.00  0.00     0.296 HD
ENDBRANCH  16  18
ENDBRANCH   9  16
BRANCH  12  20
ATOM     20  O   UNL     1      32.489  27.975  20.091  1.00  0.00    -0.391 OA
ATOM     21  H   UNL     1      31.938  27.729  19.325  1.00  0.00     0.211 HD
ENDBRANCH  12  20
BRANCH  13  22
ATOM     22  N   UNL     1      30.137  26.799  21.619  1.00  0.00    -0.348 N 
ATOM     23  C   UNL     1      30.052  26.873  23.034  1.00  0.00     0.217 C 
ATOM     24  H   UNL     1      30.095  25.853  21.174  1.00  0.00     0.163 HD
ATOM     25  C   UNL     1      29.908  25.638  23.881  1.00  0.00     0.114 C 
ATOM     26  O   UNL     1      30.093  27.959  23.666  1.00  0.00    -0.275 OA
ENDBRANCH  13  22
ENDBRANCH   7   8
BRANCH   7  27
ATOM     27  O   UNL     1      28.159  27.931  19.334  1.00  0.00    -0.388 OA
ATOM     28  H   UNL     1      28.075  26.963  19.560  1.00  0.00     0.211 HD
ENDBRANCH   7  27
ENDBRANCH   6   7
BRANCH   6  29
ATOM     29  O   UNL     1      27.077  26.697  21.391  1.00  0.00    -0.388 OA
ATOM     30  H   UNL     1      26.562  26.297  20.664  1.00  0.00     0.211 HD
ENDBRANCH   6  29
ENDBRANCH   5   6
ENDBRANCH   1   5
BRANCH   2  31
ATOM     31  O   UNL     1      24.839  30.078  17.414  1.00  0.00    -0.443 OA
BRANCH  31  32
ATOM     32  C   UNL     1      25.668  29.741  16.339  1.00  0.00     0.294 C 
BRANCH  32  33
ATOM     33  C   UNL     1      26.982  30.427  16.414  1.00  0.00     0.120 A 
ATOM     34  C   UNL     1      27.370  31.537  15.722  1.00  0.00     0.138 A 
ATOM     35  N   UNL     1      28.020  30.071  17.176  1.00  0.00    -0.132 NA
ATOM     36  N   UNL     1      28.646  31.811  16.102  1.00  0.00    -0.249 N 
ATOM     37  N   UNL     1      29.030  30.906  16.991  1.00  0.00    -0.067 NA
BRANCH  36  38
ATOM     38  C   UNL     1      29.443  32.928  15.597  1.00  0.00     0.180 C 
BRANCH  38  39
ATOM     39  C   UNL     1      30.882  32.615  15.954  1.00  0.00     0.161 C 
BRANCH  39  40
ATOM     40  O   UNL     1      31.443  31.825  14.958  1.00  0.00    -0.389 OA
ATOM     41  H   UNL     1      31.876  31.044  15.395  1.00  0.00     0.211 HD
ENDBRANCH  39  40
BRANCH  39  42
ATOM     42  C   UNL     1      31.684  33.913  16.094  1.00  0.00     0.189 C 
BRANCH  42  43
ATOM     43  O   UNL     1      30.863  34.997  15.777  1.00  0.00    -0.394 OA
ATOM     44  H   UNL     1      30.374  35.292  16.602  1.00  0.00     0.210 HD
ENDBRANCH  42  43
ENDBRANCH  39  42
ENDBRANCH  38  39
ENDBRANCH  36  38
ENDBRANCH  32  33
ENDBRANCH  31  32
ENDBRANCH   2  31
TORSDOF 19
BEGIN_RES LYS A 131
REMARK  4 active torsions:
REMARK  status: ('A' for Active; 'I' for Inactive)
REMARK    1  A    between atoms: CA   and  CB  
REMARK    2  A    between atoms: CB   and  CG  
REMARK    3  A    between atoms: CG   and  CD  
REMARK    4  A    between atoms: CD   and  CE  
ROOT
ATOM      1  CA  LYS A 131      29.867  25.555  16.977  1.00 20.52     0.186 C 
ENDROOT
BRANCH   1   2
ATOM      2  CB  LYS A 131      28.345  25.722  17.026  1.00 20.94     0.034 C 
BRANCH   2   3
ATOM      3  CG  LYS A 131      27.599  24.478  16.569  1.00 22.96     0.005 C 
BRANCH   3   4
ATOM      4  CD  LYS A 131      26.318  24.274  17.328  1.00 24.33     0.041 C 
BRANCH   4   5
ATOM      5  CE  LYS A 131      26.098  25.447  18.279  1.00 26.91     0.338 C 
ATOM      6  NZ  LYS A 131      25.014  25.138  19.242  1.00 27.40     0.618 N 
ENDBRANCH   4   5
ENDBRANCH   3   4
ENDBRANCH   2   3
ENDBRANCH   1   2
END_RES LYS A 131
BEGIN_RES LYS A 135
REMARK  4 active torsions:
REMARK  status: ('A' for Active; 'I' for Inactive)
REMARK    5  A    between atoms: CA   and  CB  
REMARK    6  A    between atoms: CB   and  CG  
REMARK    7  A    between atoms: CG   and  CD  
REMARK    8  A    between atoms: CD   and  CE  
ROOT
ATOM      7  CA  LYS A 135      33.193  34.663   9.290  1.00 25.02     0.186 C 
ENDROOT
BRANCH   7   8
ATOM      8  CB  LYS A 135      32.060  35.360  10.034  1.00 26.63     0.034 C 
BRANCH   8   9
ATOM      9  CG  LYS A 135      30.798  35.495   9.221  1.00 29.45     0.005 C 
BRANCH   9  10
ATOM     10  CD  LYS A 135      30.104  34.149   9.081  1.00 32.00     0.041 C 
BRANCH  10  11
ATOM     11  CE  LYS A 135      28.644  34.339   8.715  1.00 34.25     0.338 C 
ATOM     12  NZ  LYS A 135      27.755  33.600   9.653  1.00 35.99     0.618 N 
ENDBRANCH  10  11
ENDBRANCH   9  10
ENDBRANCH   8   9
ENDBRANCH   7   8
END_RES LYS A 135
