REMARK VINA RESULT:    -4.891      4.110      7.066
REMARK INTER + INTRA:         -15.498
REMARK INTER:                  -9.897
REMARK INTRA:                  -5.601
REMARK UNBOUND:                -6.317
REMARK SMILES CC(=O)N[C@@H]1[C@@H](O)C[C@](O)(C(=O)O)O[C@H]1C(O)[C@H](O)CNC(=O)OCc1cn(-c2cccc(C=CC(=O)O)c2)nn1
REMARK SMILES IDX 21 1 22 2 23 3 20 5 18 6 16 7 15 8 9 9 8 10 14 11 6 12 5 13
REMARK SMILES IDX 10 14 11 16 12 17 13 18 7 20 4 22 2 23 1 25 3 26 17 27 19 29
REMARK SMILES IDX 24 31 25 32 26 33 27 34 41 35 28 36 40 37 29 38 39 39 30 40
REMARK SMILES IDX 33 41 31 42 32 43 34 44 35 45 36 46 37 47 38 48
REMARK H PARENT 21 4 10 15 13 19 7 21 4 24 17 28 19 30 38 49
REMARK Flexibility Score: inf
ROOT
ATOM      1  N   UNL     1      25.696  35.918  10.522  1.00  0.00    -0.319 N 
ATOM      2  C   UNL     1      26.726  36.180  11.454  1.00  0.00     0.407 C 
ATOM      3  O   UNL     1      27.523  37.132  11.329  1.00  0.00    -0.225 OA
ATOM      4  H   UNL     1      25.081  35.060  10.739  1.00  0.00     0.167 HD
ENDROOT
BRANCH   1   5
ATOM      5  C   UNL     1      25.406  36.680   9.341  1.00  0.00     0.154 C 
BRANCH   5   6
ATOM      6  C   UNL     1      24.037  36.375   8.825  1.00  0.00     0.165 C 
BRANCH   6   7
ATOM      7  C   UNL     1      23.270  37.597   8.356  1.00  0.00     0.176 C 
BRANCH   7   8
ATOM      8  C   UNL     1      21.810  37.422   8.563  1.00  0.00     0.178 C 
ATOM      9  C   UNL     1      19.789  36.523   7.899  1.00  0.00     0.269 C 
ATOM     10  C   UNL     1      19.327  37.146   9.186  1.00  0.00     0.112 C 
ATOM     11  O   UNL     1      21.159  36.570   7.727  1.00  0.00    -0.332 OA
ATOM     12  C   UNL     1      19.831  38.517   9.449  1.00  0.00     0.145 C 
ATOM     13  C   UNL     1      21.078  38.761   8.634  1.00  0.00     0.142 C 
BRANCH   9  14
ATOM     14  O   UNL     1      19.088  37.089   6.835  1.00  0.00    -0.357 OA
ATOM     15  H   UNL     1      18.346  36.524   6.529  1.00  0.00     0.214 HD
ENDBRANCH   9  14
BRANCH   9  16
ATOM     16  C   UNL     1      19.409  35.084   7.950  1.00  0.00     0.364 C 
ATOM     17  O   UNL     1      19.353  34.492   9.081  1.00  0.00    -0.246 OA
BRANCH  16  18
ATOM     18  O   UNL     1      19.111  34.354   6.807  1.00  0.00    -0.477 OA
ATOM     19  H   UNL     1      19.349  33.389   6.700  1.00  0.00     0.296 HD
ENDBRANCH  16  18
ENDBRANCH   9  16
BRANCH  12  20
ATOM     20  O   UNL     1      18.879  39.510   9.245  1.00  0.00    -0.391 OA
ATOM     21  H   UNL     1      18.476  39.403   8.368  1.00  0.00     0.211 HD
ENDBRANCH  12  20
BRANCH  13  22
ATOM     22  N   UNL     1      21.893  39.810   9.163  1.00  0.00    -0.348 N 
ATOM     23  C   UNL     1      21.777  41.158   8.736  1.00  0.00     0.217 C 
ATOM     24  H   UNL     1      22.628  39.617   9.907  1.00  0.00     0.163 HD
ATOM     25  C   UNL     1      22.640  42.207   9.312  1.00  0.00     0.114 C 
ATOM     26  O   UNL     1      20.937  41.483   7.861  1.00  0.00    -0.275 OA
ENDBRANCH  13  22
ENDBRANCH   7   8
BRANCH   7  27
ATOM     27  O   UNL     1      23.637  37.988   7.072  1.00  0.00    -0.388 OA
ATOM     28  H   UNL     1      24.470  38.505   7.142  1.00  0.00     0.211 HD
ENDBRANCH   7  27
ENDBRANCH   6   7
BRANCH   6  29
ATOM     29  O   UNL     1      23.262  35.703   9.771  1.00  0.00    -0.388 OA
ATOM     30  H   UNL     1      22.316  35.697   9.457  1.00  0.00     0.211 HD
ENDBRANCH   6  29
ENDBRANCH   5   6
ENDBRANCH   1   5
BRANCH   2  31
ATOM     31  O   UNL     1      26.901  35.361  12.589  1.00  0.00    -0.443 OA
BRANCH  31  32
ATOM     32  C   UNL     1      25.907  35.338  13.564  1.00  0.00     0.294 C 
BRANCH  32  33
ATOM     33  C   UNL     1      24.749  34.492  13.188  1.00  0.00     0.121 A 
ATOM     34  C   UNL     1      24.588  33.128  13.239  1.00  0.00     0.144 A 
ATOM     35  N   UNL     1      23.589  34.965  12.702  1.00  0.00    -0.131 NA
ATOM     36  N   UNL     1      23.351  32.799  12.790  1.00  0.00    -0.220 N 
ATOM     37  N   UNL     1      22.768  33.939  12.471  1.00  0.00    -0.062 NA
BRANCH  36  38
ATOM     38  C   UNL     1      22.833  31.471  12.701  1.00  0.00     0.067 A 
ATOM     39  C   UNL     1      21.510  31.240  12.432  1.00  0.00     0.036 A 
ATOM     40  C   UNL     1      23.664  30.390  12.888  1.00  0.00     0.028 A 
ATOM     41  C   UNL     1      20.985  29.921  12.343  1.00  0.00    -0.023 A 
ATOM     42  C   UNL     1      23.224  29.102  12.815  1.00  0.00     0.003 A 
ATOM     43  C   UNL     1      21.863  28.887  12.538  1.00  0.00     0.008 A 
BRANCH  41  44
ATOM     44  C   UNL     1      19.612  29.747  12.020  1.00  0.00     0.015 C 
ATOM     45  C   UNL     1      18.783  28.801  11.804  1.00  0.00     0.094 C 
BRANCH  45  46
ATOM     46  C   UNL     1      18.832  27.394  11.786  1.00  0.00     0.328 C 
ATOM     47  O   UNL     1      18.820  26.786  10.601  1.00  0.00    -0.247 OA
BRANCH  46  48
ATOM     48  O   UNL     1      18.889  26.459  12.789  1.00  0.00    -0.478 OA
ATOM     49  H   UNL     1      19.419  26.583  13.638  1.00  0.00     0.297 HD
ENDBRANCH  46  48
ENDBRANCH  45  46
ENDBRANCH  41  44
ENDBRANCH  36  38
ENDBRANCH  32  33
ENDBRANCH  31  32
ENDBRANCH   2  31
TORSDOF 18
BEGIN_RES LYS A 131
REMARK  4 active torsions:
REMARK  status: ('A' for Active; 'I' for Inactive)
REMARK    1  A    between atoms: CA   and  CB  
REMARK    2  A    between atoms: CB   and  CG  
REMARK    3  A    between atoms: CG   and  CD  
REMARK    4  A    between atoms: CD   and  CE  
ROOT
ATOM      1  CA  LYS A 131      29.867  25.555  16.977  1.00 20.52     0.186 C 
ENDROOT
BRANCH   1   2
ATOM      2  CB  LYS A 131      28.345  25.722  17.026  1.00 20.94     0.034 C 
BRANCH   2   3
ATOM      3  CG  LYS A 131      27.601  24.404  16.878  1.00 22.96     0.005 C 
BRANCH   3   4
ATOM      4  CD  LYS A 131      26.539  24.231  17.928  1.00 24.33     0.041 C 
BRANCH   4   5
ATOM      5  CE  LYS A 131      25.204  23.928  17.257  1.00 26.91     0.338 C 
ATOM      6  NZ  LYS A 131      24.264  23.314  18.225  1.00 27.40     0.618 N 
ENDBRANCH   4   5
ENDBRANCH   3   4
ENDBRANCH   2   3
ENDBRANCH   1   2
END_RES LYS A 131
BEGIN_RES LYS A 135
REMARK  4 active torsions:
REMARK  status: ('A' for Active; 'I' for Inactive)
REMARK    5  A    between atoms: CA   and  CB  
REMARK    6  A    between atoms: CB   and  CG  
REMARK    7  A    between atoms: CG   and  CD  
REMARK    8  A    between atoms: CD   and  CE  
ROOT
ATOM      7  CA  LYS A 135      33.193  34.663   9.290  1.00 25.02     0.186 C 
ENDROOT
BRANCH   7   8
ATOM      8  CB  LYS A 135      32.060  35.360  10.034  1.00 26.63     0.034 C 
BRANCH   8   9
ATOM      9  CG  LYS A 135      30.725  34.680   9.873  1.00 29.45     0.005 C 
BRANCH   9  10
ATOM     10  CD  LYS A 135      30.305  34.662   8.411  1.00 32.00     0.041 C 
BRANCH  10  11
ATOM     11  CE  LYS A 135      28.796  34.568   8.291  1.00 34.25     0.338 C 
ATOM     12  NZ  LYS A 135      28.220  33.750   9.395  1.00 35.99     0.618 N 
ENDBRANCH  10  11
ENDBRANCH   9  10
ENDBRANCH   8   9
ENDBRANCH   7   8
END_RES LYS A 135
