REMARK VINA RESULT:    -5.220      3.789      8.610
REMARK INTER + INTRA:         -16.358
REMARK INTER:                 -10.121
REMARK INTRA:                  -6.237
REMARK UNBOUND:                -6.408
REMARK SMILES CC(=O)N[C@@H]1[C@@H](O)C[C@](O)(C(=O)O)O[C@H]1C(O)[C@H](O)CNC(=O)OCc1cn(-c2ccc(S(=O)(=O)Nc3nccs3)cc2)nn1
REMARK SMILES IDX 21 1 22 2 23 3 20 5 18 6 16 7 15 8 9 9 8 10 14 11 6 12 5 13
REMARK SMILES IDX 10 14 11 16 12 17 13 18 7 20 4 22 2 23 1 25 3 26 17 27 19 29
REMARK SMILES IDX 24 31 25 32 26 33 27 34 45 35 28 36 44 37 29 38 30 39 43 40
REMARK SMILES IDX 31 41 42 42 32 43 33 44 34 45 35 46 36 47 37 49 38 50 41 51
REMARK SMILES IDX 39 52 40 53
REMARK H PARENT 21 4 10 15 13 19 7 21 4 24 17 28 19 30 36 48
REMARK Flexibility Score: inf
ROOT
ATOM      1  N   UNL     1      25.544  33.425  14.089  1.00  0.00    -0.319 N 
ATOM      2  C   UNL     1      24.234  32.924  14.251  1.00  0.00     0.407 C 
ATOM      3  O   UNL     1      23.513  33.394  15.196  1.00  0.00    -0.225 OA
ATOM      4  H   UNL     1      26.133  33.051  13.326  1.00  0.00     0.167 HD
ENDROOT
BRANCH   1   5
ATOM      5  C   UNL     1      26.079  34.442  14.954  1.00  0.00     0.154 C 
BRANCH   5   6
ATOM      6  C   UNL     1      27.485  34.844  14.583  1.00  0.00     0.165 C 
BRANCH   6   7
ATOM      7  C   UNL     1      28.499  33.826  15.020  1.00  0.00     0.176 C 
BRANCH   7   8
ATOM      8  C   UNL     1      29.626  34.494  15.828  1.00  0.00     0.178 C 
ATOM      9  C   UNL     1      31.396  34.636  14.274  1.00  0.00     0.269 C 
ATOM     10  C   UNL     1      32.273  33.846  15.226  1.00  0.00     0.112 C 
ATOM     11  O   UNL     1      30.375  35.211  14.946  1.00  0.00    -0.332 OA
ATOM     12  C   UNL     1      31.381  32.776  15.811  1.00  0.00     0.145 C 
ATOM     13  C   UNL     1      30.315  33.461  16.630  1.00  0.00     0.142 C 
BRANCH   9  14
ATOM     14  O   UNL     1      30.886  33.699  13.365  1.00  0.00    -0.357 OA
ATOM     15  H   UNL     1      31.196  33.843  12.452  1.00  0.00     0.214 HD
ENDBRANCH   9  14
BRANCH   9  16
ATOM     16  C   UNL     1      32.203  35.609  13.492  1.00  0.00     0.364 C 
ATOM     17  O   UNL     1      32.248  36.794  13.850  1.00  0.00    -0.246 OA
BRANCH  16  18
ATOM     18  O   UNL     1      32.902  35.208  12.371  1.00  0.00    -0.477 OA
ATOM     19  H   UNL     1      33.168  34.219  12.253  1.00  0.00     0.296 HD
ENDBRANCH  16  18
ENDBRANCH   9  16
BRANCH  12  20
ATOM     20  O   UNL     1      30.864  31.981  14.795  1.00  0.00    -0.391 OA
ATOM     21  H   UNL     1      30.290  32.569  14.223  1.00  0.00     0.211 HD
ENDBRANCH  12  20
BRANCH  13  22
ATOM     22  N   UNL     1      30.923  33.913  17.840  1.00  0.00    -0.348 N 
ATOM     23  C   UNL     1      30.990  33.066  18.967  1.00  0.00     0.217 C 
ATOM     24  H   UNL     1      31.319  34.865  17.902  1.00  0.00     0.163 HD
ATOM     25  C   UNL     1      31.602  33.453  20.263  1.00  0.00     0.114 C 
ATOM     26  O   UNL     1      30.506  31.930  18.867  1.00  0.00    -0.275 OA
ENDBRANCH  13  22
ENDBRANCH   7   8
BRANCH   7  27
ATOM     27  O   UNL     1      27.922  32.793  15.794  1.00  0.00    -0.388 OA
ATOM     28  H   UNL     1      28.107  31.951  15.340  1.00  0.00     0.211 HD
ENDBRANCH   7  27
ENDBRANCH   6   7
BRANCH   6  29
ATOM     29  O   UNL     1      27.698  36.086  15.219  1.00  0.00    -0.388 OA
ATOM     30  H   UNL     1      27.396  35.971  16.153  1.00  0.00     0.211 HD
ENDBRANCH   6  29
ENDBRANCH   5   6
ENDBRANCH   1   5
BRANCH   2  31
ATOM     31  O   UNL     1      23.679  31.950  13.448  1.00  0.00    -0.443 OA
BRANCH  31  32
ATOM     32  C   UNL     1      24.331  30.693  13.220  1.00  0.00     0.294 C 
BRANCH  32  33
ATOM     33  C   UNL     1      24.475  30.051  14.559  1.00  0.00     0.121 A 
ATOM     34  C   UNL     1      25.610  30.060  15.374  1.00  0.00     0.144 A 
ATOM     35  N   UNL     1      23.568  29.340  15.260  1.00  0.00    -0.131 NA
ATOM     36  N   UNL     1      25.355  29.376  16.501  1.00  0.00    -0.220 N 
ATOM     37  N   UNL     1      24.109  28.958  16.391  1.00  0.00    -0.062 NA
BRANCH  36  38
ATOM     38  C   UNL     1      26.276  29.174  17.564  1.00  0.00     0.066 A 
ATOM     39  C   UNL     1      26.737  27.928  17.921  1.00  0.00     0.030 A 
ATOM     40  C   UNL     1      26.738  30.258  18.280  1.00  0.00     0.030 A 
ATOM     41  C   UNL     1      27.640  27.753  18.969  1.00  0.00     0.024 A 
ATOM     42  C   UNL     1      27.630  30.087  19.315  1.00  0.00     0.024 A 
ATOM     43  C   UNL     1      28.108  28.826  19.689  1.00  0.00     0.088 A 
BRANCH  43  44
ATOM     44  S   UNL     1      29.243  28.658  20.995  1.00  0.00     0.263 S 
ATOM     45  O   UNL     1      29.953  27.325  20.793  1.00  0.00    -0.201 OA
ATOM     46  O   UNL     1      28.468  28.534  22.261  1.00  0.00    -0.201 OA
BRANCH  44  47
ATOM     47  N   UNL     1      30.401  29.898  21.088  1.00  0.00    -0.255 N 
ATOM     48  H   UNL     1      30.149  30.834  20.668  1.00  0.00     0.182 HD
BRANCH  47  49
ATOM     49  C   UNL     1      31.679  29.825  21.665  1.00  0.00     0.196 A 
ATOM     50  N   UNL     1      32.862  29.740  21.377  1.00  0.00    -0.228 NA
ATOM     51  S   UNL     1      31.838  29.865  23.547  1.00  0.00    -0.105 S 
ATOM     52  C   UNL     1      33.887  29.693  22.166  1.00  0.00     0.125 A 
ATOM     53  C   UNL     1      33.693  29.742  23.503  1.00  0.00     0.089 A 
ENDBRANCH  47  49
ENDBRANCH  44  47
ENDBRANCH  43  44
ENDBRANCH  36  38
ENDBRANCH  32  33
ENDBRANCH  31  32
ENDBRANCH   2  31
TORSDOF 18
BEGIN_RES LYS A 131
REMARK  4 active torsions:
REMARK  status: ('A' for Active; 'I' for Inactive)
REMARK    1  A    between atoms: CA   and  CB  
REMARK    2  A    between atoms: CB   and  CG  
REMARK    3  A    between atoms: CG   and  CD  
REMARK    4  A    between atoms: CD   and  CE  
ROOT
ATOM      1  CA  LYS A 131      29.867  25.555  16.977  1.00 20.52     0.186 C 
ENDROOT
BRANCH   1   2
ATOM      2  CB  LYS A 131      28.345  25.722  17.026  1.00 20.94     0.034 C 
BRANCH   2   3
ATOM      3  CG  LYS A 131      27.600  24.414  16.806  1.00 22.96     0.005 C 
BRANCH   3   4
ATOM      4  CD  LYS A 131      26.177  24.485  17.288  1.00 24.33     0.041 C 
BRANCH   4   5
ATOM      5  CE  LYS A 131      26.084  23.887  18.688  1.00 26.91     0.338 C 
ATOM      6  NZ  LYS A 131      25.427  24.838  19.616  1.00 27.40     0.618 N 
ENDBRANCH   4   5
ENDBRANCH   3   4
ENDBRANCH   2   3
ENDBRANCH   1   2
END_RES LYS A 131
BEGIN_RES LYS A 135
REMARK  4 active torsions:
REMARK  status: ('A' for Active; 'I' for Inactive)
REMARK    5  A    between atoms: CA   and  CB  
REMARK    6  A    between atoms: CB   and  CG  
REMARK    7  A    between atoms: CG   and  CD  
REMARK    8  A    between atoms: CD   and  CE  
ROOT
ATOM      7  CA  LYS A 135      33.193  34.663   9.290  1.00 25.02     0.186 C 
ENDROOT
BRANCH   7   8
ATOM      8  CB  LYS A 135      32.060  35.360  10.034  1.00 26.63     0.034 C 
BRANCH   8   9
ATOM      9  CG  LYS A 135      30.805  35.512   9.214  1.00 29.45     0.005 C 
BRANCH   9  10
ATOM     10  CD  LYS A 135      30.114  34.168   9.037  1.00 32.00     0.041 C 
BRANCH  10  11
ATOM     11  CE  LYS A 135      28.652  34.364   8.685  1.00 34.25     0.338 C 
ATOM     12  NZ  LYS A 135      27.769  33.632   9.634  1.00 35.99     0.618 N 
ENDBRANCH  10  11
ENDBRANCH   9  10
ENDBRANCH   8   9
ENDBRANCH   7   8
END_RES LYS A 135
