REMARK VINA RESULT:    -5.645      4.353      8.592
REMARK INTER + INTRA:         -14.588
REMARK INTER:                  -7.839
REMARK INTRA:                  -6.748
REMARK UNBOUND:                -3.993
REMARK SMILES CC(=O)N[C@@H]1[C@@H](O)C[C@](O)(C(=O)O)O[C@H]1C(O)[C@H](O)CNC(=O)OCc1cn(Cc2ccc(C(=O)O)cc2)nn1
REMARK SMILES IDX 21 1 22 2 23 3 20 5 18 6 16 7 15 8 9 9 8 10 14 11 6 12 5 13
REMARK SMILES IDX 10 14 11 16 12 17 13 18 7 20 4 22 2 23 1 25 3 26 17 27 19 29
REMARK SMILES IDX 24 31 25 32 26 33 27 34 40 35 28 36 39 37 29 38 30 39 31 40
REMARK SMILES IDX 38 41 32 42 37 43 33 44 34 45 35 46 36 47
REMARK H PARENT 21 4 10 15 13 19 7 21 4 24 17 28 19 30 36 48
REMARK Flexibility Score: inf
ROOT
ATOM      1  N   UNL     1      27.095  31.988  15.859  1.00  0.00    -0.319 N 
ATOM      2  C   UNL     1      27.546  32.040  17.189  1.00  0.00     0.407 C 
ATOM      3  O   UNL     1      26.771  32.396  18.092  1.00  0.00    -0.225 OA
ATOM      4  H   UNL     1      27.823  31.677  15.146  1.00  0.00     0.167 HD
ENDROOT
BRANCH   1   5
ATOM      5  C   UNL     1      25.756  32.320  15.450  1.00  0.00     0.154 C 
BRANCH   5   6
ATOM      6  C   UNL     1      25.705  33.763  15.023  1.00  0.00     0.165 C 
BRANCH   6   7
ATOM      7  C   UNL     1      26.793  34.158  14.076  1.00  0.00     0.176 C 
BRANCH   7   8
ATOM      8  C   UNL     1      26.238  35.093  12.986  1.00  0.00     0.178 C 
ATOM      9  C   UNL     1      26.281  35.307  10.684  1.00  0.00     0.269 C 
ATOM     10  C   UNL     1      27.169  36.541  10.703  1.00  0.00     0.112 C 
ATOM     11  O   UNL     1      26.626  34.552  11.779  1.00  0.00    -0.332 OA
ATOM     12  C   UNL     1      26.988  37.293  11.981  1.00  0.00     0.145 C 
ATOM     13  C   UNL     1      26.885  36.414  13.197  1.00  0.00     0.142 C 
BRANCH   9  14
ATOM     14  O   UNL     1      26.716  34.591   9.531  1.00  0.00    -0.357 OA
ATOM     15  H   UNL     1      27.724  34.616   9.523  1.00  0.00     0.214 HD
ENDBRANCH   9  14
BRANCH   9  16
ATOM     16  C   UNL     1      24.863  35.651  10.549  1.00  0.00     0.364 C 
ATOM     17  O   UNL     1      23.987  34.869  11.054  1.00  0.00    -0.246 OA
BRANCH  16  18
ATOM     18  O   UNL     1      24.341  36.762   9.917  1.00  0.00    -0.477 OA
ATOM     19  H   UNL     1      23.633  37.284  10.413  1.00  0.00     0.296 HD
ENDBRANCH  16  18
ENDBRANCH   9  16
BRANCH  12  20
ATOM     20  O   UNL     1      28.144  38.092  12.150  1.00  0.00    -0.391 OA
ATOM     21  H   UNL     1      28.505  37.856  13.040  1.00  0.00     0.211 HD
ENDBRANCH  12  20
BRANCH  13  22
ATOM     22  N   UNL     1      26.304  37.171  14.288  1.00  0.00    -0.348 N 
ATOM     23  C   UNL     1      27.101  37.780  15.288  1.00  0.00     0.217 C 
ATOM     24  H   UNL     1      25.272  37.291  14.367  1.00  0.00     0.163 HD
ATOM     25  C   UNL     1      26.476  38.564  16.414  1.00  0.00     0.114 C 
ATOM     26  O   UNL     1      28.339  37.659  15.223  1.00  0.00    -0.275 OA
ENDBRANCH  13  22
ENDBRANCH   7   8
BRANCH   7  27
ATOM     27  O   UNL     1      27.915  34.683  14.669  1.00  0.00    -0.388 OA
ATOM     28  H   UNL     1      27.744  34.847  15.632  1.00  0.00     0.211 HD
ENDBRANCH   7  27
ENDBRANCH   6   7
BRANCH   6  29
ATOM     29  O   UNL     1      25.685  34.640  16.115  1.00  0.00    -0.388 OA
ATOM     30  H   UNL     1      26.482  34.461  16.690  1.00  0.00     0.211 HD
ENDBRANCH   6  29
ENDBRANCH   5   6
ENDBRANCH   1   5
BRANCH   2  31
ATOM     31  O   UNL     1      28.840  31.710  17.570  1.00  0.00    -0.443 OA
BRANCH  31  32
ATOM     32  C   UNL     1      29.802  31.168  16.698  1.00  0.00     0.294 C 
BRANCH  32  33
ATOM     33  C   UNL     1      30.399  32.244  15.879  1.00  0.00     0.120 A 
ATOM     34  C   UNL     1      31.507  33.013  16.238  1.00  0.00     0.138 A 
ATOM     35  N   UNL     1      30.039  32.717  14.670  1.00  0.00    -0.132 NA
ATOM     36  N   UNL     1      31.760  33.890  15.259  1.00  0.00    -0.248 N 
ATOM     37  N   UNL     1      30.862  33.692  14.325  1.00  0.00    -0.067 NA
BRANCH  36  38
ATOM     38  C   UNL     1      32.835  34.893  15.242  1.00  0.00     0.181 C 
BRANCH  38  39
ATOM     39  C   UNL     1      32.483  35.832  14.129  1.00  0.00    -0.026 A 
ATOM     40  C   UNL     1      32.973  35.600  12.875  1.00  0.00     0.006 A 
ATOM     41  C   UNL     1      31.681  36.927  14.337  1.00  0.00     0.006 A 
ATOM     42  C   UNL     1      32.666  36.461  11.816  1.00  0.00     0.016 A 
ATOM     43  C   UNL     1      31.375  37.783  13.285  1.00  0.00     0.016 A 
ATOM     44  C   UNL     1      31.865  37.559  12.013  1.00  0.00     0.059 A 
BRANCH  44  45
ATOM     45  C   UNL     1      31.536  38.462  10.918  1.00  0.00     0.335 C 
ATOM     46  O   UNL     1      30.598  39.287  10.972  1.00  0.00    -0.246 OA
BRANCH  45  47
ATOM     47  O   UNL     1      32.291  38.417   9.751  1.00  0.00    -0.478 OA
ATOM     48  H   UNL     1      32.328  37.588   9.183  1.00  0.00     0.297 HD
ENDBRANCH  45  47
ENDBRANCH  44  45
ENDBRANCH  38  39
ENDBRANCH  36  38
ENDBRANCH  32  33
ENDBRANCH  31  32
ENDBRANCH   2  31
TORSDOF 18
BEGIN_RES LYS A 131
REMARK  4 active torsions:
REMARK  status: ('A' for Active; 'I' for Inactive)
REMARK    1  A    between atoms: CA   and  CB  
REMARK    2  A    between atoms: CB   and  CG  
REMARK    3  A    between atoms: CG   and  CD  
REMARK    4  A    between atoms: CD   and  CE  
ROOT
ATOM      1  CA  LYS A 131      29.867  25.555  16.977  1.00 20.52     0.186 C 
ENDROOT
BRANCH   1   2
ATOM      2  CB  LYS A 131      28.345  25.722  17.026  1.00 20.94     0.034 C 
BRANCH   2   3
ATOM      3  CG  LYS A 131      27.601  24.402  16.895  1.00 22.96     0.005 C 
BRANCH   3   4
ATOM      4  CD  LYS A 131      26.156  24.524  17.291  1.00 24.33     0.041 C 
BRANCH   4   5
ATOM      5  CE  LYS A 131      25.639  23.167  17.758  1.00 26.91     0.338 C 
ATOM      6  NZ  LYS A 131      25.454  23.161  19.228  1.00 27.40     0.618 N 
ENDBRANCH   4   5
ENDBRANCH   3   4
ENDBRANCH   2   3
ENDBRANCH   1   2
END_RES LYS A 131
BEGIN_RES LYS A 135
REMARK  4 active torsions:
REMARK  status: ('A' for Active; 'I' for Inactive)
REMARK    5  A    between atoms: CA   and  CB  
REMARK    6  A    between atoms: CB   and  CG  
REMARK    7  A    between atoms: CG   and  CD  
REMARK    8  A    between atoms: CD   and  CE  
ROOT
ATOM      7  CA  LYS A 135      33.193  34.663   9.290  1.00 25.02     0.186 C 
ENDROOT
BRANCH   7   8
ATOM      8  CB  LYS A 135      32.060  35.360  10.034  1.00 26.63     0.034 C 
BRANCH   8   9
ATOM      9  CG  LYS A 135      30.736  34.651   9.916  1.00 29.45     0.005 C 
BRANCH   9  10
ATOM     10  CD  LYS A 135      30.318  34.532   8.458  1.00 32.00     0.041 C 
BRANCH  10  11
ATOM     11  CE  LYS A 135      29.662  35.815   7.986  1.00 34.25     0.338 C 
ATOM     12  NZ  LYS A 135      28.726  35.555   6.857  1.00 35.99     0.618 N 
ENDBRANCH  10  11
ENDBRANCH   9  10
ENDBRANCH   8   9
ENDBRANCH   7   8
END_RES LYS A 135
