REMARK VINA RESULT:    -4.155      2.289      4.274
REMARK INTER + INTRA:         -14.475
REMARK INTER:                 -10.366
REMARK INTRA:                  -4.109
REMARK UNBOUND:                -7.042
REMARK SMILES CC(=O)N[C@@H]1[C@@H](O)C[C@](O)(C(=O)O)O[C@H]1C(O)[C@H](O)CNC(=O)OCc1cn(-c2ncccc2C#N)nn1
REMARK SMILES IDX 21 1 22 2 23 3 20 5 18 6 16 7 15 8 9 9 8 10 14 11 6 12 5 13
REMARK SMILES IDX 10 14 11 16 12 17 13 18 7 20 4 22 2 23 1 25 3 26 17 27 19 29
REMARK SMILES IDX 24 31 25 32 26 33 27 34 38 35 28 36 37 37 29 38 30 39 34 40
REMARK SMILES IDX 31 41 33 42 32 43 35 44 36 45
REMARK H PARENT 21 4 10 15 13 19 7 21 4 24 17 28 19 30
REMARK Flexibility Score: inf
ROOT
ATOM      1  N   UNL     1      26.490  36.728  10.746  1.00  0.00    -0.319 N 
ATOM      2  C   UNL     1      27.854  36.837  11.179  1.00  0.00     0.407 C 
ATOM      3  O   UNL     1      28.545  37.823  10.900  1.00  0.00    -0.225 OA
ATOM      4  H   UNL     1      26.018  35.826  11.089  1.00  0.00     0.167 HD
ENDROOT
BRANCH   1   5
ATOM      5  C   UNL     1      25.807  37.680  10.010  1.00  0.00     0.154 C 
BRANCH   5   6
ATOM      6  C   UNL     1      25.135  37.234   8.687  1.00  0.00     0.165 C 
BRANCH   6   7
ATOM      7  C   UNL     1      26.274  36.935   7.790  1.00  0.00     0.176 C 
BRANCH   7   8
ATOM      8  C   UNL     1      27.336  37.952   7.580  1.00  0.00     0.178 C 
ATOM      9  C   UNL     1      27.549  38.937   5.454  1.00  0.00     0.269 C 
ATOM     10  C   UNL     1      28.981  39.362   5.668  1.00  0.00     0.112 C 
ATOM     11  O   UNL     1      26.828  38.901   6.649  1.00  0.00    -0.332 OA
ATOM     12  C   UNL     1      29.497  38.827   7.020  1.00  0.00     0.145 C 
ATOM     13  C   UNL     1      28.684  37.524   7.215  1.00  0.00     0.142 C 
BRANCH   9  14
ATOM     14  O   UNL     1      27.496  37.758   4.726  1.00  0.00    -0.357 OA
ATOM     15  H   UNL     1      26.667  37.610   4.248  1.00  0.00     0.214 HD
ENDBRANCH   9  14
BRANCH   9  16
ATOM     16  C   UNL     1      26.916  40.029   4.687  1.00  0.00     0.364 C 
ATOM     17  O   UNL     1      27.263  40.633   3.747  1.00  0.00    -0.246 OA
BRANCH  16  18
ATOM     18  O   UNL     1      25.595  40.396   5.244  1.00  0.00    -0.477 OA
ATOM     19  H   UNL     1      25.036  39.614   5.594  1.00  0.00     0.296 HD
ENDBRANCH  16  18
ENDBRANCH   9  16
BRANCH  12  20
ATOM     20  O   UNL     1      30.845  38.580   6.974  1.00  0.00    -0.391 OA
ATOM     21  H   UNL     1      31.345  39.349   6.647  1.00  0.00     0.211 HD
ENDBRANCH  12  20
BRANCH  13  22
ATOM     22  N   UNL     1      29.371  36.755   8.262  1.00  0.00    -0.348 N 
ATOM     23  C   UNL     1      29.747  35.432   7.983  1.00  0.00     0.217 C 
ATOM     24  H   UNL     1      29.576  37.186   9.143  1.00  0.00     0.163 HD
ATOM     25  C   UNL     1      30.429  34.404   8.679  1.00  0.00     0.114 C 
ATOM     26  O   UNL     1      29.345  35.122   6.717  1.00  0.00    -0.275 OA
ENDBRANCH  13  22
ENDBRANCH   7   8
BRANCH   7  27
ATOM     27  O   UNL     1      26.662  35.630   7.885  1.00  0.00    -0.388 OA
ATOM     28  H   UNL     1      26.010  35.003   7.473  1.00  0.00     0.211 HD
ENDBRANCH   7  27
ENDBRANCH   6   7
BRANCH   6  29
ATOM     29  O   UNL     1      24.289  38.253   8.354  1.00  0.00    -0.388 OA
ATOM     30  H   UNL     1      23.703  37.968   7.608  1.00  0.00     0.211 HD
ENDBRANCH   6  29
ENDBRANCH   5   6
ENDBRANCH   1   5
BRANCH   2  31
ATOM     31  O   UNL     1      28.401  35.801  11.939  1.00  0.00    -0.443 OA
BRANCH  31  32
ATOM     32  C   UNL     1      27.602  35.092  12.910  1.00  0.00     0.294 C 
BRANCH  32  33
ATOM     33  C   UNL     1      28.644  34.505  13.831  1.00  0.00     0.121 A 
ATOM     34  C   UNL     1      28.477  34.182  15.145  1.00  0.00     0.146 A 
ATOM     35  N   UNL     1      29.867  34.134  13.456  1.00  0.00    -0.131 NA
ATOM     36  N   UNL     1      29.652  33.596  15.532  1.00  0.00    -0.201 N 
ATOM     37  N   UNL     1      30.472  33.587  14.471  1.00  0.00    -0.060 NA
BRANCH  36  38
ATOM     38  C   UNL     1      29.959  33.072  16.783  1.00  0.00     0.173 A 
ATOM     39  N   UNL     1      30.608  33.859  17.739  1.00  0.00    -0.236 NA
ATOM     40  C   UNL     1      29.770  31.765  17.180  1.00  0.00     0.097 A 
ATOM     41  C   UNL     1      30.967  33.355  18.844  1.00  0.00     0.113 A 
ATOM     42  C   UNL     1      30.153  31.252  18.337  1.00  0.00     0.025 A 
ATOM     43  C   UNL     1      30.817  32.031  19.329  1.00  0.00     0.022 A 
BRANCH  40  44
ATOM     44  C   UNL     1      29.139  30.817  16.182  1.00  0.00     0.103 C 
ATOM     45  N   UNL     1      28.735  30.177  15.513  1.00  0.00    -0.192 NA
ENDBRANCH  40  44
ENDBRANCH  36  38
ENDBRANCH  32  33
ENDBRANCH  31  32
ENDBRANCH   2  31
TORSDOF 16
BEGIN_RES LYS A 131
REMARK  4 active torsions:
REMARK  status: ('A' for Active; 'I' for Inactive)
REMARK    1  A    between atoms: CA   and  CB  
REMARK    2  A    between atoms: CB   and  CG  
REMARK    3  A    between atoms: CG   and  CD  
REMARK    4  A    between atoms: CD   and  CE  
ROOT
ATOM      1  CA  LYS A 131      29.867  25.555  16.977  1.00 20.52     0.186 C 
ENDROOT
BRANCH   1   2
ATOM      2  CB  LYS A 131      28.345  25.722  17.026  1.00 20.94     0.034 C 
BRANCH   2   3
ATOM      3  CG  LYS A 131      27.601  24.403  16.885  1.00 22.96     0.005 C 
BRANCH   3   4
ATOM      4  CD  LYS A 131      26.537  24.238  17.934  1.00 24.33     0.041 C 
BRANCH   4   5
ATOM      5  CE  LYS A 131      25.192  23.985  17.260  1.00 26.91     0.338 C 
ATOM      6  NZ  LYS A 131      24.753  22.587  17.486  1.00 27.40     0.618 N 
ENDBRANCH   4   5
ENDBRANCH   3   4
ENDBRANCH   2   3
ENDBRANCH   1   2
END_RES LYS A 131
BEGIN_RES LYS A 135
REMARK  4 active torsions:
REMARK  status: ('A' for Active; 'I' for Inactive)
REMARK    5  A    between atoms: CA   and  CB  
REMARK    6  A    between atoms: CB   and  CG  
REMARK    7  A    between atoms: CG   and  CD  
REMARK    8  A    between atoms: CD   and  CE  
ROOT
ATOM      7  CA  LYS A 135      33.193  34.663   9.290  1.00 25.02     0.186 C 
ENDROOT
BRANCH   7   8
ATOM      8  CB  LYS A 135      32.060  35.360  10.034  1.00 26.63     0.034 C 
BRANCH   8   9
ATOM      9  CG  LYS A 135      32.445  35.832  11.412  1.00 29.45     0.005 C 
BRANCH   9  10
ATOM     10  CD  LYS A 135      31.927  37.240  11.662  1.00 32.00     0.041 C 
BRANCH  10  11
ATOM     11  CE  LYS A 135      31.505  37.403  13.109  1.00 34.25     0.338 C 
ATOM     12  NZ  LYS A 135      30.846  38.721  13.330  1.00 35.99     0.618 N 
ENDBRANCH  10  11
ENDBRANCH   9  10
ENDBRANCH   8   9
ENDBRANCH   7   8
END_RES LYS A 135
