REMARK VINA RESULT:    -4.141      4.218      8.943
REMARK INTER + INTRA:         -14.451
REMARK INTER:                  -8.251
REMARK INTRA:                  -6.199
REMARK UNBOUND:                -7.042
REMARK SMILES CC(=O)N[C@@H]1[C@@H](O)C[C@](O)(C(=O)O)O[C@H]1C(O)[C@H](O)CNC(=O)OCc1cn(-c2ncccc2C#N)nn1
REMARK SMILES IDX 21 1 22 2 23 3 20 5 18 6 16 7 15 8 9 9 8 10 14 11 6 12 5 13
REMARK SMILES IDX 10 14 11 16 12 17 13 18 7 20 4 22 2 23 1 25 3 26 17 27 19 29
REMARK SMILES IDX 24 31 25 32 26 33 27 34 38 35 28 36 37 37 29 38 30 39 34 40
REMARK SMILES IDX 31 41 33 42 32 43 35 44 36 45
REMARK H PARENT 21 4 10 15 13 19 7 21 4 24 17 28 19 30
REMARK Flexibility Score: inf
ROOT
ATOM      1  N   UNL     1      30.272  34.901  15.133  1.00  0.00    -0.319 N 
ATOM      2  C   UNL     1      29.314  35.970  15.178  1.00  0.00     0.407 C 
ATOM      3  O   UNL     1      28.332  35.928  15.927  1.00  0.00    -0.225 OA
ATOM      4  H   UNL     1      31.078  35.097  14.451  1.00  0.00     0.167 HD
ENDROOT
BRANCH   1   5
ATOM      5  C   UNL     1      30.224  33.753  15.904  1.00  0.00     0.154 C 
BRANCH   5   6
ATOM      6  C   UNL     1      29.815  32.428  15.213  1.00  0.00     0.165 C 
BRANCH   6   7
ATOM      7  C   UNL     1      28.457  32.156  15.735  1.00  0.00     0.176 C 
BRANCH   7   8
ATOM      8  C   UNL     1      28.031  30.756  15.993  1.00  0.00     0.178 C 
ATOM      9  C   UNL     1      25.736  30.303  16.235  1.00  0.00     0.269 C 
ATOM     10  C   UNL     1      25.953  29.011  16.985  1.00  0.00     0.112 C 
ATOM     11  O   UNL     1      26.778  30.574  15.346  1.00  0.00    -0.332 OA
ATOM     12  C   UNL     1      27.456  28.806  17.264  1.00  0.00     0.145 C 
ATOM     13  C   UNL     1      27.996  30.253  17.364  1.00  0.00     0.142 C 
BRANCH   9  14
ATOM     14  O   UNL     1      25.461  31.337  17.116  1.00  0.00    -0.357 OA
ATOM     15  H   UNL     1      26.153  32.012  17.182  1.00  0.00     0.214 HD
ENDBRANCH   9  14
BRANCH   9  16
ATOM     16  C   UNL     1      24.571  30.067  15.358  1.00  0.00     0.364 C 
ATOM     17  O   UNL     1      23.640  29.365  15.460  1.00  0.00    -0.246 OA
BRANCH  16  18
ATOM     18  O   UNL     1      24.628  30.896  14.134  1.00  0.00    -0.477 OA
ATOM     19  H   UNL     1      25.321  30.604  13.441  1.00  0.00     0.296 HD
ENDBRANCH  16  18
ENDBRANCH   9  16
BRANCH  12  20
ATOM     20  O   UNL     1      27.654  28.110  18.429  1.00  0.00    -0.391 OA
ATOM     21  H   UNL     1      27.914  28.695  19.162  1.00  0.00     0.211 HD
ENDBRANCH  12  20
BRANCH  13  22
ATOM     22  N   UNL     1      29.317  30.164  18.003  1.00  0.00    -0.348 N 
ATOM     23  C   UNL     1      29.602  31.028  19.072  1.00  0.00     0.217 C 
ATOM     24  H   UNL     1      29.979  29.484  17.684  1.00  0.00     0.163 HD
ATOM     25  C   UNL     1      30.699  31.231  19.944  1.00  0.00     0.114 C 
ATOM     26  O   UNL     1      28.521  31.832  19.285  1.00  0.00    -0.275 OA
ENDBRANCH  13  22
ENDBRANCH   7   8
BRANCH   7  27
ATOM     27  O   UNL     1      28.059  33.109  16.626  1.00  0.00    -0.388 OA
ATOM     28  H   UNL     1      27.881  33.987  16.196  1.00  0.00     0.211 HD
ENDBRANCH   7  27
ENDBRANCH   6   7
BRANCH   6  29
ATOM     29  O   UNL     1      30.818  31.547  15.506  1.00  0.00    -0.388 OA
ATOM     30  H   UNL     1      30.575  31.023  16.310  1.00  0.00     0.211 HD
ENDBRANCH   6  29
ENDBRANCH   5   6
ENDBRANCH   1   5
BRANCH   2  31
ATOM     31  O   UNL     1      29.510  37.080  14.353  1.00  0.00    -0.443 OA
BRANCH  31  32
ATOM     32  C   UNL     1      29.948  36.922  12.987  1.00  0.00     0.294 C 
BRANCH  32  33
ATOM     33  C   UNL     1      28.825  36.126  12.368  1.00  0.00     0.121 A 
ATOM     34  C   UNL     1      27.628  36.612  11.932  1.00  0.00     0.146 A 
ATOM     35  N   UNL     1      28.885  34.827  12.078  1.00  0.00    -0.131 NA
ATOM     36  N   UNL     1      26.984  35.547  11.364  1.00  0.00    -0.201 N 
ATOM     37  N   UNL     1      27.786  34.478  11.474  1.00  0.00    -0.060 NA
BRANCH  36  38
ATOM     38  C   UNL     1      25.735  35.549  10.752  1.00  0.00     0.173 A 
ATOM     39  N   UNL     1      25.547  36.202   9.531  1.00  0.00    -0.236 NA
ATOM     40  C   UNL     1      24.573  35.031  11.286  1.00  0.00     0.097 A 
ATOM     41  C   UNL     1      24.391  36.280   9.019  1.00  0.00     0.113 A 
ATOM     42  C   UNL     1      23.372  35.123  10.742  1.00  0.00     0.025 A 
ATOM     43  C   UNL     1      23.152  35.784   9.498  1.00  0.00     0.022 A 
BRANCH  40  44
ATOM     44  C   UNL     1      24.664  34.367  12.644  1.00  0.00     0.103 C 
ATOM     45  N   UNL     1      24.736  33.912  13.543  1.00  0.00    -0.192 NA
ENDBRANCH  40  44
ENDBRANCH  36  38
ENDBRANCH  32  33
ENDBRANCH  31  32
ENDBRANCH   2  31
TORSDOF 16
BEGIN_RES LYS A 131
REMARK  4 active torsions:
REMARK  status: ('A' for Active; 'I' for Inactive)
REMARK    1  A    between atoms: CA   and  CB  
REMARK    2  A    between atoms: CB   and  CG  
REMARK    3  A    between atoms: CG   and  CD  
REMARK    4  A    between atoms: CD   and  CE  
ROOT
ATOM      1  CA  LYS A 131      29.867  25.555  16.977  1.00 20.52     0.186 C 
ENDROOT
BRANCH   1   2
ATOM      2  CB  LYS A 131      28.345  25.722  17.026  1.00 20.94     0.034 C 
BRANCH   2   3
ATOM      3  CG  LYS A 131      27.601  24.404  16.878  1.00 22.96     0.005 C 
BRANCH   3   4
ATOM      4  CD  LYS A 131      26.152  24.525  17.261  1.00 24.33     0.041 C 
BRANCH   4   5
ATOM      5  CE  LYS A 131      25.639  23.173  17.746  1.00 26.91     0.338 C 
ATOM      6  NZ  LYS A 131      25.525  23.162  19.224  1.00 27.40     0.618 N 
ENDBRANCH   4   5
ENDBRANCH   3   4
ENDBRANCH   2   3
ENDBRANCH   1   2
END_RES LYS A 131
BEGIN_RES LYS A 135
REMARK  4 active torsions:
REMARK  status: ('A' for Active; 'I' for Inactive)
REMARK    5  A    between atoms: CA   and  CB  
REMARK    6  A    between atoms: CB   and  CG  
REMARK    7  A    between atoms: CG   and  CD  
REMARK    8  A    between atoms: CD   and  CE  
ROOT
ATOM      7  CA  LYS A 135      33.193  34.663   9.290  1.00 25.02     0.186 C 
ENDROOT
BRANCH   7   8
ATOM      8  CB  LYS A 135      32.060  35.360  10.034  1.00 26.63     0.034 C 
BRANCH   8   9
ATOM      9  CG  LYS A 135      30.852  35.630   9.175  1.00 29.45     0.005 C 
BRANCH   9  10
ATOM     10  CD  LYS A 135      30.204  34.327   8.734  1.00 32.00     0.041 C 
BRANCH  10  11
ATOM     11  CE  LYS A 135      28.850  34.591   8.105  1.00 34.25     0.338 C 
ATOM     12  NZ  LYS A 135      28.596  36.052   7.972  1.00 35.99     0.618 N 
ENDBRANCH  10  11
ENDBRANCH   9  10
ENDBRANCH   8   9
ENDBRANCH   7   8
END_RES LYS A 135
