REMARK VINA RESULT:    -4.654      3.731      7.755
REMARK INTER + INTRA:         -14.610
REMARK INTER:                  -8.671
REMARK INTRA:                  -5.939
REMARK UNBOUND:                -6.554
REMARK SMILES CC(=O)N[C@@H]1[C@@H](O)C[C@](O)(C(=O)O)O[C@H]1C(O)[C@H](O)CNC(=O)OCc1cn(C23CC4CC(CC(C4)C2)C3)nn1
REMARK SMILES IDX 20 1 18 2 16 3 15 4 9 5 8 6 14 7 6 8 5 9 10 10 11 12 12 13
REMARK SMILES IDX 13 14 7 16 4 18 2 19 1 21 3 22 17 23 19 25 21 27 22 28 23 30
REMARK SMILES IDX 24 31 25 32 26 33 27 34 40 35 28 36 39 37 29 38 38 39 37 40
REMARK SMILES IDX 30 41 33 42 35 43 31 44 32 45 34 46 36 47
REMARK H PARENT 10 11 13 15 7 17 4 20 17 24 19 26 21 29
REMARK Flexibility Score: inf
ROOT
ATOM      1  C   UNL     1      29.479  30.662  19.511  1.00  0.00     0.154 C 
ENDROOT
BRANCH   1   2
ATOM      2  C   UNL     1      29.645  31.354  18.183  1.00  0.00     0.165 C 
BRANCH   2   3
ATOM      3  C   UNL     1      28.651  32.479  17.983  1.00  0.00     0.176 C 
BRANCH   3   4
ATOM      4  C   UNL     1      29.341  33.685  17.335  1.00  0.00     0.178 C 
ATOM      5  C   UNL     1      28.588  34.111  15.156  1.00  0.00     0.269 C 
ATOM      6  C   UNL     1      29.469  32.965  14.728  1.00  0.00     0.112 C 
ATOM      7  O   UNL     1      28.534  34.367  16.482  1.00  0.00    -0.332 OA
ATOM      8  C   UNL     1      30.809  33.101  15.363  1.00  0.00     0.145 C 
ATOM      9  C   UNL     1      30.705  33.370  16.841  1.00  0.00     0.142 C 
BRANCH   5  10
ATOM     10  O   UNL     1      27.285  33.738  14.750  1.00  0.00    -0.357 OA
ATOM     11  H   UNL     1      26.847  34.561  14.409  1.00  0.00     0.214 HD
ENDBRANCH   5  10
BRANCH   5  12
ATOM     12  C   UNL     1      28.971  35.285  14.332  1.00  0.00     0.364 C 
ATOM     13  O   UNL     1      29.039  36.450  14.810  1.00  0.00    -0.246 OA
BRANCH  12  14
ATOM     14  O   UNL     1      29.265  35.119  12.996  1.00  0.00    -0.477 OA
ATOM     15  H   UNL     1      28.605  34.714  12.331  1.00  0.00     0.296 HD
ENDBRANCH  12  14
ENDBRANCH   5  12
BRANCH   8  16
ATOM     16  O   UNL     1      31.528  31.914  15.094  1.00  0.00    -0.391 OA
ATOM     17  H   UNL     1      32.450  32.133  14.841  1.00  0.00     0.211 HD
ENDBRANCH   8  16
BRANCH   9  18
ATOM     18  N   UNL     1      31.592  34.468  17.200  1.00  0.00    -0.348 N 
ATOM     19  C   UNL     1      32.124  34.620  18.507  1.00  0.00     0.217 C 
ATOM     20  H   UNL     1      31.859  35.187  16.465  1.00  0.00     0.163 HD
ATOM     21  C   UNL     1      33.013  35.758  18.782  1.00  0.00     0.114 C 
ATOM     22  O   UNL     1      31.806  33.763  19.386  1.00  0.00    -0.275 OA
ENDBRANCH   9  18
ENDBRANCH   3   4
BRANCH   3  23
ATOM     23  O   UNL     1      27.526  32.099  17.316  1.00  0.00    -0.388 OA
ATOM     24  H   UNL     1      27.281  32.613  16.532  1.00  0.00     0.211 HD
ENDBRANCH   3  23
ENDBRANCH   2   3
BRANCH   2  25
ATOM     25  O   UNL     1      29.545  30.387  17.187  1.00  0.00    -0.388 OA
ATOM     26  H   UNL     1      30.131  29.606  17.444  1.00  0.00     0.211 HD
ENDBRANCH   2  25
ENDBRANCH   1   2
BRANCH   1  27
ATOM     27  N   UNL     1      28.123  30.143  19.554  1.00  0.00    -0.319 N 
ATOM     28  C   UNL     1      27.848  28.759  19.825  1.00  0.00     0.407 C 
ATOM     29  H   UNL     1      27.276  30.736  19.392  1.00  0.00     0.167 HD
ATOM     30  O   UNL     1      28.831  28.003  20.027  1.00  0.00    -0.225 OA
BRANCH  28  31
ATOM     31  O   UNL     1      26.572  28.253  19.868  1.00  0.00    -0.443 OA
BRANCH  31  32
ATOM     32  C   UNL     1      26.115  27.443  18.808  1.00  0.00     0.294 C 
BRANCH  32  33
ATOM     33  C   UNL     1      25.852  28.345  17.642  1.00  0.00     0.120 A 
ATOM     34  C   UNL     1      24.643  28.420  16.978  1.00  0.00     0.138 A 
ATOM     35  N   UNL     1      26.653  29.207  17.022  1.00  0.00    -0.132 NA
ATOM     36  N   UNL     1      24.764  29.309  16.002  1.00  0.00    -0.246 N 
ATOM     37  N   UNL     1      25.992  29.781  16.040  1.00  0.00    -0.066 NA
BRANCH  36  38
ATOM     38  C   UNL     1      23.692  29.671  15.071  1.00  0.00     0.065 C 
ATOM     39  C   UNL     1      24.377  30.205  13.820  1.00  0.00     0.034 C 
ATOM     40  C   UNL     1      22.799  30.717  15.664  1.00  0.00     0.034 C 
ATOM     41  C   UNL     1      22.872  28.446  14.754  1.00  0.00     0.034 C 
ATOM     42  C   UNL     1      23.321  30.576  12.797  1.00  0.00    -0.008 C 
ATOM     43  C   UNL     1      21.786  31.123  14.619  1.00  0.00    -0.008 C 
ATOM     44  C   UNL     1      21.828  28.813  13.722  1.00  0.00    -0.008 C 
ATOM     45  C   UNL     1      22.517  29.350  12.480  1.00  0.00     0.007 C 
ATOM     46  C   UNL     1      22.466  31.664  13.397  1.00  0.00     0.007 C 
ATOM     47  C   UNL     1      20.956  29.901  14.298  1.00  0.00     0.007 C 
ENDBRANCH  36  38
ENDBRANCH  32  33
ENDBRANCH  31  32
ENDBRANCH  28  31
ENDBRANCH   1  27
TORSDOF 15
BEGIN_RES LYS A 131
REMARK  4 active torsions:
REMARK  status: ('A' for Active; 'I' for Inactive)
REMARK    1  A    between atoms: CA   and  CB  
REMARK    2  A    between atoms: CB   and  CG  
REMARK    3  A    between atoms: CG   and  CD  
REMARK    4  A    between atoms: CD   and  CE  
ROOT
ATOM      1  CA  LYS A 131      29.867  25.555  16.977  1.00 20.52     0.186 C 
ENDROOT
BRANCH   1   2
ATOM      2  CB  LYS A 131      28.345  25.722  17.026  1.00 20.94     0.034 C 
BRANCH   2   3
ATOM      3  CG  LYS A 131      27.599  24.479  16.565  1.00 22.96     0.005 C 
BRANCH   3   4
ATOM      4  CD  LYS A 131      26.900  23.785  17.700  1.00 24.33     0.041 C 
BRANCH   4   5
ATOM      5  CE  LYS A 131      25.392  23.835  17.476  1.00 26.91     0.338 C 
ATOM      6  NZ  LYS A 131      24.773  22.532  17.815  1.00 27.40     0.618 N 
ENDBRANCH   4   5
ENDBRANCH   3   4
ENDBRANCH   2   3
ENDBRANCH   1   2
END_RES LYS A 131
BEGIN_RES LYS A 135
REMARK  4 active torsions:
REMARK  status: ('A' for Active; 'I' for Inactive)
REMARK    5  A    between atoms: CA   and  CB  
REMARK    6  A    between atoms: CB   and  CG  
REMARK    7  A    between atoms: CG   and  CD  
REMARK    8  A    between atoms: CD   and  CE  
ROOT
ATOM      7  CA  LYS A 135      33.193  34.663   9.290  1.00 25.02     0.186 C 
ENDROOT
BRANCH   7   8
ATOM      8  CB  LYS A 135      32.060  35.360  10.034  1.00 26.63     0.034 C 
BRANCH   8   9
ATOM      9  CG  LYS A 135      30.710  34.733   9.800  1.00 29.45     0.005 C 
BRANCH   9  10
ATOM     10  CD  LYS A 135      30.454  34.549   8.312  1.00 32.00     0.041 C 
BRANCH  10  11
ATOM     11  CE  LYS A 135      29.004  34.844   7.981  1.00 34.25     0.338 C 
ATOM     12  NZ  LYS A 135      28.886  35.575   6.689  1.00 35.99     0.618 N 
ENDBRANCH  10  11
ENDBRANCH   9  10
ENDBRANCH   8   9
ENDBRANCH   7   8
END_RES LYS A 135
