REMARK VINA RESULT:    -3.323      2.260      4.427
REMARK INTER + INTRA:         -13.687
REMARK INTER:                  -7.613
REMARK INTRA:                  -6.074
REMARK UNBOUND:                -7.158
REMARK SMILES CCN(CC)CCn1cc(COC(=O)NC[C@@H](O)C(O)[C@@H]2O[C@@](O)(C(=O)O)C[C@H](O)[C@H]2NC(C)=O)nn1
REMARK SMILES IDX 15 1 13 2 14 3 16 5 17 6 19 7 21 8 23 9 28 10 22 11 29 12
REMARK SMILES IDX 31 13 24 14 25 16 26 17 27 18 30 20 32 22 33 23 34 25 35 26
REMARK SMILES IDX 20 27 18 29 12 31 11 32 10 33 9 34 36 35 8 36 37 37 7 38
REMARK SMILES IDX 6 39 3 40 2 41 1 42 4 43 5 44
REMARK H PARENT 15 4 24 15 27 19 30 21 32 24 20 28 18 30
REMARK Flexibility Score: inf
ROOT
ATOM      1  N   UNL     1      26.943  28.490  20.710  1.00  0.00    -0.319 N 
ATOM      2  C   UNL     1      26.470  27.684  19.630  1.00  0.00     0.407 C 
ATOM      3  O   UNL     1      25.425  27.023  19.756  1.00  0.00    -0.225 OA
ATOM      4  H   UNL     1      27.819  29.011  20.536  1.00  0.00     0.167 HD
ENDROOT
BRANCH   1   5
ATOM      5  C   UNL     1      26.278  28.599  21.972  1.00  0.00     0.154 C 
BRANCH   5   6
ATOM      6  C   UNL     1      26.604  27.489  22.931  1.00  0.00     0.165 C 
BRANCH   6   7
ATOM      7  C   UNL     1      28.014  26.994  22.704  1.00  0.00     0.176 C 
BRANCH   7   8
ATOM      8  C   UNL     1      29.033  27.969  23.219  1.00  0.00     0.178 C 
ATOM      9  C   UNL     1      30.404  27.973  21.307  1.00  0.00     0.269 C 
ATOM     10  C   UNL     1      31.349  27.016  22.021  1.00  0.00     0.112 C 
ATOM     11  O   UNL     1      29.580  28.647  22.159  1.00  0.00    -0.332 OA
ATOM     12  C   UNL     1      31.426  27.494  23.475  1.00  0.00     0.145 C 
ATOM     13  C   UNL     1      30.073  27.323  24.066  1.00  0.00     0.142 C 
BRANCH   9  14
ATOM     14  O   UNL     1      29.763  27.248  20.305  1.00  0.00    -0.357 OA
ATOM     15  H   UNL     1      28.915  27.696  20.027  1.00  0.00     0.214 HD
ENDBRANCH   9  14
BRANCH   9  16
ATOM     16  C   UNL     1      31.253  29.005  20.631  1.00  0.00     0.364 C 
ATOM     17  O   UNL     1      32.489  28.874  20.503  1.00  0.00    -0.246 OA
BRANCH  16  18
ATOM     18  O   UNL     1      30.648  30.139  20.133  1.00  0.00    -0.477 OA
ATOM     19  H   UNL     1      30.033  30.734  20.680  1.00  0.00     0.296 HD
ENDBRANCH  16  18
ENDBRANCH   9  16
BRANCH  12  20
ATOM     20  O   UNL     1      32.409  26.738  24.114  1.00  0.00    -0.391 OA
ATOM     21  H   UNL     1      33.290  27.154  23.851  1.00  0.00     0.211 HD
ENDBRANCH  12  20
BRANCH  13  22
ATOM     22  N   UNL     1      30.002  27.729  25.457  1.00  0.00    -0.348 N 
ATOM     23  C   UNL     1      30.165  26.822  26.543  1.00  0.00     0.217 C 
ATOM     24  H   UNL     1      29.824  28.737  25.728  1.00  0.00     0.163 HD
ATOM     25  C   UNL     1      30.082  27.297  27.960  1.00  0.00     0.114 C 
ATOM     26  O   UNL     1      30.379  25.614  26.324  1.00  0.00    -0.275 OA
ENDBRANCH  13  22
ENDBRANCH   7   8
BRANCH   7  27
ATOM     27  O   UNL     1      28.072  25.765  23.388  1.00  0.00    -0.388 OA
ATOM     28  H   UNL     1      28.690  25.918  24.152  1.00  0.00     0.211 HD
ENDBRANCH   7  27
ENDBRANCH   6   7
BRANCH   6  29
ATOM     29  O   UNL     1      25.640  26.522  22.896  1.00  0.00    -0.388 OA
ATOM     30  H   UNL     1      25.749  25.910  23.665  1.00  0.00     0.211 HD
ENDBRANCH   6  29
ENDBRANCH   5   6
ENDBRANCH   1   5
BRANCH   2  31
ATOM     31  O   UNL     1      27.137  27.600  18.419  1.00  0.00    -0.443 OA
BRANCH  31  32
ATOM     32  C   UNL     1      26.797  28.422  17.310  1.00  0.00     0.294 C 
BRANCH  32  33
ATOM     33  C   UNL     1      27.777  29.536  17.250  1.00  0.00     0.120 A 
ATOM     34  C   UNL     1      28.322  30.021  16.062  1.00  0.00     0.138 A 
ATOM     35  N   UNL     1      28.326  30.277  18.222  1.00  0.00    -0.132 NA
ATOM     36  N   UNL     1      29.155  31.012  16.368  1.00  0.00    -0.251 N 
ATOM     37  N   UNL     1      29.148  31.157  17.675  1.00  0.00    -0.067 NA
BRANCH  36  38
ATOM     38  C   UNL     1      29.931  31.790  15.440  1.00  0.00     0.161 C 
BRANCH  38  39
ATOM     39  C   UNL     1      29.618  33.259  15.655  1.00  0.00     0.108 C 
BRANCH  39  40
ATOM     40  N   UNL     1      30.534  34.140  15.006  1.00  0.00    -0.302 NA
BRANCH  40  41
ATOM     41  C   UNL     1      30.318  34.312  13.608  1.00  0.00     0.081 C 
ATOM     42  C   UNL     1      30.001  35.798  13.384  1.00  0.00     0.021 C 
ENDBRANCH  40  41
BRANCH  40  43
ATOM     43  C   UNL     1      31.884  33.979  15.430  1.00  0.00     0.081 C 
ATOM     44  C   UNL     1      32.256  34.806  16.621  1.00  0.00     0.021 C 
ENDBRANCH  40  43
ENDBRANCH  39  40
ENDBRANCH  38  39
ENDBRANCH  36  38
ENDBRANCH  32  33
ENDBRANCH  31  32
ENDBRANCH   2  31
TORSDOF 19
BEGIN_RES LYS A 131
REMARK  4 active torsions:
REMARK  status: ('A' for Active; 'I' for Inactive)
REMARK    1  A    between atoms: CA   and  CB  
REMARK    2  A    between atoms: CB   and  CG  
REMARK    3  A    between atoms: CG   and  CD  
REMARK    4  A    between atoms: CD   and  CE  
ROOT
ATOM      1  CA  LYS A 131      29.867  25.555  16.977  1.00 20.52     0.186 C 
ENDROOT
BRANCH   1   2
ATOM      2  CB  LYS A 131      28.345  25.722  17.026  1.00 20.94     0.034 C 
BRANCH   2   3
ATOM      3  CG  LYS A 131      27.602  24.398  16.933  1.00 22.96     0.005 C 
BRANCH   3   4
ATOM      4  CD  LYS A 131      26.151  24.536  17.302  1.00 24.33     0.041 C 
BRANCH   4   5
ATOM      5  CE  LYS A 131      25.692  23.282  18.039  1.00 26.91     0.338 C 
ATOM      6  NZ  LYS A 131      25.505  23.568  19.481  1.00 27.40     0.618 N 
ENDBRANCH   4   5
ENDBRANCH   3   4
ENDBRANCH   2   3
ENDBRANCH   1   2
END_RES LYS A 131
BEGIN_RES LYS A 135
REMARK  4 active torsions:
REMARK  status: ('A' for Active; 'I' for Inactive)
REMARK    5  A    between atoms: CA   and  CB  
REMARK    6  A    between atoms: CB   and  CG  
REMARK    7  A    between atoms: CG   and  CD  
REMARK    8  A    between atoms: CD   and  CE  
ROOT
ATOM      7  CA  LYS A 135      33.193  34.663   9.290  1.00 25.02     0.186 C 
ENDROOT
BRANCH   7   8
ATOM      8  CB  LYS A 135      32.060  35.360  10.034  1.00 26.63     0.034 C 
BRANCH   8   9
ATOM      9  CG  LYS A 135      30.709  34.737   9.795  1.00 29.45     0.005 C 
BRANCH   9  10
ATOM     10  CD  LYS A 135      30.477  34.514   8.308  1.00 32.00     0.041 C 
BRANCH  10  11
ATOM     11  CE  LYS A 135      29.052  34.875   7.932  1.00 34.25     0.338 C 
ATOM     12  NZ  LYS A 135      28.104  34.534   9.028  1.00 35.99     0.618 N 
ENDBRANCH  10  11
ENDBRANCH   9  10
ENDBRANCH   8   9
ENDBRANCH   7   8
END_RES LYS A 135
