REMARK VINA RESULT:    -3.657      2.156      4.804
REMARK INTER + INTRA:         -15.737
REMARK INTER:                  -7.294
REMARK INTRA:                  -8.442
REMARK UNBOUND:                -8.446
REMARK SMILES CC(=O)N[C@@H]1[C@@H](O)C[C@](O)(C(=O)O)O[C@H]1C(O)[C@H](O)CNC(=O)OCc1cn(CC(O)Cn2ccnc2[N+](=O)[O-])nn1
REMARK SMILES IDX 24 1 22 2 21 3 23 5 20 6 18 7 16 8 15 9 9 10 8 11 14 12 6 13
REMARK SMILES IDX 5 14 10 15 11 17 12 18 13 19 7 21 4 23 2 24 1 26 3 27 17 28
REMARK SMILES IDX 19 30 25 32 26 33 27 34 42 35 28 36 41 37 29 38 30 39 31 40
REMARK SMILES IDX 32 42 33 43 34 44 37 45 35 46 36 47 38 48 39 49 40 50
REMARK H PARENT 21 4 10 16 13 20 7 22 4 25 17 29 19 31 31 41
REMARK Flexibility Score: inf
ROOT
ATOM      1  O   UNL     1      24.084  30.260  18.957  1.00  0.00    -0.443 OA
ENDROOT
BRANCH   1   2
ATOM      2  C   UNL     1      24.764  30.428  20.175  1.00  0.00     0.407 C 
ATOM      3  N   UNL     1      25.625  31.501  20.426  1.00  0.00    -0.319 N 
ATOM      4  H   UNL     1      25.760  32.210  19.643  1.00  0.00     0.167 HD
ATOM      5  O   UNL     1      24.560  29.562  21.037  1.00  0.00    -0.225 OA
BRANCH   3   6
ATOM      6  C   UNL     1      26.339  31.711  21.663  1.00  0.00     0.154 C 
BRANCH   6   7
ATOM      7  C   UNL     1      27.720  31.133  21.515  1.00  0.00     0.165 C 
BRANCH   7   8
ATOM      8  C   UNL     1      27.970  30.209  22.684  1.00  0.00     0.176 C 
BRANCH   8   9
ATOM      9  C   UNL     1      29.010  29.153  22.333  1.00  0.00     0.178 C 
ATOM     10  C   UNL     1      30.835  28.903  20.907  1.00  0.00     0.269 C 
ATOM     11  C   UNL     1      30.377  27.462  20.791  1.00  0.00     0.112 C 
ATOM     12  O   UNL     1      29.795  29.686  21.347  1.00  0.00    -0.332 OA
ATOM     13  C   UNL     1      28.877  27.425  20.602  1.00  0.00     0.145 C 
ATOM     14  C   UNL     1      28.269  27.895  21.918  1.00  0.00     0.142 C 
BRANCH  10  15
ATOM     15  O   UNL     1      31.211  29.398  19.643  1.00  0.00    -0.357 OA
ATOM     16  H   UNL     1      30.408  29.356  19.074  1.00  0.00     0.214 HD
ENDBRANCH  10  15
BRANCH  10  17
ATOM     17  C   UNL     1      31.976  29.055  21.819  1.00  0.00     0.364 C 
ATOM     18  O   UNL     1      32.730  30.038  21.731  1.00  0.00    -0.246 OA
BRANCH  17  19
ATOM     19  O   UNL     1      32.224  28.102  22.790  1.00  0.00    -0.477 OA
ATOM     20  H   UNL     1      32.106  27.125  22.595  1.00  0.00     0.296 HD
ENDBRANCH  17  19
ENDBRANCH  10  17
BRANCH  13  21
ATOM     21  O   UNL     1      28.427  28.302  19.627  1.00  0.00    -0.391 OA
ATOM     22  H   UNL     1      27.562  28.010  19.278  1.00  0.00     0.211 HD
ENDBRANCH  13  21
BRANCH  14  23
ATOM     23  N   UNL     1      28.398  26.847  22.890  1.00  0.00    -0.348 N 
ATOM     24  C   UNL     1      27.258  26.260  23.474  1.00  0.00     0.217 C 
ATOM     25  H   UNL     1      29.329  26.470  23.215  1.00  0.00     0.163 HD
ATOM     26  C   UNL     1      27.399  25.169  24.486  1.00  0.00     0.114 C 
ATOM     27  O   UNL     1      26.101  26.639  23.155  1.00  0.00    -0.275 OA
ENDBRANCH  14  23
ENDBRANCH   8   9
BRANCH   8  28
ATOM     28  O   UNL     1      26.798  29.534  22.962  1.00  0.00    -0.388 OA
ATOM     29  H   UNL     1      26.923  28.559  23.036  1.00  0.00     0.211 HD
ENDBRANCH   8  28
ENDBRANCH   7   8
BRANCH   7  30
ATOM     30  O   UNL     1      28.697  32.119  21.411  1.00  0.00    -0.388 OA
ATOM     31  H   UNL     1      29.361  31.791  20.754  1.00  0.00     0.211 HD
ENDBRANCH   7  30
ENDBRANCH   6   7
ENDBRANCH   3   6
ENDBRANCH   1   2
BRANCH   1  32
ATOM     32  C   UNL     1      24.196  29.013  18.254  1.00  0.00     0.294 C 
BRANCH  32  33
ATOM     33  C   UNL     1      25.505  28.866  17.625  1.00  0.00     0.120 A 
ATOM     34  C   UNL     1      26.116  29.783  16.806  1.00  0.00     0.138 A 
ATOM     35  N   UNL     1      26.319  27.806  17.749  1.00  0.00    -0.132 NA
ATOM     36  N   UNL     1      27.293  29.249  16.454  1.00  0.00    -0.249 N 
ATOM     37  N   UNL     1      27.394  28.073  17.026  1.00  0.00    -0.067 NA
BRANCH  36  38
ATOM     38  C   UNL     1      28.270  29.912  15.573  1.00  0.00     0.181 C 
BRANCH  38  39
ATOM     39  C   UNL     1      29.267  30.690  16.403  1.00  0.00     0.170 C 
BRANCH  39  40
ATOM     40  O   UNL     1      29.131  30.188  17.716  1.00  0.00    -0.388 OA
ATOM     41  H   UNL     1      29.799  29.510  17.926  1.00  0.00     0.211 HD
ENDBRANCH  39  40
BRANCH  39  42
ATOM     42  C   UNL     1      28.931  32.146  16.344  1.00  0.00     0.239 C 
BRANCH  42  43
ATOM     43  N   UNL     1      30.184  32.901  16.267  1.00  0.00    -0.227 N 
ATOM     44  C   UNL     1      30.829  33.268  15.136  1.00  0.00     0.204 A 
ATOM     45  C   UNL     1      30.855  33.341  17.317  1.00  0.00     0.434 A 
ATOM     46  C   UNL     1      31.938  33.959  15.505  1.00  0.00     0.245 A 
ATOM     47  N   UNL     1      31.946  34.000  16.837  1.00  0.00    -0.074 NA
BRANCH  45  48
ATOM     48  N   UNL     1      30.539  33.180  18.710  1.00  0.00    -0.047 N 
ATOM     49  O   UNL     1      30.839  32.167  19.362  1.00  0.00    -0.390 OA
ATOM     50  O   UNL     1      29.871  34.195  19.365  1.00  0.00    -0.390 OA
ENDBRANCH  45  48
ENDBRANCH  42  43
ENDBRANCH  39  42
ENDBRANCH  38  39
ENDBRANCH  36  38
ENDBRANCH  32  33
ENDBRANCH   1  32
TORSDOF 20
BEGIN_RES LYS A 131
REMARK  4 active torsions:
REMARK  status: ('A' for Active; 'I' for Inactive)
REMARK    1  A    between atoms: CA   and  CB  
REMARK    2  A    between atoms: CB   and  CG  
REMARK    3  A    between atoms: CG   and  CD  
REMARK    4  A    between atoms: CD   and  CE  
ROOT
ATOM      1  CA  LYS A 131      29.867  25.555  16.977  1.00 20.52     0.186 C 
ENDROOT
BRANCH   1   2
ATOM      2  CB  LYS A 131      28.345  25.722  17.026  1.00 20.94     0.034 C 
BRANCH   2   3
ATOM      3  CG  LYS A 131      27.601  24.402  16.893  1.00 22.96     0.005 C 
BRANCH   3   4
ATOM      4  CD  LYS A 131      26.556  24.231  17.960  1.00 24.33     0.041 C 
BRANCH   4   5
ATOM      5  CE  LYS A 131      25.169  24.322  17.333  1.00 26.91     0.338 C 
ATOM      6  NZ  LYS A 131      24.528  22.986  17.294  1.00 27.40     0.618 N 
ENDBRANCH   4   5
ENDBRANCH   3   4
ENDBRANCH   2   3
ENDBRANCH   1   2
END_RES LYS A 131
BEGIN_RES LYS A 135
REMARK  4 active torsions:
REMARK  status: ('A' for Active; 'I' for Inactive)
REMARK    5  A    between atoms: CA   and  CB  
REMARK    6  A    between atoms: CB   and  CG  
REMARK    7  A    between atoms: CG   and  CD  
REMARK    8  A    between atoms: CD   and  CE  
ROOT
ATOM      7  CA  LYS A 135      33.193  34.663   9.290  1.00 25.02     0.186 C 
ENDROOT
BRANCH   7   8
ATOM      8  CB  LYS A 135      32.060  35.360  10.034  1.00 26.63     0.034 C 
BRANCH   8   9
ATOM      9  CG  LYS A 135      30.692  34.848   9.664  1.00 29.45     0.005 C 
BRANCH   9  10
ATOM     10  CD  LYS A 135      29.615  35.572  10.458  1.00 32.00     0.041 C 
BRANCH  10  11
ATOM     11  CE  LYS A 135      28.487  34.623  10.813  1.00 34.25     0.338 C 
ATOM     12  NZ  LYS A 135      28.100  33.788   9.643  1.00 35.99     0.618 N 
ENDBRANCH  10  11
ENDBRANCH   9  10
ENDBRANCH   8   9
ENDBRANCH   7   8
END_RES LYS A 135
