REMARK VINA RESULT:    -5.331      1.880      3.147
REMARK INTER + INTRA:         -17.239
REMARK INTER:                 -10.842
REMARK INTRA:                  -6.398
REMARK UNBOUND:                -6.299
REMARK SMILES CC(=O)N[C@@H]1[C@@H](O)C[C@](O)(C(=O)O)O[C@H]1C(O)[C@H](O)CNC(=O)OCc1cn(C[C@@H](C(=O)O)C(c2ccccc2)c2ccccc2)nn1
REMARK SMILES IDX 21 1 22 2 23 3 20 5 18 6 16 7 15 8 9 9 8 10 14 11 6 12 5 13
REMARK SMILES IDX 10 14 11 16 12 17 13 18 7 20 4 22 2 23 1 25 3 26 17 27 19 29
REMARK SMILES IDX 24 31 25 32 26 33 27 34 48 35 28 36 47 37 29 38 30 39 31 40
REMARK SMILES IDX 32 41 33 42 34 44 35 45 36 46 40 47 37 48 39 49 38 50 41 51
REMARK SMILES IDX 42 52 46 53 43 54 45 55 44 56
REMARK H PARENT 21 4 10 15 13 19 7 21 4 24 17 28 19 30 33 43
REMARK Flexibility Score: inf
ROOT
ATOM      1  N   UNL     1      31.352  32.497  14.981  1.00  0.00    -0.319 N 
ATOM      2  C   UNL     1      31.548  33.876  15.254  1.00  0.00     0.407 C 
ATOM      3  O   UNL     1      31.106  34.370  16.333  1.00  0.00    -0.225 OA
ATOM      4  H   UNL     1      31.752  32.161  14.056  1.00  0.00     0.167 HD
ENDROOT
BRANCH   1   5
ATOM      5  C   UNL     1      30.664  31.598  15.876  1.00  0.00     0.154 C 
BRANCH   5   6
ATOM      6  C   UNL     1      29.226  31.319  15.436  1.00  0.00     0.165 C 
BRANCH   6   7
ATOM      7  C   UNL     1      28.346  32.106  16.358  1.00  0.00     0.176 C 
BRANCH   7   8
ATOM      8  C   UNL     1      27.018  31.455  16.619  1.00  0.00     0.178 C 
ATOM      9  C   UNL     1      24.954  31.170  15.602  1.00  0.00     0.269 C 
ATOM     10  C   UNL     1      24.529  30.531  16.899  1.00  0.00     0.112 C 
ATOM     11  O   UNL     1      26.303  31.342  15.459  1.00  0.00    -0.332 OA
ATOM     12  C   UNL     1      25.114  31.189  18.101  1.00  0.00     0.145 C 
ATOM     13  C   UNL     1      26.194  32.176  17.659  1.00  0.00     0.142 C 
BRANCH   9  14
ATOM     14  O   UNL     1      24.276  32.388  15.487  1.00  0.00    -0.357 OA
ATOM     15  H   UNL     1      23.318  32.287  15.738  1.00  0.00     0.214 HD
ENDBRANCH   9  14
BRANCH   9  16
ATOM     16  C   UNL     1      24.483  30.286  14.508  1.00  0.00     0.364 C 
ATOM     17  O   UNL     1      23.865  29.232  14.794  1.00  0.00    -0.246 OA
BRANCH  16  18
ATOM     18  O   UNL     1      24.704  30.588  13.182  1.00  0.00    -0.477 OA
ATOM     19  H   UNL     1      23.908  30.638  12.531  1.00  0.00     0.296 HD
ENDBRANCH  16  18
ENDBRANCH   9  16
BRANCH  12  20
ATOM     20  O   UNL     1      24.204  31.755  18.958  1.00  0.00    -0.391 OA
ATOM     21  H   UNL     1      23.353  31.245  18.960  1.00  0.00     0.211 HD
ENDBRANCH  12  20
BRANCH  13  22
ATOM     22  N   UNL     1      27.009  32.559  18.803  1.00  0.00    -0.348 N 
ATOM     23  C   UNL     1      27.177  33.936  19.081  1.00  0.00     0.217 C 
ATOM     24  H   UNL     1      27.442  31.822  19.380  1.00  0.00     0.163 HD
ATOM     25  C   UNL     1      27.994  34.383  20.230  1.00  0.00     0.114 C 
ATOM     26  O   UNL     1      26.633  34.805  18.355  1.00  0.00    -0.275 OA
ENDBRANCH  13  22
ENDBRANCH   7   8
BRANCH   7  27
ATOM     27  O   UNL     1      28.246  33.415  15.933  1.00  0.00    -0.388 OA
ATOM     28  H   UNL     1      27.856  34.021  16.625  1.00  0.00     0.211 HD
ENDBRANCH   7  27
ENDBRANCH   6   7
BRANCH   6  29
ATOM     29  O   UNL     1      29.033  29.937  15.613  1.00  0.00    -0.388 OA
ATOM     30  H   UNL     1      28.087  29.859  15.938  1.00  0.00     0.211 HD
ENDBRANCH   6  29
ENDBRANCH   5   6
ENDBRANCH   1   5
BRANCH   2  31
ATOM     31  O   UNL     1      32.214  34.697  14.367  1.00  0.00    -0.443 OA
BRANCH  31  32
ATOM     32  C   UNL     1      31.763  34.861  13.016  1.00  0.00     0.294 C 
BRANCH  32  33
ATOM     33  C   UNL     1      30.502  35.634  12.975  1.00  0.00     0.120 A 
ATOM     34  C   UNL     1      29.255  35.128  12.576  1.00  0.00     0.138 A 
ATOM     35  N   UNL     1      30.254  36.912  13.284  1.00  0.00    -0.132 NA
ATOM     36  N   UNL     1      28.327  36.081  12.655  1.00  0.00    -0.251 N 
ATOM     37  N   UNL     1      28.974  37.182  13.099  1.00  0.00    -0.067 NA
BRANCH  36  38
ATOM     38  C   UNL     1      26.916  36.108  12.395  1.00  0.00     0.162 C 
BRANCH  38  39
ATOM     39  C   UNL     1      26.322  34.875  11.800  1.00  0.00     0.132 C 
BRANCH  39  40
ATOM     40  C   UNL     1      25.641  34.067  12.812  1.00  0.00     0.309 C 
ATOM     41  O   UNL     1      24.609  33.395  12.640  1.00  0.00    -0.252 OA
BRANCH  40  42
ATOM     42  O   UNL     1      26.166  34.012  14.121  1.00  0.00    -0.481 OA
ATOM     43  H   UNL     1      26.319  34.890  14.625  1.00  0.00     0.296 HD
ENDBRANCH  40  42
ENDBRANCH  39  40
BRANCH  39  44
ATOM     44  C   UNL     1      25.424  35.191  10.617  1.00  0.00     0.065 C 
BRANCH  44  45
ATOM     45  C   UNL     1      26.204  35.334   9.365  1.00  0.00    -0.040 A 
ATOM     46  C   UNL     1      27.225  34.435   9.036  1.00  0.00     0.004 A 
ATOM     47  C   UNL     1      25.964  36.354   8.464  1.00  0.00     0.004 A 
ATOM     48  C   UNL     1      27.949  34.567   7.872  1.00  0.00     0.000 A 
ATOM     49  C   UNL     1      26.675  36.500   7.301  1.00  0.00     0.000 A 
ATOM     50  C   UNL     1      27.674  35.613   6.989  1.00  0.00     0.000 A 
ENDBRANCH  44  45
BRANCH  44  51
ATOM     51  C   UNL     1      24.603  36.393  10.800  1.00  0.00    -0.040 A 
ATOM     52  C   UNL     1      23.215  36.223  10.875  1.00  0.00     0.004 A 
ATOM     53  C   UNL     1      25.118  37.667  10.902  1.00  0.00     0.004 A 
ATOM     54  C   UNL     1      22.412  37.326  11.048  1.00  0.00     0.000 A 
ATOM     55  C   UNL     1      24.315  38.772  11.074  1.00  0.00     0.000 A 
ATOM     56  C   UNL     1      22.936  38.614  11.150  1.00  0.00     0.000 A 
ENDBRANCH  44  51
ENDBRANCH  39  44
ENDBRANCH  38  39
ENDBRANCH  36  38
ENDBRANCH  32  33
ENDBRANCH  31  32
ENDBRANCH   2  31
TORSDOF 21
BEGIN_RES LYS A 131
REMARK  4 active torsions:
REMARK  status: ('A' for Active; 'I' for Inactive)
REMARK    1  A    between atoms: CA   and  CB  
REMARK    2  A    between atoms: CB   and  CG  
REMARK    3  A    between atoms: CG   and  CD  
REMARK    4  A    between atoms: CD   and  CE  
ROOT
ATOM      1  CA  LYS A 131      29.867  25.555  16.977  1.00 20.52     0.186 C 
ENDROOT
BRANCH   1   2
ATOM      2  CB  LYS A 131      28.345  25.722  17.026  1.00 20.94     0.034 C 
BRANCH   2   3
ATOM      3  CG  LYS A 131      27.599  24.475  16.577  1.00 22.96     0.005 C 
BRANCH   3   4
ATOM      4  CD  LYS A 131      26.807  23.856  17.695  1.00 24.33     0.041 C 
BRANCH   4   5
ATOM      5  CE  LYS A 131      25.316  24.026  17.418  1.00 26.91     0.338 C 
ATOM      6  NZ  LYS A 131      24.738  25.059  18.309  1.00 27.40     0.618 N 
ENDBRANCH   4   5
ENDBRANCH   3   4
ENDBRANCH   2   3
ENDBRANCH   1   2
END_RES LYS A 131
BEGIN_RES LYS A 135
REMARK  4 active torsions:
REMARK  status: ('A' for Active; 'I' for Inactive)
REMARK    5  A    between atoms: CA   and  CB  
REMARK    6  A    between atoms: CB   and  CG  
REMARK    7  A    between atoms: CG   and  CD  
REMARK    8  A    between atoms: CD   and  CE  
ROOT
ATOM      7  CA  LYS A 135      33.193  34.663   9.290  1.00 25.02     0.186 C 
ENDROOT
BRANCH   7   8
ATOM      8  CB  LYS A 135      32.060  35.360  10.034  1.00 26.63     0.034 C 
BRANCH   8   9
ATOM      9  CG  LYS A 135      30.841  35.605   9.182  1.00 29.45     0.005 C 
BRANCH   9  10
ATOM     10  CD  LYS A 135      30.196  36.935   9.540  1.00 32.00     0.041 C 
BRANCH  10  11
ATOM     11  CE  LYS A 135      30.269  37.895   8.367  1.00 34.25     0.338 C 
ATOM     12  NZ  LYS A 135      29.331  39.037   8.550  1.00 35.99     0.618 N 
ENDBRANCH  10  11
ENDBRANCH   9  10
ENDBRANCH   8   9
ENDBRANCH   7   8
END_RES LYS A 135
