REMARK VINA RESULT:    -4.865      2.109      5.197
REMARK INTER + INTRA:         -15.302
REMARK INTER:                  -7.899
REMARK INTRA:                  -7.403
REMARK UNBOUND:                -5.744
REMARK SMILES CC(=O)N[C@@H]1[C@@H](O)C[C@](O)(C(=O)O)O[C@H]1C(O)[C@H](O)CNC(=O)OCc1cn([C@@H](CC(=O)O)C(=O)O)nn1
REMARK SMILES IDX 21 1 22 2 23 3 20 5 18 6 16 7 15 8 9 9 8 10 14 11 6 12 5 13
REMARK SMILES IDX 10 14 11 16 12 17 13 18 7 20 4 22 2 23 1 25 3 26 17 27 19 29
REMARK SMILES IDX 24 31 25 32 26 33 27 34 38 35 28 36 37 37 29 38 30 39 31 40
REMARK SMILES IDX 32 41 33 42 34 44 35 45 36 46
REMARK H PARENT 21 4 10 15 13 19 7 21 4 24 17 28 19 30 33 43 36 47
REMARK Flexibility Score: inf
ROOT
ATOM      1  N   UNL     1      31.491  35.275  14.762  1.00  0.00    -0.319 N 
ATOM      2  C   UNL     1      30.879  35.412  13.481  1.00  0.00     0.407 C 
ATOM      3  O   UNL     1      30.904  34.449  12.705  1.00  0.00    -0.225 OA
ATOM      4  H   UNL     1      31.431  36.136  15.368  1.00  0.00     0.167 HD
ENDROOT
BRANCH   1   5
ATOM      5  C   UNL     1      32.143  34.093  15.231  1.00  0.00     0.154 C 
BRANCH   5   6
ATOM      6  C   UNL     1      31.418  33.513  16.428  1.00  0.00     0.165 C 
BRANCH   6   7
ATOM      7  C   UNL     1      30.346  32.529  15.997  1.00  0.00     0.176 C 
BRANCH   7   8
ATOM      8  C   UNL     1      30.328  31.264  16.776  1.00  0.00     0.178 C 
ATOM      9  C   UNL     1      28.050  30.930  16.462  1.00  0.00     0.269 C 
ATOM     10  C   UNL     1      27.754  31.790  17.618  1.00  0.00     0.112 C 
ATOM     11  O   UNL     1      29.310  30.402  16.355  1.00  0.00    -0.332 OA
ATOM     12  C   UNL     1      28.819  32.042  18.611  1.00  0.00     0.145 C 
ATOM     13  C   UNL     1      30.172  31.494  18.253  1.00  0.00     0.142 C 
BRANCH   9  14
ATOM     14  O   UNL     1      27.824  31.620  15.243  1.00  0.00    -0.357 OA
ATOM     15  H   UNL     1      27.379  32.468  15.511  1.00  0.00     0.214 HD
ENDBRANCH   9  14
BRANCH   9  16
ATOM     16  C   UNL     1      27.109  29.777  16.402  1.00  0.00     0.364 C 
ATOM     17  O   UNL     1      25.919  29.857  16.020  1.00  0.00    -0.246 OA
BRANCH  16  18
ATOM     18  O   UNL     1      27.588  28.537  16.793  1.00  0.00    -0.477 OA
ATOM     19  H   UNL     1      28.264  28.429  17.561  1.00  0.00     0.296 HD
ENDBRANCH  16  18
ENDBRANCH   9  16
BRANCH  12  20
ATOM     20  O   UNL     1      28.925  33.403  18.880  1.00  0.00    -0.391 OA
ATOM     21  H   UNL     1      28.695  33.983  18.134  1.00  0.00     0.211 HD
ENDBRANCH  12  20
BRANCH  13  22
ATOM     22  N   UNL     1      30.401  30.208  18.956  1.00  0.00    -0.348 N 
ATOM     23  C   UNL     1      31.061  30.171  20.205  1.00  0.00     0.217 C 
ATOM     24  H   UNL     1      30.085  29.303  18.549  1.00  0.00     0.163 HD
ATOM     25  C   UNL     1      31.314  28.901  20.947  1.00  0.00     0.114 C 
ATOM     26  O   UNL     1      31.446  31.249  20.705  1.00  0.00    -0.275 OA
ENDBRANCH  13  22
ENDBRANCH   7   8
BRANCH   7  27
ATOM     27  O   UNL     1      30.702  32.248  14.646  1.00  0.00    -0.388 OA
ATOM     28  H   UNL     1      30.028  32.619  14.029  1.00  0.00     0.211 HD
ENDBRANCH   7  27
ENDBRANCH   6   7
BRANCH   6  29
ATOM     29  O   UNL     1      30.932  34.566  17.192  1.00  0.00    -0.388 OA
ATOM     30  H   UNL     1      30.201  34.303  17.804  1.00  0.00     0.211 HD
ENDBRANCH   6  29
ENDBRANCH   5   6
ENDBRANCH   1   5
BRANCH   2  31
ATOM     31  O   UNL     1      30.259  36.582  13.075  1.00  0.00    -0.443 OA
BRANCH  31  32
ATOM     32  C   UNL     1      29.215  37.130  13.841  1.00  0.00     0.294 C 
BRANCH  32  33
ATOM     33  C   UNL     1      28.216  36.117  14.255  1.00  0.00     0.120 A 
ATOM     34  C   UNL     1      27.037  35.914  13.578  1.00  0.00     0.139 A 
ATOM     35  N   UNL     1      28.227  35.258  15.272  1.00  0.00    -0.132 NA
ATOM     36  N   UNL     1      26.360  34.924  14.214  1.00  0.00    -0.237 N 
ATOM     37  N   UNL     1      27.104  34.560  15.219  1.00  0.00    -0.066 NA
BRANCH  36  38
ATOM     38  C   UNL     1      25.057  34.446  13.760  1.00  0.00     0.229 C 
BRANCH  38  39
ATOM     39  C   UNL     1      24.996  34.504  12.258  1.00  0.00     0.161 C 
BRANCH  39  40
ATOM     40  C   UNL     1      23.809  35.224  11.770  1.00  0.00     0.306 C 
ATOM     41  O   UNL     1      22.870  34.567  11.256  1.00  0.00    -0.252 OA
BRANCH  40  42
ATOM     42  O   UNL     1      23.757  36.604  11.888  1.00  0.00    -0.481 OA
ATOM     43  H   UNL     1      22.894  37.041  12.248  1.00  0.00     0.296 HD
ENDBRANCH  40  42
ENDBRANCH  39  40
ENDBRANCH  38  39
BRANCH  38  44
ATOM     44  C   UNL     1      24.923  33.016  14.149  1.00  0.00     0.329 C 
ATOM     45  O   UNL     1      24.713  32.084  13.331  1.00  0.00    -0.250 OA
BRANCH  44  46
ATOM     46  O   UNL     1      25.035  32.690  15.489  1.00  0.00    -0.480 OA
ATOM     47  H   UNL     1      24.906  33.370  16.230  1.00  0.00     0.296 HD
ENDBRANCH  44  46
ENDBRANCH  38  44
ENDBRANCH  36  38
ENDBRANCH  32  33
ENDBRANCH  31  32
ENDBRANCH   2  31
TORSDOF 20
BEGIN_RES LYS A 131
REMARK  4 active torsions:
REMARK  status: ('A' for Active; 'I' for Inactive)
REMARK    1  A    between atoms: CA   and  CB  
REMARK    2  A    between atoms: CB   and  CG  
REMARK    3  A    between atoms: CG   and  CD  
REMARK    4  A    between atoms: CD   and  CE  
ROOT
ATOM      1  CA  LYS A 131      29.867  25.555  16.977  1.00 20.52     0.186 C 
ENDROOT
BRANCH   1   2
ATOM      2  CB  LYS A 131      28.345  25.722  17.026  1.00 20.94     0.034 C 
BRANCH   2   3
ATOM      3  CG  LYS A 131      27.601  24.402  16.890  1.00 22.96     0.005 C 
BRANCH   3   4
ATOM      4  CD  LYS A 131      26.500  24.265  17.905  1.00 24.33     0.041 C 
BRANCH   4   5
ATOM      5  CE  LYS A 131      26.153  25.639  18.468  1.00 26.91     0.338 C 
ATOM      6  NZ  LYS A 131      25.734  25.528  19.886  1.00 27.40     0.618 N 
ENDBRANCH   4   5
ENDBRANCH   3   4
ENDBRANCH   2   3
ENDBRANCH   1   2
END_RES LYS A 131
BEGIN_RES LYS A 135
REMARK  4 active torsions:
REMARK  status: ('A' for Active; 'I' for Inactive)
REMARK    5  A    between atoms: CA   and  CB  
REMARK    6  A    between atoms: CB   and  CG  
REMARK    7  A    between atoms: CG   and  CD  
REMARK    8  A    between atoms: CD   and  CE  
ROOT
ATOM      7  CA  LYS A 135      33.193  34.663   9.290  1.00 25.02     0.186 C 
ENDROOT
BRANCH   7   8
ATOM      8  CB  LYS A 135      32.060  35.360  10.034  1.00 26.63     0.034 C 
BRANCH   8   9
ATOM      9  CG  LYS A 135      30.804  35.509   9.215  1.00 29.45     0.005 C 
BRANCH   9  10
ATOM     10  CD  LYS A 135      30.114  34.165   9.041  1.00 32.00     0.041 C 
BRANCH  10  11
ATOM     11  CE  LYS A 135      28.663  34.359   8.643  1.00 34.25     0.338 C 
ATOM     12  NZ  LYS A 135      27.749  33.682   9.604  1.00 35.99     0.618 N 
ENDBRANCH  10  11
ENDBRANCH   9  10
ENDBRANCH   8   9
ENDBRANCH   7   8
END_RES LYS A 135
