REMARK VINA RESULT:    -5.710      1.998      3.812
REMARK INTER + INTRA:         -16.328
REMARK INTER:                  -9.625
REMARK INTRA:                  -6.703
REMARK UNBOUND:                -5.110
REMARK SMILES CC(=O)N[C@@H]1[C@@H](O)C[C@](O)(C(=O)O)O[C@H]1C(O)[C@H](O)CNC(=O)OCc1cn([C@@H](C)C(=O)OCc2ccccc2)nn1
REMARK SMILES IDX 24 1 22 2 21 3 23 5 20 6 18 7 16 8 15 9 9 10 8 11 14 12 6 13
REMARK SMILES IDX 5 14 10 15 11 17 12 18 13 19 7 21 4 23 2 24 1 26 3 27 17 28
REMARK SMILES IDX 19 30 25 32 26 33 27 34 42 35 28 36 41 37 29 38 30 39 31 40
REMARK SMILES IDX 32 41 33 42 34 43 35 44 36 45 40 46 37 47 39 48 38 49
REMARK H PARENT 21 4 10 16 13 20 7 22 4 25 17 29 19 31
REMARK Flexibility Score: inf
ROOT
ATOM      1  O   UNL     1      28.142  40.497   7.267  1.00  0.00    -0.443 OA
ENDROOT
BRANCH   1   2
ATOM      2  C   UNL     1      26.904  40.435   6.585  1.00  0.00     0.407 C 
ATOM      3  N   UNL     1      25.721  40.884   7.209  1.00  0.00    -0.319 N 
ATOM      4  H   UNL     1      25.839  41.246   8.208  1.00  0.00     0.167 HD
ATOM      5  O   UNL     1      26.948  39.967   5.432  1.00  0.00    -0.225 OA
BRANCH   3   6
ATOM      6  C   UNL     1      24.440  40.868   6.577  1.00  0.00     0.154 C 
BRANCH   6   7
ATOM      7  C   UNL     1      23.366  40.373   7.487  1.00  0.00     0.165 C 
BRANCH   7   8
ATOM      8  C   UNL     1      23.400  38.848   7.555  1.00  0.00     0.176 C 
BRANCH   8   9
ATOM      9  C   UNL     1      23.494  38.315   8.950  1.00  0.00     0.178 C 
ATOM     10  C   UNL     1      21.344  37.399   9.111  1.00  0.00     0.269 C 
ATOM     11  C   UNL     1      20.927  38.587   9.917  1.00  0.00     0.112 C 
ATOM     12  O   UNL     1      22.697  37.167   9.105  1.00  0.00    -0.332 OA
ATOM     13  C   UNL     1      22.037  38.936  10.888  1.00  0.00     0.145 C 
ATOM     14  C   UNL     1      23.249  39.301  10.045  1.00  0.00     0.142 C 
BRANCH  10  15
ATOM     15  O   UNL     1      20.842  37.487   7.833  1.00  0.00    -0.357 OA
ATOM     16  H   UNL     1      20.184  36.768   7.622  1.00  0.00     0.214 HD
ENDBRANCH  10  15
BRANCH  10  17
ATOM     17  C   UNL     1      20.729  36.174   9.741  1.00  0.00     0.364 C 
ATOM     18  O   UNL     1      19.504  36.143  10.021  1.00  0.00    -0.246 OA
BRANCH  17  19
ATOM     19  O   UNL     1      21.478  35.044  10.034  1.00  0.00    -0.477 OA
ATOM     20  H   UNL     1      21.039  34.172  10.367  1.00  0.00     0.296 HD
ENDBRANCH  17  19
ENDBRANCH  10  17
BRANCH  13  21
ATOM     21  O   UNL     1      21.655  39.971  11.719  1.00  0.00    -0.391 OA
ATOM     22  H   UNL     1      22.366  40.243  12.352  1.00  0.00     0.211 HD
ENDBRANCH  13  21
BRANCH  14  23
ATOM     23  N   UNL     1      24.409  39.474  10.925  1.00  0.00    -0.348 N 
ATOM     24  C   UNL     1      25.163  40.683  10.975  1.00  0.00     0.217 C 
ATOM     25  H   UNL     1      24.727  38.694  11.559  1.00  0.00     0.163 HD
ATOM     26  C   UNL     1      26.336  40.799  11.894  1.00  0.00     0.114 C 
ATOM     27  O   UNL     1      24.834  41.647  10.245  1.00  0.00    -0.275 OA
ENDBRANCH  14  23
ENDBRANCH   8   9
BRANCH   8  28
ATOM     28  O   UNL     1      24.510  38.392   6.833  1.00  0.00    -0.388 OA
ATOM     29  H   UNL     1      25.245  38.181   7.471  1.00  0.00     0.211 HD
ENDBRANCH   8  28
ENDBRANCH   7   8
BRANCH   7  30
ATOM     30  O   UNL     1      22.122  40.790   7.017  1.00  0.00    -0.388 OA
ATOM     31  H   UNL     1      22.188  41.270   6.140  1.00  0.00     0.211 HD
ENDBRANCH   7  30
ENDBRANCH   6   7
ENDBRANCH   3   6
ENDBRANCH   1   2
BRANCH   1  32
ATOM     32  C   UNL     1      28.825  39.292   7.540  1.00  0.00     0.294 C 
BRANCH  32  33
ATOM     33  C   UNL     1      28.260  38.585   8.706  1.00  0.00     0.120 A 
ATOM     34  C   UNL     1      28.913  38.036   9.783  1.00  0.00     0.139 A 
ATOM     35  N   UNL     1      26.954  38.353   8.919  1.00  0.00    -0.132 NA
ATOM     36  N   UNL     1      28.000  37.486  10.619  1.00  0.00    -0.238 N 
ATOM     37  N   UNL     1      26.832  37.692  10.074  1.00  0.00    -0.066 NA
BRANCH  36  38
ATOM     38  C   UNL     1      28.291  36.815  11.857  1.00  0.00     0.215 C 
ATOM     39  C   UNL     1      28.065  37.751  13.024  1.00  0.00     0.046 C 
BRANCH  38  40
ATOM     40  C   UNL     1      27.490  35.587  11.948  1.00  0.00     0.331 C 
ATOM     41  O   UNL     1      26.448  35.573  12.669  1.00  0.00    -0.250 OA
BRANCH  40  42
ATOM     42  O   UNL     1      27.822  34.430  11.276  1.00  0.00    -0.459 OA
BRANCH  42  43
ATOM     43  C   UNL     1      27.211  33.928  10.128  1.00  0.00     0.268 C 
BRANCH  43  44
ATOM     44  C   UNL     1      27.918  34.456   8.929  1.00  0.00    -0.011 A 
ATOM     45  C   UNL     1      29.294  34.433   8.865  1.00  0.00     0.007 A 
ATOM     46  C   UNL     1      27.202  34.965   7.880  1.00  0.00     0.007 A 
ATOM     47  C   UNL     1      29.950  34.915   7.759  1.00  0.00     0.000 A 
ATOM     48  C   UNL     1      27.828  35.453   6.767  1.00  0.00     0.000 A 
ATOM     49  C   UNL     1      29.200  35.427   6.708  1.00  0.00     0.000 A 
ENDBRANCH  43  44
ENDBRANCH  42  43
ENDBRANCH  40  42
ENDBRANCH  38  40
ENDBRANCH  36  38
ENDBRANCH  32  33
ENDBRANCH   1  32
TORSDOF 19
BEGIN_RES LYS A 131
REMARK  4 active torsions:
REMARK  status: ('A' for Active; 'I' for Inactive)
REMARK    1  A    between atoms: CA   and  CB  
REMARK    2  A    between atoms: CB   and  CG  
REMARK    3  A    between atoms: CG   and  CD  
REMARK    4  A    between atoms: CD   and  CE  
ROOT
ATOM      1  CA  LYS A 131      29.867  25.555  16.977  1.00 20.52     0.186 C 
ENDROOT
BRANCH   1   2
ATOM      2  CB  LYS A 131      28.345  25.722  17.026  1.00 20.94     0.034 C 
BRANCH   2   3
ATOM      3  CG  LYS A 131      27.601  24.402  16.889  1.00 22.96     0.005 C 
BRANCH   3   4
ATOM      4  CD  LYS A 131      26.752  24.103  18.093  1.00 24.33     0.041 C 
BRANCH   4   5
ATOM      5  CE  LYS A 131      25.560  23.248  17.675  1.00 26.91     0.338 C 
ATOM      6  NZ  LYS A 131      24.568  24.066  16.936  1.00 27.40     0.618 N 
ENDBRANCH   4   5
ENDBRANCH   3   4
ENDBRANCH   2   3
ENDBRANCH   1   2
END_RES LYS A 131
BEGIN_RES LYS A 135
REMARK  4 active torsions:
REMARK  status: ('A' for Active; 'I' for Inactive)
REMARK    5  A    between atoms: CA   and  CB  
REMARK    6  A    between atoms: CB   and  CG  
REMARK    7  A    between atoms: CG   and  CD  
REMARK    8  A    between atoms: CD   and  CE  
ROOT
ATOM      7  CA  LYS A 135      33.193  34.663   9.290  1.00 25.02     0.186 C 
ENDROOT
BRANCH   7   8
ATOM      8  CB  LYS A 135      32.060  35.360  10.034  1.00 26.63     0.034 C 
BRANCH   8   9
ATOM      9  CG  LYS A 135      32.535  36.379  11.037  1.00 29.45     0.005 C 
BRANCH   9  10
ATOM     10  CD  LYS A 135      32.176  35.949  12.451  1.00 32.00     0.041 C 
BRANCH  10  11
ATOM     11  CE  LYS A 135      31.150  34.832  12.423  1.00 34.25     0.338 C 
ATOM     12  NZ  LYS A 135      30.551  34.620  13.770  1.00 35.99     0.618 N 
ENDBRANCH  10  11
ENDBRANCH   9  10
ENDBRANCH   8   9
ENDBRANCH   7   8
END_RES LYS A 135
