REMARK VINA RESULT:    -4.293      4.211      7.001
REMARK INTER + INTRA:         -15.928
REMARK INTER:                 -10.256
REMARK INTRA:                  -5.672
REMARK UNBOUND:                -7.118
REMARK SMILES CC(=O)N[C@@H]1[C@@H](O)C[C@](O)(C(=O)O)O[C@H]1C(O)[C@H](O)CNC(=O)OCc1cn(C[C@H](CC(=O)O)CC(C)C)nn1
REMARK SMILES IDX 24 1 22 2 21 3 23 5 20 6 18 7 16 8 15 9 9 10 8 11 14 12 6 13
REMARK SMILES IDX 5 14 10 15 11 17 12 18 13 19 7 21 4 23 2 24 1 26 3 27 17 28
REMARK SMILES IDX 19 30 25 32 26 33 27 34 40 35 28 36 39 37 29 38 30 39 31 40
REMARK SMILES IDX 32 41 33 42 34 43 35 45 36 46 37 47 38 48
REMARK H PARENT 21 4 10 16 13 20 7 22 4 25 17 29 19 31 34 44
REMARK Flexibility Score: inf
ROOT
ATOM      1  O   UNL     1      25.986  34.848  14.952  1.00  0.00    -0.443 OA
ENDROOT
BRANCH   1   2
ATOM      2  C   UNL     1      27.392  34.880  14.965  1.00  0.00     0.407 C 
ATOM      3  N   UNL     1      28.156  33.712  14.729  1.00  0.00    -0.319 N 
ATOM      4  H   UNL     1      27.600  32.820  14.539  1.00  0.00     0.167 HD
ATOM      5  O   UNL     1      27.950  35.980  15.195  1.00  0.00    -0.225 OA
BRANCH   3   6
ATOM      6  C   UNL     1      29.601  33.686  14.734  1.00  0.00     0.154 C 
BRANCH   6   7
ATOM      7  C   UNL     1      30.074  32.311  15.055  1.00  0.00     0.165 C 
BRANCH   7   8
ATOM      8  C   UNL     1      29.845  31.908  16.503  1.00  0.00     0.176 C 
BRANCH   8   9
ATOM      9  C   UNL     1      28.867  30.781  16.614  1.00  0.00     0.178 C 
ATOM     10  C   UNL     1      26.580  31.106  16.367  1.00  0.00     0.269 C 
ATOM     11  C   UNL     1      26.210  30.085  17.415  1.00  0.00     0.112 C 
ATOM     12  O   UNL     1      27.800  30.836  15.766  1.00  0.00    -0.332 OA
ATOM     13  C   UNL     1      27.432  29.411  18.001  1.00  0.00     0.145 C 
ATOM     14  C   UNL     1      28.499  30.512  18.071  1.00  0.00     0.142 C 
BRANCH  10  15
ATOM     15  O   UNL     1      26.531  32.401  16.891  1.00  0.00    -0.357 OA
ATOM     16  H   UNL     1      25.628  32.695  17.114  1.00  0.00     0.214 HD
ENDBRANCH  10  15
BRANCH  10  17
ATOM     17  C   UNL     1      25.548  31.034  15.299  1.00  0.00     0.364 C 
ATOM     18  O   UNL     1      24.854  29.978  15.190  1.00  0.00    -0.246 OA
BRANCH  17  19
ATOM     19  O   UNL     1      25.295  32.059  14.411  1.00  0.00    -0.477 OA
ATOM     20  H   UNL     1      26.031  32.759  14.232  1.00  0.00     0.296 HD
ENDBRANCH  17  19
ENDBRANCH  10  17
BRANCH  13  21
ATOM     21  O   UNL     1      27.201  28.831  19.223  1.00  0.00    -0.391 OA
ATOM     22  H   UNL     1      28.077  28.843  19.719  1.00  0.00     0.211 HD
ENDBRANCH  13  21
BRANCH  14  23
ATOM     23  N   UNL     1      29.672  30.046  18.769  1.00  0.00    -0.348 N 
ATOM     24  C   UNL     1      30.203  30.781  19.874  1.00  0.00     0.217 C 
ATOM     25  H   UNL     1      30.186  29.168  18.512  1.00  0.00     0.163 HD
ATOM     26  C   UNL     1      31.400  30.333  20.609  1.00  0.00     0.114 C 
ATOM     27  O   UNL     1      29.638  31.843  20.235  1.00  0.00    -0.275 OA
ENDBRANCH  14  23
ENDBRANCH   8   9
BRANCH   8  28
ATOM     28  O   UNL     1      29.541  33.006  17.274  1.00  0.00    -0.388 OA
ATOM     29  H   UNL     1      29.661  33.817  16.737  1.00  0.00     0.211 HD
ENDBRANCH   8  28
ENDBRANCH   7   8
BRANCH   7  30
ATOM     30  O   UNL     1      31.471  32.261  14.834  1.00  0.00    -0.388 OA
ATOM     31  H   UNL     1      31.694  31.622  14.121  1.00  0.00     0.211 HD
ENDBRANCH   7  30
ENDBRANCH   6   7
ENDBRANCH   3   6
ENDBRANCH   1   2
BRANCH   1  32
ATOM     32  C   UNL     1      25.319  35.928  14.349  1.00  0.00     0.294 C 
BRANCH  32  33
ATOM     33  C   UNL     1      24.671  35.550  13.080  1.00  0.00     0.120 A 
ATOM     34  C   UNL     1      25.029  35.843  11.773  1.00  0.00     0.138 A 
ATOM     35  N   UNL     1      23.557  34.815  12.975  1.00  0.00    -0.132 NA
ATOM     36  N   UNL     1      24.137  35.282  10.938  1.00  0.00    -0.252 N 
ATOM     37  N   UNL     1      23.258  34.668  11.689  1.00  0.00    -0.067 NA
BRANCH  36  38
ATOM     38  C   UNL     1      24.186  35.375   9.453  1.00  0.00     0.150 C 
BRANCH  38  39
ATOM     39  C   UNL     1      24.956  36.584   9.052  1.00  0.00     0.022 C 
BRANCH  39  40
ATOM     40  C   UNL     1      24.196  37.266   7.927  1.00  0.00     0.128 C 
BRANCH  40  41
ATOM     41  C   UNL     1      23.731  38.599   8.389  1.00  0.00     0.303 C 
ATOM     42  O   UNL     1      23.288  39.438   7.585  1.00  0.00    -0.252 OA
BRANCH  41  43
ATOM     43  O   UNL     1      23.811  38.868   9.759  1.00  0.00    -0.481 OA
ATOM     44  H   UNL     1      23.208  39.558  10.162  1.00  0.00     0.296 HD
ENDBRANCH  41  43
ENDBRANCH  40  41
ENDBRANCH  39  40
BRANCH  39  45
ATOM     45  C   UNL     1      26.373  36.311   8.760  1.00  0.00     0.009 C 
BRANCH  45  46
ATOM     46  C   UNL     1      26.740  34.971   8.247  1.00  0.00    -0.017 C 
ATOM     47  C   UNL     1      27.741  35.232   7.085  1.00  0.00     0.007 C 
ATOM     48  C   UNL     1      27.412  34.036   9.193  1.00  0.00     0.007 C 
ENDBRANCH  45  46
ENDBRANCH  39  45
ENDBRANCH  38  39
ENDBRANCH  36  38
ENDBRANCH  32  33
ENDBRANCH   1  32
TORSDOF 21
BEGIN_RES LYS A 131
REMARK  4 active torsions:
REMARK  status: ('A' for Active; 'I' for Inactive)
REMARK    1  A    between atoms: CA   and  CB  
REMARK    2  A    between atoms: CB   and  CG  
REMARK    3  A    between atoms: CG   and  CD  
REMARK    4  A    between atoms: CD   and  CE  
ROOT
ATOM      1  CA  LYS A 131      29.867  25.555  16.977  1.00 20.52     0.186 C 
ENDROOT
BRANCH   1   2
ATOM      2  CB  LYS A 131      28.345  25.722  17.026  1.00 20.94     0.034 C 
BRANCH   2   3
ATOM      3  CG  LYS A 131      27.601  24.402  16.890  1.00 22.96     0.005 C 
BRANCH   3   4
ATOM      4  CD  LYS A 131      26.161  24.519  17.305  1.00 24.33     0.041 C 
BRANCH   4   5
ATOM      5  CE  LYS A 131      25.983  25.750  18.188  1.00 26.91     0.338 C 
ATOM      6  NZ  LYS A 131      24.824  26.552  17.732  1.00 27.40     0.618 N 
ENDBRANCH   4   5
ENDBRANCH   3   4
ENDBRANCH   2   3
ENDBRANCH   1   2
END_RES LYS A 131
BEGIN_RES LYS A 135
REMARK  4 active torsions:
REMARK  status: ('A' for Active; 'I' for Inactive)
REMARK    5  A    between atoms: CA   and  CB  
REMARK    6  A    between atoms: CB   and  CG  
REMARK    7  A    between atoms: CG   and  CD  
REMARK    8  A    between atoms: CD   and  CE  
ROOT
ATOM      7  CA  LYS A 135      33.193  34.663   9.290  1.00 25.02     0.186 C 
ENDROOT
BRANCH   7   8
ATOM      8  CB  LYS A 135      32.060  35.360  10.034  1.00 26.63     0.034 C 
BRANCH   8   9
ATOM      9  CG  LYS A 135      30.782  35.447   9.240  1.00 29.45     0.005 C 
BRANCH   9  10
ATOM     10  CD  LYS A 135      30.029  36.726   9.574  1.00 32.00     0.041 C 
BRANCH  10  11
ATOM     11  CE  LYS A 135      29.985  36.942  11.075  1.00 34.25     0.338 C 
ATOM     12  NZ  LYS A 135      28.871  36.172  11.694  1.00 35.99     0.618 N 
ENDBRANCH  10  11
ENDBRANCH   9  10
ENDBRANCH   8   9
ENDBRANCH   7   8
END_RES LYS A 135
