REMARK VINA RESULT:    -5.260      1.827      3.462
REMARK INTER + INTRA:         -14.747
REMARK INTER:                  -7.853
REMARK INTRA:                  -6.895
REMARK UNBOUND:                -5.337
REMARK SMILES CC(=O)N[C@@H]1[C@@H](O)C[C@](O)(C(=O)O)O[C@H]1C(O)[C@H](O)CNC(=O)OCc1cn(CC2=CC[C@H]3C[C@@H]2C3(C)C)nn1
REMARK SMILES IDX 21 1 22 2 23 3 20 5 18 6 16 7 15 8 9 9 8 10 14 11 6 12 5 13
REMARK SMILES IDX 10 14 11 16 12 17 13 18 7 20 4 22 2 23 1 25 3 26 17 27 19 29
REMARK SMILES IDX 24 31 25 32 26 33 27 34 40 35 28 36 39 37 29 38 30 39 31 40
REMARK SMILES IDX 35 41 32 42 34 43 36 44 33 45 37 46 38 47
REMARK H PARENT 21 4 10 15 13 19 7 21 4 24 17 28 19 30
REMARK Flexibility Score: inf
ROOT
ATOM      1  N   UNL     1      26.099  29.327  19.268  1.00  0.00    -0.319 N 
ATOM      2  C   UNL     1      26.930  28.472  18.465  1.00  0.00     0.407 C 
ATOM      3  O   UNL     1      27.740  27.705  19.045  1.00  0.00    -0.225 OA
ATOM      4  H   UNL     1      25.426  29.964  18.792  1.00  0.00     0.167 HD
ENDROOT
BRANCH   1   5
ATOM      5  C   UNL     1      26.212  29.289  20.711  1.00  0.00     0.154 C 
BRANCH   5   6
ATOM      6  C   UNL     1      26.612  30.657  21.185  1.00  0.00     0.165 C 
BRANCH   6   7
ATOM      7  C   UNL     1      27.985  30.666  21.820  1.00  0.00     0.176 C 
BRANCH   7   8
ATOM      8  C   UNL     1      28.996  30.730  20.698  1.00  0.00     0.178 C 
ATOM      9  C   UNL     1      31.000  30.016  21.616  1.00  0.00     0.269 C 
ATOM     10  C   UNL     1      31.708  31.324  21.346  1.00  0.00     0.112 C 
ATOM     11  O   UNL     1      29.959  29.766  20.755  1.00  0.00    -0.332 OA
ATOM     12  C   UNL     1      31.005  32.006  20.198  1.00  0.00     0.145 C 
ATOM     13  C   UNL     1      29.545  32.133  20.582  1.00  0.00     0.142 C 
BRANCH   9  14
ATOM     14  O   UNL     1      30.614  29.965  22.959  1.00  0.00    -0.357 OA
ATOM     15  H   UNL     1      29.631  30.123  22.963  1.00  0.00     0.214 HD
ENDBRANCH   9  14
BRANCH   9  16
ATOM     16  C   UNL     1      32.010  28.934  21.421  1.00  0.00     0.364 C 
ATOM     17  O   UNL     1      31.639  27.715  21.516  1.00  0.00    -0.246 OA
BRANCH  16  18
ATOM     18  O   UNL     1      33.335  29.188  21.142  1.00  0.00    -0.477 OA
ATOM     19  H   UNL     1      34.060  28.495  21.306  1.00  0.00     0.296 HD
ENDBRANCH  16  18
ENDBRANCH   9  16
BRANCH  12  20
ATOM     20  O   UNL     1      31.504  33.270  19.949  1.00  0.00    -0.391 OA
ATOM     21  H   UNL     1      31.855  33.625  20.804  1.00  0.00     0.211 HD
ENDBRANCH  12  20
BRANCH  13  22
ATOM     22  N   UNL     1      28.816  32.948  19.645  1.00  0.00    -0.348 N 
ATOM     23  C   UNL     1      28.102  34.102  20.056  1.00  0.00     0.217 C 
ATOM     24  H   UNL     1      28.826  32.667  18.641  1.00  0.00     0.163 HD
ATOM     25  C   UNL     1      27.375  34.887  19.020  1.00  0.00     0.114 C 
ATOM     26  O   UNL     1      28.087  34.447  21.264  1.00  0.00    -0.275 OA
ENDBRANCH  13  22
ENDBRANCH   7   8
BRANCH   7  27
ATOM     27  O   UNL     1      28.157  31.799  22.610  1.00  0.00    -0.388 OA
ATOM     28  H   UNL     1      28.626  31.623  23.443  1.00  0.00     0.211 HD
ENDBRANCH   7  27
ENDBRANCH   6   7
BRANCH   6  29
ATOM     29  O   UNL     1      25.670  31.031  22.168  1.00  0.00    -0.388 OA
ATOM     30  H   UNL     1      26.045  31.753  22.747  1.00  0.00     0.211 HD
ENDBRANCH   6  29
ENDBRANCH   5   6
ENDBRANCH   1   5
BRANCH   2  31
ATOM     31  O   UNL     1      26.878  28.455  17.098  1.00  0.00    -0.443 OA
BRANCH  31  32
ATOM     32  C   UNL     1      26.585  29.588  16.300  1.00  0.00     0.294 C 
BRANCH  32  33
ATOM     33  C   UNL     1      27.708  30.546  16.343  1.00  0.00     0.120 A 
ATOM     34  C   UNL     1      28.943  30.452  15.747  1.00  0.00     0.138 A 
ATOM     35  N   UNL     1      27.706  31.715  17.001  1.00  0.00    -0.132 NA
ATOM     36  N   UNL     1      29.671  31.568  16.052  1.00  0.00    -0.248 N 
ATOM     37  N   UNL     1      28.886  32.313  16.816  1.00  0.00    -0.067 NA
BRANCH  36  38
ATOM     38  C   UNL     1      31.017  31.826  15.604  1.00  0.00     0.177 C 
BRANCH  38  39
ATOM     39  C   UNL     1      31.231  33.295  15.356  1.00  0.00    -0.049 C 
ATOM     40  C   UNL     1      30.735  33.893  14.276  1.00  0.00    -0.025 C 
ATOM     41  C   UNL     1      32.001  34.127  16.303  1.00  0.00     0.023 C 
ATOM     42  C   UNL     1      30.766  35.379  14.208  1.00  0.00     0.031 C 
ATOM     43  C   UNL     1      31.099  35.320  16.650  1.00  0.00     0.013 C 
ATOM     44  C   UNL     1      32.854  35.109  15.526  1.00  0.00    -0.026 C 
ATOM     45  C   UNL     1      31.571  35.934  15.342  1.00  0.00    -0.000 C 
ATOM     46  C   UNL     1      33.833  35.870  16.375  1.00  0.00     0.012 C 
ATOM     47  C   UNL     1      33.455  34.595  14.262  1.00  0.00     0.012 C 
ENDBRANCH  38  39
ENDBRANCH  36  38
ENDBRANCH  32  33
ENDBRANCH  31  32
ENDBRANCH   2  31
TORSDOF 16
BEGIN_RES LYS A 131
REMARK  4 active torsions:
REMARK  status: ('A' for Active; 'I' for Inactive)
REMARK    1  A    between atoms: CA   and  CB  
REMARK    2  A    between atoms: CB   and  CG  
REMARK    3  A    between atoms: CG   and  CD  
REMARK    4  A    between atoms: CD   and  CE  
ROOT
ATOM      1  CA  LYS A 131      29.867  25.555  16.977  1.00 20.52     0.186 C 
ENDROOT
BRANCH   1   2
ATOM      2  CB  LYS A 131      28.345  25.722  17.026  1.00 20.94     0.034 C 
BRANCH   2   3
ATOM      3  CG  LYS A 131      27.602  24.400  16.913  1.00 22.96     0.005 C 
BRANCH   3   4
ATOM      4  CD  LYS A 131      26.499  24.282  17.929  1.00 24.33     0.041 C 
BRANCH   4   5
ATOM      5  CE  LYS A 131      25.287  25.080  17.460  1.00 26.91     0.338 C 
ATOM      6  NZ  LYS A 131      24.209  24.170  17.009  1.00 27.40     0.618 N 
ENDBRANCH   4   5
ENDBRANCH   3   4
ENDBRANCH   2   3
ENDBRANCH   1   2
END_RES LYS A 131
BEGIN_RES LYS A 135
REMARK  4 active torsions:
REMARK  status: ('A' for Active; 'I' for Inactive)
REMARK    5  A    between atoms: CA   and  CB  
REMARK    6  A    between atoms: CB   and  CG  
REMARK    7  A    between atoms: CG   and  CD  
REMARK    8  A    between atoms: CD   and  CE  
ROOT
ATOM      7  CA  LYS A 135      33.193  34.663   9.290  1.00 25.02     0.186 C 
ENDROOT
BRANCH   7   8
ATOM      8  CB  LYS A 135      32.060  35.360  10.034  1.00 26.63     0.034 C 
BRANCH   8   9
ATOM      9  CG  LYS A 135      30.731  34.662   9.899  1.00 29.45     0.005 C 
BRANCH   9  10
ATOM     10  CD  LYS A 135      30.323  34.562   8.437  1.00 32.00     0.041 C 
BRANCH  10  11
ATOM     11  CE  LYS A 135      28.813  34.552   8.306  1.00 34.25     0.338 C 
ATOM     12  NZ  LYS A 135      28.178  33.850   9.456  1.00 35.99     0.618 N 
ENDBRANCH  10  11
ENDBRANCH   9  10
ENDBRANCH   8   9
ENDBRANCH   7   8
END_RES LYS A 135
