REMARK VINA RESULT:    -3.881      6.540     11.932
REMARK INTER + INTRA:         -14.368
REMARK INTER:                  -9.371
REMARK INTRA:                  -4.997
REMARK UNBOUND:                -7.311
REMARK SMILES CC(=O)N[C@@H]1[C@@H](O)C[C@](O)(C(=O)O)O[C@H]1C(O)[C@H](O)CNC(=O)OCc1cn(-c2ccc(O)c([N+](=O)[O-])c2)nn1
REMARK SMILES IDX 21 1 22 2 23 3 20 5 18 6 16 7 15 8 9 9 8 10 14 11 6 12 5 13
REMARK SMILES IDX 10 14 11 16 12 17 13 18 7 20 4 22 2 23 1 25 3 26 17 27 19 29
REMARK SMILES IDX 24 31 25 32 26 33 27 34 40 35 28 36 39 37 29 38 30 39 38 40
REMARK SMILES IDX 31 41 34 42 32 43 35 44 36 45 37 46 33 47
REMARK H PARENT 21 4 10 15 13 19 7 21 4 24 17 28 19 30 33 48
REMARK Flexibility Score: inf
ROOT
ATOM      1  N   UNL     1      28.867  41.250   9.568  1.00  0.00    -0.319 N 
ATOM      2  C   UNL     1      28.502  41.444  10.927  1.00  0.00     0.407 C 
ATOM      3  O   UNL     1      29.377  41.627  11.838  1.00  0.00    -0.225 OA
ATOM      4  H   UNL     1      28.128  41.112   8.861  1.00  0.00     0.167 HD
ENDROOT
BRANCH   1   5
ATOM      5  C   UNL     1      30.254  41.261   9.208  1.00  0.00     0.154 C 
BRANCH   5   6
ATOM      6  C   UNL     1      30.638  40.467   8.011  1.00  0.00     0.165 C 
BRANCH   6   7
ATOM      7  C   UNL     1      30.313  38.997   8.075  1.00  0.00     0.176 C 
BRANCH   7   8
ATOM      8  C   UNL     1      29.270  38.547   7.100  1.00  0.00     0.178 C 
ATOM      9  C   UNL     1      27.628  39.227   5.646  1.00  0.00     0.269 C 
ATOM     10  C   UNL     1      27.824  37.800   5.188  1.00  0.00     0.112 C 
ATOM     11  O   UNL     1      28.471  39.597   6.679  1.00  0.00    -0.332 OA
ATOM     12  C   UNL     1      27.635  36.879   6.347  1.00  0.00     0.145 C 
ATOM     13  C   UNL     1      28.554  37.309   7.497  1.00  0.00     0.142 C 
BRANCH   9  14
ATOM     14  O   UNL     1      26.312  39.339   6.072  1.00  0.00    -0.357 OA
ATOM     15  H   UNL     1      25.799  39.747   5.322  1.00  0.00     0.214 HD
ENDBRANCH   9  14
BRANCH   9  16
ATOM     16  C   UNL     1      27.812  40.100   4.460  1.00  0.00     0.364 C 
ATOM     17  O   UNL     1      26.975  40.108   3.519  1.00  0.00    -0.246 OA
BRANCH  16  18
ATOM     18  O   UNL     1      28.913  40.928   4.364  1.00  0.00    -0.477 OA
ATOM     19  H   UNL     1      29.793  40.739   4.806  1.00  0.00     0.296 HD
ENDBRANCH  16  18
ENDBRANCH   9  16
BRANCH  12  20
ATOM     20  O   UNL     1      26.281  36.960   6.723  1.00  0.00    -0.391 OA
ATOM     21  H   UNL     1      25.890  37.704   6.172  1.00  0.00     0.211 HD
ENDBRANCH  12  20
BRANCH  13  22
ATOM     22  N   UNL     1      29.573  36.258   7.644  1.00  0.00    -0.348 N 
ATOM     23  C   UNL     1      29.416  35.159   8.514  1.00  0.00     0.217 C 
ATOM     24  H   UNL     1      30.450  36.333   7.077  1.00  0.00     0.163 HD
ATOM     25  C   UNL     1      30.468  34.121   8.635  1.00  0.00     0.114 C 
ATOM     26  O   UNL     1      28.385  35.056   9.191  1.00  0.00    -0.275 OA
ENDBRANCH  13  22
ENDBRANCH   7   8
BRANCH   7  27
ATOM     27  O   UNL     1      31.452  38.218   7.876  1.00  0.00    -0.388 OA
ATOM     28  H   UNL     1      32.251  38.577   8.297  1.00  0.00     0.211 HD
ENDBRANCH   7  27
ENDBRANCH   6   7
BRANCH   6  29
ATOM     29  O   UNL     1      32.020  40.639   7.843  1.00  0.00    -0.388 OA
ATOM     30  H   UNL     1      32.310  41.341   8.493  1.00  0.00     0.211 HD
ENDBRANCH   6  29
ENDBRANCH   5   6
ENDBRANCH   1   5
BRANCH   2  31
ATOM     31  O   UNL     1      27.165  41.428  11.249  1.00  0.00    -0.443 OA
BRANCH  31  32
ATOM     32  C   UNL     1      26.573  40.248  11.696  1.00  0.00     0.294 C 
BRANCH  32  33
ATOM     33  C   UNL     1      25.841  39.511  10.631  1.00  0.00     0.121 A 
ATOM     34  C   UNL     1      24.736  38.683  10.765  1.00  0.00     0.144 A 
ATOM     35  N   UNL     1      26.110  39.502   9.313  1.00  0.00    -0.131 NA
ATOM     36  N   UNL     1      24.371  38.206   9.566  1.00  0.00    -0.220 N 
ATOM     37  N   UNL     1      25.224  38.719   8.695  1.00  0.00    -0.062 NA
BRANCH  36  38
ATOM     38  C   UNL     1      23.300  37.328   9.240  1.00  0.00     0.073 A 
ATOM     39  C   UNL     1      22.871  37.214   7.934  1.00  0.00     0.033 A 
ATOM     40  C   UNL     1      22.647  36.563  10.184  1.00  0.00     0.118 A 
ATOM     41  C   UNL     1      21.829  36.365   7.595  1.00  0.00     0.056 A 
ATOM     42  C   UNL     1      21.602  35.702   9.893  1.00  0.00     0.312 A 
ATOM     43  C   UNL     1      21.202  35.618   8.563  1.00  0.00     0.194 A 
BRANCH  42  44
ATOM     44  N   UNL     1      20.945  34.928  10.871  1.00  0.00     0.066 N 
ATOM     45  O   UNL     1      19.716  34.950  10.940  1.00  0.00    -0.258 OA
ATOM     46  O   UNL     1      21.669  34.162  11.730  1.00  0.00    -0.258 OA
ENDBRANCH  42  44
BRANCH  43  47
ATOM     47  O   UNL     1      20.150  34.752   8.272  1.00  0.00    -0.502 OA
ATOM     48  H   UNL     1      19.280  34.852   8.813  1.00  0.00     0.293 HD
ENDBRANCH  43  47
ENDBRANCH  36  38
ENDBRANCH  32  33
ENDBRANCH  31  32
ENDBRANCH   2  31
TORSDOF 17
BEGIN_RES LYS A 131
REMARK  4 active torsions:
REMARK  status: ('A' for Active; 'I' for Inactive)
REMARK    1  A    between atoms: CA   and  CB  
REMARK    2  A    between atoms: CB   and  CG  
REMARK    3  A    between atoms: CG   and  CD  
REMARK    4  A    between atoms: CD   and  CE  
ROOT
ATOM      1  CA  LYS A 131      29.867  25.555  16.977  1.00 20.52     0.186 C 
ENDROOT
BRANCH   1   2
ATOM      2  CB  LYS A 131      28.345  25.722  17.026  1.00 20.94     0.034 C 
BRANCH   2   3
ATOM      3  CG  LYS A 131      27.601  24.406  16.857  1.00 22.96     0.005 C 
BRANCH   3   4
ATOM      4  CD  LYS A 131      26.150  24.524  17.233  1.00 24.33     0.041 C 
BRANCH   4   5
ATOM      5  CE  LYS A 131      26.028  24.712  18.742  1.00 26.91     0.338 C 
ATOM      6  NZ  LYS A 131      25.511  23.477  19.379  1.00 27.40     0.618 N 
ENDBRANCH   4   5
ENDBRANCH   3   4
ENDBRANCH   2   3
ENDBRANCH   1   2
END_RES LYS A 131
BEGIN_RES LYS A 135
REMARK  4 active torsions:
REMARK  status: ('A' for Active; 'I' for Inactive)
REMARK    5  A    between atoms: CA   and  CB  
REMARK    6  A    between atoms: CB   and  CG  
REMARK    7  A    between atoms: CG   and  CD  
REMARK    8  A    between atoms: CD   and  CE  
ROOT
ATOM      7  CA  LYS A 135      33.193  34.663   9.290  1.00 25.02     0.186 C 
ENDROOT
BRANCH   7   8
ATOM      8  CB  LYS A 135      32.060  35.360  10.034  1.00 26.63     0.034 C 
BRANCH   8   9
ATOM      9  CG  LYS A 135      32.513  36.094  11.270  1.00 29.45     0.005 C 
BRANCH   9  10
ATOM     10  CD  LYS A 135      31.610  37.287  11.546  1.00 32.00     0.041 C 
BRANCH  10  11
ATOM     11  CE  LYS A 135      30.177  36.835  11.750  1.00 34.25     0.338 C 
ATOM     12  NZ  LYS A 135      29.219  37.796  11.138  1.00 35.99     0.618 N 
ENDBRANCH  10  11
ENDBRANCH   9  10
ENDBRANCH   8   9
ENDBRANCH   7   8
END_RES LYS A 135
