REMARK VINA RESULT:    -5.202      8.124     12.164
REMARK INTER + INTRA:         -13.488
REMARK INTER:                  -7.294
REMARK INTRA:                  -6.194
REMARK UNBOUND:                -4.485
REMARK SMILES CC(=O)N[C@@H]1[C@@H](O)C[C@](O)(C(=O)O)O[C@H]1C(O)[C@H](O)CNC(=O)OCc1cn(-c2ccccc2)nn1
REMARK SMILES IDX 20 1 18 2 16 3 15 4 9 5 8 6 14 7 6 8 5 9 10 10 11 12 12 13
REMARK SMILES IDX 13 14 7 16 4 18 2 19 1 21 3 22 17 23 19 25 21 27 22 28 23 30
REMARK SMILES IDX 24 31 25 32 26 33 27 34 36 35 28 36 35 37 29 38 30 39 34 40
REMARK SMILES IDX 31 41 33 42 32 43
REMARK H PARENT 10 11 13 15 7 17 4 20 17 24 19 26 21 29
REMARK Flexibility Score: inf
ROOT
ATOM      1  C   UNL     1      30.533  35.225  18.976  1.00  0.00     0.154 C 
ENDROOT
BRANCH   1   2
ATOM      2  C   UNL     1      30.730  34.265  20.132  1.00  0.00     0.165 C 
BRANCH   2   3
ATOM      3  C   UNL     1      29.661  33.195  20.164  1.00  0.00     0.176 C 
BRANCH   3   4
ATOM      4  C   UNL     1      30.145  31.880  19.653  1.00  0.00     0.178 C 
ATOM      5  C   UNL     1      29.170  31.507  17.549  1.00  0.00     0.269 C 
ATOM      6  C   UNL     1      28.104  30.631  18.105  1.00  0.00     0.112 C 
ATOM      7  O   UNL     1      30.242  31.763  18.316  1.00  0.00    -0.332 OA
ATOM      8  C   UNL     1      28.066  30.557  19.603  1.00  0.00     0.145 C 
ATOM      9  C   UNL     1      29.413  30.705  20.235  1.00  0.00     0.142 C 
BRANCH   5  10
ATOM     10  O   UNL     1      28.552  32.737  17.235  1.00  0.00    -0.357 OA
ATOM     11  H   UNL     1      28.219  33.119  18.095  1.00  0.00     0.214 HD
ENDBRANCH   5  10
BRANCH   5  12
ATOM     12  C   UNL     1      29.643  30.962  16.248  1.00  0.00     0.364 C 
ATOM     13  O   UNL     1      29.001  30.105  15.601  1.00  0.00    -0.246 OA
BRANCH  12  14
ATOM     14  O   UNL     1      30.834  31.404  15.714  1.00  0.00    -0.477 OA
ATOM     15  H   UNL     1      30.909  32.048  14.937  1.00  0.00     0.296 HD
ENDBRANCH  12  14
ENDBRANCH   5  12
BRANCH   8  16
ATOM     16  O   UNL     1      27.189  31.530  20.115  1.00  0.00    -0.391 OA
ATOM     17  H   UNL     1      26.696  31.214  20.897  1.00  0.00     0.211 HD
ENDBRANCH   8  16
BRANCH   9  18
ATOM     18  N   UNL     1      30.187  29.506  19.903  1.00  0.00    -0.348 N 
ATOM     19  C   UNL     1      30.919  28.791  20.891  1.00  0.00     0.217 C 
ATOM     20  H   UNL     1      30.225  29.141  18.928  1.00  0.00     0.163 HD
ATOM     21  C   UNL     1      31.709  27.573  20.574  1.00  0.00     0.114 C 
ATOM     22  O   UNL     1      30.922  29.173  22.093  1.00  0.00    -0.275 OA
ENDBRANCH   9  18
ENDBRANCH   3   4
BRANCH   3  23
ATOM     23  O   UNL     1      29.274  33.101  21.511  1.00  0.00    -0.388 OA
ATOM     24  H   UNL     1      29.992  33.590  22.014  1.00  0.00     0.211 HD
ENDBRANCH   3  23
ENDBRANCH   2   3
BRANCH   2  25
ATOM     25  O   UNL     1      30.875  34.939  21.332  1.00  0.00    -0.388 OA
ATOM     26  H   UNL     1      31.220  34.375  22.054  1.00  0.00     0.211 HD
ENDBRANCH   2  25
ENDBRANCH   1   2
BRANCH   1  27
ATOM     27  N   UNL     1      30.763  34.635  17.695  1.00  0.00    -0.319 N 
ATOM     28  C   UNL     1      32.016  34.668  17.025  1.00  0.00     0.407 C 
ATOM     29  H   UNL     1      29.986  34.143  17.195  1.00  0.00     0.167 HD
ATOM     30  O   UNL     1      33.001  35.222  17.527  1.00  0.00    -0.225 OA
BRANCH  28  31
ATOM     31  O   UNL     1      32.184  34.078  15.777  1.00  0.00    -0.443 OA
BRANCH  31  32
ATOM     32  C   UNL     1      32.097  34.870  14.602  1.00  0.00     0.294 C 
BRANCH  32  33
ATOM     33  C   UNL     1      30.703  34.783  14.113  1.00  0.00     0.121 A 
ATOM     34  C   UNL     1      30.156  35.439  13.032  1.00  0.00     0.144 A 
ATOM     35  N   UNL     1      29.725  34.033  14.659  1.00  0.00    -0.131 NA
ATOM     36  N   UNL     1      28.871  35.055  12.974  1.00  0.00    -0.220 N 
ATOM     37  N   UNL     1      28.626  34.211  13.955  1.00  0.00    -0.062 NA
BRANCH  36  38
ATOM     38  C   UNL     1      27.935  35.500  11.998  1.00  0.00     0.066 A 
ATOM     39  C   UNL     1      26.950  34.631  11.561  1.00  0.00     0.028 A 
ATOM     40  C   UNL     1      28.003  36.783  11.489  1.00  0.00     0.028 A 
ATOM     41  C   UNL     1      26.056  35.096  10.612  1.00  0.00     0.002 A 
ATOM     42  C   UNL     1      27.108  37.227  10.548  1.00  0.00     0.002 A 
ATOM     43  C   UNL     1      26.125  36.368  10.109  1.00  0.00     0.000 A 
ENDBRANCH  36  38
ENDBRANCH  32  33
ENDBRANCH  31  32
ENDBRANCH  28  31
ENDBRANCH   1  27
TORSDOF 15
BEGIN_RES LYS A 131
REMARK  4 active torsions:
REMARK  status: ('A' for Active; 'I' for Inactive)
REMARK    1  A    between atoms: CA   and  CB  
REMARK    2  A    between atoms: CB   and  CG  
REMARK    3  A    between atoms: CG   and  CD  
REMARK    4  A    between atoms: CD   and  CE  
ROOT
ATOM      1  CA  LYS A 131      29.867  25.555  16.977  1.00 20.52     0.186 C 
ENDROOT
BRANCH   1   2
ATOM      2  CB  LYS A 131      28.345  25.722  17.026  1.00 20.94     0.034 C 
BRANCH   2   3
ATOM      3  CG  LYS A 131      27.601  24.403  16.887  1.00 22.96     0.005 C 
BRANCH   3   4
ATOM      4  CD  LYS A 131      26.712  24.126  18.068  1.00 24.33     0.041 C 
BRANCH   4   5
ATOM      5  CE  LYS A 131      25.469  23.375  17.604  1.00 26.91     0.338 C 
ATOM      6  NZ  LYS A 131      24.557  24.284  16.870  1.00 27.40     0.618 N 
ENDBRANCH   4   5
ENDBRANCH   3   4
ENDBRANCH   2   3
ENDBRANCH   1   2
END_RES LYS A 131
BEGIN_RES LYS A 135
REMARK  4 active torsions:
REMARK  status: ('A' for Active; 'I' for Inactive)
REMARK    5  A    between atoms: CA   and  CB  
REMARK    6  A    between atoms: CB   and  CG  
REMARK    7  A    between atoms: CG   and  CD  
REMARK    8  A    between atoms: CD   and  CE  
ROOT
ATOM      7  CA  LYS A 135      33.193  34.663   9.290  1.00 25.02     0.186 C 
ENDROOT
BRANCH   7   8
ATOM      8  CB  LYS A 135      32.060  35.360  10.034  1.00 26.63     0.034 C 
BRANCH   8   9
ATOM      9  CG  LYS A 135      30.698  34.795   9.724  1.00 29.45     0.005 C 
BRANCH   9  10
ATOM     10  CD  LYS A 135      30.486  34.700   8.221  1.00 32.00     0.041 C 
BRANCH  10  11
ATOM     11  CE  LYS A 135      29.381  35.641   7.779  1.00 34.25     0.338 C 
ATOM     12  NZ  LYS A 135      28.097  34.910   7.592  1.00 35.99     0.618 N 
ENDBRANCH  10  11
ENDBRANCH   9  10
ENDBRANCH   8   9
ENDBRANCH   7   8
END_RES LYS A 135
