REMARK VINA RESULT:    -4.648      8.127     14.641
REMARK INTER + INTRA:         -14.596
REMARK INTER:                  -8.473
REMARK INTRA:                  -6.123
REMARK UNBOUND:                -6.145
REMARK SMILES CC(=O)N[C@@H]1[C@@H](O)C[C@](O)(C(=O)O)O[C@H]1C(O)[C@H](O)CNC(=O)OCc1cn(C(C)(C)CO)nn1
REMARK SMILES IDX 21 1 22 2 23 3 20 5 18 6 16 7 15 8 9 9 8 10 14 11 6 12 5 13
REMARK SMILES IDX 10 14 11 16 12 17 13 18 7 20 4 22 2 23 1 25 3 26 17 27 19 29
REMARK SMILES IDX 24 31 25 32 26 33 27 34 35 35 28 36 34 37 29 38 30 39 31 40
REMARK SMILES IDX 32 41 33 42
REMARK H PARENT 21 4 10 15 13 19 7 21 4 24 17 28 19 30 33 43
REMARK Flexibility Score: inf
ROOT
ATOM      1  N   UNL     1      26.252  28.787  18.575  1.00  0.00    -0.319 N 
ATOM      2  C   UNL     1      25.004  28.962  17.895  1.00  0.00     0.407 C 
ATOM      3  O   UNL     1      24.015  28.184  18.111  1.00  0.00    -0.225 OA
ATOM      4  H   UNL     1      27.019  29.454  18.372  1.00  0.00     0.167 HD
ENDROOT
BRANCH   1   5
ATOM      5  C   UNL     1      26.400  27.707  19.527  1.00  0.00     0.154 C 
BRANCH   5   6
ATOM      6  C   UNL     1      27.723  27.687  20.184  1.00  0.00     0.165 C 
BRANCH   6   7
ATOM      7  C   UNL     1      28.496  28.950  20.247  1.00  0.00     0.176 C 
BRANCH   7   8
ATOM      8  C   UNL     1      29.119  29.154  21.606  1.00  0.00     0.178 C 
ATOM      9  C   UNL     1      31.130  27.916  21.470  1.00  0.00     0.269 C 
ATOM     10  C   UNL     1      30.558  26.908  22.484  1.00  0.00     0.112 C 
ATOM     11  O   UNL     1      30.494  29.115  21.509  1.00  0.00    -0.332 OA
ATOM     12  C   UNL     1      29.788  27.727  23.465  1.00  0.00     0.145 C 
ATOM     13  C   UNL     1      28.559  28.285  22.691  1.00  0.00     0.142 C 
BRANCH   9  14
ATOM     14  O   UNL     1      31.206  27.304  20.236  1.00  0.00    -0.357 OA
ATOM     15  H   UNL     1      31.257  27.985  19.524  1.00  0.00     0.214 HD
ENDBRANCH   9  14
BRANCH   9  16
ATOM     16  C   UNL     1      32.554  28.196  21.906  1.00  0.00     0.364 C 
ATOM     17  O   UNL     1      33.088  27.528  22.822  1.00  0.00    -0.246 OA
BRANCH  16  18
ATOM     18  O   UNL     1      33.239  29.206  21.266  1.00  0.00    -0.477 OA
ATOM     19  H   UNL     1      32.888  30.157  21.248  1.00  0.00     0.296 HD
ENDBRANCH  16  18
ENDBRANCH   9  16
BRANCH  12  20
ATOM     20  O   UNL     1      29.364  27.020  24.572  1.00  0.00    -0.391 OA
ATOM     21  H   UNL     1      28.573  26.489  24.290  1.00  0.00     0.211 HD
ENDBRANCH  12  20
BRANCH  13  22
ATOM     22  N   UNL     1      27.867  29.050  23.741  1.00  0.00    -0.348 N 
ATOM     23  C   UNL     1      26.476  29.065  23.891  1.00  0.00     0.217 C 
ATOM     24  H   UNL     1      28.466  29.597  24.392  1.00  0.00     0.163 HD
ATOM     25  C   UNL     1      25.756  29.834  24.940  1.00  0.00     0.114 C 
ATOM     26  O   UNL     1      25.776  28.387  23.089  1.00  0.00    -0.275 OA
ENDBRANCH  13  22
ENDBRANCH   7   8
BRANCH   7  27
ATOM     27  O   UNL     1      29.241  29.315  19.175  1.00  0.00    -0.388 OA
ATOM     28  H   UNL     1      29.426  30.287  19.104  1.00  0.00     0.211 HD
ENDBRANCH   7  27
ENDBRANCH   6   7
BRANCH   6  29
ATOM     29  O   UNL     1      28.534  26.705  19.571  1.00  0.00    -0.388 OA
ATOM     30  H   UNL     1      29.459  26.853  19.871  1.00  0.00     0.211 HD
ENDBRANCH   6  29
ENDBRANCH   5   6
ENDBRANCH   1   5
BRANCH   2  31
ATOM     31  O   UNL     1      24.893  29.994  16.999  1.00  0.00    -0.443 OA
BRANCH  31  32
ATOM     32  C   UNL     1      25.564  30.027  15.774  1.00  0.00     0.294 C 
BRANCH  32  33
ATOM     33  C   UNL     1      26.987  30.419  15.948  1.00  0.00     0.120 A 
ATOM     34  C   UNL     1      27.447  31.712  15.910  1.00  0.00     0.139 A 
ATOM     35  N   UNL     1      28.050  29.645  16.162  1.00  0.00    -0.132 NA
ATOM     36  N   UNL     1      28.770  31.695  16.102  1.00  0.00    -0.244 N 
ATOM     37  N   UNL     1      29.112  30.414  16.254  1.00  0.00    -0.066 NA
BRANCH  36  38
ATOM     38  C   UNL     1      29.627  32.852  16.133  1.00  0.00     0.082 C 
ATOM     39  C   UNL     1      30.525  32.824  17.351  1.00  0.00     0.039 C 
ATOM     40  C   UNL     1      28.757  34.102  16.150  1.00  0.00     0.039 C 
BRANCH  38  41
ATOM     41  C   UNL     1      30.448  32.910  14.869  1.00  0.00     0.186 C 
BRANCH  41  42
ATOM     42  O   UNL     1      31.449  31.935  14.905  1.00  0.00    -0.394 OA
ATOM     43  H   UNL     1      32.034  32.057  14.114  1.00  0.00     0.210 HD
ENDBRANCH  41  42
ENDBRANCH  38  41
ENDBRANCH  36  38
ENDBRANCH  32  33
ENDBRANCH  31  32
ENDBRANCH   2  31
TORSDOF 17
BEGIN_RES LYS A 131
REMARK  4 active torsions:
REMARK  status: ('A' for Active; 'I' for Inactive)
REMARK    1  A    between atoms: CA   and  CB  
REMARK    2  A    between atoms: CB   and  CG  
REMARK    3  A    between atoms: CG   and  CD  
REMARK    4  A    between atoms: CD   and  CE  
ROOT
ATOM      1  CA  LYS A 131      29.867  25.555  16.977  1.00 20.52     0.186 C 
ENDROOT
BRANCH   1   2
ATOM      2  CB  LYS A 131      28.345  25.722  17.026  1.00 20.94     0.034 C 
BRANCH   2   3
ATOM      3  CG  LYS A 131      27.601  24.401  16.905  1.00 22.96     0.005 C 
BRANCH   3   4
ATOM      4  CD  LYS A 131      26.626  24.194  18.030  1.00 24.33     0.041 C 
BRANCH   4   5
ATOM      5  CE  LYS A 131      25.261  24.742  17.627  1.00 26.91     0.338 C 
ATOM      6  NZ  LYS A 131      24.466  23.698  16.938  1.00 27.40     0.618 N 
ENDBRANCH   4   5
ENDBRANCH   3   4
ENDBRANCH   2   3
ENDBRANCH   1   2
END_RES LYS A 131
BEGIN_RES LYS A 135
REMARK  4 active torsions:
REMARK  status: ('A' for Active; 'I' for Inactive)
REMARK    5  A    between atoms: CA   and  CB  
REMARK    6  A    between atoms: CB   and  CG  
REMARK    7  A    between atoms: CG   and  CD  
REMARK    8  A    between atoms: CD   and  CE  
ROOT
ATOM      7  CA  LYS A 135      33.193  34.663   9.290  1.00 25.02     0.186 C 
ENDROOT
BRANCH   7   8
ATOM      8  CB  LYS A 135      32.060  35.360  10.034  1.00 26.63     0.034 C 
BRANCH   8   9
ATOM      9  CG  LYS A 135      30.884  35.703   9.156  1.00 29.45     0.005 C 
BRANCH   9  10
ATOM     10  CD  LYS A 135      30.387  34.469   8.420  1.00 32.00     0.041 C 
BRANCH  10  11
ATOM     11  CE  LYS A 135      28.872  34.468   8.344  1.00 34.25     0.338 C 
ATOM     12  NZ  LYS A 135      28.277  33.758   9.510  1.00 35.99     0.618 N 
ENDBRANCH  10  11
ENDBRANCH   9  10
ENDBRANCH   8   9
ENDBRANCH   7   8
END_RES LYS A 135
