REMARK VINA RESULT:    -5.060      6.938     11.578
REMARK INTER + INTRA:         -15.815
REMARK INTER:                  -8.971
REMARK INTRA:                  -6.844
REMARK UNBOUND:                -6.317
REMARK SMILES CC(=O)N[C@@H]1[C@@H](O)C[C@](O)(C(=O)O)O[C@H]1C(O)[C@H](O)CNC(=O)OCc1cn(-c2cccc(C=CC(=O)O)c2)nn1
REMARK SMILES IDX 21 1 22 2 23 3 20 5 18 6 16 7 15 8 9 9 8 10 14 11 6 12 5 13
REMARK SMILES IDX 10 14 11 16 12 17 13 18 7 20 4 22 2 23 1 25 3 26 17 27 19 29
REMARK SMILES IDX 24 31 25 32 26 33 27 34 41 35 28 36 40 37 29 38 39 39 30 40
REMARK SMILES IDX 33 41 31 42 32 43 34 44 35 45 36 46 37 47 38 48
REMARK H PARENT 21 4 10 15 13 19 7 21 4 24 17 28 19 30 38 49
REMARK Flexibility Score: inf
ROOT
ATOM      1  N   UNL     1      29.218  33.146  19.441  1.00  0.00    -0.319 N 
ATOM      2  C   UNL     1      28.664  32.413  20.516  1.00  0.00     0.407 C 
ATOM      3  O   UNL     1      28.177  32.961  21.526  1.00  0.00    -0.225 OA
ATOM      4  H   UNL     1      29.614  32.554  18.632  1.00  0.00     0.167 HD
ENDROOT
BRANCH   1   5
ATOM      5  C   UNL     1      29.293  34.575  19.338  1.00  0.00     0.154 C 
BRANCH   5   6
ATOM      6  C   UNL     1      30.695  35.024  19.075  1.00  0.00     0.165 C 
BRANCH   6   7
ATOM      7  C   UNL     1      30.940  35.476  17.648  1.00  0.00     0.176 C 
BRANCH   7   8
ATOM      8  C   UNL     1      30.444  34.468  16.677  1.00  0.00     0.178 C 
ATOM      9  C   UNL     1      30.542  32.346  15.772  1.00  0.00     0.269 C 
ATOM     10  C   UNL     1      29.345  32.842  15.010  1.00  0.00     0.112 C 
ATOM     11  O   UNL     1      30.961  33.214  16.762  1.00  0.00    -0.332 OA
ATOM     12  C   UNL     1      29.459  34.221  14.471  1.00  0.00     0.145 C 
ATOM     13  C   UNL     1      30.515  34.977  15.239  1.00  0.00     0.142 C 
BRANCH   9  14
ATOM     14  O   UNL     1      31.555  32.014  14.874  1.00  0.00    -0.357 OA
ATOM     15  H   UNL     1      32.306  31.552  15.305  1.00  0.00     0.214 HD
ENDBRANCH   9  14
BRANCH   9  16
ATOM     16  C   UNL     1      30.134  31.083  16.449  1.00  0.00     0.364 C 
ATOM     17  O   UNL     1      30.383  30.933  17.693  1.00  0.00    -0.246 OA
BRANCH  16  18
ATOM     18  O   UNL     1      29.490  30.055  15.775  1.00  0.00    -0.477 OA
ATOM     19  H   UNL     1      28.517  29.853  15.893  1.00  0.00     0.296 HD
ENDBRANCH  16  18
ENDBRANCH   9  16
BRANCH  12  20
ATOM     20  O   UNL     1      29.686  34.266  13.099  1.00  0.00    -0.391 OA
ATOM     21  H   UNL     1      30.241  33.515  12.833  1.00  0.00     0.211 HD
ENDBRANCH  12  20
BRANCH  13  22
ATOM     22  N   UNL     1      30.363  36.396  15.145  1.00  0.00    -0.348 N 
ATOM     23  C   UNL     1      31.203  37.204  14.335  1.00  0.00     0.217 C 
ATOM     24  H   UNL     1      29.604  36.907  15.687  1.00  0.00     0.163 HD
ATOM     25  C   UNL     1      31.007  38.664  14.270  1.00  0.00     0.114 C 
ATOM     26  O   UNL     1      32.128  36.690  13.658  1.00  0.00    -0.275 OA
ENDBRANCH  13  22
ENDBRANCH   7   8
BRANCH   7  27
ATOM     27  O   UNL     1      32.252  35.890  17.446  1.00  0.00    -0.388 OA
ATOM     28  H   UNL     1      32.793  35.557  18.195  1.00  0.00     0.211 HD
ENDBRANCH   7  27
ENDBRANCH   6   7
BRANCH   6  29
ATOM     29  O   UNL     1      31.626  34.033  19.392  1.00  0.00    -0.388 OA
ATOM     30  H   UNL     1      32.498  34.276  18.976  1.00  0.00     0.211 HD
ENDBRANCH   6  29
ENDBRANCH   5   6
ENDBRANCH   1   5
BRANCH   2  31
ATOM     31  O   UNL     1      28.637  31.003  20.493  1.00  0.00    -0.443 OA
BRANCH  31  32
ATOM     32  C   UNL     1      27.420  30.355  20.298  1.00  0.00     0.294 C 
BRANCH  32  33
ATOM     33  C   UNL     1      27.081  30.181  18.865  1.00  0.00     0.121 A 
ATOM     34  C   UNL     1      26.403  31.009  18.004  1.00  0.00     0.144 A 
ATOM     35  N   UNL     1      27.410  29.103  18.133  1.00  0.00    -0.131 NA
ATOM     36  N   UNL     1      26.332  30.430  16.779  1.00  0.00    -0.220 N 
ATOM     37  N   UNL     1      26.955  29.271  16.890  1.00  0.00    -0.062 NA
BRANCH  36  38
ATOM     38  C   UNL     1      25.699  31.001  15.632  1.00  0.00     0.067 A 
ATOM     39  C   UNL     1      25.024  30.221  14.731  1.00  0.00     0.036 A 
ATOM     40  C   UNL     1      25.761  32.358  15.412  1.00  0.00     0.028 A 
ATOM     41  C   UNL     1      24.392  30.782  13.586  1.00  0.00    -0.023 A 
ATOM     42  C   UNL     1      25.178  32.956  14.335  1.00  0.00     0.003 A 
ATOM     43  C   UNL     1      24.489  32.138  13.422  1.00  0.00     0.008 A 
BRANCH  41  44
ATOM     44  C   UNL     1      23.671  29.926  12.710  1.00  0.00     0.015 C 
ATOM     45  C   UNL     1      22.742  29.052  12.762  1.00  0.00     0.094 C 
BRANCH  45  46
ATOM     46  C   UNL     1      21.935  28.487  13.769  1.00  0.00     0.328 C 
ATOM     47  O   UNL     1      22.511  27.650  14.631  1.00  0.00    -0.247 OA
BRANCH  46  48
ATOM     48  O   UNL     1      20.603  28.621  14.068  1.00  0.00    -0.478 OA
ATOM     49  H   UNL     1      20.208  29.439  14.505  1.00  0.00     0.297 HD
ENDBRANCH  46  48
ENDBRANCH  45  46
ENDBRANCH  41  44
ENDBRANCH  36  38
ENDBRANCH  32  33
ENDBRANCH  31  32
ENDBRANCH   2  31
TORSDOF 18
BEGIN_RES LYS A 131
REMARK  4 active torsions:
REMARK  status: ('A' for Active; 'I' for Inactive)
REMARK    1  A    between atoms: CA   and  CB  
REMARK    2  A    between atoms: CB   and  CG  
REMARK    3  A    between atoms: CG   and  CD  
REMARK    4  A    between atoms: CD   and  CE  
ROOT
ATOM      1  CA  LYS A 131      29.867  25.555  16.977  1.00 20.52     0.186 C 
ENDROOT
BRANCH   1   2
ATOM      2  CB  LYS A 131      28.345  25.722  17.026  1.00 20.94     0.034 C 
BRANCH   2   3
ATOM      3  CG  LYS A 131      27.602  24.399  16.927  1.00 22.96     0.005 C 
BRANCH   3   4
ATOM      4  CD  LYS A 131      26.632  24.208  18.060  1.00 24.33     0.041 C 
BRANCH   4   5
ATOM      5  CE  LYS A 131      26.178  25.569  18.576  1.00 26.91     0.338 C 
ATOM      6  NZ  LYS A 131      24.903  25.969  17.934  1.00 27.40     0.618 N 
ENDBRANCH   4   5
ENDBRANCH   3   4
ENDBRANCH   2   3
ENDBRANCH   1   2
END_RES LYS A 131
BEGIN_RES LYS A 135
REMARK  4 active torsions:
REMARK  status: ('A' for Active; 'I' for Inactive)
REMARK    5  A    between atoms: CA   and  CB  
REMARK    6  A    between atoms: CB   and  CG  
REMARK    7  A    between atoms: CG   and  CD  
REMARK    8  A    between atoms: CD   and  CE  
ROOT
ATOM      7  CA  LYS A 135      33.193  34.663   9.290  1.00 25.02     0.186 C 
ENDROOT
BRANCH   7   8
ATOM      8  CB  LYS A 135      32.060  35.360  10.034  1.00 26.63     0.034 C 
BRANCH   8   9
ATOM      9  CG  LYS A 135      30.787  35.462   9.234  1.00 29.45     0.005 C 
BRANCH   9  10
ATOM     10  CD  LYS A 135      30.221  34.080   8.947  1.00 32.00     0.041 C 
BRANCH  10  11
ATOM     11  CE  LYS A 135      28.718  34.068   9.148  1.00 34.25     0.338 C 
ATOM     12  NZ  LYS A 135      28.023  34.788   8.045  1.00 35.99     0.618 N 
ENDBRANCH  10  11
ENDBRANCH   9  10
ENDBRANCH   8   9
ENDBRANCH   7   8
END_RES LYS A 135
