REMARK VINA RESULT:    -4.435      3.966      7.119
REMARK INTER + INTRA:         -13.930
REMARK INTER:                  -7.488
REMARK INTRA:                  -6.442
REMARK UNBOUND:                -5.477
REMARK SMILES CC(=O)N[C@@H]1[C@@H](O)C[C@](O)(C(=O)O)O[C@H]1C(O)[C@H](O)CNC(=O)OCc1cn(CC(O)CO)nn1
REMARK SMILES IDX 21 1 22 2 23 3 20 5 18 6 16 7 15 8 9 9 8 10 14 11 6 12 5 13
REMARK SMILES IDX 10 14 11 16 12 17 13 18 7 20 4 22 2 23 1 25 3 26 17 27 19 29
REMARK SMILES IDX 24 31 25 32 26 33 27 34 35 35 28 36 34 37 29 38 30 39 31 40
REMARK SMILES IDX 32 42 33 43
REMARK H PARENT 21 4 10 15 13 19 7 21 4 24 17 28 19 30 31 41 33 44
REMARK Flexibility Score: inf
ROOT
ATOM      1  N   UNL     1      25.461  34.143  14.327  1.00  0.00    -0.319 N 
ATOM      2  C   UNL     1      24.731  35.358  14.305  1.00  0.00     0.407 C 
ATOM      3  O   UNL     1      24.947  36.256  15.137  1.00  0.00    -0.225 OA
ATOM      4  H   UNL     1      25.200  33.437  13.574  1.00  0.00     0.167 HD
ENDROOT
BRANCH   1   5
ATOM      5  C   UNL     1      26.472  33.895  15.297  1.00  0.00     0.154 C 
BRANCH   5   6
ATOM      6  C   UNL     1      27.878  34.096  14.775  1.00  0.00     0.165 C 
BRANCH   6   7
ATOM      7  C   UNL     1      28.483  35.227  15.597  1.00  0.00     0.176 C 
BRANCH   7   8
ATOM      8  C   UNL     1      29.929  34.888  15.976  1.00  0.00     0.178 C 
ATOM      9  C   UNL     1      31.445  34.934  14.217  1.00  0.00     0.269 C 
ATOM     10  C   UNL     1      32.398  34.023  14.964  1.00  0.00     0.112 C 
ATOM     11  O   UNL     1      30.739  35.632  15.166  1.00  0.00    -0.332 OA
ATOM     12  C   UNL     1      31.577  33.010  15.685  1.00  0.00     0.145 C 
ATOM     13  C   UNL     1      30.142  33.409  15.915  1.00  0.00     0.142 C 
BRANCH   9  14
ATOM     14  O   UNL     1      30.650  34.113  13.419  1.00  0.00    -0.357 OA
ATOM     15  H   UNL     1      30.438  33.254  13.850  1.00  0.00     0.214 HD
ENDBRANCH   9  14
BRANCH   9  16
ATOM     16  C   UNL     1      32.179  35.902  13.362  1.00  0.00     0.364 C 
ATOM     17  O   UNL     1      31.922  37.126  13.484  1.00  0.00    -0.246 OA
BRANCH  16  18
ATOM     18  O   UNL     1      33.116  35.453  12.462  1.00  0.00    -0.477 OA
ATOM     19  H   UNL     1      32.832  34.962  11.620  1.00  0.00     0.296 HD
ENDBRANCH  16  18
ENDBRANCH   9  16
BRANCH  12  20
ATOM     20  O   UNL     1      31.563  31.842  14.913  1.00  0.00    -0.391 OA
ATOM     21  H   UNL     1      30.678  31.719  14.524  1.00  0.00     0.211 HD
ENDBRANCH  12  20
BRANCH  13  22
ATOM     22  N   UNL     1      29.740  32.785  17.158  1.00  0.00    -0.348 N 
ATOM     23  C   UNL     1      29.109  31.515  17.125  1.00  0.00     0.217 C 
ATOM     24  H   UNL     1      29.894  33.232  18.091  1.00  0.00     0.163 HD
ATOM     25  C   UNL     1      28.668  30.820  18.385  1.00  0.00     0.114 C 
ATOM     26  O   UNL     1      28.877  30.893  16.057  1.00  0.00    -0.275 OA
ENDBRANCH  13  22
ENDBRANCH   7   8
BRANCH   7  27
ATOM     27  O   UNL     1      28.382  36.404  14.897  1.00  0.00    -0.388 OA
ATOM     28  H   UNL     1      29.226  36.616  14.410  1.00  0.00     0.211 HD
ENDBRANCH   7  27
ENDBRANCH   6   7
BRANCH   6  29
ATOM     29  O   UNL     1      27.853  34.422  13.419  1.00  0.00    -0.388 OA
ATOM     30  H   UNL     1      28.707  34.142  13.038  1.00  0.00     0.211 HD
ENDBRANCH   6  29
ENDBRANCH   5   6
ENDBRANCH   1   5
BRANCH   2  31
ATOM     31  O   UNL     1      23.739  35.587  13.339  1.00  0.00    -0.443 OA
BRANCH  31  32
ATOM     32  C   UNL     1      23.904  35.018  12.072  1.00  0.00     0.294 C 
BRANCH  32  33
ATOM     33  C   UNL     1      25.237  35.326  11.494  1.00  0.00     0.120 A 
ATOM     34  C   UNL     1      25.743  36.561  11.210  1.00  0.00     0.138 A 
ATOM     35  N   UNL     1      26.174  34.440  11.149  1.00  0.00    -0.132 NA
ATOM     36  N   UNL     1      26.988  36.366  10.697  1.00  0.00    -0.249 N 
ATOM     37  N   UNL     1      27.237  35.064  10.666  1.00  0.00    -0.067 NA
BRANCH  36  38
ATOM     38  C   UNL     1      27.883  37.435  10.260  1.00  0.00     0.180 C 
BRANCH  38  39
ATOM     39  C   UNL     1      28.698  37.826  11.477  1.00  0.00     0.161 C 
BRANCH  39  40
ATOM     40  O   UNL     1      29.116  36.679  12.140  1.00  0.00    -0.389 OA
ATOM     41  H   UNL     1      30.096  36.586  12.003  1.00  0.00     0.211 HD
ENDBRANCH  39  40
BRANCH  39  42
ATOM     42  C   UNL     1      29.920  38.647  11.050  1.00  0.00     0.189 C 
BRANCH  42  43
ATOM     43  O   UNL     1      30.266  38.310   9.740  1.00  0.00    -0.394 OA
ATOM     44  H   UNL     1      31.074  37.716   9.756  1.00  0.00     0.210 HD
ENDBRANCH  42  43
ENDBRANCH  39  42
ENDBRANCH  38  39
ENDBRANCH  36  38
ENDBRANCH  32  33
ENDBRANCH  31  32
ENDBRANCH   2  31
TORSDOF 19
BEGIN_RES LYS A 131
REMARK  4 active torsions:
REMARK  status: ('A' for Active; 'I' for Inactive)
REMARK    1  A    between atoms: CA   and  CB  
REMARK    2  A    between atoms: CB   and  CG  
REMARK    3  A    between atoms: CG   and  CD  
REMARK    4  A    between atoms: CD   and  CE  
ROOT
ATOM      1  CA  LYS A 131      29.867  25.555  16.977  1.00 20.52     0.186 C 
ENDROOT
BRANCH   1   2
ATOM      2  CB  LYS A 131      28.345  25.722  17.026  1.00 20.94     0.034 C 
BRANCH   2   3
ATOM      3  CG  LYS A 131      27.601  24.402  16.896  1.00 22.96     0.005 C 
BRANCH   3   4
ATOM      4  CD  LYS A 131      26.155  24.525  17.290  1.00 24.33     0.041 C 
BRANCH   4   5
ATOM      5  CE  LYS A 131      26.061  24.972  18.745  1.00 26.91     0.338 C 
ATOM      6  NZ  LYS A 131      24.659  24.897  19.220  1.00 27.40     0.618 N 
ENDBRANCH   4   5
ENDBRANCH   3   4
ENDBRANCH   2   3
ENDBRANCH   1   2
END_RES LYS A 131
BEGIN_RES LYS A 135
REMARK  4 active torsions:
REMARK  status: ('A' for Active; 'I' for Inactive)
REMARK    5  A    between atoms: CA   and  CB  
REMARK    6  A    between atoms: CB   and  CG  
REMARK    7  A    between atoms: CG   and  CD  
REMARK    8  A    between atoms: CD   and  CE  
ROOT
ATOM      7  CA  LYS A 135      33.193  34.663   9.290  1.00 25.02     0.186 C 
ENDROOT
BRANCH   7   8
ATOM      8  CB  LYS A 135      32.060  35.360  10.034  1.00 26.63     0.034 C 
BRANCH   8   9
ATOM      9  CG  LYS A 135      30.717  34.707   9.835  1.00 29.45     0.005 C 
BRANCH   9  10
ATOM     10  CD  LYS A 135      30.487  34.389   8.365  1.00 32.00     0.041 C 
BRANCH  10  11
ATOM     11  CE  LYS A 135      29.671  35.483   7.704  1.00 34.25     0.338 C 
ATOM     12  NZ  LYS A 135      28.274  35.034   7.455  1.00 35.99     0.618 N 
ENDBRANCH  10  11
ENDBRANCH   9  10
ENDBRANCH   8   9
ENDBRANCH   7   8
END_RES LYS A 135
