REMARK VINA RESULT:    -4.872      2.370      3.467
REMARK INTER + INTRA:         -15.692
REMARK INTER:                 -10.380
REMARK INTRA:                  -5.312
REMARK UNBOUND:                -6.121
REMARK SMILES CC(=O)N[C@@H]1[C@@H](O)C[C@](O)(C(=O)O)O[C@H]1C(O)[C@H](O)CNC(=O)OCc1cn(C[C@@H](C)CN2CCN(c3ccc(Cl)cc3)CC2)nn1
REMARK SMILES IDX 24 1 22 2 21 3 23 5 20 6 18 7 16 8 15 9 9 10 8 11 14 12 6 13
REMARK SMILES IDX 5 14 10 15 11 17 12 18 13 19 7 21 4 23 2 24 1 26 3 27 17 28
REMARK SMILES IDX 19 30 25 32 26 33 27 34 47 35 28 36 46 37 29 38 30 39 31 40
REMARK SMILES IDX 32 41 33 42 34 43 45 44 35 45 44 46 36 47 37 48 38 49 43 50
REMARK SMILES IDX 39 51 42 52 40 53 41 54
REMARK H PARENT 21 4 10 16 13 20 7 22 4 25 17 29 19 31
REMARK Flexibility Score: inf
ROOT
ATOM      1  O   UNL     1      25.525  33.870  12.385  1.00  0.00    -0.443 OA
ENDROOT
BRANCH   1   2
ATOM      2  C   UNL     1      26.494  34.828  12.128  1.00  0.00     0.407 C 
ATOM      3  N   UNL     1      26.538  35.624  10.950  1.00  0.00    -0.319 N 
ATOM      4  H   UNL     1      25.794  35.452  10.247  1.00  0.00     0.167 HD
ATOM      5  O   UNL     1      27.372  34.977  13.021  1.00  0.00    -0.225 OA
BRANCH   3   6
ATOM      6  C   UNL     1      27.596  36.575  10.849  1.00  0.00     0.154 C 
BRANCH   6   7
ATOM      7  C   UNL     1      27.560  37.487   9.689  1.00  0.00     0.165 C 
BRANCH   7   8
ATOM      8  C   UNL     1      28.859  38.212   9.383  1.00  0.00     0.176 C 
BRANCH   8   9
ATOM      9  C   UNL     1      28.521  39.089   8.175  1.00  0.00     0.178 C 
ATOM     10  C   UNL     1      27.324  38.912   6.180  1.00  0.00     0.269 C 
ATOM     11  C   UNL     1      28.392  39.695   5.472  1.00  0.00     0.112 C 
ATOM     12  O   UNL     1      27.736  38.333   7.350  1.00  0.00    -0.332 OA
ATOM     13  C   UNL     1      29.298  40.466   6.363  1.00  0.00     0.145 C 
ATOM     14  C   UNL     1      29.771  39.505   7.475  1.00  0.00     0.142 C 
BRANCH  10  15
ATOM     15  O   UNL     1      27.012  37.847   5.296  1.00  0.00    -0.357 OA
ATOM     16  H   UNL     1      27.736  37.195   5.258  1.00  0.00     0.214 HD
ENDBRANCH  10  15
BRANCH  10  17
ATOM     17  C   UNL     1      26.057  39.682   6.351  1.00  0.00     0.364 C 
ATOM     18  O   UNL     1      26.017  40.906   6.069  1.00  0.00    -0.246 OA
BRANCH  17  19
ATOM     19  O   UNL     1      24.883  39.107   6.817  1.00  0.00    -0.477 OA
ATOM     20  H   UNL     1      24.591  39.107   7.787  1.00  0.00     0.296 HD
ENDBRANCH  17  19
ENDBRANCH  10  17
BRANCH  13  21
ATOM     21  O   UNL     1      30.416  40.865   5.631  1.00  0.00    -0.391 OA
ATOM     22  H   UNL     1      30.939  40.076   5.330  1.00  0.00     0.211 HD
ENDBRANCH  13  21
BRANCH  14  23
ATOM     23  N   UNL     1      30.710  40.174   8.336  1.00  0.00    -0.348 N 
ATOM     24  C   UNL     1      32.103  40.081   8.118  1.00  0.00     0.217 C 
ATOM     25  H   UNL     1      30.355  40.733   9.130  1.00  0.00     0.163 HD
ATOM     26  C   UNL     1      32.987  40.814   9.072  1.00  0.00     0.114 C 
ATOM     27  O   UNL     1      32.609  39.429   7.180  1.00  0.00    -0.275 OA
ENDBRANCH  14  23
ENDBRANCH   8   9
BRANCH   8  28
ATOM     28  O   UNL     1      29.202  39.003  10.492  1.00  0.00    -0.388 OA
ATOM     29  H   UNL     1      28.348  39.359  10.848  1.00  0.00     0.211 HD
ENDBRANCH   8  28
ENDBRANCH   7   8
BRANCH   7  30
ATOM     30  O   UNL     1      26.664  38.539  10.029  1.00  0.00    -0.388 OA
ATOM     31  H   UNL     1      27.258  39.242  10.419  1.00  0.00     0.211 HD
ENDBRANCH   7  30
ENDBRANCH   6   7
ENDBRANCH   3   6
ENDBRANCH   1   2
BRANCH   1  32
ATOM     32  C   UNL     1      25.059  33.644  13.705  1.00  0.00     0.294 C 
BRANCH  32  33
ATOM     33  C   UNL     1      24.733  32.214  13.901  1.00  0.00     0.120 A 
ATOM     34  C   UNL     1      24.682  31.590  15.150  1.00  0.00     0.138 A 
ATOM     35  N   UNL     1      24.419  31.240  13.036  1.00  0.00    -0.132 NA
ATOM     36  N   UNL     1      24.349  30.299  15.013  1.00  0.00    -0.252 N 
ATOM     37  N   UNL     1      24.194  30.111  13.684  1.00  0.00    -0.067 NA
BRANCH  36  38
ATOM     38  C   UNL     1      24.157  29.278  16.028  1.00  0.00     0.150 C 
BRANCH  38  39
ATOM     39  C   UNL     1      24.705  29.788  17.367  1.00  0.00     0.022 C 
ATOM     40  C   UNL     1      23.653  29.852  18.409  1.00  0.00     0.011 C 
BRANCH  39  41
ATOM     41  C   UNL     1      26.009  29.188  17.689  1.00  0.00     0.089 C 
BRANCH  41  42
ATOM     42  N   UNL     1      27.120  30.049  17.431  1.00  0.00    -0.299 NA
ATOM     43  C   UNL     1      28.058  30.021  18.586  1.00  0.00     0.106 C 
ATOM     44  C   UNL     1      27.920  29.507  16.337  1.00  0.00     0.106 C 
ATOM     45  C   UNL     1      29.306  30.775  18.294  1.00  0.00     0.132 C 
ATOM     46  C   UNL     1      28.738  30.708  15.837  1.00  0.00     0.132 C 
ATOM     47  N   UNL     1      29.471  31.237  16.951  1.00  0.00    -0.369 N 
BRANCH  47  48
ATOM     48  C   UNL     1      30.413  32.270  16.687  1.00  0.00     0.037 A 
ATOM     49  C   UNL     1      30.688  33.200  17.665  1.00  0.00     0.027 A 
ATOM     50  C   UNL     1      31.049  32.360  15.456  1.00  0.00     0.027 A 
ATOM     51  C   UNL     1      31.593  34.202  17.401  1.00  0.00     0.022 A 
ATOM     52  C   UNL     1      31.947  33.364  15.205  1.00  0.00     0.022 A 
ATOM     53  C   UNL     1      32.220  34.294  16.195  1.00  0.00     0.041 A 
ATOM     54  Cl  UNL     1      33.359  35.569  15.855  1.00  0.00    -0.084 Cl
ENDBRANCH  47  48
ENDBRANCH  41  42
ENDBRANCH  39  41
ENDBRANCH  38  39
ENDBRANCH  36  38
ENDBRANCH  32  33
ENDBRANCH   1  32
TORSDOF 19
BEGIN_RES LYS A 131
REMARK  4 active torsions:
REMARK  status: ('A' for Active; 'I' for Inactive)
REMARK    1  A    between atoms: CA   and  CB  
REMARK    2  A    between atoms: CB   and  CG  
REMARK    3  A    between atoms: CG   and  CD  
REMARK    4  A    between atoms: CD   and  CE  
ROOT
ATOM      1  CA  LYS A 131      29.867  25.555  16.977  1.00 20.52     0.186 C 
ENDROOT
BRANCH   1   2
ATOM      2  CB  LYS A 131      28.345  25.722  17.026  1.00 20.94     0.034 C 
BRANCH   2   3
ATOM      3  CG  LYS A 131      27.601  24.402  16.892  1.00 22.96     0.005 C 
BRANCH   3   4
ATOM      4  CD  LYS A 131      26.509  24.261  17.916  1.00 24.33     0.041 C 
BRANCH   4   5
ATOM      5  CE  LYS A 131      25.151  24.393  17.234  1.00 26.91     0.338 C 
ATOM      6  NZ  LYS A 131      24.463  23.081  17.189  1.00 27.40     0.618 N 
ENDBRANCH   4   5
ENDBRANCH   3   4
ENDBRANCH   2   3
ENDBRANCH   1   2
END_RES LYS A 131
BEGIN_RES LYS A 135
REMARK  4 active torsions:
REMARK  status: ('A' for Active; 'I' for Inactive)
REMARK    5  A    between atoms: CA   and  CB  
REMARK    6  A    between atoms: CB   and  CG  
REMARK    7  A    between atoms: CG   and  CD  
REMARK    8  A    between atoms: CD   and  CE  
ROOT
ATOM      7  CA  LYS A 135      33.193  34.663   9.290  1.00 25.02     0.186 C 
ENDROOT
BRANCH   7   8
ATOM      8  CB  LYS A 135      32.060  35.360  10.034  1.00 26.63     0.034 C 
BRANCH   8   9
ATOM      9  CG  LYS A 135      30.722  34.691   9.857  1.00 29.45     0.005 C 
BRANCH   9  10
ATOM     10  CD  LYS A 135      30.405  34.504   8.381  1.00 32.00     0.041 C 
BRANCH  10  11
ATOM     11  CE  LYS A 135      28.906  34.521   8.151  1.00 34.25     0.338 C 
ATOM     12  NZ  LYS A 135      28.562  35.272   6.912  1.00 35.99     0.618 N 
ENDBRANCH  10  11
ENDBRANCH   9  10
ENDBRANCH   8   9
ENDBRANCH   7   8
END_RES LYS A 135
