REMARK VINA RESULT:    -4.260      5.735      8.993
REMARK INTER + INTRA:         -14.661
REMARK INTER:                  -9.969
REMARK INTRA:                  -4.692
REMARK UNBOUND:                -5.918
REMARK SMILES CC(=O)N[C@@H]1[C@@H](O)C[C@](O)(C(=O)O)O[C@H]1C(O)[C@H](O)CNC(=O)OCc1cn(CCCCCC(=O)O)nn1
REMARK SMILES IDX 25 1 24 2 22 3 21 4 23 6 20 7 18 8 16 9 15 10 9 11 8 12
REMARK SMILES IDX 14 13 6 14 5 15 10 16 11 18 12 19 13 20 7 22 4 24 2 25 1 27
REMARK SMILES IDX 3 28 17 29 19 31 26 33 27 34 38 35 28 36 37 37 29 38 30 39
REMARK SMILES IDX 31 40 32 41 33 42 34 43 35 44 36 45
REMARK H PARENT 21 5 10 17 13 21 7 23 4 26 17 30 19 32 36 46
REMARK Flexibility Score: inf
ROOT
ATOM      1  C   UNL     1      30.485  35.880  14.398  1.00  0.00     0.294 C 
ENDROOT
BRANCH   1   2
ATOM      2  O   UNL     1      31.459  34.847  14.307  1.00  0.00    -0.443 OA
BRANCH   2   3
ATOM      3  C   UNL     1      31.367  33.787  15.218  1.00  0.00     0.407 C 
ATOM      4  N   UNL     1      30.738  32.585  14.787  1.00  0.00    -0.319 N 
ATOM      5  H   UNL     1      30.375  32.551  13.797  1.00  0.00     0.167 HD
ATOM      6  O   UNL     1      31.842  33.951  16.368  1.00  0.00    -0.225 OA
BRANCH   4   7
ATOM      7  C   UNL     1      30.627  31.492  15.699  1.00  0.00     0.154 C 
BRANCH   7   8
ATOM      8  C   UNL     1      29.215  31.016  15.946  1.00  0.00     0.165 C 
BRANCH   8   9
ATOM      9  C   UNL     1      28.928  31.140  17.430  1.00  0.00     0.176 C 
BRANCH   9  10
ATOM     10  C   UNL     1      27.531  31.546  17.762  1.00  0.00     0.178 C 
ATOM     11  C   UNL     1      26.905  29.385  18.413  1.00  0.00     0.269 C 
ATOM     12  C   UNL     1      26.255  29.249  17.026  1.00  0.00     0.112 C 
ATOM     13  O   UNL     1      27.048  30.702  18.741  1.00  0.00    -0.332 OA
ATOM     14  C   UNL     1      25.505  30.542  16.816  1.00  0.00     0.145 C 
ATOM     15  C   UNL     1      26.568  31.641  16.634  1.00  0.00     0.142 C 
BRANCH  11  16
ATOM     16  O   UNL     1      28.073  28.628  18.464  1.00  0.00    -0.357 OA
ATOM     17  H   UNL     1      28.447  28.466  17.541  1.00  0.00     0.214 HD
ENDBRANCH  11  16
BRANCH  11  18
ATOM     18  C   UNL     1      25.942  28.787  19.372  1.00  0.00     0.364 C 
ATOM     19  O   UNL     1      25.513  29.475  20.347  1.00  0.00    -0.246 OA
BRANCH  18  20
ATOM     20  O   UNL     1      25.529  27.481  19.178  1.00  0.00    -0.477 OA
ATOM     21  H   UNL     1      25.663  27.104  18.230  1.00  0.00     0.296 HD
ENDBRANCH  18  20
ENDBRANCH  11  18
BRANCH  14  22
ATOM     22  O   UNL     1      24.670  30.488  15.700  1.00  0.00    -0.391 OA
ATOM     23  H   UNL     1      23.808  30.103  16.009  1.00  0.00     0.211 HD
ENDBRANCH  14  22
BRANCH  15  24
ATOM     24  N   UNL     1      25.906  32.938  16.581  1.00  0.00    -0.348 N 
ATOM     25  C   UNL     1      26.229  33.927  15.632  1.00  0.00     0.217 C 
ATOM     26  H   UNL     1      25.144  33.138  17.290  1.00  0.00     0.163 HD
ATOM     27  C   UNL     1      25.526  35.260  15.606  1.00  0.00     0.114 C 
ATOM     28  O   UNL     1      27.140  33.676  14.784  1.00  0.00    -0.275 OA
ENDBRANCH  15  24
ENDBRANCH   9  10
BRANCH   9  29
ATOM     29  O   UNL     1      29.742  32.235  17.840  1.00  0.00    -0.388 OA
ATOM     30  H   UNL     1      30.503  31.831  18.319  1.00  0.00     0.211 HD
ENDBRANCH   9  29
ENDBRANCH   8   9
BRANCH   8  31
ATOM     31  O   UNL     1      29.106  29.728  15.472  1.00  0.00    -0.388 OA
ATOM     32  H   UNL     1      28.758  29.115  16.165  1.00  0.00     0.211 HD
ENDBRANCH   8  31
ENDBRANCH   7   8
ENDBRANCH   4   7
ENDBRANCH   2   3
ENDBRANCH   1   2
BRANCH   1  33
ATOM     33  C   UNL     1      29.545  35.660  13.274  1.00  0.00     0.120 A 
ATOM     34  C   UNL     1      28.674  36.621  12.805  1.00  0.00     0.138 A 
ATOM     35  N   UNL     1      29.367  34.562  12.540  1.00  0.00    -0.132 NA
ATOM     36  N   UNL     1      28.001  36.034  11.790  1.00  0.00    -0.252 N 
ATOM     37  N   UNL     1      28.424  34.799  11.638  1.00  0.00    -0.067 NA
BRANCH  36  38
ATOM     38  C   UNL     1      26.971  36.751  11.035  1.00  0.00     0.146 C 
BRANCH  38  39
ATOM     39  C   UNL     1      27.364  36.721   9.581  1.00  0.00     0.024 C 
BRANCH  39  40
ATOM     40  C   UNL     1      26.606  35.680   8.787  1.00  0.00     0.002 C 
BRANCH  40  41
ATOM     41  C   UNL     1      27.495  34.844   7.935  1.00  0.00     0.012 C 
BRANCH  41  42
ATOM     42  C   UNL     1      28.899  35.371   7.814  1.00  0.00     0.122 C 
BRANCH  42  43
ATOM     43  C   UNL     1      29.923  34.477   8.374  1.00  0.00     0.303 C 
ATOM     44  O   UNL     1      31.089  34.486   7.949  1.00  0.00    -0.252 OA
BRANCH  43  45
ATOM     45  O   UNL     1      29.604  33.584   9.412  1.00  0.00    -0.481 OA
ATOM     46  H   UNL     1      28.642  33.526   9.763  1.00  0.00     0.296 HD
ENDBRANCH  43  45
ENDBRANCH  42  43
ENDBRANCH  41  42
ENDBRANCH  40  41
ENDBRANCH  39  40
ENDBRANCH  38  39
ENDBRANCH  36  38
ENDBRANCH   1  33
TORSDOF 21
BEGIN_RES LYS A 131
REMARK  4 active torsions:
REMARK  status: ('A' for Active; 'I' for Inactive)
REMARK    1  A    between atoms: CA   and  CB  
REMARK    2  A    between atoms: CB   and  CG  
REMARK    3  A    between atoms: CG   and  CD  
REMARK    4  A    between atoms: CD   and  CE  
ROOT
ATOM      1  CA  LYS A 131      29.867  25.555  16.977  1.00 20.52     0.186 C 
ENDROOT
BRANCH   1   2
ATOM      2  CB  LYS A 131      28.345  25.722  17.026  1.00 20.94     0.034 C 
BRANCH   2   3
ATOM      3  CG  LYS A 131      27.602  24.400  16.916  1.00 22.96     0.005 C 
BRANCH   3   4
ATOM      4  CD  LYS A 131      26.157  24.528  17.311  1.00 24.33     0.041 C 
BRANCH   4   5
ATOM      5  CE  LYS A 131      25.704  23.248  18.007  1.00 26.91     0.338 C 
ATOM      6  NZ  LYS A 131      25.511  23.485  19.457  1.00 27.40     0.618 N 
ENDBRANCH   4   5
ENDBRANCH   3   4
ENDBRANCH   2   3
ENDBRANCH   1   2
END_RES LYS A 131
BEGIN_RES LYS A 135
REMARK  4 active torsions:
REMARK  status: ('A' for Active; 'I' for Inactive)
REMARK    5  A    between atoms: CA   and  CB  
REMARK    6  A    between atoms: CB   and  CG  
REMARK    7  A    between atoms: CG   and  CD  
REMARK    8  A    between atoms: CD   and  CE  
ROOT
ATOM      7  CA  LYS A 135      33.193  34.663   9.290  1.00 25.02     0.186 C 
ENDROOT
BRANCH   7   8
ATOM      8  CB  LYS A 135      32.060  35.360  10.034  1.00 26.63     0.034 C 
BRANCH   8   9
ATOM      9  CG  LYS A 135      32.520  36.140  11.238  1.00 29.45     0.005 C 
BRANCH   9  10
ATOM     10  CD  LYS A 135      31.967  37.557  11.203  1.00 32.00     0.041 C 
BRANCH  10  11
ATOM     11  CE  LYS A 135      30.971  37.712  10.070  1.00 34.25     0.338 C 
ATOM     12  NZ  LYS A 135      30.161  38.950  10.234  1.00 35.99     0.618 N 
ENDBRANCH  10  11
ENDBRANCH   9  10
ENDBRANCH   8   9
ENDBRANCH   7   8
END_RES LYS A 135
