REMARK VINA RESULT:    -4.967      3.517      7.854
REMARK INTER + INTRA:         -14.543
REMARK INTER:                  -9.219
REMARK INTRA:                  -5.324
REMARK UNBOUND:                -4.785
REMARK SMILES C=CCCCCn1cc(COC(=O)NC[C@@H](O)C(O)[C@@H]2O[C@@](O)(C(=O)O)C[C@H](O)[C@H]2NC(C)=O)nn1
REMARK SMILES IDX 11 1 12 2 14 3 13 5 15 6 16 7 18 8 20 9 22 10 27 11 21 12
REMARK SMILES IDX 28 13 30 14 23 15 24 17 25 18 26 19 29 21 31 23 32 24 33 26
REMARK SMILES IDX 34 27 19 28 17 30 10 32 9 33 8 34 35 35 7 36 36 37 6 38 5 39
REMARK SMILES IDX 4 40 3 41 2 42 1 43
REMARK H PARENT 14 4 23 16 26 20 29 22 31 25 19 29 17 31
REMARK Flexibility Score: inf
ROOT
ATOM      1  O   UNL     1      24.676  34.803  11.244  1.00  0.00    -0.443 OA
ENDROOT
BRANCH   1   2
ATOM      2  C   UNL     1      25.072  34.689  12.562  1.00  0.00     0.407 C 
ATOM      3  N   UNL     1      25.511  35.886  13.220  1.00  0.00    -0.319 N 
ATOM      4  H   UNL     1      25.511  36.774  12.682  1.00  0.00     0.167 HD
ATOM      5  O   UNL     1      25.051  33.574  13.176  1.00  0.00    -0.225 OA
BRANCH   3   6
ATOM      6  C   UNL     1      25.941  35.882  14.577  1.00  0.00     0.154 C 
BRANCH   6   7
ATOM      7  C   UNL     1      27.448  36.089  14.746  1.00  0.00     0.165 C 
BRANCH   7   8
ATOM      8  C   UNL     1      27.963  34.833  15.402  1.00  0.00     0.176 C 
BRANCH   8   9
ATOM      9  C   UNL     1      29.452  34.765  15.503  1.00  0.00     0.178 C 
ATOM     10  C   UNL     1      31.192  34.823  13.968  1.00  0.00     0.269 C 
ATOM     11  C   UNL     1      32.014  34.290  15.122  1.00  0.00     0.112 C 
ATOM     12  O   UNL     1      30.029  35.407  14.440  1.00  0.00    -0.332 OA
ATOM     13  C   UNL     1      31.301  33.070  15.658  1.00  0.00     0.145 C 
ATOM     14  C   UNL     1      29.809  33.272  15.528  1.00  0.00     0.142 C 
BRANCH  10  15
ATOM     15  O   UNL     1      30.943  33.829  13.027  1.00  0.00    -0.357 OA
ATOM     16  H   UNL     1      30.117  33.346  13.254  1.00  0.00     0.214 HD
ENDBRANCH  10  15
BRANCH  10  17
ATOM     17  C   UNL     1      32.015  35.861  13.297  1.00  0.00     0.364 C 
ATOM     18  O   UNL     1      31.936  37.080  13.597  1.00  0.00    -0.246 OA
BRANCH  17  19
ATOM     19  O   UNL     1      32.934  35.543  12.283  1.00  0.00    -0.477 OA
ATOM     20  H   UNL     1      32.622  35.648  11.321  1.00  0.00     0.296 HD
ENDBRANCH  17  19
ENDBRANCH  10  17
BRANCH  13  21
ATOM     21  O   UNL     1      31.645  31.974  14.889  1.00  0.00    -0.391 OA
ATOM     22  H   UNL     1      32.484  32.160  14.400  1.00  0.00     0.211 HD
ENDBRANCH  13  21
BRANCH  14  23
ATOM     23  N   UNL     1      29.086  32.667  16.632  1.00  0.00    -0.348 N 
ATOM     24  C   UNL     1      28.703  31.296  16.655  1.00  0.00     0.217 C 
ATOM     25  H   UNL     1      28.805  33.225  17.487  1.00  0.00     0.163 HD
ATOM     26  C   UNL     1      27.958  30.684  17.796  1.00  0.00     0.114 C 
ATOM     27  O   UNL     1      29.022  30.602  15.650  1.00  0.00    -0.275 OA
ENDBRANCH  14  23
ENDBRANCH   8   9
BRANCH   8  28
ATOM     28  O   UNL     1      27.422  33.763  14.670  1.00  0.00    -0.388 OA
ATOM     29  H   UNL     1      26.434  33.743  14.727  1.00  0.00     0.211 HD
ENDBRANCH   8  28
ENDBRANCH   7   8
BRANCH   7  30
ATOM     30  O   UNL     1      27.728  37.243  15.446  1.00  0.00    -0.388 OA
ATOM     31  H   UNL     1      27.422  38.069  15.036  1.00  0.00     0.211 HD
ENDBRANCH   7  30
ENDBRANCH   6   7
ENDBRANCH   3   6
ENDBRANCH   1   2
BRANCH   1  32
ATOM     32  C   UNL     1      23.610  35.646  10.893  1.00  0.00     0.294 C 
BRANCH  32  33
ATOM     33  C   UNL     1      24.002  36.329   9.617  1.00  0.00     0.120 A 
ATOM     34  C   UNL     1      25.312  36.460   9.183  1.00  0.00     0.138 A 
ATOM     35  N   UNL     1      23.251  36.918   8.687  1.00  0.00    -0.132 NA
ATOM     36  N   UNL     1      25.308  37.116   8.016  1.00  0.00    -0.252 N 
ATOM     37  N   UNL     1      24.046  37.382   7.739  1.00  0.00    -0.067 NA
BRANCH  36  38
ATOM     38  C   UNL     1      26.425  37.499   7.165  1.00  0.00     0.146 C 
BRANCH  38  39
ATOM     39  C   UNL     1      27.282  36.296   6.872  1.00  0.00     0.024 C 
BRANCH  39  40
ATOM     40  C   UNL     1      28.638  36.700   6.349  1.00  0.00     0.006 C 
BRANCH  40  41
ATOM     41  C   UNL     1      29.157  37.952   7.006  1.00  0.00     0.027 C 
BRANCH  41  42
ATOM     42  C   UNL     1      29.628  38.907   5.978  1.00  0.00    -0.035 C 
ATOM     43  C   UNL     1      28.823  39.738   5.353  1.00  0.00     0.004 C 
ENDBRANCH  41  42
ENDBRANCH  40  41
ENDBRANCH  39  40
ENDBRANCH  38  39
ENDBRANCH  36  38
ENDBRANCH  32  33
ENDBRANCH   1  32
TORSDOF 19
BEGIN_RES LYS A 131
REMARK  4 active torsions:
REMARK  status: ('A' for Active; 'I' for Inactive)
REMARK    1  A    between atoms: CA   and  CB  
REMARK    2  A    between atoms: CB   and  CG  
REMARK    3  A    between atoms: CG   and  CD  
REMARK    4  A    between atoms: CD   and  CE  
ROOT
ATOM      1  CA  LYS A 131      29.867  25.555  16.977  1.00 20.52     0.186 C 
ENDROOT
BRANCH   1   2
ATOM      2  CB  LYS A 131      28.345  25.722  17.026  1.00 20.94     0.034 C 
BRANCH   2   3
ATOM      3  CG  LYS A 131      27.603  24.396  16.957  1.00 22.96     0.005 C 
BRANCH   3   4
ATOM      4  CD  LYS A 131      26.139  24.550  17.266  1.00 24.33     0.041 C 
BRANCH   4   5
ATOM      5  CE  LYS A 131      25.936  24.554  18.777  1.00 26.91     0.338 C 
ATOM      6  NZ  LYS A 131      25.574  23.199  19.256  1.00 27.40     0.618 N 
ENDBRANCH   4   5
ENDBRANCH   3   4
ENDBRANCH   2   3
ENDBRANCH   1   2
END_RES LYS A 131
BEGIN_RES LYS A 135
REMARK  4 active torsions:
REMARK  status: ('A' for Active; 'I' for Inactive)
REMARK    5  A    between atoms: CA   and  CB  
REMARK    6  A    between atoms: CB   and  CG  
REMARK    7  A    between atoms: CG   and  CD  
REMARK    8  A    between atoms: CD   and  CE  
ROOT
ATOM      7  CA  LYS A 135      33.193  34.663   9.290  1.00 25.02     0.186 C 
ENDROOT
BRANCH   7   8
ATOM      8  CB  LYS A 135      32.060  35.360  10.034  1.00 26.63     0.034 C 
BRANCH   8   9
ATOM      9  CG  LYS A 135      30.775  35.427   9.249  1.00 29.45     0.005 C 
BRANCH   9  10
ATOM     10  CD  LYS A 135      30.178  34.039   9.078  1.00 32.00     0.041 C 
BRANCH  10  11
ATOM     11  CE  LYS A 135      28.692  34.058   9.383  1.00 34.25     0.338 C 
ATOM     12  NZ  LYS A 135      28.438  34.474  10.790  1.00 35.99     0.618 N 
ENDBRANCH  10  11
ENDBRANCH   9  10
ENDBRANCH   8   9
ENDBRANCH   7   8
END_RES LYS A 135
