REMARK VINA RESULT:    -4.749      3.786      6.538
REMARK INTER + INTRA:         -14.504
REMARK INTER:                  -8.256
REMARK INTRA:                  -6.248
REMARK UNBOUND:                -6.285
REMARK SMILES CC(=O)N[C@@H]1[C@@H](O)C[C@](O)(C(=O)O)O[C@H]1C(O)[C@H](O)CNC(=O)OCc1cn(-c2ccccc2I)nn1
REMARK SMILES IDX 20 1 18 2 16 3 15 4 9 5 8 6 14 7 6 8 5 9 10 10 11 12 12 13
REMARK SMILES IDX 13 14 7 16 4 18 2 19 1 21 3 22 17 23 19 25 21 27 22 28 23 30
REMARK SMILES IDX 24 31 25 32 26 33 27 34 37 35 28 36 36 37 29 38 30 39 34 40
REMARK SMILES IDX 31 41 33 42 35 43 32 44
REMARK H PARENT 10 11 13 15 7 17 4 20 17 24 19 26 21 29
REMARK Flexibility Score: inf
ROOT
ATOM      1  C   UNL     1      27.209  28.050  21.871  1.00  0.00     0.154 C 
ENDROOT
BRANCH   1   2
ATOM      2  C   UNL     1      28.260  27.420  22.754  1.00  0.00     0.165 C 
BRANCH   2   3
ATOM      3  C   UNL     1      29.592  27.442  22.090  1.00  0.00     0.176 C 
BRANCH   3   4
ATOM      4  C   UNL     1      30.536  28.525  22.546  1.00  0.00     0.178 C 
ATOM      5  C   UNL     1      30.717  30.250  20.950  1.00  0.00     0.269 C 
ATOM      6  C   UNL     1      32.225  30.111  20.931  1.00  0.00     0.112 C 
ATOM      7  O   UNL     1      30.103  29.693  22.014  1.00  0.00    -0.332 OA
ATOM      8  C   UNL     1      32.535  28.649  21.123  1.00  0.00     0.145 C 
ATOM      9  C   UNL     1      31.980  28.227  22.460  1.00  0.00     0.142 C 
BRANCH   5  10
ATOM     10  O   UNL     1      30.265  29.615  19.793  1.00  0.00    -0.357 OA
ATOM     11  H   UNL     1      29.315  29.911  19.659  1.00  0.00     0.214 HD
ENDBRANCH   5  10
BRANCH   5  12
ATOM     12  C   UNL     1      30.415  31.708  20.800  1.00  0.00     0.364 C 
ATOM     13  O   UNL     1      29.773  32.365  21.649  1.00  0.00    -0.246 OA
BRANCH  12  14
ATOM     14  O   UNL     1      30.868  32.355  19.670  1.00  0.00    -0.477 OA
ATOM     15  H   UNL     1      31.856  32.402  19.414  1.00  0.00     0.296 HD
ENDBRANCH  12  14
ENDBRANCH   5  12
BRANCH   8  16
ATOM     16  O   UNL     1      31.946  27.971  20.054  1.00  0.00    -0.391 OA
ATOM     17  H   UNL     1      30.970  27.870  20.167  1.00  0.00     0.211 HD
ENDBRANCH   8  16
BRANCH   9  18
ATOM     18  N   UNL     1      32.715  29.000  23.478  1.00  0.00    -0.348 N 
ATOM     19  C   UNL     1      33.840  28.467  24.153  1.00  0.00     0.217 C 
ATOM     20  H   UNL     1      32.410  29.964  23.717  1.00  0.00     0.163 HD
ATOM     21  C   UNL     1      34.525  29.307  25.162  1.00  0.00     0.114 C 
ATOM     22  O   UNL     1      34.260  27.297  23.907  1.00  0.00    -0.275 OA
ENDBRANCH   9  18
ENDBRANCH   3   4
BRANCH   3  23
ATOM     23  O   UNL     1      30.174  26.185  22.002  1.00  0.00    -0.388 OA
ATOM     24  H   UNL     1      29.493  25.459  22.075  1.00  0.00     0.211 HD
ENDBRANCH   3  23
ENDBRANCH   2   3
BRANCH   2  25
ATOM     25  O   UNL     1      27.816  26.089  22.974  1.00  0.00    -0.388 OA
ATOM     26  H   UNL     1      27.152  26.089  23.717  1.00  0.00     0.211 HD
ENDBRANCH   2  25
ENDBRANCH   1   2
BRANCH   1  27
ATOM     27  N   UNL     1      27.628  28.229  20.499  1.00  0.00    -0.319 N 
ATOM     28  C   UNL     1      27.101  27.355  19.497  1.00  0.00     0.407 C 
ATOM     29  H   UNL     1      28.294  28.988  20.278  1.00  0.00     0.167 HD
ATOM     30  O   UNL     1      26.300  26.471  19.845  1.00  0.00    -0.225 OA
BRANCH  28  31
ATOM     31  O   UNL     1      27.519  27.548  18.191  1.00  0.00    -0.443 OA
BRANCH  31  32
ATOM     32  C   UNL     1      26.826  28.466  17.386  1.00  0.00     0.294 C 
BRANCH  32  33
ATOM     33  C   UNL     1      27.557  29.756  17.423  1.00  0.00     0.121 A 
ATOM     34  C   UNL     1      28.265  30.288  16.340  1.00  0.00     0.144 A 
ATOM     35  N   UNL     1      27.700  30.636  18.420  1.00  0.00    -0.131 NA
ATOM     36  N   UNL     1      28.771  31.445  16.780  1.00  0.00    -0.219 N 
ATOM     37  N   UNL     1      28.437  31.665  18.036  1.00  0.00    -0.062 NA
BRANCH  36  38
ATOM     38  C   UNL     1      29.566  32.326  16.005  1.00  0.00     0.080 A 
ATOM     39  C   UNL     1      30.947  32.139  15.977  1.00  0.00     0.029 A 
ATOM     40  C   UNL     1      28.963  33.334  15.305  1.00  0.00     0.039 A 
ATOM     41  C   UNL     1      31.727  32.992  15.226  1.00  0.00     0.002 A 
ATOM     42  C   UNL     1      29.763  34.179  14.558  1.00  0.00     0.017 A 
ATOM     43  I   UNL     1      26.882  33.655  15.317  1.00  0.00    -0.042 I 
ATOM     44  C   UNL     1      31.136  34.013  14.515  1.00  0.00     0.001 A 
ENDBRANCH  36  38
ENDBRANCH  32  33
ENDBRANCH  31  32
ENDBRANCH  28  31
ENDBRANCH   1  27
TORSDOF 15
BEGIN_RES LYS A 131
REMARK  4 active torsions:
REMARK  status: ('A' for Active; 'I' for Inactive)
REMARK    1  A    between atoms: CA   and  CB  
REMARK    2  A    between atoms: CB   and  CG  
REMARK    3  A    between atoms: CG   and  CD  
REMARK    4  A    between atoms: CD   and  CE  
ROOT
ATOM      1  CA  LYS A 131      29.867  25.555  16.977  1.00 20.52     0.186 C 
ENDROOT
BRANCH   1   2
ATOM      2  CB  LYS A 131      28.345  25.722  17.026  1.00 20.94     0.034 C 
BRANCH   2   3
ATOM      3  CG  LYS A 131      27.600  24.411  16.827  1.00 22.96     0.005 C 
BRANCH   3   4
ATOM      4  CD  LYS A 131      26.142  24.529  17.175  1.00 24.33     0.041 C 
BRANCH   4   5
ATOM      5  CE  LYS A 131      25.621  23.177  17.652  1.00 26.91     0.338 C 
ATOM      6  NZ  LYS A 131      25.563  23.137  19.132  1.00 27.40     0.618 N 
ENDBRANCH   4   5
ENDBRANCH   3   4
ENDBRANCH   2   3
ENDBRANCH   1   2
END_RES LYS A 131
BEGIN_RES LYS A 135
REMARK  4 active torsions:
REMARK  status: ('A' for Active; 'I' for Inactive)
REMARK    5  A    between atoms: CA   and  CB  
REMARK    6  A    between atoms: CB   and  CG  
REMARK    7  A    between atoms: CG   and  CD  
REMARK    8  A    between atoms: CD   and  CE  
ROOT
ATOM      7  CA  LYS A 135      33.193  34.663   9.290  1.00 25.02     0.186 C 
ENDROOT
BRANCH   7   8
ATOM      8  CB  LYS A 135      32.060  35.360  10.034  1.00 26.63     0.034 C 
BRANCH   8   9
ATOM      9  CG  LYS A 135      30.745  34.629   9.951  1.00 29.45     0.005 C 
BRANCH   9  10
ATOM     10  CD  LYS A 135      30.241  34.593   8.516  1.00 32.00     0.041 C 
BRANCH  10  11
ATOM     11  CE  LYS A 135      28.734  34.420   8.485  1.00 34.25     0.338 C 
ATOM     12  NZ  LYS A 135      28.121  35.252   7.414  1.00 35.99     0.618 N 
ENDBRANCH  10  11
ENDBRANCH   9  10
ENDBRANCH   8   9
ENDBRANCH   7   8
END_RES LYS A 135
