REMARK VINA RESULT:    -3.943      6.219     10.338
REMARK INTER + INTRA:         -13.851
REMARK INTER:                  -7.763
REMARK INTRA:                  -6.088
REMARK UNBOUND:                -5.875
REMARK SMILES CC[N+](C)(CC)CCCn1cc(COC(=O)NC[C@@H](O)C(O)[C@@H]2O[C@@](O)(C(=O)O)C[C@H](O)[C@H]2NC(C)=O)nn1
REMARK SMILES IDX 14 1 15 2 17 3 16 5 18 6 19 7 21 8 23 9 25 10 30 11 24 12
REMARK SMILES IDX 31 13 33 14 26 15 27 17 28 18 29 19 32 21 34 23 35 24 36 26
REMARK SMILES IDX 37 27 22 28 20 30 13 32 12 33 11 34 38 35 10 36 39 37 9 38
REMARK SMILES IDX 8 39 7 40 3 41 4 42 2 43 1 44 5 45 6 46
REMARK H PARENT 17 4 26 16 29 20 32 22 34 25 22 29 20 31
REMARK Flexibility Score: inf
ROOT
ATOM      1  O   UNL     1      25.363  33.661  15.610  1.00  0.00    -0.443 OA
ENDROOT
BRANCH   1   2
ATOM      2  C   UNL     1      25.040  33.799  14.275  1.00  0.00     0.407 C 
ATOM      3  N   UNL     1      26.023  34.106  13.280  1.00  0.00    -0.319 N 
ATOM      4  H   UNL     1      26.986  34.209  13.617  1.00  0.00     0.167 HD
ATOM      5  O   UNL     1      23.846  33.650  13.926  1.00  0.00    -0.225 OA
BRANCH   3   6
ATOM      6  C   UNL     1      25.614  34.232  11.930  1.00  0.00     0.154 C 
BRANCH   6   7
ATOM      7  C   UNL     1      25.829  35.559  11.283  1.00  0.00     0.165 C 
BRANCH   7   8
ATOM      8  C   UNL     1      27.027  36.324  11.752  1.00  0.00     0.176 C 
BRANCH   8   9
ATOM      9  C   UNL     1      27.484  37.415  10.831  1.00  0.00     0.178 C 
ATOM     10  C   UNL     1      27.439  38.070   8.627  1.00  0.00     0.269 C 
ATOM     11  C   UNL     1      27.936  39.341   9.290  1.00  0.00     0.112 C 
ATOM     12  O   UNL     1      27.105  37.105   9.547  1.00  0.00    -0.332 OA
ATOM     13  C   UNL     1      29.144  39.063  10.129  1.00  0.00     0.145 C 
ATOM     14  C   UNL     1      28.934  37.750  10.887  1.00  0.00     0.142 C 
BRANCH  10  15
ATOM     15  O   UNL     1      28.494  37.580   7.836  1.00  0.00    -0.357 OA
ATOM     16  H   UNL     1      29.325  37.943   8.241  1.00  0.00     0.214 HD
ENDBRANCH  10  15
BRANCH  10  17
ATOM     17  C   UNL     1      26.299  38.377   7.750  1.00  0.00     0.364 C 
ATOM     18  O   UNL     1      25.281  38.967   8.209  1.00  0.00    -0.246 OA
BRANCH  17  19
ATOM     19  O   UNL     1      26.303  38.039   6.412  1.00  0.00    -0.477 OA
ATOM     20  H   UNL     1      25.656  38.452   5.768  1.00  0.00     0.296 HD
ENDBRANCH  17  19
ENDBRANCH  10  17
BRANCH  13  21
ATOM     21  O   UNL     1      30.262  38.966   9.288  1.00  0.00    -0.391 OA
ATOM     22  H   UNL     1      31.033  39.393   9.720  1.00  0.00     0.211 HD
ENDBRANCH  13  21
BRANCH  14  23
ATOM     23  N   UNL     1      29.371  38.050  12.254  1.00  0.00    -0.348 N 
ATOM     24  C   UNL     1      30.730  37.904  12.620  1.00  0.00     0.217 C 
ATOM     25  H   UNL     1      28.663  38.372  12.953  1.00  0.00     0.163 HD
ATOM     26  C   UNL     1      31.161  38.211  14.022  1.00  0.00     0.114 C 
ATOM     27  O   UNL     1      31.630  37.520  11.812  1.00  0.00    -0.275 OA
ENDBRANCH  14  23
ENDBRANCH   8   9
BRANCH   8  28
ATOM     28  O   UNL     1      26.762  36.842  13.029  1.00  0.00    -0.388 OA
ATOM     29  H   UNL     1      26.298  36.125  13.544  1.00  0.00     0.211 HD
ENDBRANCH   8  28
ENDBRANCH   7   8
BRANCH   7  30
ATOM     30  O   UNL     1      24.657  36.313  11.510  1.00  0.00    -0.388 OA
ATOM     31  H   UNL     1      24.087  36.365  10.717  1.00  0.00     0.211 HD
ENDBRANCH   7  30
ENDBRANCH   6   7
ENDBRANCH   3   6
ENDBRANCH   1   2
BRANCH   1  32
ATOM     32  C   UNL     1      25.233  32.385  16.220  1.00  0.00     0.294 C 
BRANCH  32  33
ATOM     33  C   UNL     1      26.533  31.675  16.188  1.00  0.00     0.120 A 
ATOM     34  C   UNL     1      27.791  32.120  16.529  1.00  0.00     0.138 A 
ATOM     35  N   UNL     1      26.720  30.398  15.792  1.00  0.00    -0.132 NA
ATOM     36  N   UNL     1      28.694  31.137  16.342  1.00  0.00    -0.252 N 
ATOM     37  N   UNL     1      28.002  30.111  15.894  1.00  0.00    -0.067 NA
BRANCH  36  38
ATOM     38  C   UNL     1      30.104  31.152  16.559  1.00  0.00     0.152 C 
BRANCH  38  39
ATOM     39  C   UNL     1      30.858  31.995  15.603  1.00  0.00     0.085 C 
BRANCH  39  40
ATOM     40  C   UNL     1      31.522  33.210  16.101  1.00  0.00     0.265 C 
BRANCH  40  41
ATOM     41  N   UNL     1      31.441  34.421  15.393  1.00  0.00    -0.326 N 
ATOM     42  C   UNL     1      30.901  34.366  14.061  1.00  0.00     0.334 C 
BRANCH  41  43
ATOM     43  C   UNL     1      30.487  35.263  16.143  1.00  0.00     0.260 C 
ATOM     44  C   UNL     1      29.163  35.410  15.499  1.00  0.00     0.071 C 
ENDBRANCH  41  43
BRANCH  41  45
ATOM     45  C   UNL     1      32.673  35.159  15.351  1.00  0.00     0.260 C 
ATOM     46  C   UNL     1      33.500  34.940  14.136  1.00  0.00     0.071 C 
ENDBRANCH  41  45
ENDBRANCH  40  41
ENDBRANCH  39  40
ENDBRANCH  38  39
ENDBRANCH  36  38
ENDBRANCH  32  33
ENDBRANCH   1  32
TORSDOF 20
BEGIN_RES LYS A 131
REMARK  4 active torsions:
REMARK  status: ('A' for Active; 'I' for Inactive)
REMARK    1  A    between atoms: CA   and  CB  
REMARK    2  A    between atoms: CB   and  CG  
REMARK    3  A    between atoms: CG   and  CD  
REMARK    4  A    between atoms: CD   and  CE  
ROOT
ATOM      1  CA  LYS A 131      29.867  25.555  16.977  1.00 20.52     0.186 C 
ENDROOT
BRANCH   1   2
ATOM      2  CB  LYS A 131      28.345  25.722  17.026  1.00 20.94     0.034 C 
BRANCH   2   3
ATOM      3  CG  LYS A 131      27.602  24.400  16.912  1.00 22.96     0.005 C 
BRANCH   3   4
ATOM      4  CD  LYS A 131      26.155  24.528  17.303  1.00 24.33     0.041 C 
BRANCH   4   5
ATOM      5  CE  LYS A 131      26.059  24.995  18.751  1.00 26.91     0.338 C 
ATOM      6  NZ  LYS A 131      24.658  24.923  19.228  1.00 27.40     0.618 N 
ENDBRANCH   4   5
ENDBRANCH   3   4
ENDBRANCH   2   3
ENDBRANCH   1   2
END_RES LYS A 131
BEGIN_RES LYS A 135
REMARK  4 active torsions:
REMARK  status: ('A' for Active; 'I' for Inactive)
REMARK    5  A    between atoms: CA   and  CB  
REMARK    6  A    between atoms: CB   and  CG  
REMARK    7  A    between atoms: CG   and  CD  
REMARK    8  A    between atoms: CD   and  CE  
ROOT
ATOM      7  CA  LYS A 135      33.193  34.663   9.290  1.00 25.02     0.186 C 
ENDROOT
BRANCH   7   8
ATOM      8  CB  LYS A 135      32.060  35.360  10.034  1.00 26.63     0.034 C 
BRANCH   8   9
ATOM      9  CG  LYS A 135      30.746  34.626   9.955  1.00 29.45     0.005 C 
BRANCH   9  10
ATOM     10  CD  LYS A 135      30.332  34.423   8.506  1.00 32.00     0.041 C 
BRANCH  10  11
ATOM     11  CE  LYS A 135      28.821  34.362   8.387  1.00 34.25     0.338 C 
ATOM     12  NZ  LYS A 135      28.220  33.654   9.552  1.00 35.99     0.618 N 
ENDBRANCH  10  11
ENDBRANCH   9  10
ENDBRANCH   8   9
ENDBRANCH   7   8
END_RES LYS A 135
