REMARK VINA RESULT:    -6.063      4.531     10.203
REMARK INTER + INTRA:         -15.980
REMARK INTER:                  -9.117
REMARK INTRA:                  -6.863
REMARK UNBOUND:                -4.777
REMARK SMILES CC(=O)N[C@@H]1[C@@H](O)C[C@](O)(C(=O)O)O[C@H]1C(O)[C@H](O)CNC(=O)OCc1cn(C(C)(C)C(=O)c2c[nH]c3ccccc23)nn1
REMARK SMILES IDX 21 1 22 2 23 3 20 5 18 6 16 7 15 8 9 9 8 10 14 11 6 12 5 13
REMARK SMILES IDX 10 14 11 16 12 17 13 18 7 20 4 22 2 23 1 25 3 26 17 27 19 29
REMARK SMILES IDX 24 31 25 32 26 33 27 34 44 35 28 36 43 37 29 38 30 39 31 40
REMARK SMILES IDX 32 41 33 42 34 43 35 44 42 45 36 46 37 47 41 48 38 50 40 51
REMARK SMILES IDX 39 52
REMARK H PARENT 21 4 10 15 13 19 7 21 4 24 17 28 19 30 36 49
REMARK Flexibility Score: inf
ROOT
ATOM      1  N   UNL     1      27.505  31.348  17.182  1.00  0.00    -0.319 N 
ATOM      2  C   UNL     1      27.061  32.691  17.174  1.00  0.00     0.407 C 
ATOM      3  O   UNL     1      26.823  33.292  18.224  1.00  0.00    -0.225 OA
ATOM      4  H   UNL     1      27.690  30.925  16.211  1.00  0.00     0.167 HD
ENDROOT
BRANCH   1   5
ATOM      5  C   UNL     1      27.720  30.535  18.348  1.00  0.00     0.154 C 
BRANCH   5   6
ATOM      6  C   UNL     1      29.134  30.332  18.748  1.00  0.00     0.165 C 
BRANCH   6   7
ATOM      7  C   UNL     1      29.622  31.329  19.787  1.00  0.00     0.176 C 
BRANCH   7   8
ATOM      8  C   UNL     1      31.013  30.998  20.265  1.00  0.00     0.178 C 
ATOM      9  C   UNL     1      31.260  28.936  21.293  1.00  0.00     0.269 C 
ATOM     10  C   UNL     1      32.197  29.448  22.365  1.00  0.00     0.112 C 
ATOM     11  O   UNL     1      31.349  29.683  20.125  1.00  0.00    -0.332 OA
ATOM     12  C   UNL     1      32.566  30.899  22.133  1.00  0.00     0.145 C 
ATOM     13  C   UNL     1      31.284  31.573  21.639  1.00  0.00     0.142 C 
BRANCH   9  14
ATOM     14  O   UNL     1      29.939  28.855  21.731  1.00  0.00    -0.357 OA
ATOM     15  H   UNL     1      29.835  29.286  22.627  1.00  0.00     0.214 HD
ENDBRANCH   9  14
BRANCH   9  16
ATOM     16  C   UNL     1      31.692  27.552  20.961  1.00  0.00     0.364 C 
ATOM     17  O   UNL     1      31.694  26.664  21.872  1.00  0.00    -0.246 OA
BRANCH  16  18
ATOM     18  O   UNL     1      32.099  27.165  19.706  1.00  0.00    -0.477 OA
ATOM     19  H   UNL     1      33.062  27.201  19.397  1.00  0.00     0.296 HD
ENDBRANCH  16  18
ENDBRANCH   9  16
BRANCH  12  20
ATOM     20  O   UNL     1      33.051  31.508  23.267  1.00  0.00    -0.391 OA
ATOM     21  H   UNL     1      33.389  32.422  23.005  1.00  0.00     0.211 HD
ENDBRANCH  12  20
BRANCH  13  22
ATOM     22  N   UNL     1      31.439  32.999  21.548  1.00  0.00    -0.348 N 
ATOM     23  C   UNL     1      30.553  33.908  22.227  1.00  0.00     0.217 C 
ATOM     24  H   UNL     1      32.196  33.464  20.988  1.00  0.00     0.163 HD
ATOM     25  C   UNL     1      30.675  35.364  22.161  1.00  0.00     0.114 C 
ATOM     26  O   UNL     1      29.625  33.371  22.914  1.00  0.00    -0.275 OA
ENDBRANCH  13  22
ENDBRANCH   7   8
BRANCH   7  27
ATOM     27  O   UNL     1      29.632  32.568  19.140  1.00  0.00    -0.388 OA
ATOM     28  H   UNL     1      30.525  32.841  18.854  1.00  0.00     0.211 HD
ENDBRANCH   7  27
ENDBRANCH   6   7
BRANCH   6  29
ATOM     29  O   UNL     1      29.977  30.456  17.660  1.00  0.00    -0.388 OA
ATOM     30  H   UNL     1      30.875  30.703  18.002  1.00  0.00     0.211 HD
ENDBRANCH   6  29
ENDBRANCH   5   6
ENDBRANCH   1   5
BRANCH   2  31
ATOM     31  O   UNL     1      26.872  33.400  15.985  1.00  0.00    -0.443 OA
BRANCH  31  32
ATOM     32  C   UNL     1      27.886  33.478  15.027  1.00  0.00     0.294 C 
BRANCH  32  33
ATOM     33  C   UNL     1      29.211  33.622  15.684  1.00  0.00     0.120 A 
ATOM     34  C   UNL     1      29.758  34.800  16.170  1.00  0.00     0.139 A 
ATOM     35  N   UNL     1      30.141  32.681  15.948  1.00  0.00    -0.132 NA
ATOM     36  N   UNL     1      30.971  34.542  16.698  1.00  0.00    -0.239 N 
ATOM     37  N   UNL     1      31.174  33.245  16.547  1.00  0.00    -0.066 NA
BRANCH  36  38
ATOM     38  C   UNL     1      31.876  35.529  17.318  1.00  0.00     0.122 C 
ATOM     39  C   UNL     1      31.112  36.773  17.618  1.00  0.00     0.046 C 
ATOM     40  C   UNL     1      32.324  34.838  18.619  1.00  0.00     0.046 C 
BRANCH  38  41
ATOM     41  C   UNL     1      33.037  35.666  16.442  1.00  0.00     0.192 C 
ATOM     42  O   UNL     1      34.208  35.859  16.926  1.00  0.00    -0.291 OA
BRANCH  41  43
ATOM     43  C   UNL     1      33.001  35.608  14.985  1.00  0.00     0.045 A 
ATOM     44  C   UNL     1      33.624  34.630  14.211  1.00  0.00     0.095 A 
ATOM     45  C   UNL     1      32.378  36.515  14.169  1.00  0.00     0.010 A 
ATOM     46  N   UNL     1      33.378  34.947  12.942  1.00  0.00    -0.360 N 
ATOM     47  C   UNL     1      32.633  36.071  12.867  1.00  0.00     0.046 A 
ATOM     48  C   UNL     1      31.616  37.662  14.373  1.00  0.00     0.011 A 
ATOM     49  H   UNL     1      33.702  34.418  12.119  1.00  0.00     0.166 HD
ATOM     50  C   UNL     1      32.113  36.800  11.817  1.00  0.00     0.027 A 
ATOM     51  C   UNL     1      31.118  38.358  13.311  1.00  0.00     0.001 A 
ATOM     52  C   UNL     1      31.364  37.931  12.040  1.00  0.00     0.002 A 
ENDBRANCH  41  43
ENDBRANCH  38  41
ENDBRANCH  36  38
ENDBRANCH  32  33
ENDBRANCH  31  32
ENDBRANCH   2  31
TORSDOF 17
BEGIN_RES LYS A 131
REMARK  4 active torsions:
REMARK  status: ('A' for Active; 'I' for Inactive)
REMARK    1  A    between atoms: CA   and  CB  
REMARK    2  A    between atoms: CB   and  CG  
REMARK    3  A    between atoms: CG   and  CD  
REMARK    4  A    between atoms: CD   and  CE  
ROOT
ATOM      1  CA  LYS A 131      29.867  25.555  16.977  1.00 20.52     0.186 C 
ENDROOT
BRANCH   1   2
ATOM      2  CB  LYS A 131      28.345  25.722  17.026  1.00 20.94     0.034 C 
BRANCH   2   3
ATOM      3  CG  LYS A 131      27.601  24.402  16.889  1.00 22.96     0.005 C 
BRANCH   3   4
ATOM      4  CD  LYS A 131      26.147  24.532  17.247  1.00 24.33     0.041 C 
BRANCH   4   5
ATOM      5  CE  LYS A 131      25.574  23.153  17.559  1.00 26.91     0.338 C 
ATOM      6  NZ  LYS A 131      24.159  23.069  17.127  1.00 27.40     0.618 N 
ENDBRANCH   4   5
ENDBRANCH   3   4
ENDBRANCH   2   3
ENDBRANCH   1   2
END_RES LYS A 131
BEGIN_RES LYS A 135
REMARK  4 active torsions:
REMARK  status: ('A' for Active; 'I' for Inactive)
REMARK    5  A    between atoms: CA   and  CB  
REMARK    6  A    between atoms: CB   and  CG  
REMARK    7  A    between atoms: CG   and  CD  
REMARK    8  A    between atoms: CD   and  CE  
ROOT
ATOM      7  CA  LYS A 135      33.193  34.663   9.290  1.00 25.02     0.186 C 
ENDROOT
BRANCH   7   8
ATOM      8  CB  LYS A 135      32.060  35.360  10.034  1.00 26.63     0.034 C 
BRANCH   8   9
ATOM      9  CG  LYS A 135      30.718  34.701   9.843  1.00 29.45     0.005 C 
BRANCH   9  10
ATOM     10  CD  LYS A 135      30.115  35.090   8.503  1.00 32.00     0.041 C 
BRANCH  10  11
ATOM     11  CE  LYS A 135      29.853  36.583   8.450  1.00 34.25     0.338 C 
ATOM     12  NZ  LYS A 135      28.649  36.945   9.249  1.00 35.99     0.618 N 
ENDBRANCH  10  11
ENDBRANCH   9  10
ENDBRANCH   8   9
ENDBRANCH   7   8
END_RES LYS A 135
