REMARK VINA RESULT:    -5.255      6.928     12.066
REMARK INTER + INTRA:         -14.367
REMARK INTER:                 -10.688
REMARK INTRA:                  -3.678
REMARK UNBOUND:                -5.272
REMARK SMILES CC(=O)N[C@@H]1[C@@H](O)C[C@](O)(C(=O)O)O[C@H]1C(O)[C@H](O)CNC(=O)OCc1cn(-c2ccncc2)nn1
REMARK SMILES IDX 20 1 18 2 16 3 15 4 9 5 8 6 14 7 6 8 5 9 10 10 11 12 12 13
REMARK SMILES IDX 13 14 7 16 4 18 2 19 1 21 3 22 17 23 19 25 21 27 22 28 23 30
REMARK SMILES IDX 24 31 25 32 26 33 27 34 36 35 28 36 35 37 29 38 30 39 34 40
REMARK SMILES IDX 31 41 33 42 32 43
REMARK H PARENT 10 11 13 15 7 17 4 20 17 24 19 26 21 29
REMARK Flexibility Score: inf
ROOT
ATOM      1  C   UNL     1      25.971  35.483  11.586  1.00  0.00     0.154 C 
ENDROOT
BRANCH   1   2
ATOM      2  C   UNL     1      25.543  35.495  10.161  1.00  0.00     0.165 C 
BRANCH   2   3
ATOM      3  C   UNL     1      26.170  36.632   9.372  1.00  0.00     0.176 C 
BRANCH   3   4
ATOM      4  C   UNL     1      27.177  36.181   8.376  1.00  0.00     0.178 C 
ATOM      5  C   UNL     1      29.415  35.745   8.023  1.00  0.00     0.269 C 
ATOM      6  C   UNL     1      28.978  35.500   6.600  1.00  0.00     0.112 C 
ATOM      7  O   UNL     1      28.378  35.812   8.914  1.00  0.00    -0.332 OA
ATOM      8  C   UNL     1      27.990  36.524   6.112  1.00  0.00     0.145 C 
ATOM      9  C   UNL     1      27.446  37.248   7.327  1.00  0.00     0.142 C 
BRANCH   5  10
ATOM     10  O   UNL     1      30.252  36.856   8.126  1.00  0.00    -0.357 OA
ATOM     11  H   UNL     1      30.777  37.002   7.294  1.00  0.00     0.214 HD
ENDBRANCH   5  10
BRANCH   5  12
ATOM     12  C   UNL     1      30.254  34.558   8.414  1.00  0.00     0.364 C 
ATOM     13  O   UNL     1      29.864  33.674   9.192  1.00  0.00    -0.246 OA
BRANCH  12  14
ATOM     14  O   UNL     1      31.523  34.501   7.845  1.00  0.00    -0.477 OA
ATOM     15  H   UNL     1      31.919  35.320   7.391  1.00  0.00     0.296 HD
ENDBRANCH  12  14
ENDBRANCH   5  12
BRANCH   8  16
ATOM     16  O   UNL     1      28.573  37.433   5.228  1.00  0.00    -0.391 OA
ATOM     17  H   UNL     1      28.521  37.077   4.308  1.00  0.00     0.211 HD
ENDBRANCH   8  16
BRANCH   9  18
ATOM     18  N   UNL     1      26.260  38.010   7.011  1.00  0.00    -0.348 N 
ATOM     19  C   UNL     1      26.336  39.409   6.769  1.00  0.00     0.217 C 
ATOM     20  H   UNL     1      25.327  37.564   6.951  1.00  0.00     0.163 HD
ATOM     21  C   UNL     1      25.127  40.228   6.438  1.00  0.00     0.114 C 
ATOM     22  O   UNL     1      27.456  39.975   6.836  1.00  0.00    -0.275 OA
ENDBRANCH   9  18
ENDBRANCH   3   4
BRANCH   3  23
ATOM     23  O   UNL     1      26.550  37.659  10.197  1.00  0.00    -0.388 OA
ATOM     24  H   UNL     1      26.927  38.397   9.646  1.00  0.00     0.211 HD
ENDBRANCH   3  23
ENDBRANCH   2   3
BRANCH   2  25
ATOM     25  O   UNL     1      24.176  35.638  10.005  1.00  0.00    -0.388 OA
ATOM     26  H   UNL     1      23.646  35.007  10.541  1.00  0.00     0.211 HD
ENDBRANCH   2  25
ENDBRANCH   1   2
BRANCH   1  27
ATOM     27  N   UNL     1      27.225  34.804  11.749  1.00  0.00    -0.319 N 
ATOM     28  C   UNL     1      28.340  35.216  12.488  1.00  0.00     0.407 C 
ATOM     29  H   UNL     1      27.342  33.856  11.248  1.00  0.00     0.167 HD
ATOM     30  O   UNL     1      28.336  36.284  13.100  1.00  0.00    -0.225 OA
BRANCH  28  31
ATOM     31  O   UNL     1      29.517  34.447  12.577  1.00  0.00    -0.443 OA
BRANCH  31  32
ATOM     32  C   UNL     1      30.385  34.627  13.701  1.00  0.00     0.294 C 
BRANCH  32  33
ATOM     33  C   UNL     1      30.331  33.472  14.602  1.00  0.00     0.121 A 
ATOM     34  C   UNL     1      29.237  32.801  15.101  1.00  0.00     0.144 A 
ATOM     35  N   UNL     1      31.410  32.847  15.116  1.00  0.00    -0.131 NA
ATOM     36  N   UNL     1      29.707  31.806  15.888  1.00  0.00    -0.220 N 
ATOM     37  N   UNL     1      31.016  31.842  15.891  1.00  0.00    -0.062 NA
BRANCH  36  38
ATOM     38  C   UNL     1      28.928  30.853  16.613  1.00  0.00     0.069 A 
ATOM     39  C   UNL     1      28.939  30.899  17.986  1.00  0.00     0.048 A 
ATOM     40  C   UNL     1      28.176  29.899  15.937  1.00  0.00     0.048 A 
ATOM     41  C   UNL     1      28.182  29.972  18.670  1.00  0.00     0.113 A 
ATOM     42  C   UNL     1      27.442  29.003  16.659  1.00  0.00     0.113 A 
ATOM     43  N   UNL     1      27.461  29.058  18.007  1.00  0.00    -0.265 NA
ENDBRANCH  36  38
ENDBRANCH  32  33
ENDBRANCH  31  32
ENDBRANCH  28  31
ENDBRANCH   1  27
TORSDOF 15
BEGIN_RES LYS A 131
REMARK  4 active torsions:
REMARK  status: ('A' for Active; 'I' for Inactive)
REMARK    1  A    between atoms: CA   and  CB  
REMARK    2  A    between atoms: CB   and  CG  
REMARK    3  A    between atoms: CG   and  CD  
REMARK    4  A    between atoms: CD   and  CE  
ROOT
ATOM      1  CA  LYS A 131      29.867  25.555  16.977  1.00 20.52     0.186 C 
ENDROOT
BRANCH   1   2
ATOM      2  CB  LYS A 131      28.345  25.722  17.026  1.00 20.94     0.034 C 
BRANCH   2   3
ATOM      3  CG  LYS A 131      27.600  24.411  16.825  1.00 22.96     0.005 C 
BRANCH   3   4
ATOM      4  CD  LYS A 131      26.622  24.140  17.935  1.00 24.33     0.041 C 
BRANCH   4   5
ATOM      5  CE  LYS A 131      25.243  23.870  17.343  1.00 26.91     0.338 C 
ATOM      6  NZ  LYS A 131      24.399  25.086  17.420  1.00 27.40     0.618 N 
ENDBRANCH   4   5
ENDBRANCH   3   4
ENDBRANCH   2   3
ENDBRANCH   1   2
END_RES LYS A 131
BEGIN_RES LYS A 135
REMARK  4 active torsions:
REMARK  status: ('A' for Active; 'I' for Inactive)
REMARK    5  A    between atoms: CA   and  CB  
REMARK    6  A    between atoms: CB   and  CG  
REMARK    7  A    between atoms: CG   and  CD  
REMARK    8  A    between atoms: CD   and  CE  
ROOT
ATOM      7  CA  LYS A 135      33.193  34.663   9.290  1.00 25.02     0.186 C 
ENDROOT
BRANCH   7   8
ATOM      8  CB  LYS A 135      32.060  35.360  10.034  1.00 26.63     0.034 C 
BRANCH   8   9
ATOM      9  CG  LYS A 135      32.522  36.151  11.231  1.00 29.45     0.005 C 
BRANCH   9  10
ATOM     10  CD  LYS A 135      31.937  37.555  11.204  1.00 32.00     0.041 C 
BRANCH  10  11
ATOM     11  CE  LYS A 135      31.438  37.949  12.581  1.00 34.25     0.338 C 
ATOM     12  NZ  LYS A 135      30.469  39.077  12.498  1.00 35.99     0.618 N 
ENDBRANCH  10  11
ENDBRANCH   9  10
ENDBRANCH   8   9
ENDBRANCH   7   8
END_RES LYS A 135
