REMARK VINA RESULT:    -5.081      5.412      8.741
REMARK INTER + INTRA:         -15.094
REMARK INTER:                  -7.861
REMARK INTRA:                  -7.233
REMARK UNBOUND:                -6.003
REMARK SMILES CC(=O)N[C@@H]1[C@@H](O)C[C@](O)(C(=O)O)O[C@H]1C(O)[C@H](O)CNC(=O)OCc1cn(Cc2ccc3c(c2)OCO3)nn1
REMARK SMILES IDX 21 1 22 2 23 3 20 5 18 6 16 7 15 8 9 9 8 10 14 11 6 12 5 13
REMARK SMILES IDX 10 14 11 16 12 17 13 18 7 20 4 22 2 23 1 25 3 26 17 27 19 29
REMARK SMILES IDX 24 31 25 32 26 33 27 34 40 35 28 36 39 37 29 38 30 39 31 40
REMARK SMILES IDX 35 41 32 42 34 43 33 44 36 45 38 46 37 47
REMARK H PARENT 21 4 10 15 13 19 7 21 4 24 17 28 19 30
REMARK Flexibility Score: inf
ROOT
ATOM      1  N   UNL     1      31.265  33.398  18.207  1.00  0.00    -0.319 N 
ATOM      2  C   UNL     1      31.162  32.823  19.504  1.00  0.00     0.407 C 
ATOM      3  O   UNL     1      30.670  31.655  19.635  1.00  0.00    -0.225 OA
ATOM      4  H   UNL     1      31.668  34.344  18.132  1.00  0.00     0.167 HD
ENDROOT
BRANCH   1   5
ATOM      5  C   UNL     1      30.800  32.611  17.094  1.00  0.00     0.154 C 
BRANCH   5   6
ATOM      6  C   UNL     1      31.454  32.964  15.795  1.00  0.00     0.165 C 
BRANCH   6   7
ATOM      7  C   UNL     1      30.751  34.091  15.074  1.00  0.00     0.176 C 
BRANCH   7   8
ATOM      8  C   UNL     1      31.651  35.321  14.993  1.00  0.00     0.178 C 
ATOM      9  C   UNL     1      32.229  36.486  16.914  1.00  0.00     0.269 C 
ATOM     10  C   UNL     1      32.198  37.833  16.230  1.00  0.00     0.112 C 
ATOM     11  O   UNL     1      32.472  35.437  16.074  1.00  0.00    -0.332 OA
ATOM     12  C   UNL     1      31.819  37.720  14.767  1.00  0.00     0.145 C 
ATOM     13  C   UNL     1      30.861  36.557  14.653  1.00  0.00     0.142 C 
BRANCH   9  14
ATOM     14  O   UNL     1      31.050  36.282  17.656  1.00  0.00    -0.357 OA
ATOM     15  H   UNL     1      30.524  35.532  17.323  1.00  0.00     0.214 HD
ENDBRANCH   9  14
BRANCH   9  16
ATOM     16  C   UNL     1      33.334  36.539  17.911  1.00  0.00     0.364 C 
ATOM     17  O   UNL     1      33.985  37.613  18.088  1.00  0.00    -0.246 OA
BRANCH  16  18
ATOM     18  O   UNL     1      33.716  35.458  18.687  1.00  0.00    -0.477 OA
ATOM     19  H   UNL     1      33.814  35.608  19.696  1.00  0.00     0.296 HD
ENDBRANCH  16  18
ENDBRANCH   9  16
BRANCH  12  20
ATOM     20  O   UNL     1      31.279  38.908  14.285  1.00  0.00    -0.391 OA
ATOM     21  H   UNL     1      31.888  39.247  13.585  1.00  0.00     0.211 HD
ENDBRANCH  12  20
BRANCH  13  22
ATOM     22  N   UNL     1      30.259  36.429  13.375  1.00  0.00    -0.348 N 
ATOM     23  C   UNL     1      28.857  36.525  13.179  1.00  0.00     0.217 C 
ATOM     24  H   UNL     1      30.905  36.254  12.549  1.00  0.00     0.163 HD
ATOM     25  C   UNL     1      28.253  36.386  11.814  1.00  0.00     0.114 C 
ATOM     26  O   UNL     1      28.158  36.733  14.203  1.00  0.00    -0.275 OA
ENDBRANCH  13  22
ENDBRANCH   7   8
BRANCH   7  27
ATOM     27  O   UNL     1      29.640  34.451  15.835  1.00  0.00    -0.388 OA
ATOM     28  H   UNL     1      28.995  34.946  15.272  1.00  0.00     0.211 HD
ENDBRANCH   7  27
ENDBRANCH   6   7
BRANCH   6  29
ATOM     29  O   UNL     1      31.455  31.820  14.997  1.00  0.00    -0.388 OA
ATOM     30  H   UNL     1      30.760  31.853  14.296  1.00  0.00     0.211 HD
ENDBRANCH   6  29
ENDBRANCH   5   6
ENDBRANCH   1   5
BRANCH   2  31
ATOM     31  O   UNL     1      31.577  33.483  20.655  1.00  0.00    -0.443 OA
BRANCH  31  32
ATOM     32  C   UNL     1      32.578  32.874  21.463  1.00  0.00     0.294 C 
BRANCH  32  33
ATOM     33  C   UNL     1      33.810  33.695  21.470  1.00  0.00     0.120 A 
ATOM     34  C   UNL     1      35.077  33.202  21.352  1.00  0.00     0.138 A 
ATOM     35  N   UNL     1      33.930  35.017  21.589  1.00  0.00    -0.132 NA
ATOM     36  N   UNL     1      35.928  34.236  21.404  1.00  0.00    -0.248 N 
ATOM     37  N   UNL     1      35.219  35.331  21.548  1.00  0.00    -0.067 NA
BRANCH  36  38
ATOM     38  C   UNL     1      37.368  34.138  21.315  1.00  0.00     0.181 C 
BRANCH  38  39
ATOM     39  C   UNL     1      37.712  34.068  19.867  1.00  0.00    -0.023 A 
ATOM     40  C   UNL     1      38.373  32.957  19.398  1.00  0.00     0.010 A 
ATOM     41  C   UNL     1      37.389  35.074  18.991  1.00  0.00     0.056 A 
ATOM     42  C   UNL     1      38.703  32.870  18.049  1.00  0.00     0.051 A 
ATOM     43  C   UNL     1      37.719  34.985  17.653  1.00  0.00     0.166 A 
ATOM     44  C   UNL     1      38.377  33.885  17.173  1.00  0.00     0.165 A 
ATOM     45  O   UNL     1      37.497  35.863  16.610  1.00  0.00    -0.454 OA
ATOM     46  O   UNL     1      38.589  34.036  15.818  1.00  0.00    -0.454 OA
ATOM     47  C   UNL     1      37.840  35.178  15.426  1.00  0.00     0.468 C 
ENDBRANCH  38  39
ENDBRANCH  36  38
ENDBRANCH  32  33
ENDBRANCH  31  32
ENDBRANCH   2  31
TORSDOF 16
BEGIN_RES LYS A 131
REMARK  4 active torsions:
REMARK  status: ('A' for Active; 'I' for Inactive)
REMARK    1  A    between atoms: CA   and  CB  
REMARK    2  A    between atoms: CB   and  CG  
REMARK    3  A    between atoms: CG   and  CD  
REMARK    4  A    between atoms: CD   and  CE  
ROOT
ATOM      1  CA  LYS A 131      29.867  25.555  16.977  1.00 20.52     0.186 C 
ENDROOT
BRANCH   1   2
ATOM      2  CB  LYS A 131      28.345  25.722  17.026  1.00 20.94     0.034 C 
BRANCH   2   3
ATOM      3  CG  LYS A 131      27.601  24.402  16.889  1.00 22.96     0.005 C 
BRANCH   3   4
ATOM      4  CD  LYS A 131      26.551  24.231  17.952  1.00 24.33     0.041 C 
BRANCH   4   5
ATOM      5  CE  LYS A 131      25.242  23.789  17.307  1.00 26.91     0.338 C 
ATOM      6  NZ  LYS A 131      24.310  24.935  17.186  1.00 27.40     0.618 N 
ENDBRANCH   4   5
ENDBRANCH   3   4
ENDBRANCH   2   3
ENDBRANCH   1   2
END_RES LYS A 131
BEGIN_RES LYS A 135
REMARK  4 active torsions:
REMARK  status: ('A' for Active; 'I' for Inactive)
REMARK    5  A    between atoms: CA   and  CB  
REMARK    6  A    between atoms: CB   and  CG  
REMARK    7  A    between atoms: CG   and  CD  
REMARK    8  A    between atoms: CD   and  CE  
ROOT
ATOM      7  CA  LYS A 135      33.193  34.663   9.290  1.00 25.02     0.186 C 
ENDROOT
BRANCH   7   8
ATOM      8  CB  LYS A 135      32.060  35.360  10.034  1.00 26.63     0.034 C 
BRANCH   8   9
ATOM      9  CG  LYS A 135      30.875  35.684   9.161  1.00 29.45     0.005 C 
BRANCH   9  10
ATOM     10  CD  LYS A 135      30.395  34.442   8.426  1.00 32.00     0.041 C 
BRANCH  10  11
ATOM     11  CE  LYS A 135      28.881  34.428   8.338  1.00 34.25     0.338 C 
ATOM     12  NZ  LYS A 135      28.281  33.741   9.515  1.00 35.99     0.618 N 
ENDBRANCH  10  11
ENDBRANCH   9  10
ENDBRANCH   8   9
ENDBRANCH   7   8
END_RES LYS A 135
