REMARK VINA RESULT:    -4.583      5.011      8.395
REMARK INTER + INTRA:         -14.337
REMARK INTER:                  -9.192
REMARK INTRA:                  -5.145
REMARK UNBOUND:                -6.136
REMARK SMILES CC(=O)N[C@@H]1[C@@H](O)C[C@](O)(C(=O)O)O[C@H]1C(O)[C@H](O)CNC(=O)OCc1cn(Cc2ccsc2)nn1
REMARK SMILES IDX 21 1 22 2 23 3 20 5 18 6 16 7 15 8 9 9 8 10 14 11 6 12 5 13
REMARK SMILES IDX 10 14 11 16 12 17 13 18 7 20 4 22 2 23 1 25 3 26 17 27 19 29
REMARK SMILES IDX 24 31 25 32 26 33 27 34 36 35 28 36 35 37 29 38 30 39 31 40
REMARK SMILES IDX 34 41 32 42 33 43
REMARK H PARENT 21 4 10 15 13 19 7 21 4 24 17 28 19 30
REMARK Flexibility Score: inf
ROOT
ATOM      1  N   UNL     1      29.112  30.498  16.609  1.00  0.00    -0.319 N 
ATOM      2  C   UNL     1      27.983  30.110  17.366  1.00  0.00     0.407 C 
ATOM      3  O   UNL     1      27.984  30.298  18.604  1.00  0.00    -0.225 OA
ATOM      4  H   UNL     1      29.052  30.316  15.558  1.00  0.00     0.167 HD
ENDROOT
BRANCH   1   5
ATOM      5  C   UNL     1      30.302  31.108  17.161  1.00  0.00     0.154 C 
BRANCH   5   6
ATOM      6  C   UNL     1      30.676  32.288  16.325  1.00  0.00     0.165 C 
BRANCH   6   7
ATOM      7  C   UNL     1      29.503  33.154  15.919  1.00  0.00     0.176 C 
BRANCH   7   8
ATOM      8  C   UNL     1      29.805  33.798  14.607  1.00  0.00     0.178 C 
ATOM      9  C   UNL     1      31.089  35.409  13.558  1.00  0.00     0.269 C 
ATOM     10  C   UNL     1      30.258  35.017  12.359  1.00  0.00     0.112 C 
ATOM     11  O   UNL     1      30.993  34.501  14.594  1.00  0.00    -0.332 OA
ATOM     12  C   UNL     1      28.806  34.869  12.672  1.00  0.00     0.145 C 
ATOM     13  C   UNL     1      28.649  34.709  14.169  1.00  0.00     0.142 C 
BRANCH   9  14
ATOM     14  O   UNL     1      30.841  36.723  13.958  1.00  0.00    -0.357 OA
ATOM     15  H   UNL     1      29.947  36.784  14.365  1.00  0.00     0.214 HD
ENDBRANCH   9  14
BRANCH   9  16
ATOM     16  C   UNL     1      32.524  35.375  13.096  1.00  0.00     0.364 C 
ATOM     17  O   UNL     1      32.946  36.050  12.149  1.00  0.00    -0.246 OA
BRANCH  16  18
ATOM     18  O   UNL     1      33.424  34.546  13.764  1.00  0.00    -0.477 OA
ATOM     19  H   UNL     1      33.599  33.587  13.491  1.00  0.00     0.296 HD
ENDBRANCH  16  18
ENDBRANCH   9  16
BRANCH  12  20
ATOM     20  O   UNL     1      28.013  35.872  12.159  1.00  0.00    -0.391 OA
ATOM     21  H   UNL     1      27.785  35.710  11.192  1.00  0.00     0.211 HD
ENDBRANCH  12  20
BRANCH  13  22
ATOM     22  N   UNL     1      27.389  34.117  14.538  1.00  0.00    -0.348 N 
ATOM     23  C   UNL     1      26.264  34.936  14.875  1.00  0.00     0.217 C 
ATOM     24  H   UNL     1      27.249  33.084  14.574  1.00  0.00     0.163 HD
ATOM     25  C   UNL     1      24.952  34.410  15.259  1.00  0.00     0.114 C 
ATOM     26  O   UNL     1      26.412  36.202  14.836  1.00  0.00    -0.275 OA
ENDBRANCH  13  22
ENDBRANCH   7   8
BRANCH   7  27
ATOM     27  O   UNL     1      29.371  34.127  16.911  1.00  0.00    -0.388 OA
ATOM     28  H   UNL     1      30.215  34.636  16.988  1.00  0.00     0.211 HD
ENDBRANCH   7  27
ENDBRANCH   6   7
BRANCH   6  29
ATOM     29  O   UNL     1      31.235  31.798  15.134  1.00  0.00    -0.388 OA
ATOM     30  H   UNL     1      31.989  32.341  14.816  1.00  0.00     0.211 HD
ENDBRANCH   6  29
ENDBRANCH   5   6
ENDBRANCH   1   5
BRANCH   2  31
ATOM     31  O   UNL     1      26.878  29.521  16.717  1.00  0.00    -0.443 OA
BRANCH  31  32
ATOM     32  C   UNL     1      25.643  30.201  16.893  1.00  0.00     0.294 C 
BRANCH  32  33
ATOM     33  C   UNL     1      24.709  29.722  15.865  1.00  0.00     0.120 A 
ATOM     34  C   UNL     1      24.688  30.043  14.517  1.00  0.00     0.138 A 
ATOM     35  N   UNL     1      23.685  28.864  16.063  1.00  0.00    -0.132 NA
ATOM     36  N   UNL     1      23.662  29.368  13.982  1.00  0.00    -0.248 N 
ATOM     37  N   UNL     1      23.053  28.654  14.909  1.00  0.00    -0.067 NA
BRANCH  36  38
ATOM     38  C   UNL     1      23.278  29.412  12.598  1.00  0.00     0.182 C 
BRANCH  38  39
ATOM     39  C   UNL     1      21.854  29.950  12.455  1.00  0.00    -0.016 A 
ATOM     40  C   UNL     1      21.569  31.236  12.625  1.00  0.00     0.017 A 
ATOM     41  C   UNL     1      20.857  29.056  12.139  1.00  0.00     0.070 A 
ATOM     42  C   UNL     1      20.280  31.674  12.485  1.00  0.00     0.065 A 
ATOM     43  S   UNL     1      19.395  30.153  12.081  1.00  0.00    -0.152 S 
ENDBRANCH  38  39
ENDBRANCH  36  38
ENDBRANCH  32  33
ENDBRANCH  31  32
ENDBRANCH   2  31
TORSDOF 16
BEGIN_RES LYS A 131
REMARK  4 active torsions:
REMARK  status: ('A' for Active; 'I' for Inactive)
REMARK    1  A    between atoms: CA   and  CB  
REMARK    2  A    between atoms: CB   and  CG  
REMARK    3  A    between atoms: CG   and  CD  
REMARK    4  A    between atoms: CD   and  CE  
ROOT
ATOM      1  CA  LYS A 131      29.867  25.555  16.977  1.00 20.52     0.186 C 
ENDROOT
BRANCH   1   2
ATOM      2  CB  LYS A 131      28.345  25.722  17.026  1.00 20.94     0.034 C 
BRANCH   2   3
ATOM      3  CG  LYS A 131      27.601  24.402  16.896  1.00 22.96     0.005 C 
BRANCH   3   4
ATOM      4  CD  LYS A 131      26.145  24.535  17.245  1.00 24.33     0.041 C 
BRANCH   4   5
ATOM      5  CE  LYS A 131      25.570  23.159  17.563  1.00 26.91     0.338 C 
ATOM      6  NZ  LYS A 131      24.173  23.055  17.077  1.00 27.40     0.618 N 
ENDBRANCH   4   5
ENDBRANCH   3   4
ENDBRANCH   2   3
ENDBRANCH   1   2
END_RES LYS A 131
BEGIN_RES LYS A 135
REMARK  4 active torsions:
REMARK  status: ('A' for Active; 'I' for Inactive)
REMARK    5  A    between atoms: CA   and  CB  
REMARK    6  A    between atoms: CB   and  CG  
REMARK    7  A    between atoms: CG   and  CD  
REMARK    8  A    between atoms: CD   and  CE  
ROOT
ATOM      7  CA  LYS A 135      33.193  34.663   9.290  1.00 25.02     0.186 C 
ENDROOT
BRANCH   7   8
ATOM      8  CB  LYS A 135      32.060  35.360  10.034  1.00 26.63     0.034 C 
BRANCH   8   9
ATOM      9  CG  LYS A 135      30.832  35.584   9.189  1.00 29.45     0.005 C 
BRANCH   9  10
ATOM     10  CD  LYS A 135      30.284  34.260   8.678  1.00 32.00     0.041 C 
BRANCH  10  11
ATOM     11  CE  LYS A 135      28.802  34.147   8.976  1.00 34.25     0.338 C 
ATOM     12  NZ  LYS A 135      27.995  34.914   7.985  1.00 35.99     0.618 N 
ENDBRANCH  10  11
ENDBRANCH   9  10
ENDBRANCH   8   9
ENDBRANCH   7   8
END_RES LYS A 135
