REMARK VINA RESULT:    -5.064      5.808     12.885
REMARK INTER + INTRA:         -16.033
REMARK INTER:                 -10.719
REMARK INTRA:                  -5.314
REMARK UNBOUND:                -6.527
REMARK SMILES CC(=O)N[C@@H]1[C@@H](O)C[C@](O)(C(=O)O)O[C@H]1C(O)[C@H](O)CNC(=O)OCc1cn(-c2ccc(S(=O)(=O)c3ccc(N)cc3)cc2)nn1
REMARK SMILES IDX 21 1 22 2 23 3 20 5 18 6 16 7 15 8 9 9 8 10 14 11 6 12 5 13
REMARK SMILES IDX 10 14 11 16 12 17 13 18 7 20 4 22 2 23 1 25 3 26 17 27 19 29
REMARK SMILES IDX 24 31 25 32 26 33 27 34 46 35 28 36 45 37 29 38 30 39 44 40
REMARK SMILES IDX 31 41 43 42 32 43 33 44 34 45 35 46 36 47 37 48 42 49 38 50
REMARK SMILES IDX 41 51 39 52 40 53
REMARK H PARENT 21 4 10 15 13 19 7 21 4 24 17 28 19 30 40 54 40 55
REMARK Flexibility Score: inf
ROOT
ATOM      1  N   UNL     1      25.432  40.584   7.443  1.00  0.00    -0.319 N 
ATOM      2  C   UNL     1      26.626  40.965   8.098  1.00  0.00     0.407 C 
ATOM      3  O   UNL     1      26.578  41.656   9.122  1.00  0.00    -0.225 OA
ATOM      4  H   UNL     1      25.570  39.985   6.570  1.00  0.00     0.167 HD
ENDROOT
BRANCH   1   5
ATOM      5  C   UNL     1      24.097  40.940   7.866  1.00  0.00     0.154 C 
BRANCH   5   6
ATOM      6  C   UNL     1      23.358  39.707   8.256  1.00  0.00     0.165 C 
BRANCH   6   7
ATOM      7  C   UNL     1      24.136  38.438   7.977  1.00  0.00     0.176 C 
BRANCH   7   8
ATOM      8  C   UNL     1      24.222  37.496   9.129  1.00  0.00     0.178 C 
ATOM      9  C   UNL     1      25.589  35.769   9.849  1.00  0.00     0.269 C 
ATOM     10  C   UNL     1      24.552  35.399  10.863  1.00  0.00     0.112 C 
ATOM     11  O   UNL     1      25.500  37.083   9.424  1.00  0.00    -0.332 OA
ATOM     12  C   UNL     1      23.169  35.823  10.522  1.00  0.00     0.145 C 
ATOM     13  C   UNL     1      23.195  36.391   9.093  1.00  0.00     0.142 C 
BRANCH   9  14
ATOM     14  O   UNL     1      25.586  34.871   8.757  1.00  0.00    -0.357 OA
ATOM     15  H   UNL     1      24.753  34.370   8.773  1.00  0.00     0.214 HD
ENDBRANCH   9  14
BRANCH   9  16
ATOM     16  C   UNL     1      26.925  35.610  10.494  1.00  0.00     0.364 C 
ATOM     17  O   UNL     1      27.366  34.436  10.693  1.00  0.00    -0.246 OA
BRANCH  16  18
ATOM     18  O   UNL     1      27.717  36.657  10.890  1.00  0.00    -0.477 OA
ATOM     19  H   UNL     1      27.867  37.454  10.273  1.00  0.00     0.296 HD
ENDBRANCH  16  18
ENDBRANCH   9  16
BRANCH  12  20
ATOM     20  O   UNL     1      22.230  34.810  10.629  1.00  0.00    -0.391 OA
ATOM     21  H   UNL     1      22.683  33.975  10.971  1.00  0.00     0.211 HD
ENDBRANCH  12  20
BRANCH  13  22
ATOM     22  N   UNL     1      21.899  37.001   8.822  1.00  0.00    -0.348 N 
ATOM     23  C   UNL     1      20.874  36.245   8.200  1.00  0.00     0.217 C 
ATOM     24  H   UNL     1      21.687  37.990   9.070  1.00  0.00     0.163 HD
ATOM     25  C   UNL     1      19.526  36.847   7.904  1.00  0.00     0.114 C 
ATOM     26  O   UNL     1      21.024  35.052   7.863  1.00  0.00    -0.275 OA
ENDBRANCH  13  22
ENDBRANCH   7   8
BRANCH   7  27
ATOM     27  O   UNL     1      23.520  37.855   6.862  1.00  0.00    -0.388 OA
ATOM     28  H   UNL     1      22.790  38.446   6.579  1.00  0.00     0.211 HD
ENDBRANCH   7  27
ENDBRANCH   6   7
BRANCH   6  29
ATOM     29  O   UNL     1      22.082  39.694   7.711  1.00  0.00    -0.388 OA
ATOM     30  H   UNL     1      21.681  38.802   7.868  1.00  0.00     0.211 HD
ENDBRANCH   6  29
ENDBRANCH   5   6
ENDBRANCH   1   5
BRANCH   2  31
ATOM     31  O   UNL     1      27.888  40.595   7.643  1.00  0.00    -0.443 OA
BRANCH  31  32
ATOM     32  C   UNL     1      29.075  41.181   8.156  1.00  0.00     0.294 C 
BRANCH  32  33
ATOM     33  C   UNL     1      30.019  40.153   8.677  1.00  0.00     0.121 A 
ATOM     34  C   UNL     1      30.035  39.711   9.972  1.00  0.00     0.144 A 
ATOM     35  N   UNL     1      30.985  39.495   8.021  1.00  0.00    -0.131 NA
ATOM     36  N   UNL     1      31.017  38.786  10.079  1.00  0.00    -0.220 N 
ATOM     37  N   UNL     1      31.555  38.690   8.895  1.00  0.00    -0.062 NA
BRANCH  36  38
ATOM     38  C   UNL     1      31.322  38.109  11.288  1.00  0.00     0.066 A 
ATOM     39  C   UNL     1      30.684  38.459  12.458  1.00  0.00     0.030 A 
ATOM     40  C   UNL     1      32.250  37.093  11.351  1.00  0.00     0.030 A 
ATOM     41  C   UNL     1      30.951  37.825  13.660  1.00  0.00     0.023 A 
ATOM     42  C   UNL     1      32.528  36.446  12.559  1.00  0.00     0.023 A 
ATOM     43  C   UNL     1      31.878  36.813  13.713  1.00  0.00     0.072 A 
BRANCH  43  44
ATOM     44  S   UNL     1      32.211  36.021  15.213  1.00  0.00     0.206 S 
ATOM     45  O   UNL     1      31.820  36.902  16.351  1.00  0.00    -0.219 OA
ATOM     46  O   UNL     1      33.662  35.676  15.374  1.00  0.00    -0.219 OA
BRANCH  44  47
ATOM     47  C   UNL     1      31.306  34.511  15.233  1.00  0.00     0.072 A 
ATOM     48  C   UNL     1      31.826  33.439  15.907  1.00  0.00     0.023 A 
ATOM     49  C   UNL     1      30.081  34.389  14.584  1.00  0.00     0.023 A 
ATOM     50  C   UNL     1      31.146  32.228  15.949  1.00  0.00     0.027 A 
ATOM     51  C   UNL     1      29.377  33.196  14.605  1.00  0.00     0.027 A 
ATOM     52  C   UNL     1      29.933  32.143  15.292  1.00  0.00     0.031 A 
BRANCH  52  53
ATOM     53  N   UNL     1      29.231  30.917  15.326  1.00  0.00    -0.399 N 
ATOM     54  H   UNL     1      29.706  30.050  15.629  1.00  0.00     0.156 HD
ATOM     55  H   UNL     1      28.236  30.893  15.044  1.00  0.00     0.156 HD
ENDBRANCH  52  53
ENDBRANCH  44  47
ENDBRANCH  43  44
ENDBRANCH  36  38
ENDBRANCH  32  33
ENDBRANCH  31  32
ENDBRANCH   2  31
TORSDOF 18
BEGIN_RES LYS A 131
REMARK  4 active torsions:
REMARK  status: ('A' for Active; 'I' for Inactive)
REMARK    1  A    between atoms: CA   and  CB  
REMARK    2  A    between atoms: CB   and  CG  
REMARK    3  A    between atoms: CG   and  CD  
REMARK    4  A    between atoms: CD   and  CE  
ROOT
ATOM      1  CA  LYS A 131      29.867  25.555  16.977  1.00 20.52     0.186 C 
ENDROOT
BRANCH   1   2
ATOM      2  CB  LYS A 131      28.345  25.722  17.026  1.00 20.94     0.034 C 
BRANCH   2   3
ATOM      3  CG  LYS A 131      27.599  24.476  16.574  1.00 22.96     0.005 C 
BRANCH   3   4
ATOM      4  CD  LYS A 131      27.005  23.721  17.731  1.00 24.33     0.041 C 
BRANCH   4   5
ATOM      5  CE  LYS A 131      25.487  23.688  17.591  1.00 26.91     0.338 C 
ATOM      6  NZ  LYS A 131      24.844  24.340  18.757  1.00 27.40     0.618 N 
ENDBRANCH   4   5
ENDBRANCH   3   4
ENDBRANCH   2   3
ENDBRANCH   1   2
END_RES LYS A 131
BEGIN_RES LYS A 135
REMARK  4 active torsions:
REMARK  status: ('A' for Active; 'I' for Inactive)
REMARK    5  A    between atoms: CA   and  CB  
REMARK    6  A    between atoms: CB   and  CG  
REMARK    7  A    between atoms: CG   and  CD  
REMARK    8  A    between atoms: CD   and  CE  
ROOT
ATOM      7  CA  LYS A 135      33.193  34.663   9.290  1.00 25.02     0.186 C 
ENDROOT
BRANCH   7   8
ATOM      8  CB  LYS A 135      32.060  35.360  10.034  1.00 26.63     0.034 C 
BRANCH   8   9
ATOM      9  CG  LYS A 135      30.692  34.848   9.665  1.00 29.45     0.005 C 
BRANCH   9  10
ATOM     10  CD  LYS A 135      30.615  34.549   8.175  1.00 32.00     0.041 C 
BRANCH  10  11
ATOM     11  CE  LYS A 135      29.279  34.993   7.611  1.00 34.25     0.338 C 
ATOM     12  NZ  LYS A 135      29.108  36.468   7.734  1.00 35.99     0.618 N 
ENDBRANCH  10  11
ENDBRANCH   9  10
ENDBRANCH   8   9
ENDBRANCH   7   8
END_RES LYS A 135
