REMARK VINA RESULT:    -4.039      2.760      6.039
REMARK INTER + INTRA:         -14.655
REMARK INTER:                  -9.091
REMARK INTRA:                  -5.564
REMARK UNBOUND:                -7.311
REMARK SMILES CC(=O)N[C@@H]1[C@@H](O)C[C@](O)(C(=O)O)O[C@H]1C(O)[C@H](O)CNC(=O)OCc1cn(-c2ccc(O)c([N+](=O)[O-])c2)nn1
REMARK SMILES IDX 21 1 22 2 23 3 20 5 18 6 16 7 15 8 9 9 8 10 14 11 6 12 5 13
REMARK SMILES IDX 10 14 11 16 12 17 13 18 7 20 4 22 2 23 1 25 3 26 17 27 19 29
REMARK SMILES IDX 24 31 25 32 26 33 27 34 40 35 28 36 39 37 29 38 30 39 38 40
REMARK SMILES IDX 31 41 34 42 32 43 35 44 36 45 37 46 33 47
REMARK H PARENT 21 4 10 15 13 19 7 21 4 24 17 28 19 30 33 48
REMARK Flexibility Score: inf
ROOT
ATOM      1  N   UNL     1      28.427  27.626  19.448  1.00  0.00    -0.319 N 
ATOM      2  C   UNL     1      27.106  27.313  19.027  1.00  0.00     0.407 C 
ATOM      3  O   UNL     1      26.237  26.847  19.837  1.00  0.00    -0.225 OA
ATOM      4  H   UNL     1      29.098  28.009  18.763  1.00  0.00     0.167 HD
ENDROOT
BRANCH   1   5
ATOM      5  C   UNL     1      28.794  27.414  20.817  1.00  0.00     0.154 C 
BRANCH   5   6
ATOM      6  C   UNL     1      30.225  27.618  21.162  1.00  0.00     0.165 C 
BRANCH   6   7
ATOM      7  C   UNL     1      30.990  28.538  20.247  1.00  0.00     0.176 C 
BRANCH   7   8
ATOM      8  C   UNL     1      30.984  29.976  20.663  1.00  0.00     0.178 C 
ATOM      9  C   UNL     1      30.374  32.109  20.071  1.00  0.00     0.269 C 
ATOM     10  C   UNL     1      30.623  32.297  21.550  1.00  0.00     0.112 C 
ATOM     11  O   UNL     1      30.557  30.807  19.641  1.00  0.00    -0.332 OA
ATOM     12  C   UNL     1      32.006  31.845  21.880  1.00  0.00     0.145 C 
ATOM     13  C   UNL     1      32.209  30.411  21.380  1.00  0.00     0.142 C 
BRANCH   9  14
ATOM     14  O   UNL     1      31.266  32.936  19.403  1.00  0.00    -0.357 OA
ATOM     15  H   UNL     1      32.021  33.112  20.028  1.00  0.00     0.214 HD
ENDBRANCH   9  14
BRANCH   9  16
ATOM     16  C   UNL     1      28.996  32.583  19.791  1.00  0.00     0.364 C 
ATOM     17  O   UNL     1      28.759  33.796  19.551  1.00  0.00    -0.246 OA
BRANCH  16  18
ATOM     18  O   UNL     1      27.938  31.695  19.788  1.00  0.00    -0.477 OA
ATOM     19  H   UNL     1      26.980  31.970  19.683  1.00  0.00     0.296 HD
ENDBRANCH  16  18
ENDBRANCH   9  16
BRANCH  12  20
ATOM     20  O   UNL     1      32.893  32.735  21.246  1.00  0.00    -0.391 OA
ATOM     21  H   UNL     1      32.898  33.565  21.812  1.00  0.00     0.211 HD
ENDBRANCH  12  20
BRANCH  13  22
ATOM     22  N   UNL     1      32.330  29.556  22.572  1.00  0.00    -0.348 N 
ATOM     23  C   UNL     1      33.574  29.152  23.098  1.00  0.00     0.217 C 
ATOM     24  H   UNL     1      31.452  29.237  23.045  1.00  0.00     0.163 HD
ATOM     25  C   UNL     1      33.653  28.288  24.301  1.00  0.00     0.114 C 
ATOM     26  O   UNL     1      34.621  29.521  22.550  1.00  0.00    -0.275 OA
ENDBRANCH  13  22
ENDBRANCH   7   8
BRANCH   7  27
ATOM     27  O   UNL     1      32.318  28.133  20.117  1.00  0.00    -0.388 OA
ATOM     28  H   UNL     1      32.767  27.984  20.966  1.00  0.00     0.211 HD
ENDBRANCH   7  27
ENDBRANCH   6   7
BRANCH   6  29
ATOM     29  O   UNL     1      30.822  26.348  21.163  1.00  0.00    -0.388 OA
ATOM     30  H   UNL     1      31.793  26.479  21.358  1.00  0.00     0.211 HD
ENDBRANCH   6  29
ENDBRANCH   5   6
ENDBRANCH   1   5
BRANCH   2  31
ATOM     31  O   UNL     1      26.778  27.525  17.709  1.00  0.00    -0.443 OA
BRANCH  31  32
ATOM     32  C   UNL     1      25.866  28.525  17.373  1.00  0.00     0.294 C 
BRANCH  32  33
ATOM     33  C   UNL     1      26.504  29.840  17.097  1.00  0.00     0.121 A 
ATOM     34  C   UNL     1      27.715  30.090  16.468  1.00  0.00     0.144 A 
ATOM     35  N   UNL     1      26.028  31.060  17.406  1.00  0.00    -0.131 NA
ATOM     36  N   UNL     1      27.939  31.412  16.411  1.00  0.00    -0.220 N 
ATOM     37  N   UNL     1      26.897  31.983  16.989  1.00  0.00    -0.062 NA
BRANCH  36  38
ATOM     38  C   UNL     1      29.049  32.108  15.856  1.00  0.00     0.073 A 
ATOM     39  C   UNL     1      30.335  31.746  16.199  1.00  0.00     0.033 A 
ATOM     40  C   UNL     1      28.907  33.156  14.970  1.00  0.00     0.118 A 
ATOM     41  C   UNL     1      31.431  32.411  15.671  1.00  0.00     0.056 A 
ATOM     42  C   UNL     1      29.971  33.850  14.417  1.00  0.00     0.312 A 
ATOM     43  C   UNL     1      31.251  33.450  14.790  1.00  0.00     0.194 A 
BRANCH  42  44
ATOM     44  N   UNL     1      29.808  34.918  13.512  1.00  0.00     0.066 N 
ATOM     45  O   UNL     1      29.120  34.760  12.503  1.00  0.00    -0.258 OA
ATOM     46  O   UNL     1      30.406  36.114  13.756  1.00  0.00    -0.258 OA
ENDBRANCH  42  44
BRANCH  43  47
ATOM     47  O   UNL     1      32.319  34.150  14.233  1.00  0.00    -0.502 OA
ATOM     48  H   UNL     1      32.730  33.789  13.361  1.00  0.00     0.293 HD
ENDBRANCH  43  47
ENDBRANCH  36  38
ENDBRANCH  32  33
ENDBRANCH  31  32
ENDBRANCH   2  31
TORSDOF 17
BEGIN_RES LYS A 131
REMARK  4 active torsions:
REMARK  status: ('A' for Active; 'I' for Inactive)
REMARK    1  A    between atoms: CA   and  CB  
REMARK    2  A    between atoms: CB   and  CG  
REMARK    3  A    between atoms: CG   and  CD  
REMARK    4  A    between atoms: CD   and  CE  
ROOT
ATOM      1  CA  LYS A 131      29.867  25.555  16.977  1.00 20.52     0.186 C 
ENDROOT
BRANCH   1   2
ATOM      2  CB  LYS A 131      28.345  25.722  17.026  1.00 20.94     0.034 C 
BRANCH   2   3
ATOM      3  CG  LYS A 131      27.599  24.479  16.566  1.00 22.96     0.005 C 
BRANCH   3   4
ATOM      4  CD  LYS A 131      26.780  23.869  17.669  1.00 24.33     0.041 C 
BRANCH   4   5
ATOM      5  CE  LYS A 131      25.303  24.172  17.434  1.00 26.91     0.338 C 
ATOM      6  NZ  LYS A 131      24.527  22.915  17.325  1.00 27.40     0.618 N 
ENDBRANCH   4   5
ENDBRANCH   3   4
ENDBRANCH   2   3
ENDBRANCH   1   2
END_RES LYS A 131
BEGIN_RES LYS A 135
REMARK  4 active torsions:
REMARK  status: ('A' for Active; 'I' for Inactive)
REMARK    5  A    between atoms: CA   and  CB  
REMARK    6  A    between atoms: CB   and  CG  
REMARK    7  A    between atoms: CG   and  CD  
REMARK    8  A    between atoms: CD   and  CE  
ROOT
ATOM      7  CA  LYS A 135      33.193  34.663   9.290  1.00 25.02     0.186 C 
ENDROOT
BRANCH   7   8
ATOM      8  CB  LYS A 135      32.060  35.360  10.034  1.00 26.63     0.034 C 
BRANCH   8   9
ATOM      9  CG  LYS A 135      30.709  35.162   9.396  1.00 29.45     0.005 C 
BRANCH   9  10
ATOM     10  CD  LYS A 135      30.099  36.500   9.006  1.00 32.00     0.041 C 
BRANCH  10  11
ATOM     11  CE  LYS A 135      28.862  36.292   8.153  1.00 34.25     0.338 C 
ATOM     12  NZ  LYS A 135      28.610  34.844   7.917  1.00 35.99     0.618 N 
ENDBRANCH  10  11
ENDBRANCH   9  10
ENDBRANCH   8   9
ENDBRANCH   7   8
END_RES LYS A 135
