REMARK VINA RESULT:    -4.196      3.261      7.577
REMARK INTER + INTRA:         -14.274
REMARK INTER:                  -6.852
REMARK INTRA:                  -7.423
REMARK UNBOUND:                -6.277
REMARK SMILES CC(=O)N[C@@H]1[C@@H](O)C[C@](O)(C(=O)O)O[C@H]1C(O)[C@H](O)CNC(=O)OCc1cn(CCNS(C)(=O)=O)nn1
REMARK SMILES IDX 21 1 22 2 23 3 20 5 18 6 16 7 15 8 9 9 8 10 14 11 6 12 5 13
REMARK SMILES IDX 10 14 11 16 12 17 13 18 7 20 4 22 2 23 1 25 3 26 17 27 19 29
REMARK SMILES IDX 24 31 25 32 26 33 27 34 37 35 28 36 36 37 29 38 30 39 31 40
REMARK SMILES IDX 32 42 34 43 35 44 33 45
REMARK H PARENT 21 4 10 15 13 19 7 21 4 24 17 28 19 30 31 41
REMARK Flexibility Score: inf
ROOT
ATOM      1  N   UNL     1      30.164  32.703  18.922  1.00  0.00    -0.319 N 
ATOM      2  C   UNL     1      30.463  32.180  17.648  1.00  0.00     0.407 C 
ATOM      3  O   UNL     1      30.373  30.974  17.365  1.00  0.00    -0.225 OA
ATOM      4  H   UNL     1      30.269  33.756  19.042  1.00  0.00     0.167 HD
ENDROOT
BRANCH   1   5
ATOM      5  C   UNL     1      29.739  31.959  20.048  1.00  0.00     0.154 C 
BRANCH   5   6
ATOM      6  C   UNL     1      28.283  32.060  20.429  1.00  0.00     0.165 C 
BRANCH   6   7
ATOM      7  C   UNL     1      27.798  30.665  20.674  1.00  0.00     0.176 C 
BRANCH   7   8
ATOM      8  C   UNL     1      27.867  29.707  19.529  1.00  0.00     0.178 C 
ATOM      9  C   UNL     1      26.714  29.201  17.551  1.00  0.00     0.269 C 
ATOM     10  C   UNL     1      27.052  27.756  17.692  1.00  0.00     0.112 C 
ATOM     11  O   UNL     1      26.957  30.002  18.597  1.00  0.00    -0.332 OA
ATOM     12  C   UNL     1      27.198  27.307  19.120  1.00  0.00     0.145 C 
ATOM     13  C   UNL     1      28.000  28.270  19.928  1.00  0.00     0.142 C 
BRANCH   9  14
ATOM     14  O   UNL     1      25.359  29.302  17.211  1.00  0.00    -0.357 OA
ATOM     15  H   UNL     1      24.868  28.590  17.672  1.00  0.00     0.214 HD
ENDBRANCH   9  14
BRANCH   9  16
ATOM     16  C   UNL     1      27.469  29.734  16.380  1.00  0.00     0.364 C 
ATOM     17  O   UNL     1      27.211  30.814  15.818  1.00  0.00    -0.246 OA
BRANCH  16  18
ATOM     18  O   UNL     1      28.546  29.000  15.849  1.00  0.00    -0.477 OA
ATOM     19  H   UNL     1      29.141  29.387  15.127  1.00  0.00     0.296 HD
ENDBRANCH  16  18
ENDBRANCH   9  16
BRANCH  12  20
ATOM     20  O   UNL     1      25.933  27.049  19.634  1.00  0.00    -0.391 OA
ATOM     21  H   UNL     1      25.996  26.193  20.131  1.00  0.00     0.211 HD
ENDBRANCH  12  20
BRANCH  13  22
ATOM     22  N   UNL     1      29.381  27.821  19.907  1.00  0.00    -0.348 N 
ATOM     23  C   UNL     1      30.129  27.527  21.078  1.00  0.00     0.217 C 
ATOM     24  H   UNL     1      29.909  27.689  18.993  1.00  0.00     0.163 HD
ATOM     25  C   UNL     1      31.556  27.067  21.005  1.00  0.00     0.114 C 
ATOM     26  O   UNL     1      29.540  27.670  22.181  1.00  0.00    -0.275 OA
ENDBRANCH  13  22
ENDBRANCH   7   8
BRANCH   7  27
ATOM     27  O   UNL     1      26.448  30.831  21.104  1.00  0.00    -0.388 OA
ATOM     28  H   UNL     1      25.836  30.323  20.531  1.00  0.00     0.211 HD
ENDBRANCH   7  27
ENDBRANCH   6   7
BRANCH   6  29
ATOM     29  O   UNL     1      27.615  32.773  19.471  1.00  0.00    -0.388 OA
ATOM     30  H   UNL     1      28.079  32.788  18.625  1.00  0.00     0.211 HD
ENDBRANCH   6  29
ENDBRANCH   5   6
ENDBRANCH   1   5
BRANCH   2  31
ATOM     31  O   UNL     1      30.882  33.036  16.635  1.00  0.00    -0.443 OA
BRANCH  31  32
ATOM     32  C   UNL     1      30.364  34.327  16.437  1.00  0.00     0.294 C 
BRANCH  32  33
ATOM     33  C   UNL     1      28.948  34.267  16.027  1.00  0.00     0.120 A 
ATOM     34  C   UNL     1      28.416  34.271  14.754  1.00  0.00     0.138 A 
ATOM     35  N   UNL     1      27.909  34.196  16.854  1.00  0.00    -0.132 NA
ATOM     36  N   UNL     1      27.081  34.203  14.844  1.00  0.00    -0.251 N 
ATOM     37  N   UNL     1      26.801  34.158  16.141  1.00  0.00    -0.067 NA
BRANCH  36  38
ATOM     38  C   UNL     1      26.077  34.178  13.812  1.00  0.00     0.162 C 
BRANCH  38  39
ATOM     39  C   UNL     1      24.820  33.451  14.254  1.00  0.00     0.122 C 
BRANCH  39  40
ATOM     40  N   UNL     1      25.136  32.040  14.323  1.00  0.00    -0.214 NA
ATOM     41  H   UNL     1      25.913  31.846  14.971  1.00  0.00     0.141 HD
BRANCH  40  42
ATOM     42  S   UNL     1      23.767  31.084  14.729  1.00  0.00     0.208 S 
ATOM     43  O   UNL     1      24.153  29.641  14.529  1.00  0.00    -0.213 OA
ATOM     44  O   UNL     1      23.364  31.360  16.142  1.00  0.00    -0.213 OA
ATOM     45  C   UNL     1      22.403  31.440  13.646  1.00  0.00     0.176 C 
ENDBRANCH  40  42
ENDBRANCH  39  40
ENDBRANCH  38  39
ENDBRANCH  36  38
ENDBRANCH  32  33
ENDBRANCH  31  32
ENDBRANCH   2  31
TORSDOF 18
BEGIN_RES LYS A 131
REMARK  4 active torsions:
REMARK  status: ('A' for Active; 'I' for Inactive)
REMARK    1  A    between atoms: CA   and  CB  
REMARK    2  A    between atoms: CB   and  CG  
REMARK    3  A    between atoms: CG   and  CD  
REMARK    4  A    between atoms: CD   and  CE  
ROOT
ATOM      1  CA  LYS A 131      29.867  25.555  16.977  1.00 20.52     0.186 C 
ENDROOT
BRANCH   1   2
ATOM      2  CB  LYS A 131      28.345  25.722  17.026  1.00 20.94     0.034 C 
BRANCH   2   3
ATOM      3  CG  LYS A 131      27.599  24.442  16.683  1.00 22.96     0.005 C 
BRANCH   3   4
ATOM      4  CD  LYS A 131      26.988  23.799  17.898  1.00 24.33     0.041 C 
BRANCH   4   5
ATOM      5  CE  LYS A 131      25.579  23.320  17.565  1.00 26.91     0.338 C 
ATOM      6  NZ  LYS A 131      24.795  24.409  16.936  1.00 27.40     0.618 N 
ENDBRANCH   4   5
ENDBRANCH   3   4
ENDBRANCH   2   3
ENDBRANCH   1   2
END_RES LYS A 131
BEGIN_RES LYS A 135
REMARK  4 active torsions:
REMARK  status: ('A' for Active; 'I' for Inactive)
REMARK    5  A    between atoms: CA   and  CB  
REMARK    6  A    between atoms: CB   and  CG  
REMARK    7  A    between atoms: CG   and  CD  
REMARK    8  A    between atoms: CD   and  CE  
ROOT
ATOM      7  CA  LYS A 135      33.193  34.663   9.290  1.00 25.02     0.186 C 
ENDROOT
BRANCH   7   8
ATOM      8  CB  LYS A 135      32.060  35.360  10.034  1.00 26.63     0.034 C 
BRANCH   8   9
ATOM      9  CG  LYS A 135      30.710  34.734   9.798  1.00 29.45     0.005 C 
BRANCH   9  10
ATOM     10  CD  LYS A 135      30.463  34.534   8.311  1.00 32.00     0.041 C 
BRANCH  10  11
ATOM     11  CE  LYS A 135      29.017  34.831   7.966  1.00 34.25     0.338 C 
ATOM     12  NZ  LYS A 135      28.912  35.546   6.664  1.00 35.99     0.618 N 
ENDBRANCH  10  11
ENDBRANCH   9  10
ENDBRANCH   8   9
ENDBRANCH   7   8
END_RES LYS A 135
