REMARK VINA RESULT:    -5.685      3.160      6.131
REMARK INTER + INTRA:         -14.664
REMARK INTER:                 -10.671
REMARK INTRA:                  -3.993
REMARK UNBOUND:                -3.993
REMARK SMILES CC(=O)N[C@@H]1[C@@H](O)C[C@](O)(C(=O)O)O[C@H]1C(O)[C@H](O)CNC(=O)OCc1cn(Cc2ccc(C(=O)O)cc2)nn1
REMARK SMILES IDX 21 1 22 2 23 3 20 5 18 6 16 7 15 8 9 9 8 10 14 11 6 12 5 13
REMARK SMILES IDX 10 14 11 16 12 17 13 18 7 20 4 22 2 23 1 25 3 26 17 27 19 29
REMARK SMILES IDX 24 31 25 32 26 33 27 34 40 35 28 36 39 37 29 38 30 39 31 40
REMARK SMILES IDX 38 41 32 42 37 43 33 44 34 45 35 46 36 47
REMARK H PARENT 21 4 10 15 13 19 7 21 4 24 17 28 19 30 36 48
REMARK Flexibility Score: inf
ROOT
ATOM      1  N   UNL     1      29.769  34.767  15.772  1.00  0.00    -0.319 N 
ATOM      2  C   UNL     1      29.778  35.030  14.392  1.00  0.00     0.407 C 
ATOM      3  O   UNL     1      30.427  34.300  13.626  1.00  0.00    -0.225 OA
ATOM      4  H   UNL     1      29.191  35.443  16.360  1.00  0.00     0.167 HD
ENDROOT
BRANCH   1   5
ATOM      5  C   UNL     1      30.475  33.674  16.387  1.00  0.00     0.154 C 
BRANCH   5   6
ATOM      6  C   UNL     1      29.490  32.750  17.053  1.00  0.00     0.165 C 
BRANCH   6   7
ATOM      7  C   UNL     1      30.059  31.419  17.427  1.00  0.00     0.176 C 
BRANCH   7   8
ATOM      8  C   UNL     1      29.618  31.031  18.851  1.00  0.00     0.178 C 
ATOM      9  C   UNL     1      30.558  30.268  20.820  1.00  0.00     0.269 C 
ATOM     10  C   UNL     1      29.949  28.878  20.703  1.00  0.00     0.112 C 
ATOM     11  O   UNL     1      30.770  30.717  19.539  1.00  0.00    -0.332 OA
ATOM     12  C   UNL     1      28.683  28.931  19.911  1.00  0.00     0.145 C 
ATOM     13  C   UNL     1      28.752  29.832  18.709  1.00  0.00     0.142 C 
BRANCH   9  14
ATOM     14  O   UNL     1      31.839  30.031  21.396  1.00  0.00    -0.357 OA
ATOM     15  H   UNL     1      31.745  30.127  22.395  1.00  0.00     0.214 HD
ENDBRANCH   9  14
BRANCH   9  16
ATOM     16  C   UNL     1      29.773  31.141  21.697  1.00  0.00     0.364 C 
ATOM     17  O   UNL     1      30.150  32.351  21.860  1.00  0.00    -0.246 OA
BRANCH  16  18
ATOM     18  O   UNL     1      28.632  30.797  22.394  1.00  0.00    -0.477 OA
ATOM     19  H   UNL     1      28.666  29.950  22.944  1.00  0.00     0.296 HD
ENDBRANCH  16  18
ENDBRANCH   9  16
BRANCH  12  20
ATOM     20  O   UNL     1      28.453  27.620  19.427  1.00  0.00    -0.391 OA
ATOM     21  H   UNL     1      27.961  27.153  20.145  1.00  0.00     0.211 HD
ENDBRANCH  12  20
BRANCH  13  22
ATOM     22  N   UNL     1      27.408  30.142  18.266  1.00  0.00    -0.348 N 
ATOM     23  C   UNL     1      26.786  29.440  17.203  1.00  0.00     0.217 C 
ATOM     24  H   UNL     1      26.854  30.899  18.721  1.00  0.00     0.163 HD
ATOM     25  C   UNL     1      25.387  29.780  16.758  1.00  0.00     0.114 C 
ATOM     26  O   UNL     1      27.419  28.529  16.637  1.00  0.00    -0.275 OA
ENDBRANCH  13  22
ENDBRANCH   7   8
BRANCH   7  27
ATOM     27  O   UNL     1      29.813  30.410  16.529  1.00  0.00    -0.388 OA
ATOM     28  H   UNL     1      29.070  30.669  15.924  1.00  0.00     0.211 HD
ENDBRANCH   7  27
ENDBRANCH   6   7
BRANCH   6  29
ATOM     29  O   UNL     1      28.329  32.572  16.289  1.00  0.00    -0.388 OA
ATOM     30  H   UNL     1      28.480  32.951  15.377  1.00  0.00     0.211 HD
ENDBRANCH   6  29
ENDBRANCH   5   6
ENDBRANCH   1   5
BRANCH   2  31
ATOM     31  O   UNL     1      29.086  36.086  13.812  1.00  0.00    -0.443 OA
BRANCH  31  32
ATOM     32  C   UNL     1      27.770  36.446  14.155  1.00  0.00     0.294 C 
BRANCH  32  33
ATOM     33  C   UNL     1      26.809  35.692  13.323  1.00  0.00     0.120 A 
ATOM     34  C   UNL     1      26.098  36.209  12.240  1.00  0.00     0.138 A 
ATOM     35  N   UNL     1      26.408  34.408  13.407  1.00  0.00    -0.132 NA
ATOM     36  N   UNL     1      25.322  35.244  11.732  1.00  0.00    -0.248 N 
ATOM     37  N   UNL     1      25.526  34.168  12.453  1.00  0.00    -0.067 NA
BRANCH  36  38
ATOM     38  C   UNL     1      24.405  35.371  10.589  1.00  0.00     0.181 C 
BRANCH  38  39
ATOM     39  C   UNL     1      25.283  35.628   9.403  1.00  0.00    -0.026 A 
ATOM     40  C   UNL     1      26.190  34.679   9.022  1.00  0.00     0.006 A 
ATOM     41  C   UNL     1      25.205  36.796   8.687  1.00  0.00     0.006 A 
ATOM     42  C   UNL     1      27.028  34.890   7.922  1.00  0.00     0.016 A 
ATOM     43  C   UNL     1      26.037  37.007   7.593  1.00  0.00     0.016 A 
ATOM     44  C   UNL     1      26.958  36.056   7.199  1.00  0.00     0.059 A 
BRANCH  44  45
ATOM     45  C   UNL     1      27.823  36.287   6.050  1.00  0.00     0.335 C 
ATOM     46  O   UNL     1      28.940  35.742   5.918  1.00  0.00    -0.246 OA
BRANCH  45  47
ATOM     47  O   UNL     1      27.401  37.150   5.045  1.00  0.00    -0.478 OA
ATOM     48  H   UNL     1      27.684  38.114   5.029  1.00  0.00     0.297 HD
ENDBRANCH  45  47
ENDBRANCH  44  45
ENDBRANCH  38  39
ENDBRANCH  36  38
ENDBRANCH  32  33
ENDBRANCH  31  32
ENDBRANCH   2  31
TORSDOF 18
BEGIN_RES LYS A 131
REMARK  4 active torsions:
REMARK  status: ('A' for Active; 'I' for Inactive)
REMARK    1  A    between atoms: CA   and  CB  
REMARK    2  A    between atoms: CB   and  CG  
REMARK    3  A    between atoms: CG   and  CD  
REMARK    4  A    between atoms: CD   and  CE  
ROOT
ATOM      1  CA  LYS A 131      29.867  25.555  16.977  1.00 20.52     0.186 C 
ENDROOT
BRANCH   1   2
ATOM      2  CB  LYS A 131      28.345  25.722  17.026  1.00 20.94     0.034 C 
BRANCH   2   3
ATOM      3  CG  LYS A 131      27.600  24.407  16.855  1.00 22.96     0.005 C 
BRANCH   3   4
ATOM      4  CD  LYS A 131      26.694  24.114  18.018  1.00 24.33     0.041 C 
BRANCH   4   5
ATOM      5  CE  LYS A 131      25.931  25.378  18.400  1.00 26.91     0.338 C 
ATOM      6  NZ  LYS A 131      24.738  25.545  17.536  1.00 27.40     0.618 N 
ENDBRANCH   4   5
ENDBRANCH   3   4
ENDBRANCH   2   3
ENDBRANCH   1   2
END_RES LYS A 131
BEGIN_RES LYS A 135
REMARK  4 active torsions:
REMARK  status: ('A' for Active; 'I' for Inactive)
REMARK    5  A    between atoms: CA   and  CB  
REMARK    6  A    between atoms: CB   and  CG  
REMARK    7  A    between atoms: CG   and  CD  
REMARK    8  A    between atoms: CD   and  CE  
ROOT
ATOM      7  CA  LYS A 135      33.193  34.663   9.290  1.00 25.02     0.186 C 
ENDROOT
BRANCH   7   8
ATOM      8  CB  LYS A 135      32.060  35.360  10.034  1.00 26.63     0.034 C 
BRANCH   8   9
ATOM      9  CG  LYS A 135      30.738  35.296   9.314  1.00 29.45     0.005 C 
BRANCH   9  10
ATOM     10  CD  LYS A 135      30.225  36.695   9.008  1.00 32.00     0.041 C 
BRANCH  10  11
ATOM     11  CE  LYS A 135      29.159  37.102  10.006  1.00 34.25     0.338 C 
ATOM     12  NZ  LYS A 135      29.726  37.974  11.072  1.00 35.99     0.618 N 
ENDBRANCH  10  11
ENDBRANCH   9  10
ENDBRANCH   8   9
ENDBRANCH   7   8
END_RES LYS A 135
