REMARK VINA RESULT:    -4.600      3.400      7.261
REMARK INTER + INTRA:         -16.612
REMARK INTER:                  -9.440
REMARK INTRA:                  -7.171
REMARK UNBOUND:                -7.171
REMARK SMILES CCOCCc1c(-c2ccccc2)nc(N)nc1-n1cc(COC(=O)NC[C@@H](O)C(O)[C@@H]2O[C@@](O)(C(=O)O)C[C@H](O)[C@H]2NC(C)=O)nn1
REMARK SMILES IDX 23 1 24 2 26 3 25 5 27 6 28 7 30 8 32 9 34 10 39 11 33 12
REMARK SMILES IDX 40 13 42 14 35 15 36 17 37 18 38 19 41 21 43 23 44 24 45 26
REMARK SMILES IDX 46 27 31 28 29 30 22 32 21 33 20 34 47 35 19 36 48 37 18 38
REMARK SMILES IDX 17 39 6 40 15 41 7 42 14 43 5 44 4 45 3 46 2 47 1 48 16 49
REMARK SMILES IDX 8 52 9 53 13 54 10 55 12 56 11 57
REMARK H PARENT 26 4 35 16 38 20 41 22 43 25 31 29 29 31 16 50 16 51
REMARK Flexibility Score: inf
ROOT
ATOM      1  O   UNL     1      19.988  39.238  10.568  1.00  0.00    -0.443 OA
ENDROOT
BRANCH   1   2
ATOM      2  C   UNL     1      20.650  39.360   9.366  1.00  0.00     0.407 C 
ATOM      3  N   UNL     1      22.091  39.387   9.294  1.00  0.00    -0.319 N 
ATOM      4  H   UNL     1      22.570  39.311  10.214  1.00  0.00     0.167 HD
ATOM      5  O   UNL     1      19.963  39.448   8.318  1.00  0.00    -0.225 OA
BRANCH   3   6
ATOM      6  C   UNL     1      22.733  39.516   8.007  1.00  0.00     0.154 C 
BRANCH   6   7
ATOM      7  C   UNL     1      23.646  38.312   7.822  1.00  0.00     0.165 C 
BRANCH   7   8
ATOM      8  C   UNL     1      25.034  38.858   7.587  1.00  0.00     0.176 C 
BRANCH   8   9
ATOM      9  C   UNL     1      26.056  38.443   8.600  1.00  0.00     0.178 C 
ATOM     10  C   UNL     1      27.404  37.262   7.091  1.00  0.00     0.269 C 
ATOM     11  C   UNL     1      26.707  36.002   7.578  1.00  0.00     0.112 C 
ATOM     12  O   UNL     1      27.262  38.311   7.952  1.00  0.00    -0.332 OA
ATOM     13  C   UNL     1      26.581  36.084   9.085  1.00  0.00     0.145 C 
ATOM     14  C   UNL     1      25.703  37.292   9.468  1.00  0.00     0.142 C 
BRANCH  10  15
ATOM     15  O   UNL     1      26.876  37.519   5.820  1.00  0.00    -0.357 OA
ATOM     16  H   UNL     1      27.422  38.159   5.313  1.00  0.00     0.214 HD
ENDBRANCH  10  15
BRANCH  10  17
ATOM     17  C   UNL     1      28.852  37.019   6.922  1.00  0.00     0.364 C 
ATOM     18  O   UNL     1      29.664  37.899   7.263  1.00  0.00    -0.246 OA
BRANCH  17  19
ATOM     19  O   UNL     1      29.299  35.836   6.394  1.00  0.00    -0.477 OA
ATOM     20  H   UNL     1      30.001  35.755   5.670  1.00  0.00     0.296 HD
ENDBRANCH  17  19
ENDBRANCH  10  17
BRANCH  13  21
ATOM     21  O   UNL     1      26.078  34.915   9.606  1.00  0.00    -0.391 OA
ATOM     22  H   UNL     1      25.479  34.465   8.972  1.00  0.00     0.211 HD
ENDBRANCH  13  21
BRANCH  14  23
ATOM     23  N   UNL     1      26.017  37.536  10.882  1.00  0.00    -0.348 N 
ATOM     24  C   UNL     1      25.028  38.085  11.732  1.00  0.00     0.217 C 
ATOM     25  H   UNL     1      26.957  37.313  11.273  1.00  0.00     0.163 HD
ATOM     26  C   UNL     1      25.278  38.361  13.181  1.00  0.00     0.114 C 
ATOM     27  O   UNL     1      23.901  38.343  11.224  1.00  0.00    -0.275 OA
ENDBRANCH  14  23
ENDBRANCH   8   9
BRANCH   8  28
ATOM     28  O   UNL     1      24.863  40.263   7.814  1.00  0.00    -0.388 OA
ATOM     29  H   UNL     1      24.376  40.406   8.649  1.00  0.00     0.211 HD
ENDBRANCH   8  28
ENDBRANCH   7   8
BRANCH   7  30
ATOM     30  O   UNL     1      23.129  37.594   6.755  1.00  0.00    -0.388 OA
ATOM     31  H   UNL     1      22.572  38.151   6.170  1.00  0.00     0.211 HD
ENDBRANCH   7  30
ENDBRANCH   6   7
ENDBRANCH   3   6
ENDBRANCH   1   2
BRANCH   1  32
ATOM     32  C   UNL     1      19.358  38.069  11.044  1.00  0.00     0.294 C 
BRANCH  32  33
ATOM     33  C   UNL     1      20.285  36.902  10.896  1.00  0.00     0.121 A 
ATOM     34  C   UNL     1      21.132  36.369  11.834  1.00  0.00     0.146 A 
ATOM     35  N   UNL     1      20.460  36.150   9.788  1.00  0.00    -0.131 NA
ATOM     36  N   UNL     1      21.810  35.309  11.296  1.00  0.00    -0.202 N 
ATOM     37  N   UNL     1      21.360  35.222  10.051  1.00  0.00    -0.060 NA
BRANCH  36  38
ATOM     38  C   UNL     1      22.785  34.512  11.943  1.00  0.00     0.164 A 
ATOM     39  N   UNL     1      24.065  34.903  12.020  1.00  0.00    -0.193 NA
ATOM     40  C   UNL     1      22.442  33.272  12.497  1.00  0.00     0.026 A 
ATOM     41  C   UNL     1      25.008  34.130  12.616  1.00  0.00     0.222 A 
ATOM     42  C   UNL     1      23.390  32.491  13.094  1.00  0.00     0.081 A 
ATOM     43  N   UNL     1      24.695  32.943  13.147  1.00  0.00    -0.213 NA
BRANCH  40  44
ATOM     44  C   UNL     1      21.040  32.820  12.387  1.00  0.00     0.070 C 
BRANCH  44  45
ATOM     45  C   UNL     1      20.134  33.283  13.493  1.00  0.00     0.165 C 
BRANCH  45  46
ATOM     46  O   UNL     1      18.855  33.513  13.069  1.00  0.00    -0.381 OA
BRANCH  46  47
ATOM     47  C   UNL     1      18.681  33.402  11.709  1.00  0.00     0.156 C 
ATOM     48  C   UNL     1      17.634  34.368  11.196  1.00  0.00     0.035 C 
ENDBRANCH  46  47
ENDBRANCH  45  46
ENDBRANCH  44  45
ENDBRANCH  40  44
BRANCH  41  49
ATOM     49  N   UNL     1      26.346  34.583  12.675  1.00  0.00    -0.368 N 
ATOM     50  H   UNL     1      26.550  35.579  12.871  1.00  0.00     0.159 HD
ATOM     51  H   UNL     1      27.149  33.944  12.528  1.00  0.00     0.159 HD
ENDBRANCH  41  49
BRANCH  42  52
ATOM     52  C   UNL     1      23.120  31.153  13.583  1.00  0.00     0.001 A 
ATOM     53  C   UNL     1      22.599  30.778  14.766  1.00  0.00     0.010 A 
ATOM     54  C   UNL     1      23.430  30.113  12.678  1.00  0.00     0.010 A 
ATOM     55  C   UNL     1      22.381  29.420  15.067  1.00  0.00     0.001 A 
ATOM     56  C   UNL     1      23.223  28.791  12.958  1.00  0.00     0.001 A 
ATOM     57  C   UNL     1      22.686  28.419  14.178  1.00  0.00     0.000 A 
ENDBRANCH  42  52
ENDBRANCH  36  38
ENDBRANCH  32  33
ENDBRANCH   1  32
TORSDOF 21
BEGIN_RES LYS A 131
REMARK  4 active torsions:
REMARK  status: ('A' for Active; 'I' for Inactive)
REMARK    1  A    between atoms: CA   and  CB  
REMARK    2  A    between atoms: CB   and  CG  
REMARK    3  A    between atoms: CG   and  CD  
REMARK    4  A    between atoms: CD   and  CE  
ROOT
ATOM      1  CA  LYS A 131      29.867  25.555  16.977  1.00 20.52     0.186 C 
ENDROOT
BRANCH   1   2
ATOM      2  CB  LYS A 131      28.345  25.722  17.026  1.00 20.94     0.034 C 
BRANCH   2   3
ATOM      3  CG  LYS A 131      27.599  24.423  16.764  1.00 22.96     0.005 C 
BRANCH   3   4
ATOM      4  CD  LYS A 131      26.896  23.915  17.992  1.00 24.33     0.041 C 
BRANCH   4   5
ATOM      5  CE  LYS A 131      25.598  23.223  17.586  1.00 26.91     0.338 C 
ATOM      6  NZ  LYS A 131      24.692  24.178  16.906  1.00 27.40     0.618 N 
ENDBRANCH   4   5
ENDBRANCH   3   4
ENDBRANCH   2   3
ENDBRANCH   1   2
END_RES LYS A 131
BEGIN_RES LYS A 135
REMARK  4 active torsions:
REMARK  status: ('A' for Active; 'I' for Inactive)
REMARK    5  A    between atoms: CA   and  CB  
REMARK    6  A    between atoms: CB   and  CG  
REMARK    7  A    between atoms: CG   and  CD  
REMARK    8  A    between atoms: CD   and  CE  
ROOT
ATOM      7  CA  LYS A 135      33.193  34.663   9.290  1.00 25.02     0.186 C 
ENDROOT
BRANCH   7   8
ATOM      8  CB  LYS A 135      32.060  35.360  10.034  1.00 26.63     0.034 C 
BRANCH   8   9
ATOM      9  CG  LYS A 135      30.690  34.878   9.633  1.00 29.45     0.005 C 
BRANCH   9  10
ATOM     10  CD  LYS A 135      29.763  34.833  10.839  1.00 32.00     0.041 C 
BRANCH  10  11
ATOM     11  CE  LYS A 135      30.563  34.865  12.127  1.00 34.25     0.338 C 
ATOM     12  NZ  LYS A 135      29.774  34.310  13.262  1.00 35.99     0.618 N 
ENDBRANCH  10  11
ENDBRANCH   9  10
ENDBRANCH   8   9
ENDBRANCH   7   8
END_RES LYS A 135
