REMARK VINA RESULT:    -4.549      2.246      4.381
REMARK INTER + INTRA:         -15.459
REMARK INTER:                  -9.349
REMARK INTRA:                  -6.110
REMARK UNBOUND:                -6.788
REMARK SMILES CC(=O)N[C@@H]1[C@@H](O)C[C@](O)(C(=O)O)O[C@H]1C(O)[C@H](O)CNC(=O)OCc1cn(CC(=O)NCc2cccs2)nn1
REMARK SMILES IDX 21 1 22 2 23 3 20 5 18 6 16 7 15 8 9 9 8 10 14 11 6 12 5 13
REMARK SMILES IDX 10 14 11 16 12 17 13 18 7 20 4 22 2 23 1 25 3 26 17 27 19 29
REMARK SMILES IDX 24 31 25 32 26 33 27 34 40 35 28 36 39 37 29 38 30 39 31 40
REMARK SMILES IDX 32 41 33 43 34 44 35 45 38 46 36 47 37 48
REMARK H PARENT 21 4 10 15 13 19 7 21 4 24 17 28 19 30 32 42
REMARK Flexibility Score: inf
ROOT
ATOM      1  N   UNL     1      24.524  36.244  13.226  1.00  0.00    -0.319 N 
ATOM      2  C   UNL     1      25.423  35.645  14.134  1.00  0.00     0.407 C 
ATOM      3  O   UNL     1      25.094  34.562  14.675  1.00  0.00    -0.225 OA
ATOM      4  H   UNL     1      24.818  37.145  12.789  1.00  0.00     0.167 HD
ENDROOT
BRANCH   1   5
ATOM      5  C   UNL     1      23.231  35.704  12.857  1.00  0.00     0.154 C 
BRANCH   5   6
ATOM      6  C   UNL     1      23.341  34.830  11.640  1.00  0.00     0.165 C 
BRANCH   6   7
ATOM      7  C   UNL     1      24.044  35.455  10.483  1.00  0.00     0.176 C 
BRANCH   7   8
ATOM      8  C   UNL     1      23.337  36.514   9.726  1.00  0.00     0.178 C 
ATOM      9  C   UNL     1      21.509  36.652   8.272  1.00  0.00     0.269 C 
ATOM     10  C   UNL     1      21.729  38.129   8.545  1.00  0.00     0.112 C 
ATOM     11  O   UNL     1      22.295  35.827   9.019  1.00  0.00    -0.332 OA
ATOM     12  C   UNL     1      23.158  38.440   8.265  1.00  0.00     0.145 C 
ATOM     13  C   UNL     1      24.064  37.266   8.686  1.00  0.00     0.142 C 
BRANCH   9  14
ATOM     14  O   UNL     1      21.724  36.495   6.889  1.00  0.00    -0.357 OA
ATOM     15  H   UNL     1      22.361  35.740   6.754  1.00  0.00     0.214 HD
ENDBRANCH   9  14
BRANCH   9  16
ATOM     16  C   UNL     1      20.095  36.283   8.541  1.00  0.00     0.364 C 
ATOM     17  O   UNL     1      19.194  36.782   7.835  1.00  0.00    -0.246 OA
BRANCH  16  18
ATOM     18  O   UNL     1      19.743  35.397   9.555  1.00  0.00    -0.477 OA
ATOM     19  H   UNL     1      19.053  34.686   9.310  1.00  0.00     0.296 HD
ENDBRANCH  16  18
ENDBRANCH   9  16
BRANCH  12  20
ATOM     20  O   UNL     1      23.408  38.808   6.961  1.00  0.00    -0.391 OA
ATOM     21  H   UNL     1      22.614  39.231   6.548  1.00  0.00     0.211 HD
ENDBRANCH  12  20
BRANCH  13  22
ATOM     22  N   UNL     1      25.314  37.848   9.004  1.00  0.00    -0.348 N 
ATOM     23  C   UNL     1      26.377  37.802   8.078  1.00  0.00     0.217 C 
ATOM     24  H   UNL     1      25.483  38.315   9.905  1.00  0.00     0.163 HD
ATOM     25  C   UNL     1      27.716  38.401   8.368  1.00  0.00     0.114 C 
ATOM     26  O   UNL     1      26.264  37.245   6.934  1.00  0.00    -0.275 OA
ENDBRANCH  13  22
ENDBRANCH   7   8
BRANCH   7  27
ATOM     27  O   UNL     1      25.412  35.622  10.641  1.00  0.00    -0.388 OA
ATOM     28  H   UNL     1      25.768  35.278  11.469  1.00  0.00     0.211 HD
ENDBRANCH   7  27
ENDBRANCH   6   7
BRANCH   6  29
ATOM     29  O   UNL     1      22.160  34.189  11.287  1.00  0.00    -0.388 OA
ATOM     30  H   UNL     1      22.077  34.033  10.318  1.00  0.00     0.211 HD
ENDBRANCH   6  29
ENDBRANCH   5   6
ENDBRANCH   1   5
BRANCH   2  31
ATOM     31  O   UNL     1      26.665  36.214  14.449  1.00  0.00    -0.443 OA
BRANCH  31  32
ATOM     32  C   UNL     1      27.479  36.775  13.436  1.00  0.00     0.294 C 
BRANCH  32  33
ATOM     33  C   UNL     1      28.722  35.960  13.340  1.00  0.00     0.120 A 
ATOM     34  C   UNL     1      29.750  35.861  14.255  1.00  0.00     0.138 A 
ATOM     35  N   UNL     1      29.089  35.155  12.330  1.00  0.00    -0.132 NA
ATOM     36  N   UNL     1      30.681  35.021  13.781  1.00  0.00    -0.243 N 
ATOM     37  N   UNL     1      30.255  34.605  12.608  1.00  0.00    -0.067 NA
BRANCH  36  38
ATOM     38  C   UNL     1      31.923  34.662  14.486  1.00  0.00     0.245 C 
BRANCH  38  39
ATOM     39  C   UNL     1      31.582  33.552  15.406  1.00  0.00     0.242 C 
ATOM     40  O   UNL     1      31.889  33.672  16.639  1.00  0.00    -0.273 OA
ATOM     41  N   UNL     1      30.935  32.352  15.031  1.00  0.00    -0.350 N 
ATOM     42  H   UNL     1      30.687  32.255  14.030  1.00  0.00     0.163 HD
BRANCH  41  43
ATOM     43  C   UNL     1      30.620  31.295  15.965  1.00  0.00     0.162 C 
BRANCH  43  44
ATOM     44  C   UNL     1      29.110  31.160  15.967  1.00  0.00     0.024 A 
ATOM     45  C   UNL     1      28.355  30.070  16.037  1.00  0.00     0.017 A 
ATOM     46  S   UNL     1      27.973  32.465  15.872  1.00  0.00    -0.147 S 
ATOM     47  C   UNL     1      27.009  30.163  16.024  1.00  0.00     0.012 A 
ATOM     48  C   UNL     1      26.490  31.463  15.933  1.00  0.00     0.065 A 
ENDBRANCH  43  44
ENDBRANCH  41  43
ENDBRANCH  38  39
ENDBRANCH  36  38
ENDBRANCH  32  33
ENDBRANCH  31  32
ENDBRANCH   2  31
TORSDOF 18
BEGIN_RES LYS A 131
REMARK  4 active torsions:
REMARK  status: ('A' for Active; 'I' for Inactive)
REMARK    1  A    between atoms: CA   and  CB  
REMARK    2  A    between atoms: CB   and  CG  
REMARK    3  A    between atoms: CG   and  CD  
REMARK    4  A    between atoms: CD   and  CE  
ROOT
ATOM      1  CA  LYS A 131      29.867  25.555  16.977  1.00 20.52     0.186 C 
ENDROOT
BRANCH   1   2
ATOM      2  CB  LYS A 131      28.345  25.722  17.026  1.00 20.94     0.034 C 
BRANCH   2   3
ATOM      3  CG  LYS A 131      27.599  24.430  16.731  1.00 22.96     0.005 C 
BRANCH   3   4
ATOM      4  CD  LYS A 131      26.947  23.859  17.959  1.00 24.33     0.041 C 
BRANCH   4   5
ATOM      5  CE  LYS A 131      25.584  23.281  17.591  1.00 26.91     0.338 C 
ATOM      6  NZ  LYS A 131      24.740  24.315  16.946  1.00 27.40     0.618 N 
ENDBRANCH   4   5
ENDBRANCH   3   4
ENDBRANCH   2   3
ENDBRANCH   1   2
END_RES LYS A 131
BEGIN_RES LYS A 135
REMARK  4 active torsions:
REMARK  status: ('A' for Active; 'I' for Inactive)
REMARK    5  A    between atoms: CA   and  CB  
REMARK    6  A    between atoms: CB   and  CG  
REMARK    7  A    between atoms: CG   and  CD  
REMARK    8  A    between atoms: CD   and  CE  
ROOT
ATOM      7  CA  LYS A 135      33.193  34.663   9.290  1.00 25.02     0.186 C 
ENDROOT
BRANCH   7   8
ATOM      8  CB  LYS A 135      32.060  35.360  10.034  1.00 26.63     0.034 C 
BRANCH   8   9
ATOM      9  CG  LYS A 135      30.847  35.619   9.178  1.00 29.45     0.005 C 
BRANCH   9  10
ATOM     10  CD  LYS A 135      30.084  34.327   8.925  1.00 32.00     0.041 C 
BRANCH  10  11
ATOM     11  CE  LYS A 135      28.791  34.609   8.183  1.00 34.25     0.338 C 
ATOM     12  NZ  LYS A 135      29.048  35.365   6.926  1.00 35.99     0.618 N 
ENDBRANCH  10  11
ENDBRANCH   9  10
ENDBRANCH   8   9
ENDBRANCH   7   8
END_RES LYS A 135
