REMARK VINA RESULT:    -5.230      5.585     10.273
REMARK INTER + INTRA:         -14.234
REMARK INTER:                  -9.498
REMARK INTRA:                  -4.736
REMARK UNBOUND:                -4.724
REMARK SMILES CC(=O)N[C@@H]1[C@@H](O)C[C@](O)(C(=O)O)O[C@H]1C(O)[C@H](O)CNC(=O)OCc1cn([C@@H](C)C(=O)O)nn1
REMARK SMILES IDX 21 1 22 2 23 3 20 5 18 6 16 7 15 8 9 9 8 10 14 11 6 12 5 13
REMARK SMILES IDX 10 14 11 16 12 17 13 18 7 20 4 22 2 23 1 25 3 26 17 27 19 29
REMARK SMILES IDX 24 31 25 32 26 33 27 34 35 35 28 36 34 37 29 38 30 39 31 40
REMARK SMILES IDX 32 41 33 42
REMARK H PARENT 21 4 10 15 13 19 7 21 4 24 17 28 19 30 33 43
REMARK Flexibility Score: inf
ROOT
ATOM      1  N   UNL     1      25.573  36.965   9.234  1.00  0.00    -0.319 N 
ATOM      2  C   UNL     1      26.824  37.614   9.340  1.00  0.00     0.407 C 
ATOM      3  O   UNL     1      27.324  38.248   8.377  1.00  0.00    -0.225 OA
ATOM      4  H   UNL     1      25.204  36.454  10.058  1.00  0.00     0.167 HD
ENDROOT
BRANCH   1   5
ATOM      5  C   UNL     1      24.802  36.992   8.025  1.00  0.00     0.154 C 
BRANCH   5   6
ATOM      6  C   UNL     1      23.699  38.055   8.046  1.00  0.00     0.165 C 
BRANCH   6   7
ATOM      7  C   UNL     1      22.406  37.355   7.811  1.00  0.00     0.176 C 
BRANCH   7   8
ATOM      8  C   UNL     1      22.136  36.152   8.650  1.00  0.00     0.178 C 
ATOM      9  C   UNL     1      19.912  35.781   8.042  1.00  0.00     0.269 C 
ATOM     10  C   UNL     1      19.555  36.797   9.052  1.00  0.00     0.112 C 
ATOM     11  O   UNL     1      21.216  35.369   7.969  1.00  0.00    -0.332 OA
ATOM     12  C   UNL     1      20.380  36.852  10.289  1.00  0.00     0.145 C 
ATOM     13  C   UNL     1      21.787  36.371  10.072  1.00  0.00     0.142 C 
BRANCH   9  14
ATOM     14  O   UNL     1      19.638  36.369   6.778  1.00  0.00    -0.357 OA
ATOM     15  H   UNL     1      20.154  37.201   6.732  1.00  0.00     0.214 HD
ENDBRANCH   9  14
BRANCH   9  16
ATOM     16  C   UNL     1      18.989  34.620   8.162  1.00  0.00     0.364 C 
ATOM     17  O   UNL     1      18.731  34.085   9.274  1.00  0.00    -0.246 OA
BRANCH  16  18
ATOM     18  O   UNL     1      18.374  34.083   7.044  1.00  0.00    -0.477 OA
ATOM     19  H   UNL     1      17.864  34.637   6.365  1.00  0.00     0.296 HD
ENDBRANCH  16  18
ENDBRANCH   9  16
BRANCH  12  20
ATOM     20  O   UNL     1      20.355  38.182  10.750  1.00  0.00    -0.391 OA
ATOM     21  H   UNL     1      19.413  38.474  10.686  1.00  0.00     0.211 HD
ENDBRANCH  12  20
BRANCH  13  22
ATOM     22  N   UNL     1      21.937  35.062  10.741  1.00  0.00    -0.348 N 
ATOM     23  C   UNL     1      23.046  34.788  11.571  1.00  0.00     0.217 C 
ATOM     24  H   UNL     1      21.241  34.303  10.626  1.00  0.00     0.163 HD
ATOM     25  C   UNL     1      23.238  33.497  12.258  1.00  0.00     0.114 C 
ATOM     26  O   UNL     1      23.938  35.682  11.752  1.00  0.00    -0.275 OA
ENDBRANCH  13  22
ENDBRANCH   7   8
BRANCH   7  27
ATOM     27  O   UNL     1      22.501  36.846   6.475  1.00  0.00    -0.388 OA
ATOM     28  H   UNL     1      21.627  36.406   6.321  1.00  0.00     0.211 HD
ENDBRANCH   7  27
ENDBRANCH   6   7
BRANCH   6  29
ATOM     29  O   UNL     1      24.014  38.923   7.008  1.00  0.00    -0.388 OA
ATOM     30  H   UNL     1      24.952  39.212   7.142  1.00  0.00     0.211 HD
ENDBRANCH   6  29
ENDBRANCH   5   6
ENDBRANCH   1   5
BRANCH   2  31
ATOM     31  O   UNL     1      27.561  37.574  10.540  1.00  0.00    -0.443 OA
BRANCH  31  32
ATOM     32  C   UNL     1      27.326  36.558  11.498  1.00  0.00     0.294 C 
BRANCH  32  33
ATOM     33  C   UNL     1      28.599  36.066  12.082  1.00  0.00     0.120 A 
ATOM     34  C   UNL     1      29.639  36.856  12.578  1.00  0.00     0.139 A 
ATOM     35  N   UNL     1      29.023  34.796  12.261  1.00  0.00    -0.132 NA
ATOM     36  N   UNL     1      30.615  36.059  13.020  1.00  0.00    -0.238 N 
ATOM     37  N   UNL     1      30.238  34.820  12.827  1.00  0.00    -0.066 NA
BRANCH  36  38
ATOM     38  C   UNL     1      31.888  36.474  13.619  1.00  0.00     0.215 C 
ATOM     39  C   UNL     1      31.641  37.049  15.004  1.00  0.00     0.046 C 
BRANCH  38  40
ATOM     40  C   UNL     1      32.847  35.373  13.685  1.00  0.00     0.328 C 
ATOM     41  O   UNL     1      33.178  34.897  14.794  1.00  0.00    -0.250 OA
BRANCH  40  42
ATOM     42  O   UNL     1      33.441  34.795  12.564  1.00  0.00    -0.480 OA
ATOM     43  H   UNL     1      33.552  35.318  11.702  1.00  0.00     0.296 HD
ENDBRANCH  40  42
ENDBRANCH  38  40
ENDBRANCH  36  38
ENDBRANCH  32  33
ENDBRANCH  31  32
ENDBRANCH   2  31
TORSDOF 17
BEGIN_RES LYS A 131
REMARK  4 active torsions:
REMARK  status: ('A' for Active; 'I' for Inactive)
REMARK    1  A    between atoms: CA   and  CB  
REMARK    2  A    between atoms: CB   and  CG  
REMARK    3  A    between atoms: CG   and  CD  
REMARK    4  A    between atoms: CD   and  CE  
ROOT
ATOM      1  CA  LYS A 131      29.867  25.555  16.977  1.00 20.52     0.186 C 
ENDROOT
BRANCH   1   2
ATOM      2  CB  LYS A 131      28.345  25.722  17.026  1.00 20.94     0.034 C 
BRANCH   2   3
ATOM      3  CG  LYS A 131      27.602  24.400  16.916  1.00 22.96     0.005 C 
BRANCH   3   4
ATOM      4  CD  LYS A 131      26.640  24.194  18.053  1.00 24.33     0.041 C 
BRANCH   4   5
ATOM      5  CE  LYS A 131      25.902  25.498  18.338  1.00 26.91     0.338 C 
ATOM      6  NZ  LYS A 131      25.906  25.790  19.791  1.00 27.40     0.618 N 
ENDBRANCH   4   5
ENDBRANCH   3   4
ENDBRANCH   2   3
ENDBRANCH   1   2
END_RES LYS A 131
BEGIN_RES LYS A 135
REMARK  4 active torsions:
REMARK  status: ('A' for Active; 'I' for Inactive)
REMARK    5  A    between atoms: CA   and  CB  
REMARK    6  A    between atoms: CB   and  CG  
REMARK    7  A    between atoms: CG   and  CD  
REMARK    8  A    between atoms: CD   and  CE  
ROOT
ATOM      7  CA  LYS A 135      33.193  34.663   9.290  1.00 25.02     0.186 C 
ENDROOT
BRANCH   7   8
ATOM      8  CB  LYS A 135      32.060  35.360  10.034  1.00 26.63     0.034 C 
BRANCH   8   9
ATOM      9  CG  LYS A 135      30.834  35.588   9.188  1.00 29.45     0.005 C 
BRANCH   9  10
ATOM     10  CD  LYS A 135      30.158  34.267   8.855  1.00 32.00     0.041 C 
BRANCH  10  11
ATOM     11  CE  LYS A 135      28.707  34.493   8.475  1.00 34.25     0.338 C 
ATOM     12  NZ  LYS A 135      28.599  35.264   7.205  1.00 35.99     0.618 N 
ENDBRANCH  10  11
ENDBRANCH   9  10
ENDBRANCH   8   9
ENDBRANCH   7   8
END_RES LYS A 135
