REMARK VINA RESULT:    -4.368      2.992      5.878
REMARK INTER + INTRA:         -13.845
REMARK INTER:                  -8.621
REMARK INTRA:                  -5.224
REMARK UNBOUND:                -6.285
REMARK SMILES CC(=O)N[C@@H]1[C@@H](O)C[C@](O)(C(=O)O)O[C@H]1C(O)[C@H](O)CNC(=O)OCc1cn(-c2ccccc2I)nn1
REMARK SMILES IDX 20 1 18 2 16 3 15 4 9 5 8 6 14 7 6 8 5 9 10 10 11 12 12 13
REMARK SMILES IDX 13 14 7 16 4 18 2 19 1 21 3 22 17 23 19 25 21 27 22 28 23 30
REMARK SMILES IDX 24 31 25 32 26 33 27 34 37 35 28 36 36 37 29 38 30 39 34 40
REMARK SMILES IDX 31 41 33 42 35 43 32 44
REMARK H PARENT 10 11 13 15 7 17 4 20 17 24 19 26 21 29
REMARK Flexibility Score: inf
ROOT
ATOM      1  C   UNL     1      26.575  33.116  16.501  1.00  0.00     0.154 C 
ENDROOT
BRANCH   1   2
ATOM      2  C   UNL     1      28.068  33.000  16.298  1.00  0.00     0.165 C 
BRANCH   2   3
ATOM      3  C   UNL     1      28.584  34.143  15.497  1.00  0.00     0.176 C 
BRANCH   3   4
ATOM      4  C   UNL     1      29.918  34.697  15.924  1.00  0.00     0.178 C 
ATOM      5  C   UNL     1      31.390  34.926  14.098  1.00  0.00     0.269 C 
ATOM      6  C   UNL     1      32.448  34.111  14.814  1.00  0.00     0.112 C 
ATOM      7  O   UNL     1      30.412  35.414  14.886  1.00  0.00    -0.332 OA
ATOM      8  C   UNL     1      31.725  33.062  15.618  1.00  0.00     0.145 C 
ATOM      9  C   UNL     1      30.836  33.767  16.611  1.00  0.00     0.142 C 
BRANCH   5  10
ATOM     10  O   UNL     1      30.819  34.063  13.163  1.00  0.00    -0.357 OA
ATOM     11  H   UNL     1      31.184  33.148  13.360  1.00  0.00     0.214 HD
ENDBRANCH   5  10
BRANCH   5  12
ATOM     12  C   UNL     1      32.111  35.991  13.333  1.00  0.00     0.364 C 
ATOM     13  O   UNL     1      31.915  37.213  13.512  1.00  0.00    -0.246 OA
BRANCH  12  14
ATOM     14  O   UNL     1      33.032  35.603  12.385  1.00  0.00    -0.477 OA
ATOM     15  H   UNL     1      33.441  34.667  12.357  1.00  0.00     0.296 HD
ENDBRANCH  12  14
ENDBRANCH   5  12
BRANCH   8  16
ATOM     16  O   UNL     1      31.009  32.282  14.708  1.00  0.00    -0.391 OA
ATOM     17  H   UNL     1      30.101  32.636  14.545  1.00  0.00     0.211 HD
ENDBRANCH   8  16
BRANCH   9  18
ATOM     18  N   UNL     1      31.731  34.515  17.513  1.00  0.00    -0.348 N 
ATOM     19  C   UNL     1      31.832  34.207  18.892  1.00  0.00     0.217 C 
ATOM     20  H   UNL     1      32.310  35.293  17.140  1.00  0.00     0.163 HD
ATOM     21  C   UNL     1      32.755  35.005  19.730  1.00  0.00     0.114 C 
ATOM     22  O   UNL     1      31.151  33.271  19.406  1.00  0.00    -0.275 OA
ENDBRANCH   9  18
ENDBRANCH   3   4
BRANCH   3  23
ATOM     23  O   UNL     1      28.468  33.940  14.129  1.00  0.00    -0.388 OA
ATOM     24  H   UNL     1      29.362  33.873  13.690  1.00  0.00     0.211 HD
ENDBRANCH   3  23
ENDBRANCH   2   3
BRANCH   2  25
ATOM     25  O   UNL     1      28.259  31.767  15.621  1.00  0.00    -0.388 OA
ATOM     26  H   UNL     1      27.969  31.871  14.673  1.00  0.00     0.211 HD
ENDBRANCH   2  25
ENDBRANCH   1   2
BRANCH   1  27
ATOM     27  N   UNL     1      25.860  33.568  15.330  1.00  0.00    -0.319 N 
ATOM     28  C   UNL     1      25.215  32.599  14.498  1.00  0.00     0.407 C 
ATOM     29  H   UNL     1      25.828  34.582  15.127  1.00  0.00     0.167 HD
ATOM     30  O   UNL     1      25.294  31.401  14.816  1.00  0.00    -0.225 OA
BRANCH  28  31
ATOM     31  O   UNL     1      24.536  33.059  13.382  1.00  0.00    -0.443 OA
BRANCH  31  32
ATOM     32  C   UNL     1      24.446  34.443  13.166  1.00  0.00     0.294 C 
BRANCH  32  33
ATOM     33  C   UNL     1      25.531  34.835  12.234  1.00  0.00     0.121 A 
ATOM     34  C   UNL     1      26.016  36.141  12.098  1.00  0.00     0.144 A 
ATOM     35  N   UNL     1      26.239  34.093  11.375  1.00  0.00    -0.131 NA
ATOM     36  N   UNL     1      26.975  36.070  11.169  1.00  0.00    -0.219 N 
ATOM     37  N   UNL     1      27.118  34.837  10.725  1.00  0.00    -0.062 NA
BRANCH  36  38
ATOM     38  C   UNL     1      27.743  37.170  10.714  1.00  0.00     0.080 A 
ATOM     39  C   UNL     1      28.860  37.562  11.450  1.00  0.00     0.029 A 
ATOM     40  C   UNL     1      27.374  37.819   9.568  1.00  0.00     0.039 A 
ATOM     41  C   UNL     1      29.614  38.631  11.014  1.00  0.00     0.002 A 
ATOM     42  C   UNL     1      28.143  38.890   9.148  1.00  0.00     0.017 A 
ATOM     43  I   UNL     1      25.695  37.265   8.424  1.00  0.00    -0.042 I 
ATOM     44  C   UNL     1      29.255  39.296   9.862  1.00  0.00     0.001 A 
ENDBRANCH  36  38
ENDBRANCH  32  33
ENDBRANCH  31  32
ENDBRANCH  28  31
ENDBRANCH   1  27
TORSDOF 15
BEGIN_RES LYS A 131
REMARK  4 active torsions:
REMARK  status: ('A' for Active; 'I' for Inactive)
REMARK    1  A    between atoms: CA   and  CB  
REMARK    2  A    between atoms: CB   and  CG  
REMARK    3  A    between atoms: CG   and  CD  
REMARK    4  A    between atoms: CD   and  CE  
ROOT
ATOM      1  CA  LYS A 131      29.867  25.555  16.977  1.00 20.52     0.186 C 
ENDROOT
BRANCH   1   2
ATOM      2  CB  LYS A 131      28.345  25.722  17.026  1.00 20.94     0.034 C 
BRANCH   2   3
ATOM      3  CG  LYS A 131      27.599  24.425  16.752  1.00 22.96     0.005 C 
BRANCH   3   4
ATOM      4  CD  LYS A 131      26.867  23.926  17.967  1.00 24.33     0.041 C 
BRANCH   4   5
ATOM      5  CE  LYS A 131      25.517  24.627  18.071  1.00 26.91     0.338 C 
ATOM      6  NZ  LYS A 131      24.713  24.389  16.849  1.00 27.40     0.618 N 
ENDBRANCH   4   5
ENDBRANCH   3   4
ENDBRANCH   2   3
ENDBRANCH   1   2
END_RES LYS A 131
BEGIN_RES LYS A 135
REMARK  4 active torsions:
REMARK  status: ('A' for Active; 'I' for Inactive)
REMARK    5  A    between atoms: CA   and  CB  
REMARK    6  A    between atoms: CB   and  CG  
REMARK    7  A    between atoms: CG   and  CD  
REMARK    8  A    between atoms: CD   and  CE  
ROOT
ATOM      7  CA  LYS A 135      33.193  34.663   9.290  1.00 25.02     0.186 C 
ENDROOT
BRANCH   7   8
ATOM      8  CB  LYS A 135      32.060  35.360  10.034  1.00 26.63     0.034 C 
BRANCH   8   9
ATOM      9  CG  LYS A 135      30.688  34.912   9.599  1.00 29.45     0.005 C 
BRANCH   9  10
ATOM     10  CD  LYS A 135      30.197  35.749   8.428  1.00 32.00     0.041 C 
BRANCH  10  11
ATOM     11  CE  LYS A 135      29.054  35.050   7.717  1.00 34.25     0.338 C 
ATOM     12  NZ  LYS A 135      28.842  35.617   6.356  1.00 35.99     0.618 N 
ENDBRANCH  10  11
ENDBRANCH   9  10
ENDBRANCH   8   9
ENDBRANCH   7   8
END_RES LYS A 135
