REMARK VINA RESULT:    -6.327      2.775      4.215
REMARK INTER + INTRA:         -15.529
REMARK INTER:                 -11.676
REMARK INTRA:                  -3.853
REMARK UNBOUND:                -4.578
REMARK SMILES CC(=O)N[C@@H]1[C@@H](O)C[C@](O)(C(=O)O)O[C@H]1C(O)[C@H](O)CNC(=O)OCc1cn(C2c3ccccc3-c3ccccc32)nn1
REMARK SMILES IDX 20 1 18 2 16 3 15 4 9 5 8 6 14 7 6 8 5 9 10 10 11 12 12 13
REMARK SMILES IDX 13 14 7 16 4 18 2 19 1 21 3 22 17 23 19 25 21 27 22 28 23 30
REMARK SMILES IDX 24 31 25 32 26 33 27 34 43 35 28 36 42 37 29 38 30 39 41 40
REMARK SMILES IDX 31 41 35 42 36 43 40 44 32 45 34 46 37 47 39 48 33 49 38 50
REMARK H PARENT 10 11 13 15 7 17 4 20 17 24 19 26 21 29
REMARK Flexibility Score: inf
ROOT
ATOM      1  C   UNL     1      30.541  31.947  16.038  1.00  0.00     0.154 C 
ENDROOT
BRANCH   1   2
ATOM      2  C   UNL     1      29.306  31.196  16.376  1.00  0.00     0.165 C 
BRANCH   2   3
ATOM      3  C   UNL     1      29.130  30.961  17.842  1.00  0.00     0.176 C 
BRANCH   3   4
ATOM      4  C   UNL     1      30.346  31.186  18.697  1.00  0.00     0.178 C 
ATOM      5  C   UNL     1      30.380  29.740  20.538  1.00  0.00     0.269 C 
ATOM      6  C   UNL     1      31.280  30.616  21.384  1.00  0.00     0.112 C 
ATOM      7  O   UNL     1      30.673  29.937  19.226  1.00  0.00    -0.332 OA
ATOM      8  C   UNL     1      31.223  32.009  20.873  1.00  0.00     0.145 C 
ATOM      9  C   UNL     1      30.162  32.215  19.779  1.00  0.00     0.142 C 
BRANCH   5  10
ATOM     10  O   UNL     1      29.092  29.972  20.939  1.00  0.00    -0.357 OA
ATOM     11  H   UNL     1      28.669  29.171  21.320  1.00  0.00     0.214 HD
ENDBRANCH   5  10
BRANCH   5  12
ATOM     12  C   UNL     1      30.749  28.330  20.871  1.00  0.00     0.364 C 
ATOM     13  O   UNL     1      31.716  28.112  21.636  1.00  0.00    -0.246 OA
BRANCH  12  14
ATOM     14  O   UNL     1      30.060  27.237  20.364  1.00  0.00    -0.477 OA
ATOM     15  H   UNL     1      30.555  26.357  20.161  1.00  0.00     0.296 HD
ENDBRANCH  12  14
ENDBRANCH   5  12
BRANCH   8  16
ATOM     16  O   UNL     1      30.985  32.960  21.852  1.00  0.00    -0.391 OA
ATOM     17  H   UNL     1      31.115  33.884  21.543  1.00  0.00     0.211 HD
ENDBRANCH   8  16
BRANCH   9  18
ATOM     18  N   UNL     1      30.452  33.532  19.258  1.00  0.00    -0.348 N 
ATOM     19  C   UNL     1      29.668  34.690  19.497  1.00  0.00     0.217 C 
ATOM     20  H   UNL     1      31.301  33.640  18.665  1.00  0.00     0.163 HD
ATOM     21  C   UNL     1      30.036  36.023  18.919  1.00  0.00     0.114 C 
ATOM     22  O   UNL     1      28.644  34.561  20.216  1.00  0.00    -0.275 OA
ENDBRANCH   9  18
ENDBRANCH   3   4
BRANCH   3  23
ATOM     23  O   UNL     1      28.016  31.580  18.398  1.00  0.00    -0.388 OA
ATOM     24  H   UNL     1      27.935  32.529  18.211  1.00  0.00     0.211 HD
ENDBRANCH   3  23
ENDBRANCH   2   3
BRANCH   2  25
ATOM     25  O   UNL     1      29.343  29.943  15.768  1.00  0.00    -0.388 OA
ATOM     26  H   UNL     1      28.494  29.463  15.825  1.00  0.00     0.211 HD
ENDBRANCH   2  25
ENDBRANCH   1   2
BRANCH   1  27
ATOM     27  N   UNL     1      30.372  33.317  15.728  1.00  0.00    -0.319 N 
ATOM     28  C   UNL     1      31.402  34.158  15.272  1.00  0.00     0.407 C 
ATOM     29  H   UNL     1      29.404  33.764  15.841  1.00  0.00     0.167 HD
ATOM     30  O   UNL     1      32.548  33.758  15.094  1.00  0.00    -0.225 OA
BRANCH  28  31
ATOM     31  O   UNL     1      31.164  35.516  14.995  1.00  0.00    -0.443 OA
BRANCH  31  32
ATOM     32  C   UNL     1      29.892  36.089  15.003  1.00  0.00     0.294 C 
BRANCH  32  33
ATOM     33  C   UNL     1      29.190  36.006  13.698  1.00  0.00     0.120 A 
ATOM     34  C   UNL     1      28.763  34.899  13.006  1.00  0.00     0.139 A 
ATOM     35  N   UNL     1      28.858  37.076  12.975  1.00  0.00    -0.132 NA
ATOM     36  N   UNL     1      28.189  35.336  11.891  1.00  0.00    -0.240 N 
ATOM     37  N   UNL     1      28.255  36.652  11.888  1.00  0.00    -0.066 NA
BRANCH  36  38
ATOM     38  C   UNL     1      27.584  34.536  10.837  1.00  0.00     0.170 C 
ATOM     39  C   UNL     1      28.272  34.720   9.547  1.00  0.00    -0.011 A 
ATOM     40  C   UNL     1      26.190  34.876  10.600  1.00  0.00    -0.011 A 
ATOM     41  C   UNL     1      29.622  34.533   9.205  1.00  0.00     0.007 A 
ATOM     42  C   UNL     1      27.343  35.136   8.636  1.00  0.00    -0.012 A 
ATOM     43  C   UNL     1      26.039  35.236   9.288  1.00  0.00    -0.012 A 
ATOM     44  C   UNL     1      25.051  34.898  11.430  1.00  0.00     0.007 A 
ATOM     45  C   UNL     1      30.003  34.781   7.910  1.00  0.00     0.000 A 
ATOM     46  C   UNL     1      27.769  35.378   7.330  1.00  0.00     0.009 A 
ATOM     47  C   UNL     1      24.812  35.621   8.736  1.00  0.00     0.009 A 
ATOM     48  C   UNL     1      23.839  35.272  10.911  1.00  0.00     0.000 A 
ATOM     49  C   UNL     1      29.086  35.203   6.968  1.00  0.00     0.001 A 
ATOM     50  C   UNL     1      23.724  35.630   9.578  1.00  0.00     0.001 A 
ENDBRANCH  36  38
ENDBRANCH  32  33
ENDBRANCH  31  32
ENDBRANCH  28  31
ENDBRANCH   1  27
TORSDOF 15
BEGIN_RES LYS A 131
REMARK  4 active torsions:
REMARK  status: ('A' for Active; 'I' for Inactive)
REMARK    1  A    between atoms: CA   and  CB  
REMARK    2  A    between atoms: CB   and  CG  
REMARK    3  A    between atoms: CG   and  CD  
REMARK    4  A    between atoms: CD   and  CE  
ROOT
ATOM      1  CA  LYS A 131      29.867  25.555  16.977  1.00 20.52     0.186 C 
ENDROOT
BRANCH   1   2
ATOM      2  CB  LYS A 131      28.345  25.722  17.026  1.00 20.94     0.034 C 
BRANCH   2   3
ATOM      3  CG  LYS A 131      27.601  24.402  16.892  1.00 22.96     0.005 C 
BRANCH   3   4
ATOM      4  CD  LYS A 131      26.189  24.494  17.398  1.00 24.33     0.041 C 
BRANCH   4   5
ATOM      5  CE  LYS A 131      26.146  25.399  18.625  1.00 26.91     0.338 C 
ATOM      6  NZ  LYS A 131      25.464  24.716  19.750  1.00 27.40     0.618 N 
ENDBRANCH   4   5
ENDBRANCH   3   4
ENDBRANCH   2   3
ENDBRANCH   1   2
END_RES LYS A 131
BEGIN_RES LYS A 135
REMARK  4 active torsions:
REMARK  status: ('A' for Active; 'I' for Inactive)
REMARK    5  A    between atoms: CA   and  CB  
REMARK    6  A    between atoms: CB   and  CG  
REMARK    7  A    between atoms: CG   and  CD  
REMARK    8  A    between atoms: CD   and  CE  
ROOT
ATOM      7  CA  LYS A 135      33.193  34.663   9.290  1.00 25.02     0.186 C 
ENDROOT
BRANCH   7   8
ATOM      8  CB  LYS A 135      32.060  35.360  10.034  1.00 26.63     0.034 C 
BRANCH   8   9
ATOM      9  CG  LYS A 135      32.341  35.570  11.499  1.00 29.45     0.005 C 
BRANCH   9  10
ATOM     10  CD  LYS A 135      32.249  37.046  11.857  1.00 32.00     0.041 C 
BRANCH  10  11
ATOM     11  CE  LYS A 135      31.674  37.839  10.700  1.00 34.25     0.338 C 
ATOM     12  NZ  LYS A 135      31.270  39.205  11.135  1.00 35.99     0.618 N 
ENDBRANCH  10  11
ENDBRANCH   9  10
ENDBRANCH   8   9
ENDBRANCH   7   8
END_RES LYS A 135
