REMARK VINA RESULT:    -4.792      2.527      6.007
REMARK INTER + INTRA:         -14.678
REMARK INTER:                  -9.061
REMARK INTRA:                  -5.617
REMARK UNBOUND:                -5.964
REMARK SMILES CC(=O)N[C@@H]1[C@@H](O)C[C@](O)(C(=O)O)O[C@H]1C(O)[C@H](O)CNC(=O)OCc1cn(-c2ccc(S(N)(=O)=O)cc2)nn1
REMARK SMILES IDX 21 1 22 2 23 3 20 5 18 6 16 7 15 8 9 9 8 10 14 11 6 12 5 13
REMARK SMILES IDX 10 14 11 16 12 17 13 18 7 20 4 22 2 23 1 25 3 26 17 27 19 29
REMARK SMILES IDX 24 31 25 32 26 33 27 34 40 35 28 36 39 37 29 38 30 39 38 40
REMARK SMILES IDX 31 41 37 42 32 43 33 44 35 45 36 46 34 47
REMARK H PARENT 21 4 10 15 13 19 7 21 4 24 17 28 19 30 34 48 34 49
REMARK Flexibility Score: inf
ROOT
ATOM      1  N   UNL     1      31.368  30.217  22.478  1.00  0.00    -0.319 N 
ATOM      2  C   UNL     1      30.627  31.125  23.248  1.00  0.00     0.407 C 
ATOM      3  O   UNL     1      29.459  30.870  23.585  1.00  0.00    -0.225 OA
ATOM      4  H   UNL     1      32.357  30.492  22.227  1.00  0.00     0.167 HD
ENDROOT
BRANCH   1   5
ATOM      5  C   UNL     1      30.836  28.974  22.042  1.00  0.00     0.154 C 
BRANCH   5   6
ATOM      6  C   UNL     1      30.049  29.082  20.742  1.00  0.00     0.165 C 
BRANCH   6   7
ATOM      7  C   UNL     1      29.163  27.876  20.624  1.00  0.00     0.176 C 
BRANCH   7   8
ATOM      8  C   UNL     1      28.193  27.925  19.506  1.00  0.00     0.178 C 
ATOM      9  C   UNL     1      27.310  29.465  17.996  1.00  0.00     0.269 C 
ATOM     10  C   UNL     1      26.839  28.167  17.387  1.00  0.00     0.112 C 
ATOM     11  O   UNL     1      28.030  29.290  19.144  1.00  0.00    -0.332 OA
ATOM     12  C   UNL     1      26.169  27.260  18.373  1.00  0.00     0.145 C 
ATOM     13  C   UNL     1      26.822  27.406  19.725  1.00  0.00     0.142 C 
BRANCH   9  14
ATOM     14  O   UNL     1      26.229  30.361  18.179  1.00  0.00    -0.357 OA
ATOM     15  H   UNL     1      26.327  30.857  19.031  1.00  0.00     0.214 HD
ENDBRANCH   9  14
BRANCH   9  16
ATOM     16  C   UNL     1      28.196  30.116  16.995  1.00  0.00     0.364 C 
ATOM     17  O   UNL     1      27.691  30.469  15.899  1.00  0.00    -0.246 OA
BRANCH  16  18
ATOM     18  O   UNL     1      29.542  30.359  17.193  1.00  0.00    -0.477 OA
ATOM     19  H   UNL     1      30.115  30.762  16.456  1.00  0.00     0.296 HD
ENDBRANCH  16  18
ENDBRANCH   9  16
BRANCH  12  20
ATOM     20  O   UNL     1      24.813  27.559  18.391  1.00  0.00    -0.391 OA
ATOM     21  H   UNL     1      24.596  27.930  17.498  1.00  0.00     0.211 HD
ENDBRANCH  12  20
BRANCH  13  22
ATOM     22  N   UNL     1      26.656  26.281  20.565  1.00  0.00    -0.348 N 
ATOM     23  C   UNL     1      25.560  26.143  21.447  1.00  0.00     0.217 C 
ATOM     24  H   UNL     1      27.341  25.500  20.538  1.00  0.00     0.163 HD
ATOM     25  C   UNL     1      25.398  24.940  22.335  1.00  0.00     0.114 C 
ATOM     26  O   UNL     1      24.717  27.059  21.474  1.00  0.00    -0.275 OA
ENDBRANCH  13  22
ENDBRANCH   7   8
BRANCH   7  27
ATOM     27  O   UNL     1      29.751  26.671  20.900  1.00  0.00    -0.388 OA
ATOM     28  H   UNL     1      30.700  26.815  21.111  1.00  0.00     0.211 HD
ENDBRANCH   7  27
ENDBRANCH   6   7
BRANCH   6  29
ATOM     29  O   UNL     1      30.924  29.281  19.708  1.00  0.00    -0.388 OA
ATOM     30  H   UNL     1      31.262  30.219  19.716  1.00  0.00     0.211 HD
ENDBRANCH   6  29
ENDBRANCH   5   6
ENDBRANCH   1   5
BRANCH   2  31
ATOM     31  O   UNL     1      31.153  32.354  23.675  1.00  0.00    -0.443 OA
BRANCH  31  32
ATOM     32  C   UNL     1      30.730  33.554  23.107  1.00  0.00     0.294 C 
BRANCH  32  33
ATOM     33  C   UNL     1      31.493  33.892  21.885  1.00  0.00     0.121 A 
ATOM     34  C   UNL     1      31.079  33.984  20.578  1.00  0.00     0.144 A 
ATOM     35  N   UNL     1      32.818  34.189  21.867  1.00  0.00    -0.131 NA
ATOM     36  N   UNL     1      32.123  34.326  19.801  1.00  0.00    -0.220 N 
ATOM     37  N   UNL     1      33.154  34.440  20.613  1.00  0.00    -0.062 NA
BRANCH  36  38
ATOM     38  C   UNL     1      32.155  34.531  18.392  1.00  0.00     0.066 A 
ATOM     39  C   UNL     1      32.915  35.528  17.821  1.00  0.00     0.030 A 
ATOM     40  C   UNL     1      31.418  33.734  17.535  1.00  0.00     0.030 A 
ATOM     41  C   UNL     1      32.957  35.739  16.461  1.00  0.00     0.024 A 
ATOM     42  C   UNL     1      31.457  33.943  16.172  1.00  0.00     0.024 A 
ATOM     43  C   UNL     1      32.214  34.937  15.590  1.00  0.00     0.082 A 
BRANCH  43  44
ATOM     44  S   UNL     1      32.268  35.210  13.863  1.00  0.00     0.238 S 
ATOM     45  O   UNL     1      31.027  34.599  13.277  1.00  0.00    -0.207 OA
ATOM     46  O   UNL     1      32.179  36.698  13.609  1.00  0.00    -0.207 OA
BRANCH  44  47
ATOM     47  N   UNL     1      33.667  34.548  13.129  1.00  0.00    -0.225 NA
ATOM     48  H   UNL     1      34.376  34.194  13.781  1.00  0.00     0.137 HD
ATOM     49  H   UNL     1      33.433  33.860  12.379  1.00  0.00     0.137 HD
ENDBRANCH  44  47
ENDBRANCH  43  44
ENDBRANCH  36  38
ENDBRANCH  32  33
ENDBRANCH  31  32
ENDBRANCH   2  31
TORSDOF 17
BEGIN_RES LYS A 131
REMARK  4 active torsions:
REMARK  status: ('A' for Active; 'I' for Inactive)
REMARK    1  A    between atoms: CA   and  CB  
REMARK    2  A    between atoms: CB   and  CG  
REMARK    3  A    between atoms: CG   and  CD  
REMARK    4  A    between atoms: CD   and  CE  
ROOT
ATOM      1  CA  LYS A 131      29.867  25.555  16.977  1.00 20.52     0.186 C 
ENDROOT
BRANCH   1   2
ATOM      2  CB  LYS A 131      28.345  25.722  17.026  1.00 20.94     0.034 C 
BRANCH   2   3
ATOM      3  CG  LYS A 131      27.599  24.474  16.580  1.00 22.96     0.005 C 
BRANCH   3   4
ATOM      4  CD  LYS A 131      27.002  23.726  17.740  1.00 24.33     0.041 C 
BRANCH   4   5
ATOM      5  CE  LYS A 131      25.512  23.513  17.496  1.00 26.91     0.338 C 
ATOM      6  NZ  LYS A 131      24.729  23.905  18.693  1.00 27.40     0.618 N 
ENDBRANCH   4   5
ENDBRANCH   3   4
ENDBRANCH   2   3
ENDBRANCH   1   2
END_RES LYS A 131
BEGIN_RES LYS A 135
REMARK  4 active torsions:
REMARK  status: ('A' for Active; 'I' for Inactive)
REMARK    5  A    between atoms: CA   and  CB  
REMARK    6  A    between atoms: CB   and  CG  
REMARK    7  A    between atoms: CG   and  CD  
REMARK    8  A    between atoms: CD   and  CE  
ROOT
ATOM      7  CA  LYS A 135      33.193  34.663   9.290  1.00 25.02     0.186 C 
ENDROOT
BRANCH   7   8
ATOM      8  CB  LYS A 135      32.060  35.360  10.034  1.00 26.63     0.034 C 
BRANCH   8   9
ATOM      9  CG  LYS A 135      30.843  35.609   9.181  1.00 29.45     0.005 C 
BRANCH   9  10
ATOM     10  CD  LYS A 135      30.238  34.294   8.712  1.00 32.00     0.041 C 
BRANCH  10  11
ATOM     11  CE  LYS A 135      28.749  34.448   8.471  1.00 34.25     0.338 C 
ATOM     12  NZ  LYS A 135      27.960  33.737   9.514  1.00 35.99     0.618 N 
ENDBRANCH  10  11
ENDBRANCH   9  10
ENDBRANCH   8   9
ENDBRANCH   7   8
END_RES LYS A 135
