REMARK VINA RESULT:    -3.685      4.702     11.832
REMARK INTER + INTRA:         -15.794
REMARK INTER:                 -10.642
REMARK INTRA:                  -5.151
REMARK UNBOUND:                -8.446
REMARK SMILES CC(=O)N[C@@H]1[C@@H](O)C[C@](O)(C(=O)O)O[C@H]1C(O)[C@H](O)CNC(=O)OCc1cn(CC(O)Cn2ccnc2[N+](=O)[O-])nn1
REMARK SMILES IDX 24 1 22 2 21 3 23 5 20 6 18 7 16 8 15 9 9 10 8 11 14 12 6 13
REMARK SMILES IDX 5 14 10 15 11 17 12 18 13 19 7 21 4 23 2 24 1 26 3 27 17 28
REMARK SMILES IDX 19 30 25 32 26 33 27 34 42 35 28 36 41 37 29 38 30 39 31 40
REMARK SMILES IDX 32 42 33 43 34 44 37 45 35 46 36 47 38 48 39 49 40 50
REMARK H PARENT 21 4 10 16 13 20 7 22 4 25 17 29 19 31 31 41
REMARK Flexibility Score: inf
ROOT
ATOM      1  O   UNL     1      27.665  35.528  12.406  1.00  0.00    -0.443 OA
ENDROOT
BRANCH   1   2
ATOM      2  C   UNL     1      27.878  34.826  11.208  1.00  0.00     0.407 C 
ATOM      3  N   UNL     1      29.104  34.823  10.534  1.00  0.00    -0.319 N 
ATOM      4  H   UNL     1      29.897  35.388  10.964  1.00  0.00     0.167 HD
ATOM      5  O   UNL     1      26.909  34.193  10.767  1.00  0.00    -0.225 OA
BRANCH   3   6
ATOM      6  C   UNL     1      29.364  34.113   9.305  1.00  0.00     0.154 C 
BRANCH   6   7
ATOM      7  C   UNL     1      29.849  35.104   8.281  1.00  0.00     0.165 C 
BRANCH   7   8
ATOM      8  C   UNL     1      28.676  35.495   7.414  1.00  0.00     0.176 C 
BRANCH   8   9
ATOM      9  C   UNL     1      28.420  36.995   7.486  1.00  0.00     0.178 C 
ATOM     10  C   UNL     1      29.619  38.957   7.862  1.00  0.00     0.269 C 
ATOM     11  C   UNL     1      28.360  39.433   8.563  1.00  0.00     0.112 C 
ATOM     12  O   UNL     1      29.617  37.585   7.789  1.00  0.00    -0.332 OA
ATOM     13  C   UNL     1      27.834  38.330   9.454  1.00  0.00     0.145 C 
ATOM     14  C   UNL     1      27.337  37.230   8.523  1.00  0.00     0.142 C 
BRANCH  10  15
ATOM     15  O   UNL     1      30.758  39.323   8.605  1.00  0.00    -0.357 OA
ATOM     16  H   UNL     1      31.050  38.517   9.090  1.00  0.00     0.214 HD
ENDBRANCH  10  15
BRANCH  10  17
ATOM     17  C   UNL     1      29.751  39.514   6.511  1.00  0.00     0.364 C 
ATOM     18  O   UNL     1      29.023  40.449   6.138  1.00  0.00    -0.246 OA
BRANCH  17  19
ATOM     19  O   UNL     1      30.691  39.004   5.634  1.00  0.00    -0.477 OA
ATOM     20  H   UNL     1      30.844  39.428   4.738  1.00  0.00     0.296 HD
ENDBRANCH  17  19
ENDBRANCH  10  17
BRANCH  13  21
ATOM     21  O   UNL     1      28.811  37.758  10.252  1.00  0.00    -0.391 OA
ATOM     22  H   UNL     1      28.513  37.716  11.182  1.00  0.00     0.211 HD
ENDBRANCH  13  21
BRANCH  14  23
ATOM     23  N   UNL     1      26.100  37.647   7.927  1.00  0.00    -0.348 N 
ATOM     24  C   UNL     1      24.889  37.007   8.256  1.00  0.00     0.217 C 
ATOM     25  H   UNL     1      26.031  38.434   7.228  1.00  0.00     0.163 HD
ATOM     26  C   UNL     1      23.604  37.446   7.632  1.00  0.00     0.114 C 
ATOM     27  O   UNL     1      24.863  36.056   9.080  1.00  0.00    -0.275 OA
ENDBRANCH  14  23
ENDBRANCH   8   9
BRANCH   8  28
ATOM     28  O   UNL     1      27.545  34.876   7.908  1.00  0.00    -0.388 OA
ATOM     29  H   UNL     1      27.620  33.894   7.927  1.00  0.00     0.211 HD
ENDBRANCH   8  28
ENDBRANCH   7   8
BRANCH   7  30
ATOM     30  O   UNL     1      30.911  34.610   7.529  1.00  0.00    -0.388 OA
ATOM     31  H   UNL     1      31.655  34.447   8.163  1.00  0.00     0.211 HD
ENDBRANCH   7  30
ENDBRANCH   6   7
ENDBRANCH   3   6
ENDBRANCH   1   2
BRANCH   1  32
ATOM     32  C   UNL     1      28.725  35.610  13.373  1.00  0.00     0.294 C 
BRANCH  32  33
ATOM     33  C   UNL     1      28.837  34.381  14.152  1.00  0.00     0.120 A 
ATOM     34  C   UNL     1      27.867  33.847  14.964  1.00  0.00     0.138 A 
ATOM     35  N   UNL     1      29.911  33.577  14.197  1.00  0.00    -0.132 NA
ATOM     36  N   UNL     1      28.385  32.725  15.483  1.00  0.00    -0.249 N 
ATOM     37  N   UNL     1      29.602  32.583  15.014  1.00  0.00    -0.067 NA
BRANCH  36  38
ATOM     38  C   UNL     1      27.668  31.839  16.416  1.00  0.00     0.181 C 
BRANCH  38  39
ATOM     39  C   UNL     1      28.645  30.910  17.099  1.00  0.00     0.170 C 
BRANCH  39  40
ATOM     40  O   UNL     1      28.841  29.844  16.193  1.00  0.00    -0.388 OA
ATOM     41  H   UNL     1      28.633  28.977  16.587  1.00  0.00     0.211 HD
ENDBRANCH  39  40
BRANCH  39  42
ATOM     42  C   UNL     1      28.052  30.424  18.383  1.00  0.00     0.239 C 
BRANCH  42  43
ATOM     43  N   UNL     1      29.148  30.127  19.308  1.00  0.00    -0.227 N 
ATOM     44  C   UNL     1      30.282  30.849  19.464  1.00  0.00     0.204 A 
ATOM     45  C   UNL     1      29.165  29.099  20.139  1.00  0.00     0.434 A 
ATOM     46  C   UNL     1      31.023  30.241  20.425  1.00  0.00     0.245 A 
ATOM     47  N   UNL     1      30.335  29.176  20.832  1.00  0.00    -0.074 NA
BRANCH  45  48
ATOM     48  N   UNL     1      28.172  28.075  20.312  1.00  0.00    -0.047 N 
ATOM     49  O   UNL     1      27.575  27.882  21.384  1.00  0.00    -0.390 OA
ATOM     50  O   UNL     1      27.858  27.262  19.243  1.00  0.00    -0.390 OA
ENDBRANCH  45  48
ENDBRANCH  42  43
ENDBRANCH  39  42
ENDBRANCH  38  39
ENDBRANCH  36  38
ENDBRANCH  32  33
ENDBRANCH   1  32
TORSDOF 20
BEGIN_RES LYS A 131
REMARK  4 active torsions:
REMARK  status: ('A' for Active; 'I' for Inactive)
REMARK    1  A    between atoms: CA   and  CB  
REMARK    2  A    between atoms: CB   and  CG  
REMARK    3  A    between atoms: CG   and  CD  
REMARK    4  A    between atoms: CD   and  CE  
ROOT
ATOM      1  CA  LYS A 131      29.867  25.555  16.977  1.00 20.52     0.186 C 
ENDROOT
BRANCH   1   2
ATOM      2  CB  LYS A 131      28.345  25.722  17.026  1.00 20.94     0.034 C 
BRANCH   2   3
ATOM      3  CG  LYS A 131      27.600  24.411  16.825  1.00 22.96     0.005 C 
BRANCH   3   4
ATOM      4  CD  LYS A 131      26.708  24.082  17.989  1.00 24.33     0.041 C 
BRANCH   4   5
ATOM      5  CE  LYS A 131      25.693  23.024  17.570  1.00 26.91     0.338 C 
ATOM      6  NZ  LYS A 131      24.458  23.663  17.058  1.00 27.40     0.618 N 
ENDBRANCH   4   5
ENDBRANCH   3   4
ENDBRANCH   2   3
ENDBRANCH   1   2
END_RES LYS A 131
BEGIN_RES LYS A 135
REMARK  4 active torsions:
REMARK  status: ('A' for Active; 'I' for Inactive)
REMARK    5  A    between atoms: CA   and  CB  
REMARK    6  A    between atoms: CB   and  CG  
REMARK    7  A    between atoms: CG   and  CD  
REMARK    8  A    between atoms: CD   and  CE  
ROOT
ATOM      7  CA  LYS A 135      33.193  34.663   9.290  1.00 25.02     0.186 C 
ENDROOT
BRANCH   7   8
ATOM      8  CB  LYS A 135      32.060  35.360  10.034  1.00 26.63     0.034 C 
BRANCH   8   9
ATOM      9  CG  LYS A 135      32.535  36.303  11.109  1.00 29.45     0.005 C 
BRANCH   9  10
ATOM     10  CD  LYS A 135      32.468  35.636  12.475  1.00 32.00     0.041 C 
BRANCH  10  11
ATOM     11  CE  LYS A 135      32.096  36.647  13.543  1.00 34.25     0.338 C 
ATOM     12  NZ  LYS A 135      31.481  37.862  12.941  1.00 35.99     0.618 N 
ENDBRANCH  10  11
ENDBRANCH   9  10
ENDBRANCH   8   9
ENDBRANCH   7   8
END_RES LYS A 135
