REMARK VINA RESULT:    -4.346      6.090     10.898
REMARK INTER + INTRA:         -14.527
REMARK INTER:                  -7.904
REMARK INTRA:                  -6.622
REMARK UNBOUND:                -6.624
REMARK SMILES CC(=O)N[C@@H]1[C@@H](O)C[C@](O)(C(=O)O)O[C@H]1C(O)[C@H](O)CNC(=O)OCc1cn(-c2cccc(S(N)(=O)=O)c2)nn1
REMARK SMILES IDX 21 1 22 2 23 3 20 5 18 6 16 7 15 8 9 9 8 10 14 11 6 12 5 13
REMARK SMILES IDX 10 14 11 16 12 17 13 18 7 20 4 22 2 23 1 25 3 26 17 27 19 29
REMARK SMILES IDX 24 31 25 32 26 33 27 34 40 35 28 36 39 37 29 38 38 39 30 40
REMARK SMILES IDX 33 41 31 42 32 43 34 44 36 45 37 46 35 47
REMARK H PARENT 21 4 10 15 13 19 7 21 4 24 17 28 19 30 35 48 35 49
REMARK Flexibility Score: inf
ROOT
ATOM      1  N   UNL     1      25.502  29.004  18.517  1.00  0.00    -0.319 N 
ATOM      2  C   UNL     1      24.657  30.118  18.276  1.00  0.00     0.407 C 
ATOM      3  O   UNL     1      24.411  30.897  19.213  1.00  0.00    -0.225 OA
ATOM      4  H   UNL     1      25.670  28.386  17.677  1.00  0.00     0.167 HD
ENDROOT
BRANCH   1   5
ATOM      5  C   UNL     1      26.090  28.732  19.803  1.00  0.00     0.154 C 
BRANCH   5   6
ATOM      6  C   UNL     1      27.598  28.852  19.747  1.00  0.00     0.165 C 
BRANCH   6   7
ATOM      7  C   UNL     1      28.016  30.179  20.367  1.00  0.00     0.176 C 
BRANCH   7   8
ATOM      8  C   UNL     1      29.528  30.328  20.211  1.00  0.00     0.178 C 
ATOM      9  C   UNL     1      30.936  28.774  21.199  1.00  0.00     0.269 C 
ATOM     10  C   UNL     1      32.025  29.792  21.448  1.00  0.00     0.112 C 
ATOM     11  O   UNL     1      30.124  29.107  20.134  1.00  0.00    -0.332 OA
ATOM     12  C   UNL     1      31.575  31.196  21.224  1.00  0.00     0.145 C 
ATOM     13  C   UNL     1      30.048  31.229  21.289  1.00  0.00     0.142 C 
BRANCH   9  14
ATOM     14  O   UNL     1      30.161  28.555  22.334  1.00  0.00    -0.357 OA
ATOM     15  H   UNL     1      30.307  27.607  22.643  1.00  0.00     0.214 HD
ENDBRANCH   9  14
BRANCH   9  16
ATOM     16  C   UNL     1      31.611  27.493  20.861  1.00  0.00     0.364 C 
ATOM     17  O   UNL     1      31.672  26.541  21.682  1.00  0.00    -0.246 OA
BRANCH  16  18
ATOM     18  O   UNL     1      32.209  27.283  19.617  1.00  0.00    -0.477 OA
ATOM     19  H   UNL     1      31.692  27.455  18.763  1.00  0.00     0.296 HD
ENDBRANCH  16  18
ENDBRANCH   9  16
BRANCH  12  20
ATOM     20  O   UNL     1      32.122  32.113  22.105  1.00  0.00    -0.391 OA
ATOM     21  H   UNL     1      32.390  32.970  21.666  1.00  0.00     0.211 HD
ENDBRANCH  12  20
BRANCH  13  22
ATOM     22  N   UNL     1      29.593  32.577  20.993  1.00  0.00    -0.348 N 
ATOM     23  C   UNL     1      29.168  33.481  22.010  1.00  0.00     0.217 C 
ATOM     24  H   UNL     1      29.577  32.897  19.985  1.00  0.00     0.163 HD
ATOM     25  C   UNL     1      28.723  34.835  21.590  1.00  0.00     0.114 C 
ATOM     26  O   UNL     1      29.193  33.090  23.189  1.00  0.00    -0.275 OA
ENDBRANCH  13  22
ENDBRANCH   7   8
BRANCH   7  27
ATOM     27  O   UNL     1      27.406  31.191  19.648  1.00  0.00    -0.388 OA
ATOM     28  H   UNL     1      26.462  31.302  19.914  1.00  0.00     0.211 HD
ENDBRANCH   7  27
ENDBRANCH   6   7
BRANCH   6  29
ATOM     29  O   UNL     1      27.988  28.815  18.397  1.00  0.00    -0.388 OA
ATOM     30  H   UNL     1      27.192  28.935  17.791  1.00  0.00     0.211 HD
ENDBRANCH   6  29
ENDBRANCH   5   6
ENDBRANCH   1   5
BRANCH   2  31
ATOM     31  O   UNL     1      24.101  30.353  17.015  1.00  0.00    -0.443 OA
BRANCH  31  32
ATOM     32  C   UNL     1      24.640  31.330  16.148  1.00  0.00     0.294 C 
BRANCH  32  33
ATOM     33  C   UNL     1      26.114  31.180  16.065  1.00  0.00     0.121 A 
ATOM     34  C   UNL     1      27.023  32.216  16.168  1.00  0.00     0.144 A 
ATOM     35  N   UNL     1      26.834  30.067  15.882  1.00  0.00    -0.131 NA
ATOM     36  N   UNL     1      28.233  31.650  16.040  1.00  0.00    -0.220 N 
ATOM     37  N   UNL     1      28.130  30.342  15.864  1.00  0.00    -0.062 NA
BRANCH  36  38
ATOM     38  C   UNL     1      29.477  32.346  16.082  1.00  0.00     0.068 A 
ATOM     39  C   UNL     1      29.822  33.194  17.112  1.00  0.00     0.050 A 
ATOM     40  C   UNL     1      30.401  32.189  15.063  1.00  0.00     0.028 A 
ATOM     41  C   UNL     1      31.040  33.871  17.145  1.00  0.00     0.084 A 
ATOM     42  C   UNL     1      31.604  32.842  15.073  1.00  0.00     0.004 A 
ATOM     43  C   UNL     1      31.920  33.682  16.115  1.00  0.00     0.022 A 
BRANCH  41  44
ATOM     44  S   UNL     1      31.469  34.937  18.444  1.00  0.00     0.238 S 
ATOM     45  O   UNL     1      32.769  35.613  18.091  1.00  0.00    -0.207 OA
ATOM     46  O   UNL     1      31.736  34.124  19.689  1.00  0.00    -0.207 OA
BRANCH  44  47
ATOM     47  N   UNL     1      30.267  36.132  18.711  1.00  0.00    -0.225 NA
ATOM     48  H   UNL     1      29.602  35.804  19.434  1.00  0.00     0.137 HD
ATOM     49  H   UNL     1      29.774  36.406  17.836  1.00  0.00     0.137 HD
ENDBRANCH  44  47
ENDBRANCH  41  44
ENDBRANCH  36  38
ENDBRANCH  32  33
ENDBRANCH  31  32
ENDBRANCH   2  31
TORSDOF 17
BEGIN_RES LYS A 131
REMARK  4 active torsions:
REMARK  status: ('A' for Active; 'I' for Inactive)
REMARK    1  A    between atoms: CA   and  CB  
REMARK    2  A    between atoms: CB   and  CG  
REMARK    3  A    between atoms: CG   and  CD  
REMARK    4  A    between atoms: CD   and  CE  
ROOT
ATOM      1  CA  LYS A 131      29.867  25.555  16.977  1.00 20.52     0.186 C 
ENDROOT
BRANCH   1   2
ATOM      2  CB  LYS A 131      28.345  25.722  17.026  1.00 20.94     0.034 C 
BRANCH   2   3
ATOM      3  CG  LYS A 131      27.600  24.415  16.803  1.00 22.96     0.005 C 
BRANCH   3   4
ATOM      4  CD  LYS A 131      26.742  24.044  17.981  1.00 24.33     0.041 C 
BRANCH   4   5
ATOM      5  CE  LYS A 131      26.065  25.296  18.532  1.00 26.91     0.338 C 
ATOM      6  NZ  LYS A 131      24.784  25.544  17.830  1.00 27.40     0.618 N 
ENDBRANCH   4   5
ENDBRANCH   3   4
ENDBRANCH   2   3
ENDBRANCH   1   2
END_RES LYS A 131
BEGIN_RES LYS A 135
REMARK  4 active torsions:
REMARK  status: ('A' for Active; 'I' for Inactive)
REMARK    5  A    between atoms: CA   and  CB  
REMARK    6  A    between atoms: CB   and  CG  
REMARK    7  A    between atoms: CG   and  CD  
REMARK    8  A    between atoms: CD   and  CE  
ROOT
ATOM      7  CA  LYS A 135      33.193  34.663   9.290  1.00 25.02     0.186 C 
ENDROOT
BRANCH   7   8
ATOM      8  CB  LYS A 135      32.060  35.360  10.034  1.00 26.63     0.034 C 
BRANCH   8   9
ATOM      9  CG  LYS A 135      30.695  35.061   9.470  1.00 29.45     0.005 C 
BRANCH   9  10
ATOM     10  CD  LYS A 135      29.711  34.743  10.585  1.00 32.00     0.041 C 
BRANCH  10  11
ATOM     11  CE  LYS A 135      30.401  34.794  11.935  1.00 34.25     0.338 C 
ATOM     12  NZ  LYS A 135      29.535  35.445  12.956  1.00 35.99     0.618 N 
ENDBRANCH  10  11
ENDBRANCH   9  10
ENDBRANCH   8   9
ENDBRANCH   7   8
END_RES LYS A 135
