REMARK VINA RESULT:    -4.119      2.414      7.862
REMARK INTER + INTRA:         -14.512
REMARK INTER:                  -6.455
REMARK INTRA:                  -8.056
REMARK UNBOUND:                -5.938
REMARK SMILES CCOC(CCn1cc(COC(=O)NC[C@@H](O)C(O)[C@@H]2O[C@@](O)(C(=O)O)C[C@H](O)[C@H]2NC(C)=O)nn1)OCC
REMARK SMILES IDX 11 1 12 2 14 3 13 5 15 6 16 7 18 8 20 9 22 10 27 11 21 12
REMARK SMILES IDX 28 13 30 14 23 15 24 17 25 18 26 19 29 21 31 23 32 24 33 26
REMARK SMILES IDX 34 27 19 28 17 30 10 32 9 33 8 34 35 35 7 36 36 37 6 38 5 39
REMARK SMILES IDX 4 40 3 41 2 42 1 43 37 44 38 45 39 46
REMARK H PARENT 14 4 23 16 26 20 29 22 31 25 19 29 17 31
REMARK Flexibility Score: inf
ROOT
ATOM      1  O   UNL     1      31.060  31.842  21.806  1.00  0.00    -0.443 OA
ENDROOT
BRANCH   1   2
ATOM      2  C   UNL     1      30.804  32.884  20.902  1.00  0.00     0.407 C 
ATOM      3  N   UNL     1      29.721  33.771  21.078  1.00  0.00    -0.319 N 
ATOM      4  H   UNL     1      29.128  33.595  21.951  1.00  0.00     0.167 HD
ATOM      5  O   UNL     1      31.563  33.001  19.937  1.00  0.00    -0.225 OA
BRANCH   3   6
ATOM      6  C   UNL     1      29.339  34.858  20.235  1.00  0.00     0.154 C 
BRANCH   6   7
ATOM      7  C   UNL     1      28.090  34.543  19.463  1.00  0.00     0.165 C 
BRANCH   7   8
ATOM      8  C   UNL     1      28.553  34.087  18.082  1.00  0.00     0.176 C 
BRANCH   8   9
ATOM      9  C   UNL     1      28.268  32.637  17.847  1.00  0.00     0.178 C 
ATOM     10  C   UNL     1      28.979  30.562  18.602  1.00  0.00     0.269 C 
ATOM     11  C   UNL     1      28.370  29.964  17.377  1.00  0.00     0.112 C 
ATOM     12  O   UNL     1      28.521  31.832  18.920  1.00  0.00    -0.332 OA
ATOM     13  C   UNL     1      28.310  30.878  16.189  1.00  0.00     0.145 C 
ATOM     14  C   UNL     1      28.981  32.176  16.581  1.00  0.00     0.142 C 
BRANCH  10  15
ATOM     15  O   UNL     1      30.374  30.517  18.529  1.00  0.00    -0.357 OA
ATOM     16  H   UNL     1      30.671  31.407  18.174  1.00  0.00     0.214 HD
ENDBRANCH  10  15
BRANCH  10  17
ATOM     17  C   UNL     1      28.578  29.690  19.744  1.00  0.00     0.364 C 
ATOM     18  O   UNL     1      28.072  30.174  20.778  1.00  0.00    -0.246 OA
BRANCH  17  19
ATOM     19  O   UNL     1      28.781  28.302  19.637  1.00  0.00    -0.477 OA
ATOM     20  H   UNL     1      28.454  27.750  20.429  1.00  0.00     0.296 HD
ENDBRANCH  17  19
ENDBRANCH  10  17
BRANCH  13  21
ATOM     21  O   UNL     1      28.854  30.323  15.037  1.00  0.00    -0.391 OA
ATOM     22  H   UNL     1      28.801  29.339  15.150  1.00  0.00     0.211 HD
ENDBRANCH  13  21
BRANCH  14  23
ATOM     23  N   UNL     1      28.803  33.208  15.580  1.00  0.00    -0.348 N 
ATOM     24  C   UNL     1      29.822  33.425  14.615  1.00  0.00     0.217 C 
ATOM     25  H   UNL     1      27.965  33.811  15.517  1.00  0.00     0.163 HD
ATOM     26  C   UNL     1      29.726  34.453  13.559  1.00  0.00     0.114 C 
ATOM     27  O   UNL     1      30.858  32.707  14.661  1.00  0.00    -0.275 OA
ENDBRANCH  14  23
ENDBRANCH   8   9
BRANCH   8  28
ATOM     28  O   UNL     1      29.898  34.390  17.948  1.00  0.00    -0.388 OA
ATOM     29  H   UNL     1      30.092  34.936  17.138  1.00  0.00     0.211 HD
ENDBRANCH   8  28
ENDBRANCH   7   8
BRANCH   7  30
ATOM     30  O   UNL     1      27.331  35.670  19.278  1.00  0.00    -0.388 OA
ATOM     31  H   UNL     1      27.306  36.260  20.074  1.00  0.00     0.211 HD
ENDBRANCH   7  30
ENDBRANCH   6   7
ENDBRANCH   3   6
ENDBRANCH   1   2
BRANCH   1  32
ATOM     32  C   UNL     1      32.241  31.054  21.678  1.00  0.00     0.294 C 
BRANCH  32  33
ATOM     33  C   UNL     1      31.865  29.645  21.462  1.00  0.00     0.120 A 
ATOM     34  C   UNL     1      31.242  28.882  22.455  1.00  0.00     0.138 A 
ATOM     35  N   UNL     1      31.992  28.827  20.426  1.00  0.00    -0.132 NA
ATOM     36  N   UNL     1      31.024  27.643  21.969  1.00  0.00    -0.252 N 
ATOM     37  N   UNL     1      31.481  27.632  20.750  1.00  0.00    -0.067 NA
BRANCH  36  38
ATOM     38  C   UNL     1      30.403  26.587  22.718  1.00  0.00     0.151 C 
BRANCH  38  39
ATOM     39  C   UNL     1      29.857  27.048  24.049  1.00  0.00     0.086 C 
BRANCH  39  40
ATOM     40  C   UNL     1      28.362  26.993  24.120  1.00  0.00     0.251 C 
BRANCH  40  41
ATOM     41  O   UNL     1      27.857  28.156  23.548  1.00  0.00    -0.353 OA
BRANCH  41  42
ATOM     42  C   UNL     1      26.580  27.921  23.024  1.00  0.00     0.160 C 
ATOM     43  C   UNL     1      26.596  26.818  21.998  1.00  0.00     0.035 C 
ENDBRANCH  41  42
ENDBRANCH  40  41
BRANCH  40  44
ATOM     44  O   UNL     1      27.893  26.887  25.403  1.00  0.00    -0.353 OA
BRANCH  44  45
ATOM     45  C   UNL     1      27.923  25.573  25.871  1.00  0.00     0.160 C 
ATOM     46  C   UNL     1      26.834  24.776  25.162  1.00  0.00     0.035 C 
ENDBRANCH  44  45
ENDBRANCH  40  44
ENDBRANCH  39  40
ENDBRANCH  38  39
ENDBRANCH  36  38
ENDBRANCH  32  33
ENDBRANCH   1  32
TORSDOF 21
BEGIN_RES LYS A 131
REMARK  4 active torsions:
REMARK  status: ('A' for Active; 'I' for Inactive)
REMARK    1  A    between atoms: CA   and  CB  
REMARK    2  A    between atoms: CB   and  CG  
REMARK    3  A    between atoms: CG   and  CD  
REMARK    4  A    between atoms: CD   and  CE  
ROOT
ATOM      1  CA  LYS A 131      29.867  25.555  16.977  1.00 20.52     0.186 C 
ENDROOT
BRANCH   1   2
ATOM      2  CB  LYS A 131      28.345  25.722  17.026  1.00 20.94     0.034 C 
BRANCH   2   3
ATOM      3  CG  LYS A 131      27.602  24.399  16.924  1.00 22.96     0.005 C 
BRANCH   3   4
ATOM      4  CD  LYS A 131      26.653  24.192  18.072  1.00 24.33     0.041 C 
BRANCH   4   5
ATOM      5  CE  LYS A 131      25.442  23.398  17.595  1.00 26.91     0.338 C 
ATOM      6  NZ  LYS A 131      24.480  24.286  16.900  1.00 27.40     0.618 N 
ENDBRANCH   4   5
ENDBRANCH   3   4
ENDBRANCH   2   3
ENDBRANCH   1   2
END_RES LYS A 131
BEGIN_RES LYS A 135
REMARK  4 active torsions:
REMARK  status: ('A' for Active; 'I' for Inactive)
REMARK    5  A    between atoms: CA   and  CB  
REMARK    6  A    between atoms: CB   and  CG  
REMARK    7  A    between atoms: CG   and  CD  
REMARK    8  A    between atoms: CD   and  CE  
ROOT
ATOM      7  CA  LYS A 135      33.193  34.663   9.290  1.00 25.02     0.186 C 
ENDROOT
BRANCH   7   8
ATOM      8  CB  LYS A 135      32.060  35.360  10.034  1.00 26.63     0.034 C 
BRANCH   8   9
ATOM      9  CG  LYS A 135      30.873  35.678   9.162  1.00 29.45     0.005 C 
BRANCH   9  10
ATOM     10  CD  LYS A 135      30.254  34.402   8.612  1.00 32.00     0.041 C 
BRANCH  10  11
ATOM     11  CE  LYS A 135      28.742  34.514   8.581  1.00 34.25     0.338 C 
ATOM     12  NZ  LYS A 135      28.119  33.658   9.629  1.00 35.99     0.618 N 
ENDBRANCH  10  11
ENDBRANCH   9  10
ENDBRANCH   8   9
ENDBRANCH   7   8
END_RES LYS A 135
