REMARK VINA RESULT:    -9.135      4.120      8.867
REMARK INTER + INTRA:         -13.391
REMARK INTER:                  -8.790
REMARK INTRA:                  -4.601
REMARK UNBOUND:                 4.555
REMARK SMILES CC(=O)N[C@@H]1[C@@H](O)C[C@](O)(C(=O)O)O[C@H]1C(O)[C@H](O)CNC(=O)OCc1cn(C2CCc3ccccc3NC2=O)nn1
REMARK SMILES IDX 24 1 22 2 21 3 23 5 20 6 18 7 16 8 15 9 9 10 8 11 14 12 6 13
REMARK SMILES IDX 5 14 10 15 11 17 12 18 13 19 7 21 4 23 2 24 1 26 3 27 17 28
REMARK SMILES IDX 19 30 25 32 26 33 27 34 42 35 28 36 41 37 29 38 39 40 38 41
REMARK SMILES IDX 40 42 37 44 32 45 36 46 33 47 35 48 34 49 31 50 30 51
REMARK H PARENT 21 4 10 16 13 20 7 22 4 25 17 29 19 31 38 43
REMARK Flexibility Score: 80.00
ROOT
ATOM      1  O   UNL     1      28.372  40.330   9.111  1.00  0.00    -0.443 OA
ENDROOT
BRANCH   1   2
ATOM      2  C   UNL     1      27.513  39.800   8.179  1.00  0.00     0.407 C 
ATOM      3  N   UNL     1      27.037  38.454   8.323  1.00  0.00    -0.319 N 
ATOM      4  H   UNL     1      27.381  37.932   9.163  1.00  0.00     0.167 HD
ATOM      5  O   UNL     1      27.118  40.455   7.181  1.00  0.00    -0.225 OA
BRANCH   3   6
ATOM      6  C   UNL     1      26.131  37.854   7.361  1.00  0.00     0.154 C 
BRANCH   6   7
ATOM      7  C   UNL     1      24.780  37.698   8.014  1.00  0.00     0.165 C 
BRANCH   7   8
ATOM      8  C   UNL     1      24.512  36.276   8.459  1.00  0.00     0.176 C 
BRANCH   8   9
ATOM      9  C   UNL     1      23.186  36.196   9.231  1.00  0.00     0.178 C 
ATOM     10  C   UNL     1      20.940  36.655   8.732  1.00  0.00     0.269 C 
ATOM     11  C   UNL     1      20.812  37.061  10.167  1.00  0.00     0.112 C 
ATOM     12  O   UNL     1      22.192  36.275   8.334  1.00  0.00    -0.332 OA
ATOM     13  C   UNL     1      21.958  38.022  10.439  1.00  0.00     0.145 C 
ATOM     14  C   UNL     1      23.244  37.249  10.289  1.00  0.00     0.142 C 
BRANCH  10  15
ATOM     15  O   UNL     1      20.604  37.768   7.934  1.00  0.00    -0.357 OA
ATOM     16  H   UNL     1      19.634  37.670   7.751  1.00  0.00     0.214 HD
ENDBRANCH  10  15
BRANCH  10  17
ATOM     17  C   UNL     1      19.999  35.567   8.367  1.00  0.00     0.364 C 
ATOM     18  O   UNL     1      18.825  35.604   8.793  1.00  0.00    -0.246 OA
BRANCH  17  19
ATOM     19  O   UNL     1      20.376  34.497   7.560  1.00  0.00    -0.477 OA
ATOM     20  H   UNL     1      20.296  34.646   6.543  1.00  0.00     0.296 HD
ENDBRANCH  17  19
ENDBRANCH  10  17
BRANCH  13  21
ATOM     21  O   UNL     1      21.911  39.006   9.457  1.00  0.00    -0.391 OA
ATOM     22  H   UNL     1      22.774  38.991   8.978  1.00  0.00     0.211 HD
ENDBRANCH  13  21
BRANCH  14  23
ATOM     23  N   UNL     1      23.489  36.590  11.559  1.00  0.00    -0.348 N 
ATOM     24  C   UNL     1      24.634  36.836  12.362  1.00  0.00     0.217 C 
ATOM     25  H   UNL     1      22.775  35.883  11.912  1.00  0.00     0.163 HD
ATOM     26  C   UNL     1      24.775  36.100  13.641  1.00  0.00     0.114 C 
ATOM     27  O   UNL     1      25.484  37.670  11.954  1.00  0.00    -0.275 OA
ENDBRANCH  14  23
ENDBRANCH   8   9
BRANCH   8  28
ATOM     28  O   UNL     1      25.542  35.938   9.342  1.00  0.00    -0.388 OA
ATOM     29  H   UNL     1      25.579  34.980   9.550  1.00  0.00     0.211 HD
ENDBRANCH   8  28
ENDBRANCH   7   8
BRANCH   7  30
ATOM     30  O   UNL     1      23.762  38.154   7.185  1.00  0.00    -0.388 OA
ATOM     31  H   UNL     1      24.098  38.562   6.359  1.00  0.00     0.211 HD
ENDBRANCH   7  30
ENDBRANCH   6   7
ENDBRANCH   3   6
ENDBRANCH   1   2
BRANCH   1  32
ATOM     32  C   UNL     1      29.778  40.199   8.990  1.00  0.00     0.294 C 
BRANCH  32  33
ATOM     33  C   UNL     1      30.316  39.235   9.982  1.00  0.00     0.120 A 
ATOM     34  C   UNL     1      29.635  38.821  11.132  1.00  0.00     0.139 A 
ATOM     35  N   UNL     1      31.491  38.581  10.018  1.00  0.00    -0.132 NA
ATOM     36  N   UNL     1      30.408  37.953  11.806  1.00  0.00    -0.240 N 
ATOM     37  N   UNL     1      31.515  37.833  11.107  1.00  0.00    -0.066 NA
BRANCH  36  38
ATOM     38  C   UNL     1      30.088  37.293  13.053  1.00  0.00     0.198 CG0
ATOM     39  G   UNL     1      31.352  37.070  13.819  1.00  0.00     0.000 G0
BRANCH  38  40
ATOM     40  C   UNL     1      29.326  36.035  12.821  1.00  0.00     0.249 C 
ATOM     41  N   UNL     1      29.467  34.727  13.344  1.00  0.00    -0.324 N 
ATOM     42  O   UNL     1      28.386  36.194  12.003  1.00  0.00    -0.272 OA
ATOM     43  H   UNL     1      28.991  33.936  12.859  1.00  0.00     0.170 HD
BRANCH  41  44
ATOM     44  C   UNL     1      30.215  34.330  14.507  1.00  0.00     0.044 A 
ATOM     45  C   UNL     1      30.917  35.152  15.369  1.00  0.00    -0.024 A 
ATOM     46  C   UNL     1      30.153  32.961  14.684  1.00  0.00     0.026 A 
ATOM     47  C   UNL     1      31.564  34.583  16.422  1.00  0.00     0.006 A 
ATOM     48  C   UNL     1      30.808  32.388  15.752  1.00  0.00     0.002 A 
ATOM     49  C   UNL     1      31.507  33.208  16.610  1.00  0.00     0.000 A 
BRANCH  45  50
ATOM     50  C   UNL     1      31.052  36.631  15.276  1.00  0.00     0.040 C 
BRANCH  50  51
ATOM     51  C   UNL     1      31.360  37.094  13.863  1.00  0.00     0.042 CG0
ATOM     52  G   UNL     1      30.124  37.290  13.047  1.00  0.00     0.000 G0
ENDBRANCH  50  51
ENDBRANCH  45  50
ENDBRANCH  41  44
ENDBRANCH  38  40
ENDBRANCH  36  38
ENDBRANCH  32  33
ENDBRANCH   1  32
TORSDOF 15
BEGIN_RES LYS A 131
REMARK  4 active torsions:
REMARK  status: ('A' for Active; 'I' for Inactive)
REMARK    1  A    between atoms: CA   and  CB  
REMARK    2  A    between atoms: CB   and  CG  
REMARK    3  A    between atoms: CG   and  CD  
REMARK    4  A    between atoms: CD   and  CE  
ROOT
ATOM      1  CA  LYS A 131      29.867  25.555  16.977  1.00 20.52     0.186 C 
ENDROOT
BRANCH   1   2
ATOM      2  CB  LYS A 131      28.345  25.722  17.026  1.00 20.94     0.034 C 
BRANCH   2   3
ATOM      3  CG  LYS A 131      27.599  24.428  16.738  1.00 22.96     0.005 C 
BRANCH   3   4
ATOM      4  CD  LYS A 131      26.284  24.359  17.464  1.00 24.33     0.041 C 
BRANCH   4   5
ATOM      5  CE  LYS A 131      25.902  22.900  17.688  1.00 26.91     0.338 C 
ATOM      6  NZ  LYS A 131      24.493  22.666  17.294  1.00 27.40     0.618 N 
ENDBRANCH   4   5
ENDBRANCH   3   4
ENDBRANCH   2   3
ENDBRANCH   1   2
END_RES LYS A 131
BEGIN_RES LYS A 135
REMARK  4 active torsions:
REMARK  status: ('A' for Active; 'I' for Inactive)
REMARK    5  A    between atoms: CA   and  CB  
REMARK    6  A    between atoms: CB   and  CG  
REMARK    7  A    between atoms: CG   and  CD  
REMARK    8  A    between atoms: CD   and  CE  
ROOT
ATOM      7  CA  LYS A 135      33.193  34.663   9.290  1.00 25.02     0.186 C 
ENDROOT
BRANCH   7   8
ATOM      8  CB  LYS A 135      32.060  35.360  10.034  1.00 26.63     0.034 C 
BRANCH   8   9
ATOM      9  CG  LYS A 135      30.708  34.739   9.791  1.00 29.45     0.005 C 
BRANCH   9  10
ATOM     10  CD  LYS A 135      30.392  34.708   8.304  1.00 32.00     0.041 C 
BRANCH  10  11
ATOM     11  CE  LYS A 135      29.380  35.782   7.952  1.00 34.25     0.338 C 
ATOM     12  NZ  LYS A 135      28.331  35.251   7.038  1.00 35.99     0.618 N 
ENDBRANCH  10  11
ENDBRANCH   9  10
ENDBRANCH   8   9
ENDBRANCH   7   8
END_RES LYS A 135
