REMARK VINA RESULT:    -5.082      2.878      4.886
REMARK INTER + INTRA:         -16.095
REMARK INTER:                  -9.678
REMARK INTRA:                  -6.417
REMARK UNBOUND:                -6.408
REMARK SMILES CC(=O)N[C@@H]1[C@@H](O)C[C@](O)(C(=O)O)O[C@H]1C(O)[C@H](O)CNC(=O)OCc1cn(-c2ccc(S(=O)(=O)Nc3nccs3)cc2)nn1
REMARK SMILES IDX 21 1 22 2 23 3 20 5 18 6 16 7 15 8 9 9 8 10 14 11 6 12 5 13
REMARK SMILES IDX 10 14 11 16 12 17 13 18 7 20 4 22 2 23 1 25 3 26 17 27 19 29
REMARK SMILES IDX 24 31 25 32 26 33 27 34 45 35 28 36 44 37 29 38 30 39 43 40
REMARK SMILES IDX 31 41 42 42 32 43 33 44 34 45 35 46 36 47 37 49 38 50 41 51
REMARK SMILES IDX 39 52 40 53
REMARK H PARENT 21 4 10 15 13 19 7 21 4 24 17 28 19 30 36 48
REMARK Flexibility Score: inf
ROOT
ATOM      1  N   UNL     1      27.761  28.808  17.973  1.00  0.00    -0.319 N 
ATOM      2  C   UNL     1      27.169  29.942  17.374  1.00  0.00     0.407 C 
ATOM      3  O   UNL     1      25.911  30.120  17.513  1.00  0.00    -0.225 OA
ATOM      4  H   UNL     1      28.779  28.659  17.865  1.00  0.00     0.167 HD
ENDROOT
BRANCH   1   5
ATOM      5  C   UNL     1      26.988  27.860  18.729  1.00  0.00     0.154 C 
BRANCH   5   6
ATOM      6  C   UNL     1      27.463  27.724  20.154  1.00  0.00     0.165 C 
BRANCH   6   7
ATOM      7  C   UNL     1      28.936  27.984  20.288  1.00  0.00     0.176 C 
BRANCH   7   8
ATOM      8  C   UNL     1      29.197  29.141  21.269  1.00  0.00     0.178 C 
ATOM      9  C   UNL     1      30.105  30.826  19.889  1.00  0.00     0.269 C 
ATOM     10  C   UNL     1      31.336  30.862  20.773  1.00  0.00     0.112 C 
ATOM     11  O   UNL     1      29.061  30.297  20.563  1.00  0.00    -0.332 OA
ATOM     12  C   UNL     1      31.632  29.424  21.122  1.00  0.00     0.145 C 
ATOM     13  C   UNL     1      30.485  28.905  21.954  1.00  0.00     0.142 C 
BRANCH   9  14
ATOM     14  O   UNL     1      30.436  29.991  18.814  1.00  0.00    -0.357 OA
ATOM     15  H   UNL     1      31.397  29.930  18.658  1.00  0.00     0.214 HD
ENDBRANCH   9  14
BRANCH   9  16
ATOM     16  C   UNL     1      29.816  32.170  19.325  1.00  0.00     0.364 C 
ATOM     17  O   UNL     1      30.748  32.957  19.108  1.00  0.00    -0.246 OA
BRANCH  16  18
ATOM     18  O   UNL     1      28.520  32.555  19.041  1.00  0.00    -0.477 OA
ATOM     19  H   UNL     1      28.075  33.311  19.581  1.00  0.00     0.296 HD
ENDBRANCH  16  18
ENDBRANCH   9  16
BRANCH  12  20
ATOM     20  O   UNL     1      31.842  28.687  19.962  1.00  0.00    -0.391 OA
ATOM     21  H   UNL     1      30.985  28.214  19.752  1.00  0.00     0.211 HD
ENDBRANCH  12  20
BRANCH  13  22
ATOM     22  N   UNL     1      30.610  29.469  23.260  1.00  0.00    -0.348 N 
ATOM     23  C   UNL     1      31.163  28.712  24.316  1.00  0.00     0.217 C 
ATOM     24  H   UNL     1      30.294  30.435  23.445  1.00  0.00     0.163 HD
ATOM     25  C   UNL     1      31.329  29.217  25.702  1.00  0.00     0.114 C 
ATOM     26  O   UNL     1      31.530  27.556  24.068  1.00  0.00    -0.275 OA
ENDBRANCH  13  22
ENDBRANCH   7   8
BRANCH   7  27
ATOM     27  O   UNL     1      29.645  26.840  20.721  1.00  0.00    -0.388 OA
ATOM     28  H   UNL     1      28.997  26.228  21.116  1.00  0.00     0.211 HD
ENDBRANCH   7  27
ENDBRANCH   6   7
BRANCH   6  29
ATOM     29  O   UNL     1      27.140  26.402  20.530  1.00  0.00    -0.388 OA
ATOM     30  H   UNL     1      27.857  26.108  21.144  1.00  0.00     0.211 HD
ENDBRANCH   6  29
ENDBRANCH   5   6
ENDBRANCH   1   5
BRANCH   2  31
ATOM     31  O   UNL     1      27.869  30.877  16.640  1.00  0.00    -0.443 OA
BRANCH  31  32
ATOM     32  C   UNL     1      28.903  30.499  15.720  1.00  0.00     0.294 C 
BRANCH  32  33
ATOM     33  C   UNL     1      29.793  31.690  15.584  1.00  0.00     0.121 A 
ATOM     34  C   UNL     1      29.431  32.957  15.121  1.00  0.00     0.144 A 
ATOM     35  N   UNL     1      31.107  31.803  15.871  1.00  0.00    -0.131 NA
ATOM     36  N   UNL     1      30.505  33.762  15.142  1.00  0.00    -0.220 N 
ATOM     37  N   UNL     1      31.496  33.025  15.603  1.00  0.00    -0.062 NA
BRANCH  36  38
ATOM     38  C   UNL     1      30.515  35.126  14.741  1.00  0.00     0.066 A 
ATOM     39  C   UNL     1      31.054  36.125  15.518  1.00  0.00     0.030 A 
ATOM     40  C   UNL     1      29.967  35.483  13.528  1.00  0.00     0.030 A 
ATOM     41  C   UNL     1      31.052  37.457  15.106  1.00  0.00     0.024 A 
ATOM     42  C   UNL     1      29.964  36.798  13.118  1.00  0.00     0.024 A 
ATOM     43  C   UNL     1      30.509  37.824  13.897  1.00  0.00     0.088 A 
BRANCH  43  44
ATOM     44  S   UNL     1      30.495  39.470  13.335  1.00  0.00     0.263 S 
ATOM     45  O   UNL     1      30.888  40.343  14.520  1.00  0.00    -0.201 OA
ATOM     46  O   UNL     1      29.087  39.825  13.000  1.00  0.00    -0.201 OA
BRANCH  44  47
ATOM     47  N   UNL     1      31.547  39.782  12.038  1.00  0.00    -0.255 N 
ATOM     48  H   UNL     1      32.404  40.367  12.236  1.00  0.00     0.182 HD
BRANCH  47  49
ATOM     49  C   UNL     1      31.410  39.348  10.710  1.00  0.00     0.196 A 
ATOM     50  N   UNL     1      30.912  38.463  10.033  1.00  0.00    -0.228 NA
ATOM     51  S   UNL     1      32.204  40.363   9.328  1.00  0.00    -0.105 S 
ATOM     52  C   UNL     1      30.946  38.310   8.748  1.00  0.00     0.125 A 
ATOM     53  C   UNL     1      31.605  39.217   7.992  1.00  0.00     0.089 A 
ENDBRANCH  47  49
ENDBRANCH  44  47
ENDBRANCH  43  44
ENDBRANCH  36  38
ENDBRANCH  32  33
ENDBRANCH  31  32
ENDBRANCH   2  31
TORSDOF 18
BEGIN_RES LYS A 131
REMARK  4 active torsions:
REMARK  status: ('A' for Active; 'I' for Inactive)
REMARK    1  A    between atoms: CA   and  CB  
REMARK    2  A    between atoms: CB   and  CG  
REMARK    3  A    between atoms: CG   and  CD  
REMARK    4  A    between atoms: CD   and  CE  
ROOT
ATOM      1  CA  LYS A 131      29.867  25.555  16.977  1.00 20.52     0.186 C 
ENDROOT
BRANCH   1   2
ATOM      2  CB  LYS A 131      28.345  25.722  17.026  1.00 20.94     0.034 C 
BRANCH   2   3
ATOM      3  CG  LYS A 131      27.599  24.426  16.748  1.00 22.96     0.005 C 
BRANCH   3   4
ATOM      4  CD  LYS A 131      26.596  24.108  17.821  1.00 24.33     0.041 C 
BRANCH   4   5
ATOM      5  CE  LYS A 131      25.188  24.374  17.298  1.00 26.91     0.338 C 
ATOM      6  NZ  LYS A 131      24.404  23.117  17.255  1.00 27.40     0.618 N 
ENDBRANCH   4   5
ENDBRANCH   3   4
ENDBRANCH   2   3
ENDBRANCH   1   2
END_RES LYS A 131
BEGIN_RES LYS A 135
REMARK  4 active torsions:
REMARK  status: ('A' for Active; 'I' for Inactive)
REMARK    5  A    between atoms: CA   and  CB  
REMARK    6  A    between atoms: CB   and  CG  
REMARK    7  A    between atoms: CG   and  CD  
REMARK    8  A    between atoms: CD   and  CE  
ROOT
ATOM      7  CA  LYS A 135      33.193  34.663   9.290  1.00 25.02     0.186 C 
ENDROOT
BRANCH   7   8
ATOM      8  CB  LYS A 135      32.060  35.360  10.034  1.00 26.63     0.034 C 
BRANCH   8   9
ATOM      9  CG  LYS A 135      30.710  34.734   9.798  1.00 29.45     0.005 C 
BRANCH   9  10
ATOM     10  CD  LYS A 135      30.456  34.550   8.310  1.00 32.00     0.041 C 
BRANCH  10  11
ATOM     11  CE  LYS A 135      29.008  34.853   7.976  1.00 34.25     0.338 C 
ATOM     12  NZ  LYS A 135      28.897  35.583   6.682  1.00 35.99     0.618 N 
ENDBRANCH  10  11
ENDBRANCH   9  10
ENDBRANCH   8   9
ENDBRANCH   7   8
END_RES LYS A 135
