REMARK VINA RESULT:    -5.106      3.943      8.141
REMARK INTER + INTRA:         -14.709
REMARK INTER:                  -8.665
REMARK INTRA:                  -6.044
REMARK UNBOUND:                -5.276
REMARK SMILES COc1ccc(Cn2cc(COC(=O)NC[C@@H](O)C(O)[C@@H]3O[C@@](O)(C(=O)O)C[C@H](O)[C@H]3NC(C)=O)nn2)cc1
REMARK SMILES IDX 15 1 13 2 14 3 16 5 17 6 19 7 21 8 23 9 28 10 22 11 29 12
REMARK SMILES IDX 31 13 24 14 25 16 26 17 27 18 30 20 32 22 33 23 34 25 35 26
REMARK SMILES IDX 20 27 18 29 12 31 11 32 10 33 9 34 36 35 8 36 37 37 7 38
REMARK SMILES IDX 6 39 5 40 38 41 4 42 39 43 3 44 2 45 1 46
REMARK H PARENT 15 4 24 15 27 19 30 21 32 24 20 28 18 30
REMARK Flexibility Score: inf
ROOT
ATOM      1  N   UNL     1      27.410  30.522  17.584  1.00  0.00    -0.319 N 
ATOM      2  C   UNL     1      26.916  29.293  18.071  1.00  0.00     0.407 C 
ATOM      3  O   UNL     1      27.648  28.413  18.586  1.00  0.00    -0.225 OA
ATOM      4  H   UNL     1      26.710  31.180  17.168  1.00  0.00     0.167 HD
ENDROOT
BRANCH   1   5
ATOM      5  C   UNL     1      28.782  30.914  17.625  1.00  0.00     0.154 C 
BRANCH   5   6
ATOM      6  C   UNL     1      29.497  30.840  16.319  1.00  0.00     0.165 C 
BRANCH   6   7
ATOM      7  C   UNL     1      30.112  32.160  15.913  1.00  0.00     0.176 C 
BRANCH   7   8
ATOM      8  C   UNL     1      29.144  33.285  15.820  1.00  0.00     0.178 C 
ATOM      9  C   UNL     1      26.988  33.862  15.207  1.00  0.00     0.269 C 
ATOM     10  C   UNL     1      27.447  35.134  14.552  1.00  0.00     0.112 C 
ATOM     11  O   UNL     1      27.918  32.876  15.302  1.00  0.00    -0.332 OA
ATOM     12  C   UNL     1      28.864  35.509  14.931  1.00  0.00     0.145 C 
ATOM     13  C   UNL     1      29.695  34.279  14.791  1.00  0.00     0.142 C 
BRANCH   9  14
ATOM     14  O   UNL     1      25.968  33.361  14.356  1.00  0.00    -0.357 OA
ATOM     15  H   UNL     1      25.165  33.895  14.572  1.00  0.00     0.214 HD
ENDBRANCH   9  14
BRANCH   9  16
ATOM     16  C   UNL     1      26.320  34.224  16.480  1.00  0.00     0.364 C 
ATOM     17  O   UNL     1      26.078  33.373  17.385  1.00  0.00    -0.246 OA
BRANCH  16  18
ATOM     18  O   UNL     1      25.919  35.531  16.752  1.00  0.00    -0.477 OA
ATOM     19  H   UNL     1      26.313  36.305  16.253  1.00  0.00     0.296 HD
ENDBRANCH  16  18
ENDBRANCH   9  16
BRANCH  12  20
ATOM     20  O   UNL     1      29.295  36.562  14.148  1.00  0.00    -0.391 OA
ATOM     21  H   UNL     1      29.913  37.113  14.652  1.00  0.00     0.211 HD
ENDBRANCH  12  20
BRANCH  13  22
ATOM     22  N   UNL     1      31.102  34.490  14.897  1.00  0.00    -0.348 N 
ATOM     23  C   UNL     1      31.956  34.818  13.835  1.00  0.00     0.217 C 
ATOM     24  H   UNL     1      31.539  34.397  15.854  1.00  0.00     0.163 HD
ATOM     25  C   UNL     1      33.405  35.013  14.077  1.00  0.00     0.114 C 
ATOM     26  O   UNL     1      31.506  34.945  12.692  1.00  0.00    -0.275 OA
ENDBRANCH  13  22
ENDBRANCH   7   8
BRANCH   7  27
ATOM     27  O   UNL     1      31.145  32.465  16.771  1.00  0.00    -0.388 OA
ATOM     28  H   UNL     1      32.037  32.511  16.361  1.00  0.00     0.211 HD
ENDBRANCH   7  27
ENDBRANCH   6   7
BRANCH   6  29
ATOM     29  O   UNL     1      28.757  30.285  15.317  1.00  0.00    -0.388 OA
ATOM     30  H   UNL     1      28.199  31.013  14.908  1.00  0.00     0.211 HD
ENDBRANCH   6  29
ENDBRANCH   5   6
ENDBRANCH   1   5
BRANCH   2  31
ATOM     31  O   UNL     1      25.538  29.018  17.985  1.00  0.00    -0.443 OA
BRANCH  31  32
ATOM     32  C   UNL     1      24.689  30.016  17.467  1.00  0.00     0.294 C 
BRANCH  32  33
ATOM     33  C   UNL     1      24.642  30.006  15.994  1.00  0.00     0.120 A 
ATOM     34  C   UNL     1      23.756  29.291  15.183  1.00  0.00     0.138 A 
ATOM     35  N   UNL     1      25.436  30.671  15.137  1.00  0.00    -0.132 NA
ATOM     36  N   UNL     1      24.043  29.549  13.899  1.00  0.00    -0.248 N 
ATOM     37  N   UNL     1      25.063  30.386  13.899  1.00  0.00    -0.067 NA
BRANCH  36  38
ATOM     38  C   UNL     1      23.388  29.031  12.727  1.00  0.00     0.181 C 
BRANCH  38  39
ATOM     39  C   UNL     1      22.063  29.656  12.525  1.00  0.00    -0.026 A 
ATOM     40  C   UNL     1      21.901  31.014  12.676  1.00  0.00     0.009 A 
ATOM     41  C   UNL     1      20.988  28.875  12.186  1.00  0.00     0.009 A 
ATOM     42  C   UNL     1      20.649  31.593  12.483  1.00  0.00     0.047 A 
ATOM     43  C   UNL     1      19.730  29.442  11.990  1.00  0.00     0.047 A 
ATOM     44  C   UNL     1      19.569  30.796  12.139  1.00  0.00     0.118 A 
BRANCH  44  45
ATOM     45  O   UNL     1      18.322  31.395  11.951  1.00  0.00    -0.497 OA
ATOM     46  C   UNL     1      17.167  30.582  11.839  1.00  0.00     0.278 C 
ENDBRANCH  44  45
ENDBRANCH  38  39
ENDBRANCH  36  38
ENDBRANCH  32  33
ENDBRANCH  31  32
ENDBRANCH   2  31
TORSDOF 17
BEGIN_RES LYS A 131
REMARK  4 active torsions:
REMARK  status: ('A' for Active; 'I' for Inactive)
REMARK    1  A    between atoms: CA   and  CB  
REMARK    2  A    between atoms: CB   and  CG  
REMARK    3  A    between atoms: CG   and  CD  
REMARK    4  A    between atoms: CD   and  CE  
ROOT
ATOM      1  CA  LYS A 131      29.867  25.555  16.977  1.00 20.52     0.186 C 
ENDROOT
BRANCH   1   2
ATOM      2  CB  LYS A 131      28.345  25.722  17.026  1.00 20.94     0.034 C 
BRANCH   2   3
ATOM      3  CG  LYS A 131      27.601  24.405  16.870  1.00 22.96     0.005 C 
BRANCH   3   4
ATOM      4  CD  LYS A 131      26.633  24.164  17.995  1.00 24.33     0.041 C 
BRANCH   4   5
ATOM      5  CE  LYS A 131      25.881  25.455  18.305  1.00 26.91     0.338 C 
ATOM      6  NZ  LYS A 131      25.835  25.690  19.767  1.00 27.40     0.618 N 
ENDBRANCH   4   5
ENDBRANCH   3   4
ENDBRANCH   2   3
ENDBRANCH   1   2
END_RES LYS A 131
BEGIN_RES LYS A 135
REMARK  4 active torsions:
REMARK  status: ('A' for Active; 'I' for Inactive)
REMARK    5  A    between atoms: CA   and  CB  
REMARK    6  A    between atoms: CB   and  CG  
REMARK    7  A    between atoms: CG   and  CD  
REMARK    8  A    between atoms: CD   and  CE  
ROOT
ATOM      7  CA  LYS A 135      33.193  34.663   9.290  1.00 25.02     0.186 C 
ENDROOT
BRANCH   7   8
ATOM      8  CB  LYS A 135      32.060  35.360  10.034  1.00 26.63     0.034 C 
BRANCH   8   9
ATOM      9  CG  LYS A 135      30.771  35.415   9.255  1.00 29.45     0.005 C 
BRANCH   9  10
ATOM     10  CD  LYS A 135      30.194  34.020   9.074  1.00 32.00     0.041 C 
BRANCH  10  11
ATOM     11  CE  LYS A 135      28.680  34.053   9.173  1.00 34.25     0.338 C 
ATOM     12  NZ  LYS A 135      28.085  34.811   8.038  1.00 35.99     0.618 N 
ENDBRANCH  10  11
ENDBRANCH   9  10
ENDBRANCH   8   9
ENDBRANCH   7   8
END_RES LYS A 135
