REMARK VINA RESULT:    -9.165      5.983     11.164
REMARK INTER + INTRA:         -13.451
REMARK INTER:                  -9.494
REMARK INTRA:                  -3.957
REMARK UNBOUND:                 4.555
REMARK SMILES CC(=O)N[C@@H]1[C@@H](O)C[C@](O)(C(=O)O)O[C@H]1C(O)[C@H](O)CNC(=O)OCc1cn(C2CCc3ccccc3NC2=O)nn1
REMARK SMILES IDX 24 1 22 2 21 3 23 5 20 6 18 7 16 8 15 9 9 10 8 11 14 12 6 13
REMARK SMILES IDX 5 14 10 15 11 17 12 18 13 19 7 21 4 23 2 24 1 26 3 27 17 28
REMARK SMILES IDX 19 30 25 32 26 33 27 34 42 35 28 36 41 37 29 38 39 40 38 41
REMARK SMILES IDX 40 42 37 44 32 45 36 46 33 47 35 48 34 49 31 50 30 51
REMARK H PARENT 21 4 10 16 13 20 7 22 4 25 17 29 19 31 38 43
REMARK Flexibility Score: 80.00
ROOT
ATOM      1  O   UNL     1      28.276  43.886   9.015  1.00  0.00    -0.443 OA
ENDROOT
BRANCH   1   2
ATOM      2  C   UNL     1      27.652  42.662   8.982  1.00  0.00     0.407 C 
ATOM      3  N   UNL     1      27.794  41.813   7.833  1.00  0.00    -0.319 N 
ATOM      4  H   UNL     1      28.389  42.186   7.056  1.00  0.00     0.167 HD
ATOM      5  O   UNL     1      26.945  42.244   9.933  1.00  0.00    -0.225 OA
BRANCH   3   6
ATOM      6  C   UNL     1      27.150  40.515   7.756  1.00  0.00     0.154 C 
BRANCH   6   7
ATOM      7  C   UNL     1      28.222  39.453   7.761  1.00  0.00     0.165 C 
BRANCH   7   8
ATOM      8  C   UNL     1      28.429  38.844   9.131  1.00  0.00     0.176 C 
BRANCH   8   9
ATOM      9  C   UNL     1      28.233  37.321   9.078  1.00  0.00     0.178 C 
ATOM     10  C   UNL     1      29.213  35.560   7.878  1.00  0.00     0.269 C 
ATOM     11  C   UNL     1      27.863  34.914   7.927  1.00  0.00     0.112 C 
ATOM     12  O   UNL     1      29.296  36.801   8.446  1.00  0.00    -0.332 OA
ATOM     13  C   UNL     1      26.873  35.967   7.460  1.00  0.00     0.145 C 
ATOM     14  C   UNL     1      26.889  37.085   8.472  1.00  0.00     0.142 C 
BRANCH  10  15
ATOM     15  O   UNL     1      29.563  35.733   6.523  1.00  0.00    -0.357 OA
ATOM     16  H   UNL     1      30.413  35.234   6.412  1.00  0.00     0.214 HD
ENDBRANCH  10  15
BRANCH  10  17
ATOM     17  C   UNL     1      30.268  34.711   8.488  1.00  0.00     0.364 C 
ATOM     18  O   UNL     1      30.043  34.145   9.579  1.00  0.00    -0.246 OA
BRANCH  17  19
ATOM     19  O   UNL     1      31.508  34.519   7.885  1.00  0.00    -0.477 OA
ATOM     20  H   UNL     1      31.504  34.428   6.858  1.00  0.00     0.296 HD
ENDBRANCH  17  19
ENDBRANCH  10  17
BRANCH  13  21
ATOM     21  O   UNL     1      27.338  36.459   6.245  1.00  0.00    -0.391 OA
ATOM     22  H   UNL     1      28.240  36.830   6.399  1.00  0.00     0.211 HD
ENDBRANCH  13  21
BRANCH  14  23
ATOM     23  N   UNL     1      25.982  36.699   9.539  1.00  0.00    -0.348 N 
ATOM     24  C   UNL     1      24.801  37.416   9.863  1.00  0.00     0.217 C 
ATOM     25  H   UNL     1      26.212  35.831  10.113  1.00  0.00     0.163 HD
ATOM     26  C   UNL     1      23.955  36.925  10.976  1.00  0.00     0.114 C 
ATOM     27  O   UNL     1      24.521  38.444   9.191  1.00  0.00    -0.275 OA
ENDBRANCH  14  23
ENDBRANCH   8   9
BRANCH   8  28
ATOM     28  O   UNL     1      27.430  39.375   9.954  1.00  0.00    -0.388 OA
ATOM     29  H   UNL     1      27.449  39.022  10.868  1.00  0.00     0.211 HD
ENDBRANCH   8  28
ENDBRANCH   7   8
BRANCH   7  30
ATOM     30  O   UNL     1      29.420  39.941   7.252  1.00  0.00    -0.388 OA
ATOM     31  H   UNL     1      29.313  40.789   6.774  1.00  0.00     0.211 HD
ENDBRANCH   7  30
ENDBRANCH   6   7
ENDBRANCH   3   6
ENDBRANCH   1   2
BRANCH   1  32
ATOM     32  C   UNL     1      29.623  44.025   9.436  1.00  0.00     0.294 C 
BRANCH  32  33
ATOM     33  C   UNL     1      30.541  43.241   8.573  1.00  0.00     0.120 A 
ATOM     34  C   UNL     1      31.617  42.483   9.046  1.00  0.00     0.139 A 
ATOM     35  N   UNL     1      30.562  43.082   7.237  1.00  0.00    -0.132 NA
ATOM     36  N   UNL     1      32.237  41.909   8.001  1.00  0.00    -0.240 N 
ATOM     37  N   UNL     1      31.575  42.291   6.931  1.00  0.00    -0.066 NA
BRANCH  36  38
ATOM     38  C   UNL     1      33.402  41.052   8.046  1.00  0.00     0.198 CG0
ATOM     39  G   UNL     1      34.566  41.788   7.468  1.00  0.00     0.000 G0
BRANCH  38  40
ATOM     40  C   UNL     1      33.146  39.753   7.364  1.00  0.00     0.249 C 
ATOM     41  N   UNL     1      33.910  38.994   6.445  1.00  0.00    -0.324 N 
ATOM     42  O   UNL     1      32.035  39.260   7.683  1.00  0.00    -0.272 OA
ATOM     43  H   UNL     1      33.440  38.243   5.897  1.00  0.00     0.170 HD
BRANCH  41  44
ATOM     44  C   UNL     1      35.314  39.132   6.157  1.00  0.00     0.044 A 
ATOM     45  C   UNL     1      36.198  40.030   6.724  1.00  0.00    -0.024 A 
ATOM     46  C   UNL     1      35.708  38.216   5.201  1.00  0.00     0.026 A 
ATOM     47  C   UNL     1      37.497  40.003   6.319  1.00  0.00     0.006 A 
ATOM     48  C   UNL     1      37.023  38.191   4.792  1.00  0.00     0.002 A 
ATOM     49  C   UNL     1      37.903  39.086   5.357  1.00  0.00     0.000 A 
BRANCH  45  50
ATOM     50  C   UNL     1      35.887  41.054   7.758  1.00  0.00     0.040 C 
BRANCH  50  51
ATOM     51  C   UNL     1      34.581  41.779   7.477  1.00  0.00     0.042 CG0
ATOM     52  G   UNL     1      33.398  41.052   8.029  1.00  0.00     0.000 G0
ENDBRANCH  50  51
ENDBRANCH  45  50
ENDBRANCH  41  44
ENDBRANCH  38  40
ENDBRANCH  36  38
ENDBRANCH  32  33
ENDBRANCH   1  32
TORSDOF 15
BEGIN_RES LYS A 131
REMARK  4 active torsions:
REMARK  status: ('A' for Active; 'I' for Inactive)
REMARK    1  A    between atoms: CA   and  CB  
REMARK    2  A    between atoms: CB   and  CG  
REMARK    3  A    between atoms: CG   and  CD  
REMARK    4  A    between atoms: CD   and  CE  
ROOT
ATOM      1  CA  LYS A 131      29.867  25.555  16.977  1.00 20.52     0.186 C 
ENDROOT
BRANCH   1   2
ATOM      2  CB  LYS A 131      28.345  25.722  17.026  1.00 20.94     0.034 C 
BRANCH   2   3
ATOM      3  CG  LYS A 131      27.602  24.399  16.922  1.00 22.96     0.005 C 
BRANCH   3   4
ATOM      4  CD  LYS A 131      26.141  24.543  17.246  1.00 24.33     0.041 C 
BRANCH   4   5
ATOM      5  CE  LYS A 131      25.929  24.344  18.743  1.00 26.91     0.338 C 
ATOM      6  NZ  LYS A 131      24.849  23.360  18.988  1.00 27.40     0.618 N 
ENDBRANCH   4   5
ENDBRANCH   3   4
ENDBRANCH   2   3
ENDBRANCH   1   2
END_RES LYS A 131
BEGIN_RES LYS A 135
REMARK  4 active torsions:
REMARK  status: ('A' for Active; 'I' for Inactive)
REMARK    5  A    between atoms: CA   and  CB  
REMARK    6  A    between atoms: CB   and  CG  
REMARK    7  A    between atoms: CG   and  CD  
REMARK    8  A    between atoms: CD   and  CE  
ROOT
ATOM      7  CA  LYS A 135      33.193  34.663   9.290  1.00 25.02     0.186 C 
ENDROOT
BRANCH   7   8
ATOM      8  CB  LYS A 135      32.060  35.360  10.034  1.00 26.63     0.034 C 
BRANCH   8   9
ATOM      9  CG  LYS A 135      32.536  36.323  11.091  1.00 29.45     0.005 C 
BRANCH   9  10
ATOM     10  CD  LYS A 135      31.656  36.240  12.328  1.00 32.00     0.041 C 
BRANCH  10  11
ATOM     11  CE  LYS A 135      30.245  36.696  12.010  1.00 34.25     0.338 C 
ATOM     12  NZ  LYS A 135      29.244  35.952  12.824  1.00 35.99     0.618 N 
ENDBRANCH  10  11
ENDBRANCH   9  10
ENDBRANCH   8   9
ENDBRANCH   7   8
END_RES LYS A 135
