REMARK VINA RESULT:    -4.216      8.480     13.572
REMARK INTER + INTRA:         -14.305
REMARK INTER:                  -8.259
REMARK INTRA:                  -6.046
REMARK UNBOUND:                -7.007
REMARK SMILES CC(=O)N[C@@H]1[C@@H](O)C[C@](O)(C(=O)O)O[C@H]1C(O)[C@H](O)CNC(=O)OCc1cn(-c2ccc(Cl)cc2)nn1
REMARK SMILES IDX 20 1 18 2 16 3 15 4 9 5 8 6 14 7 6 8 5 9 10 10 11 12 12 13
REMARK SMILES IDX 13 14 7 16 4 18 2 19 1 21 3 22 17 23 19 25 21 27 22 28 23 30
REMARK SMILES IDX 24 31 25 32 26 33 27 34 37 35 28 36 36 37 29 38 30 39 35 40
REMARK SMILES IDX 31 41 34 42 32 43 33 44
REMARK H PARENT 10 11 13 15 7 17 4 20 17 24 19 26 21 29
REMARK Flexibility Score: inf
ROOT
ATOM      1  C   UNL     1      26.923  39.010   7.511  1.00  0.00     0.154 C 
ENDROOT
BRANCH   1   2
ATOM      2  C   UNL     1      26.008  37.826   7.505  1.00  0.00     0.165 C 
BRANCH   2   3
ATOM      3  C   UNL     1      26.131  37.130   8.869  1.00  0.00     0.176 C 
BRANCH   3   4
ATOM      4  C   UNL     1      25.026  36.092   9.055  1.00  0.00     0.178 C 
ATOM      5  C   UNL     1      22.877  37.036   9.074  1.00  0.00     0.269 C 
ATOM      6  C   UNL     1      22.295  36.074  10.088  1.00  0.00     0.112 C 
ATOM      7  O   UNL     1      23.930  36.568   8.366  1.00  0.00    -0.332 OA
ATOM      8  C   UNL     1      23.359  35.136  10.532  1.00  0.00     0.145 C 
ATOM      9  C   UNL     1      24.693  35.854  10.470  1.00  0.00     0.142 C 
BRANCH   5  10
ATOM     10  O   UNL     1      23.118  38.224   9.759  1.00  0.00    -0.357 OA
ATOM     11  H   UNL     1      23.736  37.996  10.498  1.00  0.00     0.214 HD
ENDBRANCH   5  10
BRANCH   5  12
ATOM     12  C   UNL     1      21.781  37.310   8.108  1.00  0.00     0.364 C 
ATOM     13  O   UNL     1      20.864  38.084   8.464  1.00  0.00    -0.246 OA
BRANCH  12  14
ATOM     14  O   UNL     1      21.751  36.746   6.863  1.00  0.00    -0.477 OA
ATOM     15  H   UNL     1      20.865  36.403   6.484  1.00  0.00     0.296 HD
ENDBRANCH  12  14
ENDBRANCH   5  12
BRANCH   8  16
ATOM     16  O   UNL     1      23.122  34.580  11.783  1.00  0.00    -0.391 OA
ATOM     17  H   UNL     1      22.953  35.277  12.448  1.00  0.00     0.211 HD
ENDBRANCH   8  16
BRANCH   9  18
ATOM     18  N   UNL     1      25.617  35.110  11.256  1.00  0.00    -0.348 N 
ATOM     19  C   UNL     1      26.368  35.672  12.316  1.00  0.00     0.217 C 
ATOM     20  H   UNL     1      25.716  34.092  11.000  1.00  0.00     0.163 HD
ATOM     21  C   UNL     1      27.318  34.867  13.110  1.00  0.00     0.114 C 
ATOM     22  O   UNL     1      26.155  36.899  12.517  1.00  0.00    -0.275 OA
ENDBRANCH   9  18
ENDBRANCH   3   4
BRANCH   3  23
ATOM     23  O   UNL     1      26.064  38.082   9.891  1.00  0.00    -0.388 OA
ATOM     24  H   UNL     1      25.477  38.849   9.639  1.00  0.00     0.211 HD
ENDBRANCH   3  23
ENDBRANCH   2   3
BRANCH   2  25
ATOM     25  O   UNL     1      26.259  36.949   6.475  1.00  0.00    -0.388 OA
ATOM     26  H   UNL     1      25.485  36.568   6.026  1.00  0.00     0.211 HD
ENDBRANCH   2  25
ENDBRANCH   1   2
BRANCH   1  27
ATOM     27  N   UNL     1      28.217  38.809   8.072  1.00  0.00    -0.319 N 
ATOM     28  C   UNL     1      29.310  38.204   7.403  1.00  0.00     0.407 C 
ATOM     29  H   UNL     1      28.398  39.128   9.064  1.00  0.00     0.167 HD
ATOM     30  O   UNL     1      29.217  37.798   6.233  1.00  0.00    -0.225 OA
BRANCH  28  31
ATOM     31  O   UNL     1      30.543  38.049   8.064  1.00  0.00    -0.443 OA
BRANCH  31  32
ATOM     32  C   UNL     1      30.961  38.988   9.052  1.00  0.00     0.294 C 
BRANCH  32  33
ATOM     33  C   UNL     1      30.700  38.365  10.372  1.00  0.00     0.121 A 
ATOM     34  C   UNL     1      31.631  38.096  11.331  1.00  0.00     0.144 A 
ATOM     35  N   UNL     1      29.527  37.966  10.842  1.00  0.00    -0.131 NA
ATOM     36  N   UNL     1      30.979  37.532  12.369  1.00  0.00    -0.220 N 
ATOM     37  N   UNL     1      29.698  37.460  12.056  1.00  0.00    -0.062 NA
BRANCH  36  38
ATOM     38  C   UNL     1      31.634  37.112  13.569  1.00  0.00     0.066 A 
ATOM     39  C   UNL     1      31.492  37.858  14.714  1.00  0.00     0.030 A 
ATOM     40  C   UNL     1      32.385  35.965  13.521  1.00  0.00     0.030 A 
ATOM     41  C   UNL     1      32.142  37.416  15.850  1.00  0.00     0.023 A 
ATOM     42  C   UNL     1      33.021  35.550  14.674  1.00  0.00     0.023 A 
ATOM     43  C   UNL     1      32.911  36.261  15.843  1.00  0.00     0.041 A 
ATOM     44  Cl  UNL     1      33.739  35.685  17.264  1.00  0.00    -0.084 Cl
ENDBRANCH  36  38
ENDBRANCH  32  33
ENDBRANCH  31  32
ENDBRANCH  28  31
ENDBRANCH   1  27
TORSDOF 15
BEGIN_RES LYS A 131
REMARK  4 active torsions:
REMARK  status: ('A' for Active; 'I' for Inactive)
REMARK    1  A    between atoms: CA   and  CB  
REMARK    2  A    between atoms: CB   and  CG  
REMARK    3  A    between atoms: CG   and  CD  
REMARK    4  A    between atoms: CD   and  CE  
ROOT
ATOM      1  CA  LYS A 131      29.867  25.555  16.977  1.00 20.52     0.186 C 
ENDROOT
BRANCH   1   2
ATOM      2  CB  LYS A 131      28.345  25.722  17.026  1.00 20.94     0.034 C 
BRANCH   2   3
ATOM      3  CG  LYS A 131      27.602  24.399  16.923  1.00 22.96     0.005 C 
BRANCH   3   4
ATOM      4  CD  LYS A 131      26.558  24.251  17.995  1.00 24.33     0.041 C 
BRANCH   4   5
ATOM      5  CE  LYS A 131      26.349  25.592  18.691  1.00 26.91     0.338 C 
ATOM      6  NZ  LYS A 131      24.989  26.112  18.415  1.00 27.40     0.618 N 
ENDBRANCH   4   5
ENDBRANCH   3   4
ENDBRANCH   2   3
ENDBRANCH   1   2
END_RES LYS A 131
BEGIN_RES LYS A 135
REMARK  4 active torsions:
REMARK  status: ('A' for Active; 'I' for Inactive)
REMARK    5  A    between atoms: CA   and  CB  
REMARK    6  A    between atoms: CB   and  CG  
REMARK    7  A    between atoms: CG   and  CD  
REMARK    8  A    between atoms: CD   and  CE  
ROOT
ATOM      7  CA  LYS A 135      33.193  34.663   9.290  1.00 25.02     0.186 C 
ENDROOT
BRANCH   7   8
ATOM      8  CB  LYS A 135      32.060  35.360  10.034  1.00 26.63     0.034 C 
BRANCH   8   9
ATOM      9  CG  LYS A 135      30.730  34.666   9.894  1.00 29.45     0.005 C 
BRANCH   9  10
ATOM     10  CD  LYS A 135      30.325  34.573   8.431  1.00 32.00     0.041 C 
BRANCH  10  11
ATOM     11  CE  LYS A 135      28.814  34.554   8.296  1.00 34.25     0.338 C 
ATOM     12  NZ  LYS A 135      28.186  33.802   9.418  1.00 35.99     0.618 N 
ENDBRANCH  10  11
ENDBRANCH   9  10
ENDBRANCH   8   9
ENDBRANCH   7   8
END_RES LYS A 135
