REMARK VINA RESULT:    -4.799      4.602      9.593
REMARK INTER + INTRA:         -14.984
REMARK INTER:                 -10.389
REMARK INTRA:                  -4.596
REMARK UNBOUND:                -6.398
REMARK SMILES CC(=O)N[C@@H]1[C@@H](O)C[C@](O)(C(=O)O)O[C@H]1C(O)[C@H](O)CNC(=O)OCc1cn(Cc2ccc(Br)cc2)nn1
REMARK SMILES IDX 21 1 22 2 23 3 20 5 18 6 16 7 15 8 9 9 8 10 14 11 6 12 5 13
REMARK SMILES IDX 10 14 11 16 12 17 13 18 7 20 4 22 2 23 1 25 3 26 17 27 19 29
REMARK SMILES IDX 24 31 25 32 26 33 27 34 38 35 28 36 37 37 29 38 30 39 31 40
REMARK SMILES IDX 36 41 32 42 35 43 33 44 34 45
REMARK H PARENT 21 4 10 15 13 19 7 21 4 24 17 28 19 30
REMARK Flexibility Score: inf
ROOT
ATOM      1  N   UNL     1      28.313  29.578  17.839  1.00  0.00    -0.319 N 
ATOM      2  C   UNL     1      28.016  29.915  16.496  1.00  0.00     0.407 C 
ATOM      3  O   UNL     1      26.961  29.644  15.891  1.00  0.00    -0.225 OA
ATOM      4  H   UNL     1      29.252  29.868  18.259  1.00  0.00     0.167 HD
ENDROOT
BRANCH   1   5
ATOM      5  C   UNL     1      27.364  28.855  18.625  1.00  0.00     0.154 C 
BRANCH   5   6
ATOM      6  C   UNL     1      27.951  28.070  19.771  1.00  0.00     0.165 C 
BRANCH   6   7
ATOM      7  C   UNL     1      28.861  28.867  20.633  1.00  0.00     0.176 C 
BRANCH   7   8
ATOM      8  C   UNL     1      28.954  28.536  22.069  1.00  0.00     0.178 C 
ATOM      9  C   UNL     1      30.875  27.342  22.521  1.00  0.00     0.269 C 
ATOM     10  C   UNL     1      30.416  26.880  23.885  1.00  0.00     0.112 C 
ATOM     11  O   UNL     1      30.325  28.605  22.369  1.00  0.00    -0.332 OA
ATOM     12  C   UNL     1      28.936  26.722  23.804  1.00  0.00     0.145 C 
ATOM     13  C   UNL     1      28.283  27.343  22.585  1.00  0.00     0.142 C 
BRANCH   9  14
ATOM     14  O   UNL     1      30.451  26.410  21.600  1.00  0.00    -0.357 OA
ATOM     15  H   UNL     1      29.492  26.233  21.609  1.00  0.00     0.214 HD
ENDBRANCH   9  14
BRANCH   9  16
ATOM     16  C   UNL     1      32.351  27.471  22.566  1.00  0.00     0.364 C 
ATOM     17  O   UNL     1      33.064  26.889  23.414  1.00  0.00    -0.246 OA
BRANCH  16  18
ATOM     18  O   UNL     1      32.945  28.287  21.609  1.00  0.00    -0.477 OA
ATOM     19  H   UNL     1      32.434  28.709  20.850  1.00  0.00     0.296 HD
ENDBRANCH  16  18
ENDBRANCH   9  16
BRANCH  12  20
ATOM     20  O   UNL     1      28.676  25.334  23.729  1.00  0.00    -0.391 OA
ATOM     21  H   UNL     1      29.200  24.829  24.382  1.00  0.00     0.211 HD
ENDBRANCH  12  20
BRANCH  13  22
ATOM     22  N   UNL     1      26.928  27.659  23.091  1.00  0.00    -0.348 N 
ATOM     23  C   UNL     1      25.810  26.852  22.848  1.00  0.00     0.217 C 
ATOM     24  H   UNL     1      26.875  28.545  23.649  1.00  0.00     0.163 HD
ATOM     25  C   UNL     1      24.484  27.264  23.396  1.00  0.00     0.114 C 
ATOM     26  O   UNL     1      25.914  25.808  22.188  1.00  0.00    -0.275 OA
ENDBRANCH  13  22
ENDBRANCH   7   8
BRANCH   7  27
ATOM     27  O   UNL     1      30.057  29.082  19.965  1.00  0.00    -0.388 OA
ATOM     28  H   UNL     1      30.782  29.260  20.630  1.00  0.00     0.211 HD
ENDBRANCH   7  27
ENDBRANCH   6   7
BRANCH   6  29
ATOM     29  O   UNL     1      28.434  26.819  19.428  1.00  0.00    -0.388 OA
ATOM     30  H   UNL     1      27.750  26.121  19.425  1.00  0.00     0.211 HD
ENDBRANCH   6  29
ENDBRANCH   5   6
ENDBRANCH   1   5
BRANCH   2  31
ATOM     31  O   UNL     1      28.977  30.618  15.770  1.00  0.00    -0.443 OA
BRANCH  31  32
ATOM     32  C   UNL     1      30.142  31.113  16.383  1.00  0.00     0.294 C 
BRANCH  32  33
ATOM     33  C   UNL     1      30.640  32.331  15.719  1.00  0.00     0.120 A 
ATOM     34  C   UNL     1      31.780  33.070  15.928  1.00  0.00     0.138 A 
ATOM     35  N   UNL     1      29.954  32.933  14.720  1.00  0.00    -0.132 NA
ATOM     36  N   UNL     1      31.752  34.098  15.048  1.00  0.00    -0.248 N 
ATOM     37  N   UNL     1      30.643  33.978  14.344  1.00  0.00    -0.067 NA
BRANCH  36  38
ATOM     38  C   UNL     1      32.774  35.118  14.934  1.00  0.00     0.181 C 
BRANCH  38  39
ATOM     39  C   UNL     1      32.290  36.126  13.933  1.00  0.00    -0.026 A 
ATOM     40  C   UNL     1      32.716  36.028  12.617  1.00  0.00     0.007 A 
ATOM     41  C   UNL     1      31.433  37.128  14.333  1.00  0.00     0.007 A 
ATOM     42  C   UNL     1      32.262  36.959  11.720  1.00  0.00     0.016 A 
ATOM     43  C   UNL     1      30.970  38.076  13.422  1.00  0.00     0.016 A 
ATOM     44  C   UNL     1      31.406  37.957  12.126  1.00  0.00     0.017 A 
ATOM     45  Br  UNL     1      30.788  39.242  10.851  1.00  0.00    -0.051 Br
ENDBRANCH  38  39
ENDBRANCH  36  38
ENDBRANCH  32  33
ENDBRANCH  31  32
ENDBRANCH   2  31
TORSDOF 16
BEGIN_RES LYS A 131
REMARK  4 active torsions:
REMARK  status: ('A' for Active; 'I' for Inactive)
REMARK    1  A    between atoms: CA   and  CB  
REMARK    2  A    between atoms: CB   and  CG  
REMARK    3  A    between atoms: CG   and  CD  
REMARK    4  A    between atoms: CD   and  CE  
ROOT
ATOM      1  CA  LYS A 131      29.867  25.555  16.977  1.00 20.52     0.186 C 
ENDROOT
BRANCH   1   2
ATOM      2  CB  LYS A 131      28.345  25.722  17.026  1.00 20.94     0.034 C 
BRANCH   2   3
ATOM      3  CG  LYS A 131      27.600  24.407  16.855  1.00 22.96     0.005 C 
BRANCH   3   4
ATOM      4  CD  LYS A 131      26.145  24.530  17.211  1.00 24.33     0.041 C 
BRANCH   4   5
ATOM      5  CE  LYS A 131      25.984  24.460  18.726  1.00 26.91     0.338 C 
ATOM      6  NZ  LYS A 131      25.473  23.129  19.133  1.00 27.40     0.618 N 
ENDBRANCH   4   5
ENDBRANCH   3   4
ENDBRANCH   2   3
ENDBRANCH   1   2
END_RES LYS A 131
BEGIN_RES LYS A 135
REMARK  4 active torsions:
REMARK  status: ('A' for Active; 'I' for Inactive)
REMARK    5  A    between atoms: CA   and  CB  
REMARK    6  A    between atoms: CB   and  CG  
REMARK    7  A    between atoms: CG   and  CD  
REMARK    8  A    between atoms: CD   and  CE  
ROOT
ATOM      7  CA  LYS A 135      33.193  34.663   9.290  1.00 25.02     0.186 C 
ENDROOT
BRANCH   7   8
ATOM      8  CB  LYS A 135      32.060  35.360  10.034  1.00 26.63     0.034 C 
BRANCH   8   9
ATOM      9  CG  LYS A 135      30.795  35.486   9.224  1.00 29.45     0.005 C 
BRANCH   9  10
ATOM     10  CD  LYS A 135      30.186  34.117   8.965  1.00 32.00     0.041 C 
BRANCH  10  11
ATOM     11  CE  LYS A 135      28.710  34.243   8.641  1.00 34.25     0.338 C 
ATOM     12  NZ  LYS A 135      27.869  33.820   9.796  1.00 35.99     0.618 N 
ENDBRANCH  10  11
ENDBRANCH   9  10
ENDBRANCH   8   9
ENDBRANCH   7   8
END_RES LYS A 135
