REMARK VINA RESULT:    -4.321      2.135      6.718
REMARK INTER + INTRA:         -15.168
REMARK INTER:                  -8.408
REMARK INTRA:                  -6.761
REMARK UNBOUND:                -7.311
REMARK SMILES CC(=O)N[C@@H]1[C@@H](O)C[C@](O)(C(=O)O)O[C@H]1C(O)[C@H](O)CNC(=O)OCc1cn(-c2ccc(O)c([N+](=O)[O-])c2)nn1
REMARK SMILES IDX 21 1 22 2 23 3 20 5 18 6 16 7 15 8 9 9 8 10 14 11 6 12 5 13
REMARK SMILES IDX 10 14 11 16 12 17 13 18 7 20 4 22 2 23 1 25 3 26 17 27 19 29
REMARK SMILES IDX 24 31 25 32 26 33 27 34 40 35 28 36 39 37 29 38 30 39 38 40
REMARK SMILES IDX 31 41 34 42 32 43 35 44 36 45 37 46 33 47
REMARK H PARENT 21 4 10 15 13 19 7 21 4 24 17 28 19 30 33 48
REMARK Flexibility Score: inf
ROOT
ATOM      1  N   UNL     1      24.701  34.282  14.161  1.00  0.00    -0.319 N 
ATOM      2  C   UNL     1      24.098  33.038  13.832  1.00  0.00     0.407 C 
ATOM      3  O   UNL     1      24.707  32.160  13.136  1.00  0.00    -0.225 OA
ATOM      4  H   UNL     1      24.177  34.962  14.733  1.00  0.00     0.167 HD
ENDROOT
BRANCH   1   5
ATOM      5  C   UNL     1      26.030  34.558  13.700  1.00  0.00     0.154 C 
BRANCH   5   6
ATOM      6  C   UNL     1      27.136  34.294  14.658  1.00  0.00     0.165 C 
BRANCH   6   7
ATOM      7  C   UNL     1      28.506  34.724  14.203  1.00  0.00     0.176 C 
BRANCH   7   8
ATOM      8  C   UNL     1      29.638  34.060  14.924  1.00  0.00     0.178 C 
ATOM      9  C   UNL     1      30.211  32.641  16.635  1.00  0.00     0.269 C 
ATOM     10  C   UNL     1      31.501  32.654  15.848  1.00  0.00     0.112 C 
ATOM     11  O   UNL     1      29.208  33.406  16.066  1.00  0.00    -0.332 OA
ATOM     12  C   UNL     1      31.969  34.062  15.690  1.00  0.00     0.145 C 
ATOM     13  C   UNL     1      30.845  34.909  15.081  1.00  0.00     0.142 C 
BRANCH   9  14
ATOM     14  O   UNL     1      30.501  33.141  17.897  1.00  0.00    -0.357 OA
ATOM     15  H   UNL     1      31.241  32.585  18.265  1.00  0.00     0.214 HD
ENDBRANCH   9  14
BRANCH   9  16
ATOM     16  C   UNL     1      29.795  31.223  16.778  1.00  0.00     0.364 C 
ATOM     17  O   UNL     1      28.961  30.705  15.991  1.00  0.00    -0.246 OA
BRANCH  16  18
ATOM     18  O   UNL     1      30.321  30.438  17.786  1.00  0.00    -0.477 OA
ATOM     19  H   UNL     1      29.800  29.735  18.274  1.00  0.00     0.296 HD
ENDBRANCH  16  18
ENDBRANCH   9  16
BRANCH  12  20
ATOM     20  O   UNL     1      32.318  34.528  16.971  1.00  0.00    -0.391 OA
ATOM     21  H   UNL     1      31.699  34.060  17.609  1.00  0.00     0.211 HD
ENDBRANCH  12  20
BRANCH  13  22
ATOM     22  N   UNL     1      31.280  35.284  13.726  1.00  0.00    -0.348 N 
ATOM     23  C   UNL     1      31.813  36.553  13.419  1.00  0.00     0.217 C 
ATOM     24  H   UNL     1      31.188  34.575  12.961  1.00  0.00     0.163 HD
ATOM     25  C   UNL     1      32.238  36.893  12.040  1.00  0.00     0.114 C 
ATOM     26  O   UNL     1      31.928  37.402  14.313  1.00  0.00    -0.275 OA
ENDBRANCH  13  22
ENDBRANCH   7   8
BRANCH   7  27
ATOM     27  O   UNL     1      28.678  34.503  12.837  1.00  0.00    -0.388 OA
ATOM     28  H   UNL     1      29.600  34.343  12.579  1.00  0.00     0.211 HD
ENDBRANCH   7  27
ENDBRANCH   6   7
BRANCH   6  29
ATOM     29  O   UNL     1      27.130  32.912  14.904  1.00  0.00    -0.388 OA
ATOM     30  H   UNL     1      27.433  32.781  15.848  1.00  0.00     0.211 HD
ENDBRANCH   6  29
ENDBRANCH   5   6
ENDBRANCH   1   5
BRANCH   2  31
ATOM     31  O   UNL     1      22.822  32.796  14.285  1.00  0.00    -0.443 OA
BRANCH  31  32
ATOM     32  C   UNL     1      22.586  32.663  15.653  1.00  0.00     0.294 C 
BRANCH  32  33
ATOM     33  C   UNL     1      23.787  32.246  16.424  1.00  0.00     0.121 A 
ATOM     34  C   UNL     1      24.207  30.959  16.727  1.00  0.00     0.144 A 
ATOM     35  N   UNL     1      24.713  33.043  16.988  1.00  0.00    -0.131 NA
ATOM     36  N   UNL     1      25.341  31.002  17.443  1.00  0.00    -0.220 N 
ATOM     37  N   UNL     1      25.631  32.283  17.590  1.00  0.00    -0.062 NA
BRANCH  36  38
ATOM     38  C   UNL     1      26.113  29.925  17.961  1.00  0.00     0.073 A 
ATOM     39  C   UNL     1      25.990  28.662  17.423  1.00  0.00     0.033 A 
ATOM     40  C   UNL     1      27.004  30.079  19.004  1.00  0.00     0.118 A 
ATOM     41  C   UNL     1      26.732  27.599  17.912  1.00  0.00     0.056 A 
ATOM     42  C   UNL     1      27.766  29.047  19.527  1.00  0.00     0.312 A 
ATOM     43  C   UNL     1      27.610  27.789  18.952  1.00  0.00     0.194 A 
BRANCH  42  44
ATOM     44  N   UNL     1      28.672  29.222  20.593  1.00  0.00     0.066 N 
ATOM     45  O   UNL     1      28.247  29.534  21.706  1.00  0.00    -0.258 OA
ATOM     46  O   UNL     1      30.004  29.045  20.390  1.00  0.00    -0.258 OA
ENDBRANCH  42  44
BRANCH  43  47
ATOM     47  O   UNL     1      28.378  26.753  19.481  1.00  0.00    -0.502 OA
ATOM     48  H   UNL     1      27.886  25.985  19.960  1.00  0.00     0.293 HD
ENDBRANCH  43  47
ENDBRANCH  36  38
ENDBRANCH  32  33
ENDBRANCH  31  32
ENDBRANCH   2  31
TORSDOF 17
BEGIN_RES LYS A 131
REMARK  4 active torsions:
REMARK  status: ('A' for Active; 'I' for Inactive)
REMARK    1  A    between atoms: CA   and  CB  
REMARK    2  A    between atoms: CB   and  CG  
REMARK    3  A    between atoms: CG   and  CD  
REMARK    4  A    between atoms: CD   and  CE  
ROOT
ATOM      1  CA  LYS A 131      29.867  25.555  16.977  1.00 20.52     0.186 C 
ENDROOT
BRANCH   1   2
ATOM      2  CB  LYS A 131      28.345  25.722  17.026  1.00 20.94     0.034 C 
BRANCH   2   3
ATOM      3  CG  LYS A 131      27.599  24.431  16.727  1.00 22.96     0.005 C 
BRANCH   3   4
ATOM      4  CD  LYS A 131      26.981  23.835  17.961  1.00 24.33     0.041 C 
BRANCH   4   5
ATOM      5  CE  LYS A 131      25.571  23.348  17.641  1.00 26.91     0.338 C 
ATOM      6  NZ  LYS A 131      24.815  24.394  16.912  1.00 27.40     0.618 N 
ENDBRANCH   4   5
ENDBRANCH   3   4
ENDBRANCH   2   3
ENDBRANCH   1   2
END_RES LYS A 131
BEGIN_RES LYS A 135
REMARK  4 active torsions:
REMARK  status: ('A' for Active; 'I' for Inactive)
REMARK    5  A    between atoms: CA   and  CB  
REMARK    6  A    between atoms: CB   and  CG  
REMARK    7  A    between atoms: CG   and  CD  
REMARK    8  A    between atoms: CD   and  CE  
ROOT
ATOM      7  CA  LYS A 135      33.193  34.663   9.290  1.00 25.02     0.186 C 
ENDROOT
BRANCH   7   8
ATOM      8  CB  LYS A 135      32.060  35.360  10.034  1.00 26.63     0.034 C 
BRANCH   8   9
ATOM      9  CG  LYS A 135      30.796  35.488   9.224  1.00 29.45     0.005 C 
BRANCH   9  10
ATOM     10  CD  LYS A 135      30.112  34.137   9.079  1.00 32.00     0.041 C 
BRANCH  10  11
ATOM     11  CE  LYS A 135      28.665  34.315   8.661  1.00 34.25     0.338 C 
ATOM     12  NZ  LYS A 135      27.744  33.643   9.619  1.00 35.99     0.618 N 
ENDBRANCH  10  11
ENDBRANCH   9  10
ENDBRANCH   8   9
ENDBRANCH   7   8
END_RES LYS A 135
