REMARK VINA RESULT:    -5.135      3.379      7.803
REMARK INTER + INTRA:         -14.971
REMARK INTER:                 -10.154
REMARK INTRA:                  -4.817
REMARK UNBOUND:                -6.084
REMARK SMILES CC(=O)N[C@@H]1[C@@H](O)C[C@](O)(C(=O)O)O[C@H]1C(O)[C@H](O)CNC(=O)OCc1cn(-c2c3ccccc3nc3ccccc23)nn1
REMARK SMILES IDX 20 1 18 2 16 3 15 4 9 5 8 6 14 7 6 8 5 9 10 10 11 12 12 13
REMARK SMILES IDX 13 14 7 16 4 18 2 19 1 21 3 22 17 23 19 25 21 27 22 28 23 30
REMARK SMILES IDX 24 31 25 32 26 33 27 34 44 35 28 36 43 37 29 38 30 39 42 40
REMARK SMILES IDX 31 41 35 42 37 43 41 44 32 45 34 46 36 47 38 48 40 49 33 50
REMARK SMILES IDX 39 51
REMARK H PARENT 10 11 13 15 7 17 4 20 17 24 19 26 21 29
REMARK Flexibility Score: inf
ROOT
ATOM      1  C   UNL     1      24.388  37.751   7.876  1.00  0.00     0.154 C 
ENDROOT
BRANCH   1   2
ATOM      2  C   UNL     1      22.969  37.254   7.831  1.00  0.00     0.165 C 
BRANCH   2   3
ATOM      3  C   UNL     1      22.906  36.030   8.690  1.00  0.00     0.176 C 
BRANCH   3   4
ATOM      4  C   UNL     1      21.492  35.611   9.065  1.00  0.00     0.178 C 
ATOM      5  C   UNL     1      19.351  36.177   8.588  1.00  0.00     0.269 C 
ATOM      6  C   UNL     1      18.899  36.341  10.015  1.00  0.00     0.112 C 
ATOM      7  O   UNL     1      20.662  36.478   8.410  1.00  0.00    -0.332 OA
ATOM      8  C   UNL     1      20.041  36.381  10.988  1.00  0.00     0.145 C 
ATOM      9  C   UNL     1      21.260  35.651  10.531  1.00  0.00     0.142 C 
BRANCH   5  10
ATOM     10  O   UNL     1      18.642  37.138   7.793  1.00  0.00    -0.357 OA
ATOM     11  H   UNL     1      17.917  37.537   8.332  1.00  0.00     0.214 HD
ENDBRANCH   5  10
BRANCH   5  12
ATOM     12  C   UNL     1      18.903  34.869   8.051  1.00  0.00     0.364 C 
ATOM     13  O   UNL     1      18.335  34.010   8.776  1.00  0.00    -0.246 OA
BRANCH  12  14
ATOM     14  O   UNL     1      19.081  34.504   6.707  1.00  0.00    -0.477 OA
ATOM     15  H   UNL     1      18.393  34.783   6.026  1.00  0.00     0.296 HD
ENDBRANCH  12  14
ENDBRANCH   5  12
BRANCH   8  16
ATOM     16  O   UNL     1      20.334  37.718  11.276  1.00  0.00    -0.391 OA
ATOM     17  H   UNL     1      20.922  38.115  10.587  1.00  0.00     0.211 HD
ENDBRANCH   8  16
BRANCH   9  18
ATOM     18  N   UNL     1      21.283  34.331  11.170  1.00  0.00    -0.348 N 
ATOM     19  C   UNL     1      22.312  33.932  12.067  1.00  0.00     0.217 C 
ATOM     20  H   UNL     1      20.536  33.623  10.992  1.00  0.00     0.163 HD
ATOM     21  C   UNL     1      22.317  32.582  12.712  1.00  0.00     0.114 C 
ATOM     22  O   UNL     1      23.252  34.723  12.336  1.00  0.00    -0.275 OA
ENDBRANCH   9  18
ENDBRANCH   3   4
BRANCH   3  23
ATOM     23  O   UNL     1      23.610  36.259   9.862  1.00  0.00    -0.388 OA
ATOM     24  H   UNL     1      23.252  37.084  10.271  1.00  0.00     0.211 HD
ENDBRANCH   3  23
ENDBRANCH   2   3
BRANCH   2  25
ATOM     25  O   UNL     1      22.580  37.032   6.531  1.00  0.00    -0.388 OA
ATOM     26  H   UNL     1      23.306  37.384   5.932  1.00  0.00     0.211 HD
ENDBRANCH   2  25
ENDBRANCH   1   2
BRANCH   1  27
ATOM     27  N   UNL     1      24.750  38.723   6.903  1.00  0.00    -0.319 N 
ATOM     28  C   UNL     1      25.119  40.053   7.191  1.00  0.00     0.407 C 
ATOM     29  H   UNL     1      24.761  38.483   5.848  1.00  0.00     0.167 HD
ATOM     30  O   UNL     1      25.145  40.489   8.360  1.00  0.00    -0.225 OA
BRANCH  28  31
ATOM     31  O   UNL     1      25.479  40.959   6.181  1.00  0.00    -0.443 OA
BRANCH  31  32
ATOM     32  C   UNL     1      26.223  40.517   5.045  1.00  0.00     0.294 C 
BRANCH  32  33
ATOM     33  C   UNL     1      27.374  39.727   5.543  1.00  0.00     0.121 A 
ATOM     34  C   UNL     1      28.412  40.189   6.325  1.00  0.00     0.144 A 
ATOM     35  N   UNL     1      27.659  38.416   5.351  1.00  0.00    -0.131 NA
ATOM     36  N   UNL     1      29.272  39.190   6.582  1.00  0.00    -0.219 N 
ATOM     37  N   UNL     1      28.797  38.121   5.981  1.00  0.00    -0.062 NA
BRANCH  36  38
ATOM     38  C   UNL     1      30.458  39.247   7.346  1.00  0.00     0.085 A 
ATOM     39  C   UNL     1      30.449  38.872   8.693  1.00  0.00     0.027 A 
ATOM     40  C   UNL     1      31.661  39.665   6.803  1.00  0.00     0.027 A 
ATOM     41  C   UNL     1      29.282  38.447   9.292  1.00  0.00     0.012 A 
ATOM     42  C   UNL     1      31.576  38.912   9.451  1.00  0.00     0.073 A 
ATOM     43  C   UNL     1      32.792  39.698   7.590  1.00  0.00     0.073 A 
ATOM     44  C   UNL     1      31.668  40.035   5.482  1.00  0.00     0.012 A 
ATOM     45  C   UNL     1      29.220  38.067  10.615  1.00  0.00     0.001 A 
ATOM     46  C   UNL     1      31.529  38.531  10.789  1.00  0.00     0.029 A 
ATOM     47  N   UNL     1      32.727  39.324   8.886  1.00  0.00    -0.248 NA
ATOM     48  C   UNL     1      33.963  40.121   7.008  1.00  0.00     0.029 A 
ATOM     49  C   UNL     1      32.874  40.461   4.920  1.00  0.00     0.001 A 
ATOM     50  C   UNL     1      30.375  38.104  11.405  1.00  0.00     0.002 A 
ATOM     51  C   UNL     1      34.028  40.509   5.671  1.00  0.00     0.002 A 
ENDBRANCH  36  38
ENDBRANCH  32  33
ENDBRANCH  31  32
ENDBRANCH  28  31
ENDBRANCH   1  27
TORSDOF 15
BEGIN_RES LYS A 131
REMARK  4 active torsions:
REMARK  status: ('A' for Active; 'I' for Inactive)
REMARK    1  A    between atoms: CA   and  CB  
REMARK    2  A    between atoms: CB   and  CG  
REMARK    3  A    between atoms: CG   and  CD  
REMARK    4  A    between atoms: CD   and  CE  
ROOT
ATOM      1  CA  LYS A 131      29.867  25.555  16.977  1.00 20.52     0.186 C 
ENDROOT
BRANCH   1   2
ATOM      2  CB  LYS A 131      28.345  25.722  17.026  1.00 20.94     0.034 C 
BRANCH   2   3
ATOM      3  CG  LYS A 131      27.601  24.404  16.879  1.00 22.96     0.005 C 
BRANCH   3   4
ATOM      4  CD  LYS A 131      26.575  24.209  17.961  1.00 24.33     0.041 C 
BRANCH   4   5
ATOM      5  CE  LYS A 131      25.636  25.411  17.994  1.00 26.91     0.338 C 
ATOM      6  NZ  LYS A 131      24.318  25.055  17.417  1.00 27.40     0.618 N 
ENDBRANCH   4   5
ENDBRANCH   3   4
ENDBRANCH   2   3
ENDBRANCH   1   2
END_RES LYS A 131
BEGIN_RES LYS A 135
REMARK  4 active torsions:
REMARK  status: ('A' for Active; 'I' for Inactive)
REMARK    5  A    between atoms: CA   and  CB  
REMARK    6  A    between atoms: CB   and  CG  
REMARK    7  A    between atoms: CG   and  CD  
REMARK    8  A    between atoms: CD   and  CE  
ROOT
ATOM      7  CA  LYS A 135      33.193  34.663   9.290  1.00 25.02     0.186 C 
ENDROOT
BRANCH   7   8
ATOM      8  CB  LYS A 135      32.060  35.360  10.034  1.00 26.63     0.034 C 
BRANCH   8   9
ATOM      9  CG  LYS A 135      30.704  34.760   9.765  1.00 29.45     0.005 C 
BRANCH   9  10
ATOM     10  CD  LYS A 135      30.388  34.793   8.278  1.00 32.00     0.041 C 
BRANCH  10  11
ATOM     11  CE  LYS A 135      28.888  34.792   8.052  1.00 34.25     0.338 C 
ATOM     12  NZ  LYS A 135      28.184  34.047   9.132  1.00 35.99     0.618 N 
ENDBRANCH  10  11
ENDBRANCH   9  10
ENDBRANCH   8   9
ENDBRANCH   7   8
END_RES LYS A 135
