REMARK VINA RESULT:    -4.611      4.842      9.740
REMARK INTER + INTRA:         -15.063
REMARK INTER:                 -10.487
REMARK INTRA:                  -4.577
REMARK UNBOUND:                -6.275
REMARK SMILES CC(=O)N[C@@H]1[C@@H](O)C[C@](O)(C(=O)O)O[C@H]1C(O)[C@H](O)CNC(=O)OCc1cn(Cc2ccccc2OC(C)=O)nn1
REMARK SMILES IDX 21 1 22 2 23 3 20 5 18 6 16 7 15 8 9 9 8 10 14 11 6 12 5 13
REMARK SMILES IDX 10 14 11 16 12 17 13 18 7 20 4 22 2 23 1 25 3 26 17 27 19 29
REMARK SMILES IDX 24 31 25 32 26 33 27 34 41 35 28 36 40 37 29 38 30 39 35 40
REMARK SMILES IDX 31 41 34 42 32 43 33 44 36 45 37 46 39 47 38 48
REMARK H PARENT 21 4 10 15 13 19 7 21 4 24 17 28 19 30
REMARK Flexibility Score: inf
ROOT
ATOM      1  N   UNL     1      28.413  31.917  16.122  1.00  0.00    -0.319 N 
ATOM      2  C   UNL     1      27.209  31.808  16.880  1.00  0.00     0.407 C 
ATOM      3  O   UNL     1      27.240  31.158  17.946  1.00  0.00    -0.225 OA
ATOM      4  H   UNL     1      28.375  32.459  15.237  1.00  0.00     0.167 HD
ENDROOT
BRANCH   1   5
ATOM      5  C   UNL     1      29.628  31.292  16.570  1.00  0.00     0.154 C 
BRANCH   5   6
ATOM      6  C   UNL     1      30.810  32.091  16.010  1.00  0.00     0.165 C 
BRANCH   6   7
ATOM      7  C   UNL     1      30.807  33.463  16.625  1.00  0.00     0.176 C 
BRANCH   7   8
ATOM      8  C   UNL     1      31.344  34.452  15.625  1.00  0.00     0.178 C 
ATOM      9  C   UNL     1      33.154  34.797  14.207  1.00  0.00     0.269 C 
ATOM     10  C   UNL     1      33.664  35.942  15.049  1.00  0.00     0.112 C 
ATOM     11  O   UNL     1      32.474  33.948  15.064  1.00  0.00    -0.332 OA
ATOM     12  C   UNL     1      32.493  36.683  15.596  1.00  0.00     0.145 C 
ATOM     13  C   UNL     1      31.463  35.799  16.243  1.00  0.00     0.142 C 
BRANCH   9  14
ATOM     14  O   UNL     1      34.306  34.093  13.793  1.00  0.00    -0.357 OA
ATOM     15  H   UNL     1      34.479  34.213  12.832  1.00  0.00     0.214 HD
ENDBRANCH   9  14
BRANCH   9  16
ATOM     16  C   UNL     1      32.369  35.227  13.033  1.00  0.00     0.364 C 
ATOM     17  O   UNL     1      32.613  36.259  12.364  1.00  0.00    -0.246 OA
BRANCH  16  18
ATOM     18  O   UNL     1      31.292  34.461  12.628  1.00  0.00    -0.477 OA
ATOM     19  H   UNL     1      30.330  34.806  12.593  1.00  0.00     0.296 HD
ENDBRANCH  16  18
ENDBRANCH   9  16
BRANCH  12  20
ATOM     20  O   UNL     1      32.995  37.613  16.534  1.00  0.00    -0.391 OA
ATOM     21  H   UNL     1      32.385  38.409  16.541  1.00  0.00     0.211 HD
ENDBRANCH  12  20
BRANCH  13  22
ATOM     22  N   UNL     1      30.178  36.465  16.153  1.00  0.00    -0.348 N 
ATOM     23  C   UNL     1      29.666  37.273  17.214  1.00  0.00     0.217 C 
ATOM     24  H   UNL     1      29.589  36.370  15.299  1.00  0.00     0.163 HD
ATOM     25  C   UNL     1      28.348  37.930  17.068  1.00  0.00     0.114 C 
ATOM     26  O   UNL     1      30.336  37.418  18.258  1.00  0.00    -0.275 OA
ENDBRANCH  13  22
ENDBRANCH   7   8
BRANCH   7  27
ATOM     27  O   UNL     1      31.566  33.506  17.801  1.00  0.00    -0.388 OA
ATOM     28  H   UNL     1      32.351  32.922  17.690  1.00  0.00     0.211 HD
ENDBRANCH   7  27
ENDBRANCH   6   7
BRANCH   6  29
ATOM     29  O   UNL     1      30.690  32.087  14.638  1.00  0.00    -0.388 OA
ATOM     30  H   UNL     1      29.769  32.182  14.316  1.00  0.00     0.211 HD
ENDBRANCH   6  29
ENDBRANCH   5   6
ENDBRANCH   1   5
BRANCH   2  31
ATOM     31  O   UNL     1      26.050  32.417  16.428  1.00  0.00    -0.443 OA
BRANCH  31  32
ATOM     32  C   UNL     1      25.275  31.867  15.388  1.00  0.00     0.294 C 
BRANCH  32  33
ATOM     33  C   UNL     1      25.179  32.849  14.297  1.00  0.00     0.120 A 
ATOM     34  C   UNL     1      26.088  33.875  14.018  1.00  0.00     0.138 A 
ATOM     35  N   UNL     1      24.215  32.975  13.350  1.00  0.00    -0.132 NA
ATOM     36  N   UNL     1      25.634  34.533  12.958  1.00  0.00    -0.248 N 
ATOM     37  N   UNL     1      24.501  33.987  12.555  1.00  0.00    -0.067 NA
BRANCH  36  38
ATOM     38  C   UNL     1      26.273  35.671  12.329  1.00  0.00     0.185 C 
BRANCH  38  39
ATOM     39  C   UNL     1      26.550  35.261  10.911  1.00  0.00     0.016 A 
ATOM     40  C   UNL     1      25.979  35.986   9.898  1.00  0.00     0.135 A 
ATOM     41  C   UNL     1      27.359  34.182  10.660  1.00  0.00     0.009 A 
ATOM     42  C   UNL     1      26.201  35.650   8.588  1.00  0.00     0.047 A 
ATOM     43  C   UNL     1      27.595  33.828   9.327  1.00  0.00     0.001 A 
ATOM     44  C   UNL     1      27.013  34.565   8.332  1.00  0.00     0.004 A 
BRANCH  40  45
ATOM     45  O   UNL     1      25.167  37.071  10.193  1.00  0.00    -0.426 OA
BRANCH  45  46
ATOM     46  C   UNL     1      25.585  38.325   9.752  1.00  0.00     0.308 C 
ATOM     47  O   UNL     1      24.856  38.979   8.970  1.00  0.00    -0.252 OA
ATOM     48  C   UNL     1      26.879  38.895  10.197  1.00  0.00     0.139 C 
ENDBRANCH  45  46
ENDBRANCH  40  45
ENDBRANCH  38  39
ENDBRANCH  36  38
ENDBRANCH  32  33
ENDBRANCH  31  32
ENDBRANCH   2  31
TORSDOF 18
BEGIN_RES LYS A 131
REMARK  4 active torsions:
REMARK  status: ('A' for Active; 'I' for Inactive)
REMARK    1  A    between atoms: CA   and  CB  
REMARK    2  A    between atoms: CB   and  CG  
REMARK    3  A    between atoms: CG   and  CD  
REMARK    4  A    between atoms: CD   and  CE  
ROOT
ATOM      1  CA  LYS A 131      29.867  25.555  16.977  1.00 20.52     0.186 C 
ENDROOT
BRANCH   1   2
ATOM      2  CB  LYS A 131      28.345  25.722  17.026  1.00 20.94     0.034 C 
BRANCH   2   3
ATOM      3  CG  LYS A 131      27.602  24.399  16.928  1.00 22.96     0.005 C 
BRANCH   3   4
ATOM      4  CD  LYS A 131      26.627  24.211  18.056  1.00 24.33     0.041 C 
BRANCH   4   5
ATOM      5  CE  LYS A 131      26.291  25.567  18.669  1.00 26.91     0.338 C 
ATOM      6  NZ  LYS A 131      25.519  25.393  19.922  1.00 27.40     0.618 N 
ENDBRANCH   4   5
ENDBRANCH   3   4
ENDBRANCH   2   3
ENDBRANCH   1   2
END_RES LYS A 131
BEGIN_RES LYS A 135
REMARK  4 active torsions:
REMARK  status: ('A' for Active; 'I' for Inactive)
REMARK    5  A    between atoms: CA   and  CB  
REMARK    6  A    between atoms: CB   and  CG  
REMARK    7  A    between atoms: CG   and  CD  
REMARK    8  A    between atoms: CD   and  CE  
ROOT
ATOM      7  CA  LYS A 135      33.193  34.663   9.290  1.00 25.02     0.186 C 
ENDROOT
BRANCH   7   8
ATOM      8  CB  LYS A 135      32.060  35.360  10.034  1.00 26.63     0.034 C 
BRANCH   8   9
ATOM      9  CG  LYS A 135      30.749  35.338   9.292  1.00 29.45     0.005 C 
BRANCH   9  10
ATOM     10  CD  LYS A 135      30.053  36.687   9.392  1.00 32.00     0.041 C 
BRANCH  10  11
ATOM     11  CE  LYS A 135      31.056  37.782   9.701  1.00 34.25     0.338 C 
ATOM     12  NZ  LYS A 135      30.542  38.697  10.758  1.00 35.99     0.618 N 
ENDBRANCH  10  11
ENDBRANCH   9  10
ENDBRANCH   8   9
ENDBRANCH   7   8
END_RES LYS A 135
