REMARK VINA RESULT:    -3.624      8.358     13.898
REMARK INTER + INTRA:         -14.278
REMARK INTER:                  -6.802
REMARK INTRA:                  -7.475
REMARK UNBOUND:                -7.158
REMARK SMILES CCN(CC)CCn1cc(COC(=O)NC[C@@H](O)C(O)[C@@H]2O[C@@](O)(C(=O)O)C[C@H](O)[C@H]2NC(C)=O)nn1
REMARK SMILES IDX 15 1 13 2 14 3 16 5 17 6 19 7 21 8 23 9 28 10 22 11 29 12
REMARK SMILES IDX 31 13 24 14 25 16 26 17 27 18 30 20 32 22 33 23 34 25 35 26
REMARK SMILES IDX 20 27 18 29 12 31 11 32 10 33 9 34 36 35 8 36 37 37 7 38
REMARK SMILES IDX 6 39 3 40 2 41 1 42 4 43 5 44
REMARK H PARENT 15 4 24 15 27 19 30 21 32 24 20 28 18 30
REMARK Flexibility Score: inf
ROOT
ATOM      1  N   UNL     1      27.318  38.413   4.908  1.00  0.00    -0.319 N 
ATOM      2  C   UNL     1      28.135  39.580   4.810  1.00  0.00     0.407 C 
ATOM      3  O   UNL     1      29.292  39.572   5.266  1.00  0.00    -0.225 OA
ATOM      4  H   UNL     1      26.366  38.492   4.509  1.00  0.00     0.167 HD
ENDROOT
BRANCH   1   5
ATOM      5  C   UNL     1      27.746  37.189   5.512  1.00  0.00     0.154 C 
BRANCH   5   6
ATOM      6  C   UNL     1      27.622  37.172   7.009  1.00  0.00     0.165 C 
BRANCH   6   7
ATOM      7  C   UNL     1      26.276  37.718   7.432  1.00  0.00     0.176 C 
BRANCH   7   8
ATOM      8  C   UNL     1      25.632  36.854   8.479  1.00  0.00     0.178 C 
ATOM      9  C   UNL     1      23.408  37.449   7.999  1.00  0.00     0.269 C 
ATOM     10  C   UNL     1      23.440  38.403   9.185  1.00  0.00     0.112 C 
ATOM     11  O   UNL     1      24.379  36.494   8.053  1.00  0.00    -0.332 OA
ATOM     12  C   UNL     1      24.208  37.680  10.297  1.00  0.00     0.145 C 
ATOM     13  C   UNL     1      25.604  37.499   9.820  1.00  0.00     0.142 C 
BRANCH   9  14
ATOM     14  O   UNL     1      23.400  38.228   6.844  1.00  0.00    -0.357 OA
ATOM     15  H   UNL     1      22.834  37.810   6.135  1.00  0.00     0.214 HD
ENDBRANCH   9  14
BRANCH   9  16
ATOM     16  C   UNL     1      22.097  36.726   8.052  1.00  0.00     0.364 C 
ATOM     17  O   UNL     1      22.001  35.544   8.446  1.00  0.00    -0.246 OA
BRANCH  16  18
ATOM     18  O   UNL     1      20.957  37.389   7.652  1.00  0.00    -0.477 OA
ATOM     19  H   UNL     1      20.020  37.117   7.937  1.00  0.00     0.296 HD
ENDBRANCH  16  18
ENDBRANCH   9  16
BRANCH  12  20
ATOM     20  O   UNL     1      24.113  38.460  11.449  1.00  0.00    -0.391 OA
ATOM     21  H   UNL     1      23.494  39.222  11.214  1.00  0.00     0.211 HD
ENDBRANCH  12  20
BRANCH  13  22
ATOM     22  N   UNL     1      26.455  36.832  10.787  1.00  0.00    -0.348 N 
ATOM     23  C   UNL     1      27.808  37.206  11.024  1.00  0.00     0.217 C 
ATOM     24  H   UNL     1      26.098  36.022  11.370  1.00  0.00     0.163 HD
ATOM     25  C   UNL     1      28.641  36.481  12.035  1.00  0.00     0.114 C 
ATOM     26  O   UNL     1      28.319  38.148  10.388  1.00  0.00    -0.275 OA
ENDBRANCH  13  22
ENDBRANCH   7   8
BRANCH   7  27
ATOM     27  O   UNL     1      26.555  39.009   7.917  1.00  0.00    -0.388 OA
ATOM     28  H   UNL     1      26.965  38.871   8.813  1.00  0.00     0.211 HD
ENDBRANCH   7  27
ENDBRANCH   6   7
BRANCH   6  29
ATOM     29  O   UNL     1      28.698  37.778   7.590  1.00  0.00    -0.388 OA
ATOM     30  H   UNL     1      28.877  37.372   8.475  1.00  0.00     0.211 HD
ENDBRANCH   6  29
ENDBRANCH   5   6
ENDBRANCH   1   5
BRANCH   2  31
ATOM     31  O   UNL     1      27.691  40.750   4.217  1.00  0.00    -0.443 OA
BRANCH  31  32
ATOM     32  C   UNL     1      26.330  40.947   3.857  1.00  0.00     0.294 C 
BRANCH  32  33
ATOM     33  C   UNL     1      25.573  41.271   5.093  1.00  0.00     0.120 A 
ATOM     34  C   UNL     1      25.380  42.571   5.561  1.00  0.00     0.138 A 
ATOM     35  N   UNL     1      24.951  40.479   5.975  1.00  0.00    -0.132 NA
ATOM     36  N   UNL     1      24.664  42.500   6.680  1.00  0.00    -0.251 N 
ATOM     37  N   UNL     1      24.411  41.232   6.919  1.00  0.00    -0.067 NA
BRANCH  36  38
ATOM     38  C   UNL     1      24.240  43.610   7.490  1.00  0.00     0.161 C 
BRANCH  38  39
ATOM     39  C   UNL     1      24.742  43.398   8.907  1.00  0.00     0.108 C 
BRANCH  39  40
ATOM     40  N   UNL     1      23.698  43.211   9.862  1.00  0.00    -0.302 NA
BRANCH  40  41
ATOM     41  C   UNL     1      23.496  44.302  10.757  1.00  0.00     0.081 C 
ATOM     42  C   UNL     1      24.866  44.643  11.362  1.00  0.00     0.021 C 
ENDBRANCH  40  41
BRANCH  40  43
ATOM     43  C   UNL     1      23.665  41.905  10.427  1.00  0.00     0.081 C 
ATOM     44  C   UNL     1      22.412  41.597  11.187  1.00  0.00     0.021 C 
ENDBRANCH  40  43
ENDBRANCH  39  40
ENDBRANCH  38  39
ENDBRANCH  36  38
ENDBRANCH  32  33
ENDBRANCH  31  32
ENDBRANCH   2  31
TORSDOF 19
BEGIN_RES LYS A 131
REMARK  4 active torsions:
REMARK  status: ('A' for Active; 'I' for Inactive)
REMARK    1  A    between atoms: CA   and  CB  
REMARK    2  A    between atoms: CB   and  CG  
REMARK    3  A    between atoms: CG   and  CD  
REMARK    4  A    between atoms: CD   and  CE  
ROOT
ATOM      1  CA  LYS A 131      29.867  25.555  16.977  1.00 20.52     0.186 C 
ENDROOT
BRANCH   1   2
ATOM      2  CB  LYS A 131      28.345  25.722  17.026  1.00 20.94     0.034 C 
BRANCH   2   3
ATOM      3  CG  LYS A 131      27.601  24.401  16.898  1.00 22.96     0.005 C 
BRANCH   3   4
ATOM      4  CD  LYS A 131      26.172  24.510  17.352  1.00 24.33     0.041 C 
BRANCH   4   5
ATOM      5  CE  LYS A 131      25.980  23.693  18.626  1.00 26.91     0.338 C 
ATOM      6  NZ  LYS A 131      24.826  24.206  19.402  1.00 27.40     0.618 N 
ENDBRANCH   4   5
ENDBRANCH   3   4
ENDBRANCH   2   3
ENDBRANCH   1   2
END_RES LYS A 131
BEGIN_RES LYS A 135
REMARK  4 active torsions:
REMARK  status: ('A' for Active; 'I' for Inactive)
REMARK    5  A    between atoms: CA   and  CB  
REMARK    6  A    between atoms: CB   and  CG  
REMARK    7  A    between atoms: CG   and  CD  
REMARK    8  A    between atoms: CD   and  CE  
ROOT
ATOM      7  CA  LYS A 135      33.193  34.663   9.290  1.00 25.02     0.186 C 
ENDROOT
BRANCH   7   8
ATOM      8  CB  LYS A 135      32.060  35.360  10.034  1.00 26.63     0.034 C 
BRANCH   8   9
ATOM      9  CG  LYS A 135      30.795  35.485   9.225  1.00 29.45     0.005 C 
BRANCH   9  10
ATOM     10  CD  LYS A 135      30.145  34.124   9.031  1.00 32.00     0.041 C 
BRANCH  10  11
ATOM     11  CE  LYS A 135      28.674  34.280   8.693  1.00 34.25     0.338 C 
ATOM     12  NZ  LYS A 135      27.814  33.706   9.764  1.00 35.99     0.618 N 
ENDBRANCH  10  11
ENDBRANCH   9  10
ENDBRANCH   8   9
ENDBRANCH   7   8
END_RES LYS A 135
