REMARK VINA RESULT:    -4.734      5.052     10.008
REMARK INTER + INTRA:         -13.333
REMARK INTER:                  -8.609
REMARK INTRA:                  -4.724
REMARK UNBOUND:                -4.724
REMARK SMILES CC(=O)N[C@@H]1[C@@H](O)C[C@](O)(C(=O)O)O[C@H]1C(O)[C@H](O)CNC(=O)OCc1cn([C@@H](C)C(=O)O)nn1
REMARK SMILES IDX 21 1 22 2 23 3 20 5 18 6 16 7 15 8 9 9 8 10 14 11 6 12 5 13
REMARK SMILES IDX 10 14 11 16 12 17 13 18 7 20 4 22 2 23 1 25 3 26 17 27 19 29
REMARK SMILES IDX 24 31 25 32 26 33 27 34 35 35 28 36 34 37 29 38 30 39 31 40
REMARK SMILES IDX 32 41 33 42
REMARK H PARENT 21 4 10 15 13 19 7 21 4 24 17 28 19 30 33 43
REMARK Flexibility Score: inf
ROOT
ATOM      1  N   UNL     1      31.879  38.890   9.999  1.00  0.00    -0.319 N 
ATOM      2  C   UNL     1      31.478  38.447  11.280  1.00  0.00     0.407 C 
ATOM      3  O   UNL     1      30.484  38.941  11.870  1.00  0.00    -0.225 OA
ATOM      4  H   UNL     1      32.706  38.449   9.555  1.00  0.00     0.167 HD
ENDROOT
BRANCH   1   5
ATOM      5  C   UNL     1      31.177  39.926   9.299  1.00  0.00     0.154 C 
BRANCH   5   6
ATOM      6  C   UNL     1      30.546  39.439   7.990  1.00  0.00     0.165 C 
BRANCH   6   7
ATOM      7  C   UNL     1      29.244  38.803   8.337  1.00  0.00     0.176 C 
BRANCH   7   8
ATOM      8  C   UNL     1      28.140  38.960   7.347  1.00  0.00     0.178 C 
ATOM      9  C   UNL     1      26.660  37.370   8.204  1.00  0.00     0.269 C 
ATOM     10  C   UNL     1      27.440  36.365   7.455  1.00  0.00     0.112 C 
ATOM     11  O   UNL     1      26.950  38.694   8.007  1.00  0.00    -0.332 OA
ATOM     12  C   UNL     1      28.000  36.774   6.139  1.00  0.00     0.145 C 
ATOM     13  C   UNL     1      28.269  38.250   6.055  1.00  0.00     0.142 C 
BRANCH   9  14
ATOM     14  O   UNL     1      26.927  37.132   9.579  1.00  0.00    -0.357 OA
ATOM     15  H   UNL     1      27.804  36.695   9.628  1.00  0.00     0.214 HD
ENDBRANCH   9  14
BRANCH   9  16
ATOM     16  C   UNL     1      25.207  37.106   8.019  1.00  0.00     0.364 C 
ATOM     17  O   UNL     1      24.607  36.196   8.653  1.00  0.00    -0.246 OA
BRANCH  16  18
ATOM     18  O   UNL     1      24.455  37.860   7.134  1.00  0.00    -0.477 OA
ATOM     19  H   UNL     1      23.487  38.114   7.296  1.00  0.00     0.296 HD
ENDBRANCH  16  18
ENDBRANCH   9  16
BRANCH  12  20
ATOM     20  O   UNL     1      29.171  36.022   5.930  1.00  0.00    -0.391 OA
ATOM     21  H   UNL     1      28.914  35.077   6.057  1.00  0.00     0.211 HD
ENDBRANCH  12  20
BRANCH  13  22
ATOM     22  N   UNL     1      27.270  38.852   5.149  1.00  0.00    -0.348 N 
ATOM     23  C   UNL     1      27.569  40.008   4.395  1.00  0.00     0.217 C 
ATOM     24  H   UNL     1      26.320  38.454   5.036  1.00  0.00     0.163 HD
ATOM     25  C   UNL     1      26.603  40.644   3.479  1.00  0.00     0.114 C 
ATOM     26  O   UNL     1      28.721  40.546   4.491  1.00  0.00    -0.275 OA
ENDBRANCH  13  22
ENDBRANCH   7   8
BRANCH   7  27
ATOM     27  O   UNL     1      28.788  39.509   9.497  1.00  0.00    -0.388 OA
ATOM     28  H   UNL     1      27.813  39.337   9.517  1.00  0.00     0.211 HD
ENDBRANCH   7  27
ENDBRANCH   6   7
BRANCH   6  29
ATOM     29  O   UNL     1      31.449  38.519   7.472  1.00  0.00    -0.388 OA
ATOM     30  H   UNL     1      31.571  37.812   8.156  1.00  0.00     0.211 HD
ENDBRANCH   6  29
ENDBRANCH   5   6
ENDBRANCH   1   5
BRANCH   2  31
ATOM     31  O   UNL     1      32.184  37.426  11.946  1.00  0.00    -0.443 OA
BRANCH  31  32
ATOM     32  C   UNL     1      31.498  36.468  12.731  1.00  0.00     0.294 C 
BRANCH  32  33
ATOM     33  C   UNL     1      32.322  36.034  13.888  1.00  0.00     0.120 A 
ATOM     34  C   UNL     1      32.418  36.682  15.122  1.00  0.00     0.139 A 
ATOM     35  N   UNL     1      33.132  34.959  14.005  1.00  0.00    -0.132 NA
ATOM     36  N   UNL     1      33.253  35.995  15.908  1.00  0.00    -0.238 N 
ATOM     37  N   UNL     1      33.679  34.960  15.230  1.00  0.00    -0.066 NA
BRANCH  36  38
ATOM     38  C   UNL     1      33.637  36.324  17.285  1.00  0.00     0.215 C 
ATOM     39  C   UNL     1      32.816  35.495  18.258  1.00  0.00     0.046 C 
BRANCH  38  40
ATOM     40  C   UNL     1      35.066  36.121  17.517  1.00  0.00     0.328 C 
ATOM     41  O   UNL     1      35.488  35.919  18.678  1.00  0.00    -0.250 OA
BRANCH  40  42
ATOM     42  O   UNL     1      36.025  36.139  16.507  1.00  0.00    -0.480 OA
ATOM     43  H   UNL     1      36.020  36.859  15.793  1.00  0.00     0.296 HD
ENDBRANCH  40  42
ENDBRANCH  38  40
ENDBRANCH  36  38
ENDBRANCH  32  33
ENDBRANCH  31  32
ENDBRANCH   2  31
TORSDOF 17
BEGIN_RES LYS A 131
REMARK  4 active torsions:
REMARK  status: ('A' for Active; 'I' for Inactive)
REMARK    1  A    between atoms: CA   and  CB  
REMARK    2  A    between atoms: CB   and  CG  
REMARK    3  A    between atoms: CG   and  CD  
REMARK    4  A    between atoms: CD   and  CE  
ROOT
ATOM      1  CA  LYS A 131      29.867  25.555  16.977  1.00 20.52     0.186 C 
ENDROOT
BRANCH   1   2
ATOM      2  CB  LYS A 131      28.345  25.722  17.026  1.00 20.94     0.034 C 
BRANCH   2   3
ATOM      3  CG  LYS A 131      27.602  24.399  16.918  1.00 22.96     0.005 C 
BRANCH   3   4
ATOM      4  CD  LYS A 131      26.338  24.392  17.732  1.00 24.33     0.041 C 
BRANCH   4   5
ATOM      5  CE  LYS A 131      26.084  25.788  18.291  1.00 26.91     0.338 C 
ATOM      6  NZ  LYS A 131      25.848  25.727  19.753  1.00 27.40     0.618 N 
ENDBRANCH   4   5
ENDBRANCH   3   4
ENDBRANCH   2   3
ENDBRANCH   1   2
END_RES LYS A 131
BEGIN_RES LYS A 135
REMARK  4 active torsions:
REMARK  status: ('A' for Active; 'I' for Inactive)
REMARK    5  A    between atoms: CA   and  CB  
REMARK    6  A    between atoms: CB   and  CG  
REMARK    7  A    between atoms: CG   and  CD  
REMARK    8  A    between atoms: CD   and  CE  
ROOT
ATOM      7  CA  LYS A 135      33.193  34.663   9.290  1.00 25.02     0.186 C 
ENDROOT
BRANCH   7   8
ATOM      8  CB  LYS A 135      32.060  35.360  10.034  1.00 26.63     0.034 C 
BRANCH   8   9
ATOM      9  CG  LYS A 135      30.788  35.465   9.233  1.00 29.45     0.005 C 
BRANCH   9  10
ATOM     10  CD  LYS A 135      30.250  34.082   8.897  1.00 32.00     0.041 C 
BRANCH  10  11
ATOM     11  CE  LYS A 135      28.860  33.897   9.474  1.00 34.25     0.338 C 
ATOM     12  NZ  LYS A 135      28.740  34.554  10.806  1.00 35.99     0.618 N 
ENDBRANCH  10  11
ENDBRANCH   9  10
ENDBRANCH   8   9
ENDBRANCH   7   8
END_RES LYS A 135
