REMARK VINA RESULT:    -5.216      7.822     12.685
REMARK INTER + INTRA:         -16.369
REMARK INTER:                 -10.515
REMARK INTRA:                  -5.854
REMARK UNBOUND:                -6.121
REMARK SMILES CC(=O)N[C@@H]1[C@@H](O)C[C@](O)(C(=O)O)O[C@H]1C(O)[C@H](O)CNC(=O)OCc1cn(C[C@@H](C)CN2CCN(c3ccc(Cl)cc3)CC2)nn1
REMARK SMILES IDX 24 1 22 2 21 3 23 5 20 6 18 7 16 8 15 9 9 10 8 11 14 12 6 13
REMARK SMILES IDX 5 14 10 15 11 17 12 18 13 19 7 21 4 23 2 24 1 26 3 27 17 28
REMARK SMILES IDX 19 30 25 32 26 33 27 34 47 35 28 36 46 37 29 38 30 39 31 40
REMARK SMILES IDX 32 41 33 42 34 43 45 44 35 45 44 46 36 47 37 48 38 49 43 50
REMARK SMILES IDX 39 51 42 52 40 53 41 54
REMARK H PARENT 21 4 10 16 13 20 7 22 4 25 17 29 19 31
REMARK Flexibility Score: inf
ROOT
ATOM      1  O   UNL     1      27.387  30.267  18.213  1.00  0.00    -0.443 OA
ENDROOT
BRANCH   1   2
ATOM      2  C   UNL     1      27.616  29.372  19.247  1.00  0.00     0.407 C 
ATOM      3  N   UNL     1      28.878  28.776  19.522  1.00  0.00    -0.319 N 
ATOM      4  H   UNL     1      29.660  29.035  18.891  1.00  0.00     0.167 HD
ATOM      5  O   UNL     1      26.619  29.096  19.967  1.00  0.00    -0.225 OA
BRANCH   3   6
ATOM      6  C   UNL     1      28.945  27.885  20.634  1.00  0.00     0.154 C 
BRANCH   6   7
ATOM      7  C   UNL     1      30.271  27.697  21.255  1.00  0.00     0.165 C 
BRANCH   7   8
ATOM      8  C   UNL     1      31.453  28.190  20.440  1.00  0.00     0.176 C 
BRANCH   8   9
ATOM      9  C   UNL     1      32.367  28.853  21.473  1.00  0.00     0.178 C 
ATOM     10  C   UNL     1      33.111  28.451  23.648  1.00  0.00     0.269 C 
ATOM     11  C   UNL     1      32.990  29.916  23.958  1.00  0.00     0.112 C 
ATOM     12  O   UNL     1      32.368  28.042  22.573  1.00  0.00    -0.332 OA
ATOM     13  C   UNL     1      32.917  30.804  22.768  1.00  0.00     0.145 C 
ATOM     14  C   UNL     1      31.852  30.210  21.820  1.00  0.00     0.142 C 
BRANCH  10  15
ATOM     15  O   UNL     1      32.566  27.796  24.782  1.00  0.00    -0.357 OA
ATOM     16  H   UNL     1      31.614  27.620  24.666  1.00  0.00     0.214 HD
ENDBRANCH  10  15
BRANCH  10  17
ATOM     17  C   UNL     1      34.528  27.992  23.556  1.00  0.00     0.364 C 
ATOM     18  O   UNL     1      35.464  28.754  23.909  1.00  0.00    -0.246 OA
BRANCH  17  19
ATOM     19  O   UNL     1      34.885  26.735  23.090  1.00  0.00    -0.477 OA
ATOM     20  H   UNL     1      35.449  26.568  22.265  1.00  0.00     0.296 HD
ENDBRANCH  17  19
ENDBRANCH  10  17
BRANCH  13  21
ATOM     21  O   UNL     1      32.479  32.064  23.175  1.00  0.00    -0.391 OA
ATOM     22  H   UNL     1      32.188  32.604  22.393  1.00  0.00     0.211 HD
ENDBRANCH  13  21
BRANCH  14  23
ATOM     23  N   UNL     1      31.683  31.065  20.675  1.00  0.00    -0.348 N 
ATOM     24  C   UNL     1      30.443  31.682  20.396  1.00  0.00     0.217 C 
ATOM     25  H   UNL     1      32.487  31.228  20.046  1.00  0.00     0.163 HD
ATOM     26  C   UNL     1      30.378  32.548  19.181  1.00  0.00     0.114 C 
ATOM     27  O   UNL     1      29.428  31.536  21.108  1.00  0.00    -0.275 OA
ENDBRANCH  14  23
ENDBRANCH   8   9
BRANCH   8  28
ATOM     28  O   UNL     1      32.086  27.081  19.855  1.00  0.00    -0.388 OA
ATOM     29  H   UNL     1      32.133  26.388  20.562  1.00  0.00     0.211 HD
ENDBRANCH   8  28
ENDBRANCH   7   8
BRANCH   7  30
ATOM     30  O   UNL     1      30.484  26.293  21.336  1.00  0.00    -0.388 OA
ATOM     31  H   UNL     1      31.443  26.211  21.605  1.00  0.00     0.211 HD
ENDBRANCH   7  30
ENDBRANCH   6   7
ENDBRANCH   3   6
ENDBRANCH   1   2
BRANCH   1  32
ATOM     32  C   UNL     1      27.844  29.991  16.899  1.00  0.00     0.294 C 
BRANCH  32  33
ATOM     33  C   UNL     1      28.122  31.251  16.173  1.00  0.00     0.120 A 
ATOM     34  C   UNL     1      29.377  31.597  15.665  1.00  0.00     0.138 A 
ATOM     35  N   UNL     1      27.335  32.280  15.830  1.00  0.00    -0.132 NA
ATOM     36  N   UNL     1      29.319  32.785  15.048  1.00  0.00    -0.252 N 
ATOM     37  N   UNL     1      28.034  33.186  15.170  1.00  0.00    -0.067 NA
BRANCH  36  38
ATOM     38  C   UNL     1      30.361  33.525  14.360  1.00  0.00     0.150 C 
BRANCH  38  39
ATOM     39  C   UNL     1      31.084  34.431  15.365  1.00  0.00     0.022 C 
ATOM     40  C   UNL     1      32.546  34.187  15.381  1.00  0.00     0.011 C 
BRANCH  39  41
ATOM     41  C   UNL     1      30.581  35.813  15.318  1.00  0.00     0.089 C 
BRANCH  41  42
ATOM     42  N   UNL     1      30.446  36.334  13.994  1.00  0.00    -0.299 NA
ATOM     43  C   UNL     1      29.135  37.023  13.856  1.00  0.00     0.106 C 
ATOM     44  C   UNL     1      31.413  37.408  13.786  1.00  0.00     0.106 C 
ATOM     45  C   UNL     1      29.020  37.720  12.546  1.00  0.00     0.132 C 
ATOM     46  C   UNL     1      31.519  37.529  12.258  1.00  0.00     0.132 C 
ATOM     47  N   UNL     1      30.201  37.759  11.741  1.00  0.00    -0.369 N 
BRANCH  47  48
ATOM     48  C   UNL     1      30.080  38.047  10.353  1.00  0.00     0.037 A 
ATOM     49  C   UNL     1      28.842  37.984   9.754  1.00  0.00     0.027 A 
ATOM     50  C   UNL     1      31.193  38.382   9.594  1.00  0.00     0.027 A 
ATOM     51  C   UNL     1      28.733  38.255   8.410  1.00  0.00     0.022 A 
ATOM     52  C   UNL     1      31.073  38.648   8.256  1.00  0.00     0.022 A 
ATOM     53  C   UNL     1      29.822  38.584   7.661  1.00  0.00     0.041 A 
ATOM     54  Cl  UNL     1      29.687  38.919   5.956  1.00  0.00    -0.084 Cl
ENDBRANCH  47  48
ENDBRANCH  41  42
ENDBRANCH  39  41
ENDBRANCH  38  39
ENDBRANCH  36  38
ENDBRANCH  32  33
ENDBRANCH   1  32
TORSDOF 19
BEGIN_RES LYS A 131
REMARK  4 active torsions:
REMARK  status: ('A' for Active; 'I' for Inactive)
REMARK    1  A    between atoms: CA   and  CB  
REMARK    2  A    between atoms: CB   and  CG  
REMARK    3  A    between atoms: CG   and  CD  
REMARK    4  A    between atoms: CD   and  CE  
ROOT
ATOM      1  CA  LYS A 131      29.867  25.555  16.977  1.00 20.52     0.186 C 
ENDROOT
BRANCH   1   2
ATOM      2  CB  LYS A 131      28.345  25.722  17.026  1.00 20.94     0.034 C 
BRANCH   2   3
ATOM      3  CG  LYS A 131      27.602  24.400  16.911  1.00 22.96     0.005 C 
BRANCH   3   4
ATOM      4  CD  LYS A 131      26.634  24.194  18.043  1.00 24.33     0.041 C 
BRANCH   4   5
ATOM      5  CE  LYS A 131      25.426  25.106  17.852  1.00 26.91     0.338 C 
ATOM      6  NZ  LYS A 131      24.474  24.511  16.885  1.00 27.40     0.618 N 
ENDBRANCH   4   5
ENDBRANCH   3   4
ENDBRANCH   2   3
ENDBRANCH   1   2
END_RES LYS A 131
BEGIN_RES LYS A 135
REMARK  4 active torsions:
REMARK  status: ('A' for Active; 'I' for Inactive)
REMARK    5  A    between atoms: CA   and  CB  
REMARK    6  A    between atoms: CB   and  CG  
REMARK    7  A    between atoms: CG   and  CD  
REMARK    8  A    between atoms: CD   and  CE  
ROOT
ATOM      7  CA  LYS A 135      33.193  34.663   9.290  1.00 25.02     0.186 C 
ENDROOT
BRANCH   7   8
ATOM      8  CB  LYS A 135      32.060  35.360  10.034  1.00 26.63     0.034 C 
BRANCH   8   9
ATOM      9  CG  LYS A 135      30.733  34.657   9.907  1.00 29.45     0.005 C 
BRANCH   9  10
ATOM     10  CD  LYS A 135      30.318  34.555   8.447  1.00 32.00     0.041 C 
BRANCH  10  11
ATOM     11  CE  LYS A 135      28.806  34.539   8.324  1.00 34.25     0.338 C 
ATOM     12  NZ  LYS A 135      28.183  33.798   9.455  1.00 35.99     0.618 N 
ENDBRANCH  10  11
ENDBRANCH   9  10
ENDBRANCH   8   9
ENDBRANCH   7   8
END_RES LYS A 135
