REMARK VINA RESULT:    -5.279      0.000      0.000
REMARK INTER + INTRA:         -15.155
REMARK INTER:                  -8.806
REMARK INTRA:                  -6.350
REMARK UNBOUND:                -4.785
REMARK SMILES C=CCCCCn1cc(COC(=O)NC[C@@H](O)C(O)[C@@H]2O[C@@](O)(C(=O)O)C[C@H](O)[C@H]2NC(C)=O)nn1
REMARK SMILES IDX 11 1 12 2 14 3 13 5 15 6 16 7 18 8 20 9 22 10 27 11 21 12
REMARK SMILES IDX 28 13 30 14 23 15 24 17 25 18 26 19 29 21 31 23 32 24 33 26
REMARK SMILES IDX 34 27 19 28 17 30 10 32 9 33 8 34 35 35 7 36 36 37 6 38 5 39
REMARK SMILES IDX 4 40 3 41 2 42 1 43
REMARK H PARENT 14 4 23 16 26 20 29 22 31 25 19 29 17 31
REMARK Flexibility Score: inf
ROOT
ATOM      1  O   UNL     1      31.687  36.238  18.029  1.00  0.00    -0.443 OA
ENDROOT
BRANCH   1   2
ATOM      2  C   UNL     1      31.031  35.032  18.191  1.00  0.00     0.407 C 
ATOM      3  N   UNL     1      31.475  33.932  17.385  1.00  0.00    -0.319 N 
ATOM      4  H   UNL     1      32.261  34.089  16.724  1.00  0.00     0.167 HD
ATOM      5  O   UNL     1      30.073  34.894  19.018  1.00  0.00    -0.225 OA
BRANCH   3   6
ATOM      6  C   UNL     1      30.871  32.646  17.471  1.00  0.00     0.154 C 
BRANCH   6   7
ATOM      7  C   UNL     1      30.639  31.982  16.112  1.00  0.00     0.165 C 
BRANCH   7   8
ATOM      8  C   UNL     1      29.426  32.660  15.527  1.00  0.00     0.176 C 
BRANCH   8   9
ATOM      9  C   UNL     1      29.724  33.535  14.354  1.00  0.00     0.178 C 
ATOM     10  C   UNL     1      31.323  35.154  13.895  1.00  0.00     0.269 C 
ATOM     11  C   UNL     1      30.392  35.522  12.759  1.00  0.00     0.112 C 
ATOM     12  O   UNL     1      31.052  33.871  14.338  1.00  0.00    -0.332 OA
ATOM     13  C   UNL     1      29.017  35.729  13.352  1.00  0.00     0.145 C 
ATOM     14  C   UNL     1      28.827  34.771  14.505  1.00  0.00     0.142 C 
BRANCH  10  15
ATOM     15  O   UNL     1      31.262  36.094  14.919  1.00  0.00    -0.357 OA
ATOM     16  H   UNL     1      31.282  37.003  14.546  1.00  0.00     0.214 HD
ENDBRANCH  10  15
BRANCH  10  17
ATOM     17  C   UNL     1      32.704  35.194  13.349  1.00  0.00     0.364 C 
ATOM     18  O   UNL     1      33.022  35.929  12.379  1.00  0.00    -0.246 OA
BRANCH  17  19
ATOM     19  O   UNL     1      33.741  34.413  13.886  1.00  0.00    -0.477 OA
ATOM     20  H   UNL     1      33.623  34.068  14.835  1.00  0.00     0.296 HD
ENDBRANCH  17  19
ENDBRANCH  10  17
BRANCH  13  21
ATOM     21  O   UNL     1      28.934  37.014  13.855  1.00  0.00    -0.391 OA
ATOM     22  H   UNL     1      29.113  37.667  13.134  1.00  0.00     0.211 HD
ENDBRANCH  13  21
BRANCH  14  23
ATOM     23  N   UNL     1      27.454  34.307  14.597  1.00  0.00    -0.348 N 
ATOM     24  C   UNL     1      26.420  35.052  15.233  1.00  0.00     0.217 C 
ATOM     25  H   UNL     1      27.151  33.378  14.190  1.00  0.00     0.163 HD
ATOM     26  C   UNL     1      25.012  34.564  15.323  1.00  0.00     0.114 C 
ATOM     27  O   UNL     1      26.749  36.164  15.730  1.00  0.00    -0.275 OA
ENDBRANCH  14  23
ENDBRANCH   8   9
BRANCH   8  28
ATOM     28  O   UNL     1      28.825  33.362  16.585  1.00  0.00    -0.388 OA
ATOM     29  H   UNL     1      27.845  33.439  16.464  1.00  0.00     0.211 HD
ENDBRANCH   8  28
ENDBRANCH   7   8
BRANCH   7  30
ATOM     30  O   UNL     1      30.516  30.614  16.229  1.00  0.00    -0.388 OA
ATOM     31  H   UNL     1      31.115  30.190  16.865  1.00  0.00     0.211 HD
ENDBRANCH   7  30
ENDBRANCH   6   7
ENDBRANCH   3   6
ENDBRANCH   1   2
BRANCH   1  32
ATOM     32  C   UNL     1      32.872  36.501  18.732  1.00  0.00     0.294 C 
BRANCH  32  33
ATOM     33  C   UNL     1      34.004  36.223  17.788  1.00  0.00     0.120 A 
ATOM     34  C   UNL     1      35.329  36.121  18.181  1.00  0.00     0.138 A 
ATOM     35  N   UNL     1      34.000  36.026  16.470  1.00  0.00    -0.132 NA
ATOM     36  N   UNL     1      36.074  35.868  17.097  1.00  0.00    -0.252 N 
ATOM     37  N   UNL     1      35.243  35.816  16.074  1.00  0.00    -0.067 NA
BRANCH  36  38
ATOM     38  C   UNL     1      37.513  35.678  16.986  1.00  0.00     0.146 C 
BRANCH  38  39
ATOM     39  C   UNL     1      37.917  35.661  15.536  1.00  0.00     0.024 C 
BRANCH  39  40
ATOM     40  C   UNL     1      38.134  34.253  15.040  1.00  0.00     0.006 C 
BRANCH  40  41
ATOM     41  C   UNL     1      38.673  34.218  13.634  1.00  0.00     0.027 C 
BRANCH  41  42
ATOM     42  C   UNL     1      37.981  33.169  12.851  1.00  0.00    -0.035 C 
ATOM     43  C   UNL     1      37.048  33.439  11.965  1.00  0.00     0.004 C 
ENDBRANCH  41  42
ENDBRANCH  40  41
ENDBRANCH  39  40
ENDBRANCH  38  39
ENDBRANCH  36  38
ENDBRANCH  32  33
ENDBRANCH   1  32
TORSDOF 19
BEGIN_RES LYS A 131
REMARK  4 active torsions:
REMARK  status: ('A' for Active; 'I' for Inactive)
REMARK    1  A    between atoms: CA   and  CB  
REMARK    2  A    between atoms: CB   and  CG  
REMARK    3  A    between atoms: CG   and  CD  
REMARK    4  A    between atoms: CD   and  CE  
ROOT
ATOM      1  CA  LYS A 131      29.867  25.555  16.977  1.00 20.52     0.186 C 
ENDROOT
BRANCH   1   2
ATOM      2  CB  LYS A 131      28.345  25.722  17.026  1.00 20.94     0.034 C 
BRANCH   2   3
ATOM      3  CG  LYS A 131      27.601  24.402  16.893  1.00 22.96     0.005 C 
BRANCH   3   4
ATOM      4  CD  LYS A 131      26.147  24.532  17.254  1.00 24.33     0.041 C 
BRANCH   4   5
ATOM      5  CE  LYS A 131      25.622  23.186  17.743  1.00 26.91     0.338 C 
ATOM      6  NZ  LYS A 131      25.530  23.171  19.222  1.00 27.40     0.618 N 
ENDBRANCH   4   5
ENDBRANCH   3   4
ENDBRANCH   2   3
ENDBRANCH   1   2
END_RES LYS A 131
BEGIN_RES LYS A 135
REMARK  4 active torsions:
REMARK  status: ('A' for Active; 'I' for Inactive)
REMARK    5  A    between atoms: CA   and  CB  
REMARK    6  A    between atoms: CB   and  CG  
REMARK    7  A    between atoms: CG   and  CD  
REMARK    8  A    between atoms: CD   and  CE  
ROOT
ATOM      7  CA  LYS A 135      33.193  34.663   9.290  1.00 25.02     0.186 C 
ENDROOT
BRANCH   7   8
ATOM      8  CB  LYS A 135      32.060  35.360  10.034  1.00 26.63     0.034 C 
BRANCH   8   9
ATOM      9  CG  LYS A 135      30.867  35.666   9.165  1.00 29.45     0.005 C 
BRANCH   9  10
ATOM     10  CD  LYS A 135      30.315  34.392   8.545  1.00 32.00     0.041 C 
BRANCH  10  11
ATOM     11  CE  LYS A 135      29.025  33.982   9.229  1.00 34.25     0.338 C 
ATOM     12  NZ  LYS A 135      28.309  35.166   9.778  1.00 35.99     0.618 N 
ENDBRANCH  10  11
ENDBRANCH   9  10
ENDBRANCH   8   9
ENDBRANCH   7   8
END_RES LYS A 135
