REMARK VINA RESULT:    -6.333      5.307     11.458
REMARK INTER + INTRA:         -16.478
REMARK INTER:                  -9.224
REMARK INTRA:                  -7.253
REMARK UNBOUND:                -4.777
REMARK SMILES CC(=O)N[C@@H]1[C@@H](O)C[C@](O)(C(=O)O)O[C@H]1C(O)[C@H](O)CNC(=O)OCc1cn(C(C)(C)C(=O)c2c[nH]c3ccccc23)nn1
REMARK SMILES IDX 21 1 22 2 23 3 20 5 18 6 16 7 15 8 9 9 8 10 14 11 6 12 5 13
REMARK SMILES IDX 10 14 11 16 12 17 13 18 7 20 4 22 2 23 1 25 3 26 17 27 19 29
REMARK SMILES IDX 24 31 25 32 26 33 27 34 44 35 28 36 43 37 29 38 30 39 31 40
REMARK SMILES IDX 32 41 33 42 34 43 35 44 42 45 36 46 37 47 41 48 38 50 40 51
REMARK SMILES IDX 39 52
REMARK H PARENT 21 4 10 15 13 19 7 21 4 24 17 28 19 30 36 49
REMARK Flexibility Score: inf
ROOT
ATOM      1  N   UNL     1      32.037  28.487  20.759  1.00  0.00    -0.319 N 
ATOM      2  C   UNL     1      32.099  29.560  21.680  1.00  0.00     0.407 C 
ATOM      3  O   UNL     1      31.823  29.396  22.871  1.00  0.00    -0.225 OA
ATOM      4  H   UNL     1      32.305  28.740  19.749  1.00  0.00     0.167 HD
ENDROOT
BRANCH   1   5
ATOM      5  C   UNL     1      31.656  27.134  21.061  1.00  0.00     0.154 C 
BRANCH   5   6
ATOM      6  C   UNL     1      30.212  26.906  21.309  1.00  0.00     0.165 C 
BRANCH   6   7
ATOM      7  C   UNL     1      29.314  27.978  20.711  1.00  0.00     0.176 C 
BRANCH   7   8
ATOM      8  C   UNL     1      28.140  27.378  19.982  1.00  0.00     0.178 C 
ATOM      9  C   UNL     1      27.038  28.792  18.512  1.00  0.00     0.269 C 
ATOM     10  C   UNL     1      25.657  28.299  18.885  1.00  0.00     0.112 C 
ATOM     11  O   UNL     1      28.006  27.811  18.694  1.00  0.00    -0.332 OA
ATOM     12  C   UNL     1      25.725  27.130  19.846  1.00  0.00     0.145 C 
ATOM     13  C   UNL     1      26.872  27.454  20.805  1.00  0.00     0.142 C 
BRANCH   9  14
ATOM     14  O   UNL     1      27.387  29.964  19.181  1.00  0.00    -0.357 OA
ATOM     15  H   UNL     1      27.663  29.768  20.121  1.00  0.00     0.214 HD
ENDBRANCH   9  14
BRANCH   9  16
ATOM     16  C   UNL     1      27.009  29.113  17.060  1.00  0.00     0.364 C 
ATOM     17  O   UNL     1      25.888  29.278  16.481  1.00  0.00    -0.246 OA
BRANCH  16  18
ATOM     18  O   UNL     1      28.140  29.246  16.290  1.00  0.00    -0.477 OA
ATOM     19  H   UNL     1      28.580  30.137  16.098  1.00  0.00     0.296 HD
ENDBRANCH  16  18
ENDBRANCH   9  16
BRANCH  12  20
ATOM     20  O   UNL     1      24.543  26.931  20.520  1.00  0.00    -0.391 OA
ATOM     21  H   UNL     1      24.446  27.674  21.197  1.00  0.00     0.211 HD
ENDBRANCH  12  20
BRANCH  13  22
ATOM     22  N   UNL     1      26.937  26.510  21.888  1.00  0.00    -0.348 N 
ATOM     23  C   UNL     1      26.620  26.880  23.242  1.00  0.00     0.217 C 
ATOM     24  H   UNL     1      27.217  25.506  21.763  1.00  0.00     0.163 HD
ATOM     25  C   UNL     1      26.674  25.952  24.372  1.00  0.00     0.114 C 
ATOM     26  O   UNL     1      26.277  28.093  23.423  1.00  0.00    -0.275 OA
ENDBRANCH  13  22
ENDBRANCH   7   8
BRANCH   7  27
ATOM     27  O   UNL     1      28.857  28.729  21.798  1.00  0.00    -0.388 OA
ATOM     28  H   UNL     1      28.037  28.372  22.189  1.00  0.00     0.211 HD
ENDBRANCH   7  27
ENDBRANCH   6   7
BRANCH   6  29
ATOM     29  O   UNL     1      29.941  26.879  22.663  1.00  0.00    -0.388 OA
ATOM     30  H   UNL     1      30.803  26.762  23.140  1.00  0.00     0.211 HD
ENDBRANCH   6  29
ENDBRANCH   5   6
ENDBRANCH   1   5
BRANCH   2  31
ATOM     31  O   UNL     1      32.473  30.848  21.289  1.00  0.00    -0.443 OA
BRANCH  31  32
ATOM     32  C   UNL     1      31.521  31.861  21.151  1.00  0.00     0.294 C 
BRANCH  32  33
ATOM     33  C   UNL     1      30.882  31.795  19.812  1.00  0.00     0.120 A 
ATOM     34  C   UNL     1      30.743  32.847  18.920  1.00  0.00     0.139 A 
ATOM     35  N   UNL     1      30.319  30.741  19.185  1.00  0.00    -0.132 NA
ATOM     36  N   UNL     1      30.115  32.410  17.810  1.00  0.00    -0.239 N 
ATOM     37  N   UNL     1      29.871  31.125  18.003  1.00  0.00    -0.066 NA
BRANCH  36  38
ATOM     38  C   UNL     1      29.778  33.223  16.625  1.00  0.00     0.122 C 
ATOM     39  C   UNL     1      28.510  32.717  16.030  1.00  0.00     0.046 C 
ATOM     40  C   UNL     1      29.584  34.637  17.204  1.00  0.00     0.046 C 
BRANCH  38  41
ATOM     41  C   UNL     1      30.953  33.235  15.756  1.00  0.00     0.192 C 
ATOM     42  O   UNL     1      31.528  32.143  15.412  1.00  0.00    -0.291 OA
BRANCH  41  43
ATOM     43  C   UNL     1      31.581  34.433  15.211  1.00  0.00     0.045 A 
ATOM     44  C   UNL     1      32.810  34.946  15.621  1.00  0.00     0.095 A 
ATOM     45  C   UNL     1      31.045  35.239  14.241  1.00  0.00     0.010 A 
ATOM     46  N   UNL     1      33.011  36.050  14.905  1.00  0.00    -0.360 N 
ATOM     47  C   UNL     1      31.978  36.266  14.063  1.00  0.00     0.046 A 
ATOM     48  C   UNL     1      29.880  35.221  13.479  1.00  0.00     0.011 A 
ATOM     49  H   UNL     1      33.835  36.666  14.971  1.00  0.00     0.166 HD
ATOM     50  C   UNL     1      31.702  37.241  13.125  1.00  0.00     0.027 A 
ATOM     51  C   UNL     1      29.640  36.201  12.561  1.00  0.00     0.001 A 
ATOM     52  C   UNL     1      30.545  37.206  12.384  1.00  0.00     0.002 A 
ENDBRANCH  41  43
ENDBRANCH  38  41
ENDBRANCH  36  38
ENDBRANCH  32  33
ENDBRANCH  31  32
ENDBRANCH   2  31
TORSDOF 17
BEGIN_RES LYS A 131
REMARK  4 active torsions:
REMARK  status: ('A' for Active; 'I' for Inactive)
REMARK    1  A    between atoms: CA   and  CB  
REMARK    2  A    between atoms: CB   and  CG  
REMARK    3  A    between atoms: CG   and  CD  
REMARK    4  A    between atoms: CD   and  CE  
ROOT
ATOM      1  CA  LYS A 131      29.867  25.555  16.977  1.00 20.52     0.186 C 
ENDROOT
BRANCH   1   2
ATOM      2  CB  LYS A 131      28.345  25.722  17.026  1.00 20.94     0.034 C 
BRANCH   2   3
ATOM      3  CG  LYS A 131      27.602  24.399  16.919  1.00 22.96     0.005 C 
BRANCH   3   4
ATOM      4  CD  LYS A 131      26.152  24.532  17.296  1.00 24.33     0.041 C 
BRANCH   4   5
ATOM      5  CE  LYS A 131      25.786  23.444  18.301  1.00 26.91     0.338 C 
ATOM      6  NZ  LYS A 131      24.981  22.385  17.648  1.00 27.40     0.618 N 
ENDBRANCH   4   5
ENDBRANCH   3   4
ENDBRANCH   2   3
ENDBRANCH   1   2
END_RES LYS A 131
BEGIN_RES LYS A 135
REMARK  4 active torsions:
REMARK  status: ('A' for Active; 'I' for Inactive)
REMARK    5  A    between atoms: CA   and  CB  
REMARK    6  A    between atoms: CB   and  CG  
REMARK    7  A    between atoms: CG   and  CD  
REMARK    8  A    between atoms: CD   and  CE  
ROOT
ATOM      7  CA  LYS A 135      33.193  34.663   9.290  1.00 25.02     0.186 C 
ENDROOT
BRANCH   7   8
ATOM      8  CB  LYS A 135      32.060  35.360  10.034  1.00 26.63     0.034 C 
BRANCH   8   9
ATOM      9  CG  LYS A 135      30.865  35.661   9.167  1.00 29.45     0.005 C 
BRANCH   9  10
ATOM     10  CD  LYS A 135      30.368  34.397   8.482  1.00 32.00     0.041 C 
BRANCH  10  11
ATOM     11  CE  LYS A 135      28.856  34.417   8.360  1.00 34.25     0.338 C 
ATOM     12  NZ  LYS A 135      28.212  33.870   9.585  1.00 35.99     0.618 N 
ENDBRANCH  10  11
ENDBRANCH   9  10
ENDBRANCH   8   9
ENDBRANCH   7   8
END_RES LYS A 135
