REMARK VINA RESULT:    -5.627      8.511     13.697
REMARK INTER + INTRA:         -14.286
REMARK INTER:                  -7.222
REMARK INTRA:                  -7.064
REMARK UNBOUND:                -4.548
REMARK SMILES CC(=O)N[C@@H]1[C@@H](O)C[C@](O)(C(=O)O)O[C@H]1C(O)[C@H](O)CNC(=O)OCc1cn(-c2ccc3c(c2)OCO3)nn1
REMARK SMILES IDX 20 1 18 2 16 3 15 4 9 5 8 6 14 7 6 8 5 9 10 10 11 12 12 13
REMARK SMILES IDX 13 14 7 16 4 18 2 19 1 21 3 22 17 23 19 25 21 27 22 28 23 30
REMARK SMILES IDX 24 31 25 32 26 33 27 34 39 35 28 36 38 37 29 38 30 39 34 40
REMARK SMILES IDX 31 41 33 42 32 43 35 44 37 45 36 46
REMARK H PARENT 10 11 13 15 7 17 4 20 17 24 19 26 21 29
REMARK Flexibility Score: inf
ROOT
ATOM      1  C   UNL     1      21.827  36.858  13.746  1.00  0.00     0.154 C 
ENDROOT
BRANCH   1   2
ATOM      2  C   UNL     1      21.906  36.986  12.262  1.00  0.00     0.165 C 
BRANCH   2   3
ATOM      3  C   UNL     1      21.295  35.756  11.569  1.00  0.00     0.176 C 
BRANCH   3   4
ATOM      4  C   UNL     1      21.356  35.998  10.104  1.00  0.00     0.178 C 
ATOM      5  C   UNL     1      21.397  37.568   8.452  1.00  0.00     0.269 C 
ATOM      6  C   UNL     1      21.605  36.309   7.638  1.00  0.00     0.112 C 
ATOM      7  O   UNL     1      21.399  37.356   9.808  1.00  0.00    -0.332 OA
ATOM      8  C   UNL     1      20.568  35.247   7.949  1.00  0.00     0.145 C 
ATOM      9  C   UNL     1      20.141  35.440   9.365  1.00  0.00     0.142 C 
BRANCH   5  10
ATOM     10  O   UNL     1      20.207  38.136   7.994  1.00  0.00    -0.357 OA
ATOM     11  H   UNL     1      19.476  37.587   8.386  1.00  0.00     0.214 HD
ENDBRANCH   5  10
BRANCH   5  12
ATOM     12  C   UNL     1      22.530  38.469   8.140  1.00  0.00     0.364 C 
ATOM     13  O   UNL     1      22.874  39.335   8.979  1.00  0.00    -0.246 OA
BRANCH  12  14
ATOM     14  O   UNL     1      23.237  38.400   6.951  1.00  0.00    -0.477 OA
ATOM     15  H   UNL     1      23.305  37.559   6.388  1.00  0.00     0.296 HD
ENDBRANCH  12  14
ENDBRANCH   5  12
BRANCH   8  16
ATOM     16  O   UNL     1      19.507  35.473   7.046  1.00  0.00    -0.391 OA
ATOM     17  H   UNL     1      19.548  34.851   6.296  1.00  0.00     0.211 HD
ENDBRANCH   8  16
BRANCH   9  18
ATOM     18  N   UNL     1      19.563  34.311   9.997  1.00  0.00    -0.348 N 
ATOM     19  C   UNL     1      18.220  33.865   9.881  1.00  0.00     0.217 C 
ATOM     20  H   UNL     1      20.178  33.736  10.614  1.00  0.00     0.163 HD
ATOM     21  C   UNL     1      17.711  32.656  10.593  1.00  0.00     0.114 C 
ATOM     22  O   UNL     1      17.458  34.533   9.146  1.00  0.00    -0.275 OA
ENDBRANCH   9  18
ENDBRANCH   3   4
BRANCH   3  23
ATOM     23  O   UNL     1      22.018  34.662  11.956  1.00  0.00    -0.388 OA
ATOM     24  H   UNL     1      22.884  34.797  12.356  1.00  0.00     0.211 HD
ENDBRANCH   3  23
ENDBRANCH   2   3
BRANCH   2  25
ATOM     25  O   UNL     1      23.197  37.116  11.825  1.00  0.00    -0.388 OA
ATOM     26  H   UNL     1      23.879  36.597  12.304  1.00  0.00     0.211 HD
ENDBRANCH   2  25
ENDBRANCH   1   2
BRANCH   1  27
ATOM     27  N   UNL     1      23.084  36.539  14.326  1.00  0.00    -0.319 N 
ATOM     28  C   UNL     1      23.371  35.305  14.931  1.00  0.00     0.407 C 
ATOM     29  H   UNL     1      23.876  37.252  14.321  1.00  0.00     0.167 HD
ATOM     30  O   UNL     1      22.574  34.359  15.044  1.00  0.00    -0.225 OA
BRANCH  28  31
ATOM     31  O   UNL     1      24.657  35.095  15.461  1.00  0.00    -0.443 OA
BRANCH  31  32
ATOM     32  C   UNL     1      25.574  34.326  14.744  1.00  0.00     0.294 C 
BRANCH  32  33
ATOM     33  C   UNL     1      25.545  34.739  13.316  1.00  0.00     0.121 A 
ATOM     34  C   UNL     1      26.313  35.739  12.731  1.00  0.00     0.144 A 
ATOM     35  N   UNL     1      24.792  34.248  12.317  1.00  0.00    -0.131 NA
ATOM     36  N   UNL     1      26.015  35.828  11.423  1.00  0.00    -0.220 N 
ATOM     37  N   UNL     1      25.091  34.908  11.214  1.00  0.00    -0.062 NA
BRANCH  36  38
ATOM     38  C   UNL     1      26.594  36.734  10.492  1.00  0.00     0.070 A 
ATOM     39  C   UNL     1      27.839  37.282  10.729  1.00  0.00     0.032 A 
ATOM     40  C   UNL     1      25.960  37.109   9.326  1.00  0.00     0.079 A 
ATOM     41  C   UNL     1      28.425  38.172   9.830  1.00  0.00     0.053 A 
ATOM     42  C   UNL     1      26.527  37.997   8.412  1.00  0.00     0.167 A 
ATOM     43  C   UNL     1      27.770  38.530   8.672  1.00  0.00     0.165 A 
ATOM     44  O   UNL     1      26.100  38.520   7.194  1.00  0.00    -0.454 OA
ATOM     45  O   UNL     1      28.076  39.377   7.591  1.00  0.00    -0.454 OA
ATOM     46  C   UNL     1      26.859  39.679   6.901  1.00  0.00     0.468 C 
ENDBRANCH  36  38
ENDBRANCH  32  33
ENDBRANCH  31  32
ENDBRANCH  28  31
ENDBRANCH   1  27
TORSDOF 15
BEGIN_RES LYS A 131
REMARK  4 active torsions:
REMARK  status: ('A' for Active; 'I' for Inactive)
REMARK    1  A    between atoms: CA   and  CB  
REMARK    2  A    between atoms: CB   and  CG  
REMARK    3  A    between atoms: CG   and  CD  
REMARK    4  A    between atoms: CD   and  CE  
ROOT
ATOM      1  CA  LYS A 131      29.867  25.555  16.977  1.00 20.52     0.186 C 
ENDROOT
BRANCH   1   2
ATOM      2  CB  LYS A 131      28.345  25.722  17.026  1.00 20.94     0.034 C 
BRANCH   2   3
ATOM      3  CG  LYS A 131      27.602  24.399  16.917  1.00 22.96     0.005 C 
BRANCH   3   4
ATOM      4  CD  LYS A 131      26.220  24.477  17.504  1.00 24.33     0.041 C 
BRANCH   4   5
ATOM      5  CE  LYS A 131      26.208  25.485  18.649  1.00 26.91     0.338 C 
ATOM      6  NZ  LYS A 131      25.046  26.396  18.525  1.00 27.40     0.618 N 
ENDBRANCH   4   5
ENDBRANCH   3   4
ENDBRANCH   2   3
ENDBRANCH   1   2
END_RES LYS A 131
BEGIN_RES LYS A 135
REMARK  4 active torsions:
REMARK  status: ('A' for Active; 'I' for Inactive)
REMARK    5  A    between atoms: CA   and  CB  
REMARK    6  A    between atoms: CB   and  CG  
REMARK    7  A    between atoms: CG   and  CD  
REMARK    8  A    between atoms: CD   and  CE  
ROOT
ATOM      7  CA  LYS A 135      33.193  34.663   9.290  1.00 25.02     0.186 C 
ENDROOT
BRANCH   7   8
ATOM      8  CB  LYS A 135      32.060  35.360  10.034  1.00 26.63     0.034 C 
BRANCH   8   9
ATOM      9  CG  LYS A 135      30.827  35.571   9.193  1.00 29.45     0.005 C 
BRANCH   9  10
ATOM     10  CD  LYS A 135      30.150  34.244   8.891  1.00 32.00     0.041 C 
BRANCH  10  11
ATOM     11  CE  LYS A 135      28.717  34.466   8.447  1.00 34.25     0.338 C 
ATOM     12  NZ  LYS A 135      28.660  35.299   7.214  1.00 35.99     0.618 N 
ENDBRANCH  10  11
ENDBRANCH   9  10
ENDBRANCH   8   9
ENDBRANCH   7   8
END_RES LYS A 135
