REMARK VINA RESULT:    -4.992      3.912      6.750
REMARK INTER + INTRA:         -14.143
REMARK INTER:                  -8.414
REMARK INTRA:                  -5.729
REMARK UNBOUND:                -5.502
REMARK SMILES CC(=O)N[C@@H]1[C@@H](O)C[C@](O)(C(=O)O)O[C@H]1C(O)[C@H](O)CNC(=O)OCc1cn([C@@H]2C[C@H]3CC[C@@H](C2)N3C)nn1
REMARK SMILES IDX 20 1 18 2 16 3 15 4 9 5 8 6 14 7 6 8 5 9 10 10 11 12 12 13
REMARK SMILES IDX 13 14 7 16 4 18 2 19 1 21 3 22 17 23 19 25 21 27 22 28 23 30
REMARK SMILES IDX 24 31 25 32 26 33 27 34 39 35 28 36 38 37 29 38 35 39 30 40
REMARK SMILES IDX 34 41 31 42 36 43 33 44 32 45 37 46
REMARK H PARENT 10 11 13 15 7 17 4 20 17 24 19 26 21 29
REMARK Flexibility Score: inf
ROOT
ATOM      1  C   UNL     1      24.595  28.538  17.531  1.00  0.00     0.154 C 
ENDROOT
BRANCH   1   2
ATOM      2  C   UNL     1      23.440  28.411  16.581  1.00  0.00     0.165 C 
BRANCH   2   3
ATOM      3  C   UNL     1      22.507  29.610  16.703  1.00  0.00     0.176 C 
BRANCH   3   4
ATOM      4  C   UNL     1      22.467  30.306  15.344  1.00  0.00     0.178 C 
ATOM      5  C   UNL     1      23.027  29.748  13.142  1.00  0.00     0.269 C 
ATOM      6  C   UNL     1      24.029  30.851  13.002  1.00  0.00     0.112 C 
ATOM      7  O   UNL     1      22.719  29.382  14.411  1.00  0.00    -0.332 OA
ATOM      8  C   UNL     1      24.353  31.573  14.265  1.00  0.00     0.145 C 
ATOM      9  C   UNL     1      23.294  31.561  15.316  1.00  0.00     0.142 C 
BRANCH   5  10
ATOM     10  O   UNL     1      23.551  28.611  12.521  1.00  0.00    -0.357 OA
ATOM     11  H   UNL     1      23.578  27.828  13.122  1.00  0.00     0.214 HD
ENDBRANCH   5  10
BRANCH   5  12
ATOM     12  C   UNL     1      21.762  30.048  12.439  1.00  0.00     0.364 C 
ATOM     13  O   UNL     1      21.031  29.112  12.051  1.00  0.00    -0.246 OA
BRANCH  12  14
ATOM     14  O   UNL     1      21.311  31.336  12.167  1.00  0.00    -0.477 OA
ATOM     15  H   UNL     1      21.843  32.152  12.505  1.00  0.00     0.296 HD
ENDBRANCH  12  14
ENDBRANCH   5  12
BRANCH   8  16
ATOM     16  O   UNL     1      25.551  31.033  14.755  1.00  0.00    -0.391 OA
ATOM     17  H   UNL     1      26.225  30.996  14.036  1.00  0.00     0.211 HD
ENDBRANCH   8  16
BRANCH   9  18
ATOM     18  N   UNL     1      22.475  32.741  15.364  1.00  0.00    -0.348 N 
ATOM     19  C   UNL     1      22.517  33.694  16.408  1.00  0.00     0.217 C 
ATOM     20  H   UNL     1      21.790  32.934  14.585  1.00  0.00     0.163 HD
ATOM     21  C   UNL     1      21.684  34.913  16.479  1.00  0.00     0.114 C 
ATOM     22  O   UNL     1      23.339  33.449  17.325  1.00  0.00    -0.275 OA
ENDBRANCH   9  18
ENDBRANCH   3   4
BRANCH   3  23
ATOM     23  O   UNL     1      22.906  30.487  17.698  1.00  0.00    -0.388 OA
ATOM     24  H   UNL     1      22.956  31.394  17.301  1.00  0.00     0.211 HD
ENDBRANCH   3  23
ENDBRANCH   2   3
BRANCH   2  25
ATOM     25  O   UNL     1      22.701  27.280  16.779  1.00  0.00    -0.388 OA
ATOM     26  H   UNL     1      22.925  26.871  17.666  1.00  0.00     0.211 HD
ENDBRANCH   2  25
ENDBRANCH   1   2
BRANCH   1  27
ATOM     27  N   UNL     1      25.669  29.306  17.002  1.00  0.00    -0.319 N 
ATOM     28  C   UNL     1      27.001  28.870  16.889  1.00  0.00     0.407 C 
ATOM     29  H   UNL     1      25.469  30.297  16.657  1.00  0.00     0.167 HD
ATOM     30  O   UNL     1      27.374  27.742  17.261  1.00  0.00    -0.225 OA
BRANCH  28  31
ATOM     31  O   UNL     1      27.962  29.737  16.334  1.00  0.00    -0.443 OA
BRANCH  31  32
ATOM     32  C   UNL     1      28.394  30.843  17.101  1.00  0.00     0.294 C 
BRANCH  32  33
ATOM     33  C   UNL     1      28.658  31.997  16.241  1.00  0.00     0.120 A 
ATOM     34  C   UNL     1      29.915  32.506  15.937  1.00  0.00     0.138 A 
ATOM     35  N   UNL     1      27.768  32.757  15.605  1.00  0.00    -0.132 NA
ATOM     36  N   UNL     1      29.738  33.557  15.128  1.00  0.00    -0.249 N 
ATOM     37  N   UNL     1      28.441  33.683  14.946  1.00  0.00    -0.067 NA
BRANCH  36  38
ATOM     38  C   UNL     1      30.747  34.407  14.547  1.00  0.00     0.112 C 
ATOM     39  C   UNL     1      30.570  35.823  15.095  1.00  0.00     0.046 C 
ATOM     40  C   UNL     1      32.087  33.892  15.024  1.00  0.00     0.046 C 
ATOM     41  C   UNL     1      31.763  36.645  14.690  1.00  0.00     0.058 C 
ATOM     42  C   UNL     1      33.165  34.891  14.753  1.00  0.00     0.058 C 
ATOM     43  N   UNL     1      32.950  36.163  15.369  1.00  0.00    -0.300 NA
ATOM     44  C   UNL     1      32.110  36.379  13.237  1.00  0.00     0.021 C 
ATOM     45  C   UNL     1      33.085  35.242  13.262  1.00  0.00     0.021 C 
ATOM     46  C   UNL     1      32.797  36.105  16.794  1.00  0.00     0.105 C 
ENDBRANCH  36  38
ENDBRANCH  32  33
ENDBRANCH  31  32
ENDBRANCH  28  31
ENDBRANCH   1  27
TORSDOF 15
BEGIN_RES LYS A 131
REMARK  4 active torsions:
REMARK  status: ('A' for Active; 'I' for Inactive)
REMARK    1  A    between atoms: CA   and  CB  
REMARK    2  A    between atoms: CB   and  CG  
REMARK    3  A    between atoms: CG   and  CD  
REMARK    4  A    between atoms: CD   and  CE  
ROOT
ATOM      1  CA  LYS A 131      29.867  25.555  16.977  1.00 20.52     0.186 C 
ENDROOT
BRANCH   1   2
ATOM      2  CB  LYS A 131      28.345  25.722  17.026  1.00 20.94     0.034 C 
BRANCH   2   3
ATOM      3  CG  LYS A 131      27.601  24.402  16.891  1.00 22.96     0.005 C 
BRANCH   3   4
ATOM      4  CD  LYS A 131      26.812  24.068  18.126  1.00 24.33     0.041 C 
BRANCH   4   5
ATOM      5  CE  LYS A 131      25.463  24.778  18.076  1.00 26.91     0.338 C 
ATOM      6  NZ  LYS A 131      24.705  24.368  16.871  1.00 27.40     0.618 N 
ENDBRANCH   4   5
ENDBRANCH   3   4
ENDBRANCH   2   3
ENDBRANCH   1   2
END_RES LYS A 131
BEGIN_RES LYS A 135
REMARK  4 active torsions:
REMARK  status: ('A' for Active; 'I' for Inactive)
REMARK    5  A    between atoms: CA   and  CB  
REMARK    6  A    between atoms: CB   and  CG  
REMARK    7  A    between atoms: CG   and  CD  
REMARK    8  A    between atoms: CD   and  CE  
ROOT
ATOM      7  CA  LYS A 135      33.193  34.663   9.290  1.00 25.02     0.186 C 
ENDROOT
BRANCH   7   8
ATOM      8  CB  LYS A 135      32.060  35.360  10.034  1.00 26.63     0.034 C 
BRANCH   8   9
ATOM      9  CG  LYS A 135      30.689  34.898   9.613  1.00 29.45     0.005 C 
BRANCH   9  10
ATOM     10  CD  LYS A 135      29.646  35.301  10.645  1.00 32.00     0.041 C 
BRANCH  10  11
ATOM     11  CE  LYS A 135      28.251  35.203  10.058  1.00 34.25     0.338 C 
ATOM     12  NZ  LYS A 135      27.929  33.802   9.671  1.00 35.99     0.618 N 
ENDBRANCH  10  11
ENDBRANCH   9  10
ENDBRANCH   8   9
ENDBRANCH   7   8
END_RES LYS A 135
