REMARK VINA RESULT:    -5.743      6.773     11.854
REMARK INTER + INTRA:         -16.023
REMARK INTER:                  -9.412
REMARK INTRA:                  -6.610
REMARK UNBOUND:                -6.084
REMARK SMILES CC(=O)N[C@@H]1[C@@H](O)C[C@](O)(C(=O)O)O[C@H]1C(O)[C@H](O)CNC(=O)OCc1cn(-c2c3ccccc3nc3ccccc23)nn1
REMARK SMILES IDX 20 1 18 2 16 3 15 4 9 5 8 6 14 7 6 8 5 9 10 10 11 12 12 13
REMARK SMILES IDX 13 14 7 16 4 18 2 19 1 21 3 22 17 23 19 25 21 27 22 28 23 30
REMARK SMILES IDX 24 31 25 32 26 33 27 34 44 35 28 36 43 37 29 38 30 39 42 40
REMARK SMILES IDX 31 41 35 42 37 43 41 44 32 45 34 46 36 47 38 48 40 49 33 50
REMARK SMILES IDX 39 51
REMARK H PARENT 10 11 13 15 7 17 4 20 17 24 19 26 21 29
REMARK Flexibility Score: inf
ROOT
ATOM      1  C   UNL     1      26.028  28.041  18.948  1.00  0.00     0.154 C 
ENDROOT
BRANCH   1   2
ATOM      2  C   UNL     1      27.451  27.731  19.329  1.00  0.00     0.165 C 
BRANCH   2   3
ATOM      3  C   UNL     1      27.531  27.809  20.822  1.00  0.00     0.176 C 
BRANCH   3   4
ATOM      4  C   UNL     1      28.912  28.173  21.348  1.00  0.00     0.178 C 
ATOM      5  C   UNL     1      31.087  27.701  20.926  1.00  0.00     0.269 C 
ATOM      6  C   UNL     1      31.452  27.320  22.336  1.00  0.00     0.112 C 
ATOM      7  O   UNL     1      29.795  27.424  20.620  1.00  0.00    -0.332 OA
ATOM      8  C   UNL     1      30.252  27.121  23.216  1.00  0.00     0.145 C 
ATOM      9  C   UNL     1      29.053  27.906  22.801  1.00  0.00     0.142 C 
BRANCH   5  10
ATOM     10  O   UNL     1      31.859  26.881  20.038  1.00  0.00    -0.357 OA
ATOM     11  H   UNL     1      32.571  27.428  19.624  1.00  0.00     0.214 HD
ENDBRANCH   5  10
BRANCH   5  12
ATOM     12  C   UNL     1      31.546  29.080  20.629  1.00  0.00     0.364 C 
ATOM     13  O   UNL     1      32.317  29.708  21.403  1.00  0.00    -0.246 OA
BRANCH  12  14
ATOM     14  O   UNL     1      31.155  29.773  19.472  1.00  0.00    -0.477 OA
ATOM     15  H   UNL     1      30.263  30.243  19.458  1.00  0.00     0.296 HD
ENDBRANCH  12  14
ENDBRANCH   5  12
BRANCH   8  16
ATOM     16  O   UNL     1      29.964  25.753  23.273  1.00  0.00    -0.391 OA
ATOM     17  H   UNL     1      30.010  25.414  24.202  1.00  0.00     0.211 HD
ENDBRANCH   8  16
BRANCH   9  18
ATOM     18  N   UNL     1      28.968  29.109  23.635  1.00  0.00    -0.348 N 
ATOM     19  C   UNL     1      27.753  29.544  24.233  1.00  0.00     0.217 C 
ATOM     20  H   UNL     1      29.806  29.703  23.826  1.00  0.00     0.163 HD
ATOM     21  C   UNL     1      27.688  30.772  25.083  1.00  0.00     0.114 C 
ATOM     22  O   UNL     1      26.695  28.888  24.053  1.00  0.00    -0.275 OA
ENDBRANCH   9  18
ENDBRANCH   3   4
BRANCH   3  23
ATOM     23  O   UNL     1      27.177  26.582  21.361  1.00  0.00    -0.388 OA
ATOM     24  H   UNL     1      26.527  26.160  20.748  1.00  0.00     0.211 HD
ENDBRANCH   3  23
ENDBRANCH   2   3
BRANCH   2  25
ATOM     25  O   UNL     1      28.315  28.587  18.689  1.00  0.00    -0.388 OA
ATOM     26  H   UNL     1      28.212  28.440  17.701  1.00  0.00     0.211 HD
ENDBRANCH   2  25
ENDBRANCH   1   2
BRANCH   1  27
ATOM     27  N   UNL     1      25.793  28.352  17.580  1.00  0.00    -0.319 N 
ATOM     28  C   UNL     1      24.986  29.414  17.123  1.00  0.00     0.407 C 
ATOM     29  H   UNL     1      26.238  27.767  16.787  1.00  0.00     0.167 HD
ATOM     30  O   UNL     1      24.392  30.175  17.913  1.00  0.00    -0.225 OA
BRANCH  28  31
ATOM     31  O   UNL     1      24.806  29.674  15.755  1.00  0.00    -0.443 OA
BRANCH  31  32
ATOM     32  C   UNL     1      25.533  30.726  15.118  1.00  0.00     0.294 C 
BRANCH  32  33
ATOM     33  C   UNL     1      26.870  30.795  15.753  1.00  0.00     0.121 A 
ATOM     34  C   UNL     1      27.394  31.862  16.453  1.00  0.00     0.144 A 
ATOM     35  N   UNL     1      27.849  29.859  15.789  1.00  0.00    -0.131 NA
ATOM     36  N   UNL     1      28.630  31.563  16.884  1.00  0.00    -0.219 N 
ATOM     37  N   UNL     1      28.889  30.342  16.470  1.00  0.00    -0.062 NA
BRANCH  36  38
ATOM     38  C   UNL     1      29.502  32.380  17.636  1.00  0.00     0.085 A 
ATOM     39  C   UNL     1      29.368  32.463  19.025  1.00  0.00     0.027 A 
ATOM     40  C   UNL     1      30.513  33.117  17.043  1.00  0.00     0.027 A 
ATOM     41  C   UNL     1      28.381  31.754  19.676  1.00  0.00     0.012 A 
ATOM     42  C   UNL     1      30.195  33.237  19.777  1.00  0.00     0.073 A 
ATOM     43  C   UNL     1      31.341  33.894  17.823  1.00  0.00     0.073 A 
ATOM     44  C   UNL     1      30.643  33.036  15.679  1.00  0.00     0.012 A 
ATOM     45  C   UNL     1      28.206  31.803  21.042  1.00  0.00     0.001 A 
ATOM     46  C   UNL     1      30.031  33.296  21.157  1.00  0.00     0.029 A 
ATOM     47  N   UNL     1      31.167  33.939  19.161  1.00  0.00    -0.248 NA
ATOM     48  C   UNL     1      32.329  34.609  17.190  1.00  0.00     0.029 A 
ATOM     49  C   UNL     1      31.657  33.775  15.066  1.00  0.00     0.001 A 
ATOM     50  C   UNL     1      29.052  32.595  21.825  1.00  0.00     0.002 A 
ATOM     51  C   UNL     1      32.506  34.565  15.808  1.00  0.00     0.002 A 
ENDBRANCH  36  38
ENDBRANCH  32  33
ENDBRANCH  31  32
ENDBRANCH  28  31
ENDBRANCH   1  27
TORSDOF 15
BEGIN_RES LYS A 131
REMARK  4 active torsions:
REMARK  status: ('A' for Active; 'I' for Inactive)
REMARK    1  A    between atoms: CA   and  CB  
REMARK    2  A    between atoms: CB   and  CG  
REMARK    3  A    between atoms: CG   and  CD  
REMARK    4  A    between atoms: CD   and  CE  
ROOT
ATOM      1  CA  LYS A 131      29.867  25.555  16.977  1.00 20.52     0.186 C 
ENDROOT
BRANCH   1   2
ATOM      2  CB  LYS A 131      28.345  25.722  17.026  1.00 20.94     0.034 C 
BRANCH   2   3
ATOM      3  CG  LYS A 131      27.601  24.401  16.902  1.00 22.96     0.005 C 
BRANCH   3   4
ATOM      4  CD  LYS A 131      26.148  24.533  17.262  1.00 24.33     0.041 C 
BRANCH   4   5
ATOM      5  CE  LYS A 131      25.980  24.369  18.770  1.00 26.91     0.338 C 
ATOM      6  NZ  LYS A 131      25.450  23.023  19.089  1.00 27.40     0.618 N 
ENDBRANCH   4   5
ENDBRANCH   3   4
ENDBRANCH   2   3
ENDBRANCH   1   2
END_RES LYS A 131
BEGIN_RES LYS A 135
REMARK  4 active torsions:
REMARK  status: ('A' for Active; 'I' for Inactive)
REMARK    5  A    between atoms: CA   and  CB  
REMARK    6  A    between atoms: CB   and  CG  
REMARK    7  A    between atoms: CG   and  CD  
REMARK    8  A    between atoms: CD   and  CE  
ROOT
ATOM      7  CA  LYS A 135      33.193  34.663   9.290  1.00 25.02     0.186 C 
ENDROOT
BRANCH   7   8
ATOM      8  CB  LYS A 135      32.060  35.360  10.034  1.00 26.63     0.034 C 
BRANCH   8   9
ATOM      9  CG  LYS A 135      30.810  35.525   9.209  1.00 29.45     0.005 C 
BRANCH   9  10
ATOM     10  CD  LYS A 135      30.143  34.180   8.970  1.00 32.00     0.041 C 
BRANCH  10  11
ATOM     11  CE  LYS A 135      28.691  34.368   8.572  1.00 34.25     0.338 C 
ATOM     12  NZ  LYS A 135      27.777  33.730   9.560  1.00 35.99     0.618 N 
ENDBRANCH  10  11
ENDBRANCH   9  10
ENDBRANCH   8   9
ENDBRANCH   7   8
END_RES LYS A 135
