REMARK VINA RESULT:    -5.169      4.528      9.257
REMARK INTER + INTRA:         -16.670
REMARK INTER:                  -7.430
REMARK INTRA:                  -9.240
REMARK UNBOUND:                -5.759
REMARK SMILES CC(=O)N[C@@H]1[C@@H](O)C[C@](O)(C(=O)O)O[C@H]1C(O)[C@H](O)CNC(=O)OCc1cn(CC(=O)NCC(O)Cn2ccnc2[N+](=O)[O-])nn1
REMARK SMILES IDX 25 1 24 2 22 3 21 4 23 6 20 7 18 8 16 9 15 10 9 11 8 12
REMARK SMILES IDX 14 13 6 14 5 15 10 16 11 18 12 19 13 20 7 22 4 24 2 25 1 27
REMARK SMILES IDX 3 28 17 29 19 31 26 33 27 34 46 35 28 36 45 37 29 38 30 39
REMARK SMILES IDX 31 40 32 41 33 43 34 44 35 45 36 47 37 48 38 49 41 50 39 51
REMARK SMILES IDX 40 52 42 53 43 54 44 55
REMARK H PARENT 21 5 10 17 13 21 7 23 4 26 17 30 19 32 32 42 35 46
REMARK Flexibility Score: inf
ROOT
ATOM      1  C   UNL     1      31.800  33.209  15.788  1.00  0.00     0.294 C 
ENDROOT
BRANCH   1   2
ATOM      2  O   UNL     1      31.945  34.556  16.192  1.00  0.00    -0.443 OA
BRANCH   2   3
ATOM      3  C   UNL     1      31.826  35.602  15.295  1.00  0.00     0.407 C 
ATOM      4  N   UNL     1      30.789  35.615  14.299  1.00  0.00    -0.319 N 
ATOM      5  H   UNL     1      30.150  34.795  14.293  1.00  0.00     0.167 HD
ATOM      6  O   UNL     1      32.640  36.539  15.364  1.00  0.00    -0.225 OA
BRANCH   4   7
ATOM      7  C   UNL     1      30.618  36.670  13.360  1.00  0.00     0.154 C 
BRANCH   7   8
ATOM      8  C   UNL     1      29.201  36.981  13.026  1.00  0.00     0.165 C 
BRANCH   8   9
ATOM      9  C   UNL     1      28.296  35.998  13.750  1.00  0.00     0.176 C 
BRANCH   9  10
ATOM     10  C   UNL     1      26.959  36.578  14.084  1.00  0.00     0.178 C 
ATOM     11  C   UNL     1      26.038  35.471  15.916  1.00  0.00     0.269 C 
ATOM     12  C   UNL     1      24.618  35.431  15.370  1.00  0.00     0.112 C 
ATOM     13  O   UNL     1      26.739  36.543  15.437  1.00  0.00    -0.332 OA
ATOM     14  C   UNL     1      24.540  36.250  14.089  1.00  0.00     0.145 C 
ATOM     15  C   UNL     1      25.836  35.953  13.324  1.00  0.00     0.142 C 
BRANCH  11  16
ATOM     16  O   UNL     1      26.640  34.297  15.503  1.00  0.00    -0.357 OA
ATOM     17  H   UNL     1      27.613  34.428  15.371  1.00  0.00     0.214 HD
ENDBRANCH  11  16
BRANCH  11  18
ATOM     18  C   UNL     1      26.047  35.494  17.401  1.00  0.00     0.364 C 
ATOM     19  O   UNL     1      25.122  36.045  18.064  1.00  0.00    -0.246 OA
BRANCH  18  20
ATOM     20  O   UNL     1      27.074  34.905  18.119  1.00  0.00    -0.477 OA
ATOM     21  H   UNL     1      27.573  34.076  17.853  1.00  0.00     0.296 HD
ENDBRANCH  18  20
ENDBRANCH  11  18
BRANCH  14  22
ATOM     22  O   UNL     1      23.432  35.819  13.382  1.00  0.00    -0.391 OA
ATOM     23  H   UNL     1      23.603  35.015  12.842  1.00  0.00     0.211 HD
ENDBRANCH  14  22
BRANCH  15  24
ATOM     24  N   UNL     1      25.734  36.490  11.973  1.00  0.00    -0.348 N 
ATOM     25  C   UNL     1      25.838  35.617  10.872  1.00  0.00     0.217 C 
ATOM     26  H   UNL     1      25.594  37.493  11.837  1.00  0.00     0.163 HD
ATOM     27  C   UNL     1      25.738  36.131   9.456  1.00  0.00     0.114 C 
ATOM     28  O   UNL     1      26.018  34.382  10.983  1.00  0.00    -0.275 OA
ENDBRANCH  15  24
ENDBRANCH   9  10
BRANCH   9  29
ATOM     29  O   UNL     1      28.125  34.836  13.014  1.00  0.00    -0.388 OA
ATOM     30  H   UNL     1      27.191  34.600  12.871  1.00  0.00     0.211 HD
ENDBRANCH   9  29
ENDBRANCH   8   9
BRANCH   8  31
ATOM     31  O   UNL     1      28.906  36.955  11.673  1.00  0.00    -0.388 OA
ATOM     32  H   UNL     1      28.178  36.313  11.452  1.00  0.00     0.211 HD
ENDBRANCH   8  31
ENDBRANCH   7   8
ENDBRANCH   4   7
ENDBRANCH   2   3
ENDBRANCH   1   2
BRANCH   1  33
ATOM     33  C   UNL     1      30.460  32.789  16.266  1.00  0.00     0.120 A 
ATOM     34  C   UNL     1      30.078  31.478  16.440  1.00  0.00     0.138 A 
ATOM     35  N   UNL     1      29.379  33.503  16.613  1.00  0.00    -0.132 NA
ATOM     36  N   UNL     1      28.784  31.422  16.885  1.00  0.00    -0.243 N 
ATOM     37  N   UNL     1      28.389  32.668  16.980  1.00  0.00    -0.067 NA
BRANCH  36  38
ATOM     38  C   UNL     1      28.117  30.166  17.146  1.00  0.00     0.245 C 
BRANCH  38  39
ATOM     39  C   UNL     1      26.699  30.326  16.629  1.00  0.00     0.241 C 
ATOM     40  O   UNL     1      25.743  29.834  17.266  1.00  0.00    -0.273 OA
ATOM     41  N   UNL     1      26.411  31.013  15.448  1.00  0.00    -0.352 N 
ATOM     42  H   UNL     1      27.301  31.426  14.973  1.00  0.00     0.163 HD
BRANCH  41  43
ATOM     43  C   UNL     1      25.172  31.240  14.799  1.00  0.00     0.151 C 
BRANCH  43  44
ATOM     44  C   UNL     1      24.407  30.125  14.248  1.00  0.00     0.168 C 
BRANCH  44  45
ATOM     45  O   UNL     1      23.423  29.629  15.145  1.00  0.00    -0.388 OA
ATOM     46  H   UNL     1      23.864  29.320  15.973  1.00  0.00     0.211 HD
ENDBRANCH  44  45
BRANCH  44  47
ATOM     47  C   UNL     1      24.011  30.075  12.831  1.00  0.00     0.239 C 
BRANCH  47  48
ATOM     48  N   UNL     1      22.581  30.205  12.621  1.00  0.00    -0.227 N 
ATOM     49  C   UNL     1      21.731  29.191  12.324  1.00  0.00     0.204 A 
ATOM     50  C   UNL     1      21.877  31.351  12.669  1.00  0.00     0.434 A 
ATOM     51  C   UNL     1      20.476  29.755  12.189  1.00  0.00     0.245 A 
ATOM     52  N   UNL     1      20.566  31.070  12.399  1.00  0.00    -0.074 NA
BRANCH  50  53
ATOM     53  N   UNL     1      22.326  32.666  12.945  1.00  0.00    -0.047 N 
ATOM     54  O   UNL     1      22.231  33.080  14.138  1.00  0.00    -0.390 OA
ATOM     55  O   UNL     1      22.850  33.539  12.053  1.00  0.00    -0.390 OA
ENDBRANCH  50  53
ENDBRANCH  47  48
ENDBRANCH  44  47
ENDBRANCH  43  44
ENDBRANCH  41  43
ENDBRANCH  38  39
ENDBRANCH  36  38
ENDBRANCH   1  33
TORSDOF 22
BEGIN_RES LYS A 131
REMARK  4 active torsions:
REMARK  status: ('A' for Active; 'I' for Inactive)
REMARK    1  A    between atoms: CA   and  CB  
REMARK    2  A    between atoms: CB   and  CG  
REMARK    3  A    between atoms: CG   and  CD  
REMARK    4  A    between atoms: CD   and  CE  
ROOT
ATOM      1  CA  LYS A 131      29.867  25.555  16.977  1.00 20.52     0.186 C 
ENDROOT
BRANCH   1   2
ATOM      2  CB  LYS A 131      28.345  25.722  17.026  1.00 20.94     0.034 C 
BRANCH   2   3
ATOM      3  CG  LYS A 131      27.599  24.477  16.570  1.00 22.96     0.005 C 
BRANCH   3   4
ATOM      4  CD  LYS A 131      26.998  23.722  17.723  1.00 24.33     0.041 C 
BRANCH   4   5
ATOM      5  CE  LYS A 131      25.491  23.603  17.524  1.00 26.91     0.338 C 
ATOM      6  NZ  LYS A 131      24.837  24.920  17.712  1.00 27.40     0.618 N 
ENDBRANCH   4   5
ENDBRANCH   3   4
ENDBRANCH   2   3
ENDBRANCH   1   2
END_RES LYS A 131
BEGIN_RES LYS A 135
REMARK  4 active torsions:
REMARK  status: ('A' for Active; 'I' for Inactive)
REMARK    5  A    between atoms: CA   and  CB  
REMARK    6  A    between atoms: CB   and  CG  
REMARK    7  A    between atoms: CG   and  CD  
REMARK    8  A    between atoms: CD   and  CE  
ROOT
ATOM      7  CA  LYS A 135      33.193  34.663   9.290  1.00 25.02     0.186 C 
ENDROOT
BRANCH   7   8
ATOM      8  CB  LYS A 135      32.060  35.360  10.034  1.00 26.63     0.034 C 
BRANCH   8   9
ATOM      9  CG  LYS A 135      30.774  34.574  10.047  1.00 29.45     0.005 C 
BRANCH   9  10
ATOM     10  CD  LYS A 135      30.393  34.146   8.638  1.00 32.00     0.041 C 
BRANCH  10  11
ATOM     11  CE  LYS A 135      28.949  34.507   8.345  1.00 34.25     0.338 C 
ATOM     12  NZ  LYS A 135      28.860  35.516   7.253  1.00 35.99     0.618 N 
ENDBRANCH  10  11
ENDBRANCH   9  10
ENDBRANCH   8   9
ENDBRANCH   7   8
END_RES LYS A 135
