REMARK VINA RESULT:    -5.787      2.272      6.606
REMARK INTER + INTRA:         -18.176
REMARK INTER:                  -9.962
REMARK INTRA:                  -8.213
REMARK UNBOUND:                -6.299
REMARK SMILES CC(=O)N[C@@H]1[C@@H](O)C[C@](O)(C(=O)O)O[C@H]1C(O)[C@H](O)CNC(=O)OCc1cn(C[C@@H](C(=O)O)C(c2ccccc2)c2ccccc2)nn1
REMARK SMILES IDX 21 1 22 2 23 3 20 5 18 6 16 7 15 8 9 9 8 10 14 11 6 12 5 13
REMARK SMILES IDX 10 14 11 16 12 17 13 18 7 20 4 22 2 23 1 25 3 26 17 27 19 29
REMARK SMILES IDX 24 31 25 32 26 33 27 34 48 35 28 36 47 37 29 38 30 39 31 40
REMARK SMILES IDX 32 41 33 42 34 44 35 45 36 46 40 47 37 48 39 49 38 50 41 51
REMARK SMILES IDX 42 52 46 53 43 54 45 55 44 56
REMARK H PARENT 21 4 10 15 13 19 7 21 4 24 17 28 19 30 33 43
REMARK Flexibility Score: inf
ROOT
ATOM      1  N   UNL     1      26.410  36.973  12.775  1.00  0.00    -0.319 N 
ATOM      2  C   UNL     1      26.117  36.951  11.387  1.00  0.00     0.407 C 
ATOM      3  O   UNL     1      27.064  36.886  10.549  1.00  0.00    -0.225 OA
ATOM      4  H   UNL     1      25.561  37.030  13.412  1.00  0.00     0.167 HD
ENDROOT
BRANCH   1   5
ATOM      5  C   UNL     1      27.750  36.923  13.308  1.00  0.00     0.154 C 
BRANCH   5   6
ATOM      6  C   UNL     1      27.940  35.784  14.311  1.00  0.00     0.165 C 
BRANCH   6   7
ATOM      7  C   UNL     1      28.521  34.639  13.538  1.00  0.00     0.176 C 
BRANCH   7   8
ATOM      8  C   UNL     1      29.637  33.937  14.257  1.00  0.00     0.178 C 
ATOM      9  C   UNL     1      30.173  33.173  16.379  1.00  0.00     0.269 C 
ATOM     10  C   UNL     1      31.527  32.853  15.800  1.00  0.00     0.112 C 
ATOM     11  O   UNL     1      29.202  33.448  15.457  1.00  0.00    -0.332 OA
ATOM     12  C   UNL     1      32.000  33.861  14.810  1.00  0.00     0.145 C 
ATOM     13  C   UNL     1      30.851  34.810  14.471  1.00  0.00     0.142 C 
BRANCH   9  14
ATOM     14  O   UNL     1      30.336  34.237  17.272  1.00  0.00    -0.357 OA
ATOM     15  H   UNL     1      30.406  35.103  16.786  1.00  0.00     0.214 HD
ENDBRANCH   9  14
BRANCH   9  16
ATOM     16  C   UNL     1      29.745  31.988  17.161  1.00  0.00     0.364 C 
ATOM     17  O   UNL     1      28.783  32.093  17.959  1.00  0.00    -0.246 OA
BRANCH  16  18
ATOM     18  O   UNL     1      30.376  30.768  17.038  1.00  0.00    -0.477 OA
ATOM     19  H   UNL     1      29.939  30.024  16.476  1.00  0.00     0.296 HD
ENDBRANCH  16  18
ENDBRANCH   9  16
BRANCH  12  20
ATOM     20  O   UNL     1      33.147  34.529  15.158  1.00  0.00    -0.391 OA
ATOM     21  H   UNL     1      32.991  35.508  15.196  1.00  0.00     0.211 HD
ENDBRANCH  12  20
BRANCH  13  22
ATOM     22  N   UNL     1      31.174  35.566  13.269  1.00  0.00    -0.348 N 
ATOM     23  C   UNL     1      31.425  36.953  13.390  1.00  0.00     0.217 C 
ATOM     24  H   UNL     1      31.212  35.074  12.363  1.00  0.00     0.163 HD
ATOM     25  C   UNL     1      31.758  37.770  12.203  1.00  0.00     0.114 C 
ATOM     26  O   UNL     1      31.368  37.516  14.512  1.00  0.00    -0.275 OA
ENDBRANCH  13  22
ENDBRANCH   7   8
BRANCH   7  27
ATOM     27  O   UNL     1      28.848  35.034  12.258  1.00  0.00    -0.388 OA
ATOM     28  H   UNL     1      29.829  35.179  12.134  1.00  0.00     0.211 HD
ENDBRANCH   7  27
ENDBRANCH   6   7
BRANCH   6  29
ATOM     29  O   UNL     1      26.653  35.472  14.783  1.00  0.00    -0.388 OA
ATOM     30  H   UNL     1      26.816  34.842  15.547  1.00  0.00     0.211 HD
ENDBRANCH   6  29
ENDBRANCH   5   6
ENDBRANCH   1   5
BRANCH   2  31
ATOM     31  O   UNL     1      24.818  37.000  10.925  1.00  0.00    -0.443 OA
BRANCH  31  32
ATOM     32  C   UNL     1      24.032  35.811  10.775  1.00  0.00     0.294 C 
BRANCH  32  33
ATOM     33  C   UNL     1      24.320  34.851  11.863  1.00  0.00     0.120 A 
ATOM     34  C   UNL     1      23.496  34.617  12.975  1.00  0.00     0.138 A 
ATOM     35  N   UNL     1      25.360  34.030  12.047  1.00  0.00    -0.132 NA
ATOM     36  N   UNL     1      24.043  33.694  13.765  1.00  0.00    -0.251 N 
ATOM     37  N   UNL     1      25.203  33.343  13.165  1.00  0.00    -0.067 NA
BRANCH  36  38
ATOM     38  C   UNL     1      23.630  33.075  14.992  1.00  0.00     0.162 C 
BRANCH  38  39
ATOM     39  C   UNL     1      24.624  32.187  15.661  1.00  0.00     0.132 C 
BRANCH  39  40
ATOM     40  C   UNL     1      25.186  32.816  16.857  1.00  0.00     0.309 C 
ATOM     41  O   UNL     1      24.633  32.901  17.967  1.00  0.00    -0.252 OA
BRANCH  40  42
ATOM     42  O   UNL     1      26.472  33.395  16.794  1.00  0.00    -0.481 OA
ATOM     43  H   UNL     1      27.231  32.962  17.325  1.00  0.00     0.296 HD
ENDBRANCH  40  42
ENDBRANCH  39  40
BRANCH  39  44
ATOM     44  C   UNL     1      24.052  30.810  15.950  1.00  0.00     0.065 C 
BRANCH  44  45
ATOM     45  C   UNL     1      25.092  29.882  16.452  1.00  0.00    -0.040 A 
ATOM     46  C   UNL     1      24.778  28.850  17.345  1.00  0.00     0.004 A 
ATOM     47  C   UNL     1      26.415  29.986  16.067  1.00  0.00     0.004 A 
ATOM     48  C   UNL     1      25.744  27.987  17.811  1.00  0.00     0.000 A 
ATOM     49  C   UNL     1      27.389  29.135  16.522  1.00  0.00     0.000 A 
ATOM     50  C   UNL     1      27.070  28.127  17.396  1.00  0.00     0.000 A 
ENDBRANCH  44  45
BRANCH  44  51
ATOM     51  C   UNL     1      23.386  30.192  14.799  1.00  0.00    -0.040 A 
ATOM     52  C   UNL     1      22.030  29.867  14.932  1.00  0.00     0.004 A 
ATOM     53  C   UNL     1      24.015  29.916  13.604  1.00  0.00     0.004 A 
ATOM     54  C   UNL     1      21.370  29.287  13.875  1.00  0.00     0.000 A 
ATOM     55  C   UNL     1      23.356  29.335  12.544  1.00  0.00     0.000 A 
ATOM     56  C   UNL     1      22.009  29.009  12.667  1.00  0.00     0.000 A 
ENDBRANCH  44  51
ENDBRANCH  39  44
ENDBRANCH  38  39
ENDBRANCH  36  38
ENDBRANCH  32  33
ENDBRANCH  31  32
ENDBRANCH   2  31
TORSDOF 21
BEGIN_RES LYS A 131
REMARK  4 active torsions:
REMARK  status: ('A' for Active; 'I' for Inactive)
REMARK    1  A    between atoms: CA   and  CB  
REMARK    2  A    between atoms: CB   and  CG  
REMARK    3  A    between atoms: CG   and  CD  
REMARK    4  A    between atoms: CD   and  CE  
ROOT
ATOM      1  CA  LYS A 131      29.867  25.555  16.977  1.00 20.52     0.186 C 
ENDROOT
BRANCH   1   2
ATOM      2  CB  LYS A 131      28.345  25.722  17.026  1.00 20.94     0.034 C 
BRANCH   2   3
ATOM      3  CG  LYS A 131      27.601  24.402  16.890  1.00 22.96     0.005 C 
BRANCH   3   4
ATOM      4  CD  LYS A 131      26.536  24.242  17.939  1.00 24.33     0.041 C 
BRANCH   4   5
ATOM      5  CE  LYS A 131      25.161  24.336  17.287  1.00 26.91     0.338 C 
ATOM      6  NZ  LYS A 131      24.511  23.005  17.251  1.00 27.40     0.618 N 
ENDBRANCH   4   5
ENDBRANCH   3   4
ENDBRANCH   2   3
ENDBRANCH   1   2
END_RES LYS A 131
BEGIN_RES LYS A 135
REMARK  4 active torsions:
REMARK  status: ('A' for Active; 'I' for Inactive)
REMARK    5  A    between atoms: CA   and  CB  
REMARK    6  A    between atoms: CB   and  CG  
REMARK    7  A    between atoms: CG   and  CD  
REMARK    8  A    between atoms: CD   and  CE  
ROOT
ATOM      7  CA  LYS A 135      33.193  34.663   9.290  1.00 25.02     0.186 C 
ENDROOT
BRANCH   7   8
ATOM      8  CB  LYS A 135      32.060  35.360  10.034  1.00 26.63     0.034 C 
BRANCH   8   9
ATOM      9  CG  LYS A 135      30.827  35.570   9.194  1.00 29.45     0.005 C 
BRANCH   9  10
ATOM     10  CD  LYS A 135      30.166  34.240   8.868  1.00 32.00     0.041 C 
BRANCH  10  11
ATOM     11  CE  LYS A 135      28.707  34.443   8.508  1.00 34.25     0.338 C 
ATOM     12  NZ  LYS A 135      27.816  33.694   9.436  1.00 35.99     0.618 N 
ENDBRANCH  10  11
ENDBRANCH   9  10
ENDBRANCH   8   9
ENDBRANCH   7   8
END_RES LYS A 135
