REMARK VINA RESULT:    -3.438      4.707      8.339
REMARK INTER + INTRA:         -13.913
REMARK INTER:                  -7.484
REMARK INTRA:                  -6.429
REMARK UNBOUND:                -7.158
REMARK SMILES CCN(CC)CCn1cc(COC(=O)NC[C@@H](O)C(O)[C@@H]2O[C@@](O)(C(=O)O)C[C@H](O)[C@H]2NC(C)=O)nn1
REMARK SMILES IDX 15 1 13 2 14 3 16 5 17 6 19 7 21 8 23 9 28 10 22 11 29 12
REMARK SMILES IDX 31 13 24 14 25 16 26 17 27 18 30 20 32 22 33 23 34 25 35 26
REMARK SMILES IDX 20 27 18 29 12 31 11 32 10 33 9 34 36 35 8 36 37 37 7 38
REMARK SMILES IDX 6 39 3 40 2 41 1 42 4 43 5 44
REMARK H PARENT 15 4 24 15 27 19 30 21 32 24 20 28 18 30
REMARK Flexibility Score: inf
ROOT
ATOM      1  N   UNL     1      30.576  37.459  12.298  1.00  0.00    -0.319 N 
ATOM      2  C   UNL     1      29.205  37.856  12.237  1.00  0.00     0.407 C 
ATOM      3  O   UNL     1      28.419  37.528  13.143  1.00  0.00    -0.225 OA
ATOM      4  H   UNL     1      31.171  37.766  11.510  1.00  0.00     0.167 HD
ENDROOT
BRANCH   1   5
ATOM      5  C   UNL     1      31.133  36.684  13.363  1.00  0.00     0.154 C 
BRANCH   5   6
ATOM      6  C   UNL     1      31.471  35.271  12.978  1.00  0.00     0.165 C 
BRANCH   6   7
ATOM      7  C   UNL     1      30.271  34.371  13.174  1.00  0.00     0.176 C 
BRANCH   7   8
ATOM      8  C   UNL     1      29.573  34.655  14.473  1.00  0.00     0.178 C 
ATOM      9  C   UNL     1      30.469  32.839  15.671  1.00  0.00     0.269 C 
ATOM     10  C   UNL     1      29.166  32.085  15.441  1.00  0.00     0.112 C 
ATOM     11  O   UNL     1      30.344  34.187  15.507  1.00  0.00    -0.332 OA
ATOM     12  C   UNL     1      28.041  33.112  15.608  1.00  0.00     0.145 C 
ATOM     13  C   UNL     1      28.189  34.108  14.514  1.00  0.00     0.142 C 
BRANCH   9  14
ATOM     14  O   UNL     1      31.442  32.229  14.883  1.00  0.00    -0.357 OA
ATOM     15  H   UNL     1      31.041  31.846  14.053  1.00  0.00     0.214 HD
ENDBRANCH   9  14
BRANCH   9  16
ATOM     16  C   UNL     1      30.857  32.619  17.101  1.00  0.00     0.364 C 
ATOM     17  O   UNL     1      31.523  33.455  17.749  1.00  0.00    -0.246 OA
BRANCH  16  18
ATOM     18  O   UNL     1      30.464  31.454  17.723  1.00  0.00    -0.477 OA
ATOM     19  H   UNL     1      31.018  30.602  17.722  1.00  0.00     0.296 HD
ENDBRANCH  16  18
ENDBRANCH   9  16
BRANCH  12  20
ATOM     20  O   UNL     1      26.830  32.419  15.565  1.00  0.00    -0.391 OA
ATOM     21  H   UNL     1      27.039  31.529  15.137  1.00  0.00     0.211 HD
ENDBRANCH  12  20
BRANCH  13  22
ATOM     22  N   UNL     1      27.172  35.142  14.543  1.00  0.00    -0.348 N 
ATOM     23  C   UNL     1      25.997  35.102  13.740  1.00  0.00     0.217 C 
ATOM     24  H   UNL     1      27.264  35.987  15.175  1.00  0.00     0.163 HD
ATOM     25  C   UNL     1      24.980  36.198  13.810  1.00  0.00     0.114 C 
ATOM     26  O   UNL     1      25.800  34.147  12.964  1.00  0.00    -0.275 OA
ENDBRANCH  13  22
ENDBRANCH   7   8
BRANCH   7  27
ATOM     27  O   UNL     1      29.445  34.636  12.066  1.00  0.00    -0.388 OA
ATOM     28  H   UNL     1      29.264  33.749  11.655  1.00  0.00     0.211 HD
ENDBRANCH   7  27
ENDBRANCH   6   7
BRANCH   6  29
ATOM     29  O   UNL     1      32.610  34.858  13.608  1.00  0.00    -0.388 OA
ATOM     30  H   UNL     1      33.404  35.145  13.091  1.00  0.00     0.211 HD
ENDBRANCH   6  29
ENDBRANCH   5   6
ENDBRANCH   1   5
BRANCH   2  31
ATOM     31  O   UNL     1      28.696  38.608  11.192  1.00  0.00    -0.443 OA
BRANCH  31  32
ATOM     32  C   UNL     1      28.173  38.010  10.013  1.00  0.00     0.294 C 
BRANCH  32  33
ATOM     33  C   UNL     1      26.712  37.830  10.202  1.00  0.00     0.120 A 
ATOM     34  C   UNL     1      26.047  36.624   9.980  1.00  0.00     0.138 A 
ATOM     35  N   UNL     1      25.763  38.691  10.593  1.00  0.00    -0.132 NA
ATOM     36  N   UNL     1      24.757  36.812  10.243  1.00  0.00    -0.251 N 
ATOM     37  N   UNL     1      24.598  38.065  10.613  1.00  0.00    -0.067 NA
BRANCH  36  38
ATOM     38  C   UNL     1      23.715  35.827  10.142  1.00  0.00     0.161 C 
BRANCH  38  39
ATOM     39  C   UNL     1      22.372  36.534  10.171  1.00  0.00     0.108 C 
BRANCH  39  40
ATOM     40  N   UNL     1      21.844  36.811   8.874  1.00  0.00    -0.302 NA
BRANCH  40  41
ATOM     41  C   UNL     1      20.907  37.883   8.820  1.00  0.00     0.081 C 
ATOM     42  C   UNL     1      20.918  38.557  10.200  1.00  0.00     0.021 C 
ENDBRANCH  40  41
BRANCH  40  43
ATOM     43  C   UNL     1      21.526  35.644   8.122  1.00  0.00     0.081 C 
ATOM     44  C   UNL     1      20.079  35.262   8.165  1.00  0.00     0.021 C 
ENDBRANCH  40  43
ENDBRANCH  39  40
ENDBRANCH  38  39
ENDBRANCH  36  38
ENDBRANCH  32  33
ENDBRANCH  31  32
ENDBRANCH   2  31
TORSDOF 19
BEGIN_RES LYS A 131
REMARK  4 active torsions:
REMARK  status: ('A' for Active; 'I' for Inactive)
REMARK    1  A    between atoms: CA   and  CB  
REMARK    2  A    between atoms: CB   and  CG  
REMARK    3  A    between atoms: CG   and  CD  
REMARK    4  A    between atoms: CD   and  CE  
ROOT
ATOM      1  CA  LYS A 131      29.867  25.555  16.977  1.00 20.52     0.186 C 
ENDROOT
BRANCH   1   2
ATOM      2  CB  LYS A 131      28.345  25.722  17.026  1.00 20.94     0.034 C 
BRANCH   2   3
ATOM      3  CG  LYS A 131      27.603  24.395  16.982  1.00 22.96     0.005 C 
BRANCH   3   4
ATOM      4  CD  LYS A 131      26.656  24.237  18.138  1.00 24.33     0.041 C 
BRANCH   4   5
ATOM      5  CE  LYS A 131      25.270  23.873  17.615  1.00 26.91     0.338 C 
ATOM      6  NZ  LYS A 131      25.123  22.402  17.515  1.00 27.40     0.618 N 
ENDBRANCH   4   5
ENDBRANCH   3   4
ENDBRANCH   2   3
ENDBRANCH   1   2
END_RES LYS A 131
BEGIN_RES LYS A 135
REMARK  4 active torsions:
REMARK  status: ('A' for Active; 'I' for Inactive)
REMARK    5  A    between atoms: CA   and  CB  
REMARK    6  A    between atoms: CB   and  CG  
REMARK    7  A    between atoms: CG   and  CD  
REMARK    8  A    between atoms: CD   and  CE  
ROOT
ATOM      7  CA  LYS A 135      33.193  34.663   9.290  1.00 25.02     0.186 C 
ENDROOT
BRANCH   7   8
ATOM      8  CB  LYS A 135      32.060  35.360  10.034  1.00 26.63     0.034 C 
BRANCH   8   9
ATOM      9  CG  LYS A 135      30.853  35.633   9.174  1.00 29.45     0.005 C 
BRANCH   9  10
ATOM     10  CD  LYS A 135      30.258  34.333   8.655  1.00 32.00     0.041 C 
BRANCH  10  11
ATOM     11  CE  LYS A 135      28.778  34.500   8.372  1.00 34.25     0.338 C 
ATOM     12  NZ  LYS A 135      27.956  33.710   9.329  1.00 35.99     0.618 N 
ENDBRANCH  10  11
ENDBRANCH   9  10
ENDBRANCH   8   9
ENDBRANCH   7   8
END_RES LYS A 135
