REMARK VINA RESULT:    -4.151      4.246      9.167
REMARK INTER + INTRA:         -14.188
REMARK INTER:                  -7.912
REMARK INTRA:                  -6.277
REMARK UNBOUND:                -6.277
REMARK SMILES CC(=O)N[C@@H]1[C@@H](O)C[C@](O)(C(=O)O)O[C@H]1C(O)[C@H](O)CNC(=O)OCc1cn(CCNS(C)(=O)=O)nn1
REMARK SMILES IDX 21 1 22 2 23 3 20 5 18 6 16 7 15 8 9 9 8 10 14 11 6 12 5 13
REMARK SMILES IDX 10 14 11 16 12 17 13 18 7 20 4 22 2 23 1 25 3 26 17 27 19 29
REMARK SMILES IDX 24 31 25 32 26 33 27 34 37 35 28 36 36 37 29 38 30 39 31 40
REMARK SMILES IDX 32 42 34 43 35 44 33 45
REMARK H PARENT 21 4 10 15 13 19 7 21 4 24 17 28 19 30 31 41
REMARK Flexibility Score: inf
ROOT
ATOM      1  N   UNL     1      28.590  33.994  16.147  1.00  0.00    -0.319 N 
ATOM      2  C   UNL     1      28.636  35.158  15.354  1.00  0.00     0.407 C 
ATOM      3  O   UNL     1      29.647  35.524  14.733  1.00  0.00    -0.225 OA
ATOM      4  H   UNL     1      27.664  33.778  16.625  1.00  0.00     0.167 HD
ENDROOT
BRANCH   1   5
ATOM      5  C   UNL     1      29.658  33.091  16.362  1.00  0.00     0.154 C 
BRANCH   5   6
ATOM      6  C   UNL     1      29.826  31.974  15.363  1.00  0.00     0.165 C 
BRANCH   6   7
ATOM      7  C   UNL     1      29.235  30.744  15.978  1.00  0.00     0.176 C 
BRANCH   7   8
ATOM      8  C   UNL     1      27.762  30.749  16.234  1.00  0.00     0.178 C 
ATOM      9  C   UNL     1      25.849  31.967  15.638  1.00  0.00     0.269 C 
ATOM     10  C   UNL     1      25.233  31.702  16.970  1.00  0.00     0.112 C 
ATOM     11  O   UNL     1      27.144  31.660  15.479  1.00  0.00    -0.332 OA
ATOM     12  C   UNL     1      26.238  31.551  18.079  1.00  0.00     0.145 C 
ATOM     13  C   UNL     1      27.382  30.683  17.681  1.00  0.00     0.142 C 
BRANCH   9  14
ATOM     14  O   UNL     1      25.665  33.320  15.332  1.00  0.00    -0.357 OA
ATOM     15  H   UNL     1      26.429  33.626  14.797  1.00  0.00     0.214 HD
ENDBRANCH   9  14
BRANCH   9  16
ATOM     16  C   UNL     1      25.070  31.209  14.617  1.00  0.00     0.364 C 
ATOM     17  O   UNL     1      24.707  30.026  14.754  1.00  0.00    -0.246 OA
BRANCH  16  18
ATOM     18  O   UNL     1      24.701  31.834  13.411  1.00  0.00    -0.477 OA
ATOM     19  H   UNL     1      23.762  32.182  13.265  1.00  0.00     0.296 HD
ENDBRANCH  16  18
ENDBRANCH   9  16
BRANCH  12  20
ATOM     20  O   UNL     1      26.608  32.817  18.516  1.00  0.00    -0.391 OA
ATOM     21  H   UNL     1      27.583  32.784  18.694  1.00  0.00     0.211 HD
ENDBRANCH  12  20
BRANCH  13  22
ATOM     22  N   UNL     1      27.079  29.329  18.107  1.00  0.00    -0.348 N 
ATOM     23  C   UNL     1      27.790  28.650  19.132  1.00  0.00     0.217 C 
ATOM     24  H   UNL     1      26.291  28.768  17.662  1.00  0.00     0.163 HD
ATOM     25  C   UNL     1      27.439  27.247  19.536  1.00  0.00     0.114 C 
ATOM     26  O   UNL     1      28.730  29.278  19.685  1.00  0.00    -0.275 OA
ENDBRANCH  13  22
ENDBRANCH   7   8
BRANCH   7  27
ATOM     27  O   UNL     1      29.951  30.580  17.200  1.00  0.00    -0.388 OA
ATOM     28  H   UNL     1      30.903  30.422  17.027  1.00  0.00     0.211 HD
ENDBRANCH   7  27
ENDBRANCH   6   7
BRANCH   6  29
ATOM     29  O   UNL     1      31.141  31.893  14.993  1.00  0.00    -0.388 OA
ATOM     30  H   UNL     1      31.273  32.043  14.049  1.00  0.00     0.211 HD
ENDBRANCH   6  29
ENDBRANCH   5   6
ENDBRANCH   1   5
BRANCH   2  31
ATOM     31  O   UNL     1      27.505  35.959  15.245  1.00  0.00    -0.443 OA
BRANCH  31  32
ATOM     32  C   UNL     1      27.151  36.660  14.080  1.00  0.00     0.294 C 
BRANCH  32  33
ATOM     33  C   UNL     1      26.834  35.727  12.982  1.00  0.00     0.120 A 
ATOM     34  C   UNL     1      27.475  35.570  11.769  1.00  0.00     0.138 A 
ATOM     35  N   UNL     1      25.837  34.847  12.982  1.00  0.00    -0.132 NA
ATOM     36  N   UNL     1      26.853  34.608  11.074  1.00  0.00    -0.251 N 
ATOM     37  N   UNL     1      25.856  34.185  11.843  1.00  0.00    -0.067 NA
BRANCH  36  38
ATOM     38  C   UNL     1      27.131  34.074   9.766  1.00  0.00     0.162 C 
BRANCH  38  39
ATOM     39  C   UNL     1      26.484  34.892   8.664  1.00  0.00     0.122 C 
BRANCH  39  40
ATOM     40  N   UNL     1      25.135  35.202   9.089  1.00  0.00    -0.214 NA
ATOM     41  H   UNL     1      24.910  34.789  10.005  1.00  0.00     0.141 HD
BRANCH  40  42
ATOM     42  S   UNL     1      24.828  36.893   9.104  1.00  0.00     0.208 S 
ATOM     43  O   UNL     1      26.149  37.590   8.905  1.00  0.00    -0.213 OA
ATOM     44  O   UNL     1      23.852  37.235   8.025  1.00  0.00    -0.213 OA
ATOM     45  C   UNL     1      24.172  37.402  10.677  1.00  0.00     0.176 C 
ENDBRANCH  40  42
ENDBRANCH  39  40
ENDBRANCH  38  39
ENDBRANCH  36  38
ENDBRANCH  32  33
ENDBRANCH  31  32
ENDBRANCH   2  31
TORSDOF 18
BEGIN_RES LYS A 131
REMARK  4 active torsions:
REMARK  status: ('A' for Active; 'I' for Inactive)
REMARK    1  A    between atoms: CA   and  CB  
REMARK    2  A    between atoms: CB   and  CG  
REMARK    3  A    between atoms: CG   and  CD  
REMARK    4  A    between atoms: CD   and  CE  
ROOT
ATOM      1  CA  LYS A 131      29.867  25.555  16.977  1.00 20.52     0.186 C 
ENDROOT
BRANCH   1   2
ATOM      2  CB  LYS A 131      28.345  25.722  17.026  1.00 20.94     0.034 C 
BRANCH   2   3
ATOM      3  CG  LYS A 131      27.601  24.401  16.902  1.00 22.96     0.005 C 
BRANCH   3   4
ATOM      4  CD  LYS A 131      26.150  24.531  17.271  1.00 24.33     0.041 C 
BRANCH   4   5
ATOM      5  CE  LYS A 131      25.779  23.441  18.271  1.00 26.91     0.338 C 
ATOM      6  NZ  LYS A 131      25.120  22.307  17.582  1.00 27.40     0.618 N 
ENDBRANCH   4   5
ENDBRANCH   3   4
ENDBRANCH   2   3
ENDBRANCH   1   2
END_RES LYS A 131
BEGIN_RES LYS A 135
REMARK  4 active torsions:
REMARK  status: ('A' for Active; 'I' for Inactive)
REMARK    5  A    between atoms: CA   and  CB  
REMARK    6  A    between atoms: CB   and  CG  
REMARK    7  A    between atoms: CG   and  CD  
REMARK    8  A    between atoms: CD   and  CE  
ROOT
ATOM      7  CA  LYS A 135      33.193  34.663   9.290  1.00 25.02     0.186 C 
ENDROOT
BRANCH   7   8
ATOM      8  CB  LYS A 135      32.060  35.360  10.034  1.00 26.63     0.034 C 
BRANCH   8   9
ATOM      9  CG  LYS A 135      30.689  34.883   9.628  1.00 29.45     0.005 C 
BRANCH   9  10
ATOM     10  CD  LYS A 135      30.230  35.587   8.361  1.00 32.00     0.041 C 
BRANCH  10  11
ATOM     11  CE  LYS A 135      29.600  36.926   8.694  1.00 34.25     0.338 C 
ATOM     12  NZ  LYS A 135      30.494  38.052   8.304  1.00 35.99     0.618 N 
ENDBRANCH  10  11
ENDBRANCH   9  10
ENDBRANCH   8   9
ENDBRANCH   7   8
END_RES LYS A 135
