REMARK VINA RESULT:    -4.324      5.182     11.574
REMARK INTER + INTRA:         -14.938
REMARK INTER:                  -9.347
REMARK INTRA:                  -5.591
REMARK UNBOUND:                -5.938
REMARK SMILES CCOC(CCn1cc(COC(=O)NC[C@@H](O)C(O)[C@@H]2O[C@@](O)(C(=O)O)C[C@H](O)[C@H]2NC(C)=O)nn1)OCC
REMARK SMILES IDX 11 1 12 2 14 3 13 5 15 6 16 7 18 8 20 9 22 10 27 11 21 12
REMARK SMILES IDX 28 13 30 14 23 15 24 17 25 18 26 19 29 21 31 23 32 24 33 26
REMARK SMILES IDX 34 27 19 28 17 30 10 32 9 33 8 34 35 35 7 36 36 37 6 38 5 39
REMARK SMILES IDX 4 40 3 41 2 42 1 43 37 44 38 45 39 46
REMARK H PARENT 14 4 23 16 26 20 29 22 31 25 19 29 17 31
REMARK Flexibility Score: inf
ROOT
ATOM      1  O   UNL     1      25.555  37.475  12.265  1.00  0.00    -0.443 OA
ENDROOT
BRANCH   1   2
ATOM      2  C   UNL     1      25.316  38.146  11.057  1.00  0.00     0.407 C 
ATOM      3  N   UNL     1      24.106  37.990  10.347  1.00  0.00    -0.319 N 
ATOM      4  H   UNL     1      23.392  37.338  10.804  1.00  0.00     0.167 HD
ATOM      5  O   UNL     1      26.205  38.885  10.629  1.00  0.00    -0.225 OA
BRANCH   3   6
ATOM      6  C   UNL     1      23.738  38.597   9.108  1.00  0.00     0.154 C 
BRANCH   6   7
ATOM      7  C   UNL     1      23.781  37.609   7.977  1.00  0.00     0.165 C 
BRANCH   7   8
ATOM      8  C   UNL     1      25.099  37.862   7.249  1.00  0.00     0.176 C 
BRANCH   8   9
ATOM      9  C   UNL     1      26.038  36.703   7.374  1.00  0.00     0.178 C 
ATOM     10  C   UNL     1      27.438  35.740   8.952  1.00  0.00     0.269 C 
ATOM     11  C   UNL     1      28.127  35.029   7.833  1.00  0.00     0.112 C 
ATOM     12  O   UNL     1      26.176  36.225   8.644  1.00  0.00    -0.332 OA
ATOM     13  C   UNL     1      28.078  35.736   6.510  1.00  0.00     0.145 C 
ATOM     14  C   UNL     1      27.372  37.056   6.726  1.00  0.00     0.142 C 
BRANCH  10  15
ATOM     15  O   UNL     1      28.262  36.736   9.482  1.00  0.00    -0.357 OA
ATOM     16  H   UNL     1      29.200  36.508   9.206  1.00  0.00     0.214 HD
ENDBRANCH  10  15
BRANCH  10  17
ATOM     17  C   UNL     1      27.232  34.730  10.030  1.00  0.00     0.364 C 
ATOM     18  O   UNL     1      28.110  33.882  10.297  1.00  0.00    -0.246 OA
BRANCH  17  19
ATOM     19  O   UNL     1      26.021  34.747  10.748  1.00  0.00    -0.477 OA
ATOM     20  H   UNL     1      25.714  35.665  11.065  1.00  0.00     0.296 HD
ENDBRANCH  17  19
ENDBRANCH  10  17
BRANCH  13  21
ATOM     21  O   UNL     1      29.327  35.889   5.920  1.00  0.00    -0.391 OA
ATOM     22  H   UNL     1      29.436  36.859   5.745  1.00  0.00     0.211 HD
ENDBRANCH  13  21
BRANCH  14  23
ATOM     23  N   UNL     1      27.086  37.734   5.479  1.00  0.00    -0.348 N 
ATOM     24  C   UNL     1      27.663  39.008   5.230  1.00  0.00     0.217 C 
ATOM     25  H   UNL     1      26.476  37.345   4.739  1.00  0.00     0.163 HD
ATOM     26  C   UNL     1      27.427  39.770   3.987  1.00  0.00     0.114 C 
ATOM     27  O   UNL     1      28.412  39.512   6.111  1.00  0.00    -0.275 OA
ENDBRANCH  14  23
ENDBRANCH   8   9
BRANCH   8  28
ATOM     28  O   UNL     1      25.647  39.041   7.728  1.00  0.00    -0.388 OA
ATOM     29  H   UNL     1      26.398  38.887   8.362  1.00  0.00     0.211 HD
ENDBRANCH   8  28
ENDBRANCH   7   8
BRANCH   7  30
ATOM     30  O   UNL     1      22.775  37.851   7.077  1.00  0.00    -0.388 OA
ATOM     31  H   UNL     1      22.023  38.370   7.461  1.00  0.00     0.211 HD
ENDBRANCH   7  30
ENDBRANCH   6   7
ENDBRANCH   3   6
ENDBRANCH   1   2
BRANCH   1  32
ATOM     32  C   UNL     1      26.775  37.680  12.971  1.00  0.00     0.294 C 
BRANCH  32  33
ATOM     33  C   UNL     1      27.385  36.374  13.280  1.00  0.00     0.120 A 
ATOM     34  C   UNL     1      28.743  36.119  13.067  1.00  0.00     0.138 A 
ATOM     35  N   UNL     1      26.895  35.245  13.773  1.00  0.00    -0.132 NA
ATOM     36  N   UNL     1      29.005  34.850  13.440  1.00  0.00    -0.252 N 
ATOM     37  N   UNL     1      27.882  34.344  13.861  1.00  0.00    -0.067 NA
BRANCH  36  38
ATOM     38  C   UNL     1      30.303  34.242  13.355  1.00  0.00     0.151 C 
BRANCH  38  39
ATOM     39  C   UNL     1      30.665  33.444  14.585  1.00  0.00     0.086 C 
BRANCH  39  40
ATOM     40  C   UNL     1      31.021  34.305  15.758  1.00  0.00     0.251 C 
BRANCH  40  41
ATOM     41  O   UNL     1      31.766  35.384  15.296  1.00  0.00    -0.353 OA
BRANCH  41  42
ATOM     42  C   UNL     1      33.130  35.068  15.304  1.00  0.00     0.160 C 
ATOM     43  C   UNL     1      33.915  36.022  16.166  1.00  0.00     0.035 C 
ENDBRANCH  41  42
ENDBRANCH  40  41
BRANCH  40  44
ATOM     44  O   UNL     1      31.747  33.636  16.709  1.00  0.00    -0.353 OA
BRANCH  44  45
ATOM     45  C   UNL     1      31.070  33.544  17.925  1.00  0.00     0.160 C 
ATOM     46  C   UNL     1      31.878  34.278  18.990  1.00  0.00     0.035 C 
ENDBRANCH  44  45
ENDBRANCH  40  44
ENDBRANCH  39  40
ENDBRANCH  38  39
ENDBRANCH  36  38
ENDBRANCH  32  33
ENDBRANCH   1  32
TORSDOF 21
BEGIN_RES LYS A 131
REMARK  4 active torsions:
REMARK  status: ('A' for Active; 'I' for Inactive)
REMARK    1  A    between atoms: CA   and  CB  
REMARK    2  A    between atoms: CB   and  CG  
REMARK    3  A    between atoms: CG   and  CD  
REMARK    4  A    between atoms: CD   and  CE  
ROOT
ATOM      1  CA  LYS A 131      29.867  25.555  16.977  1.00 20.52     0.186 C 
ENDROOT
BRANCH   1   2
ATOM      2  CB  LYS A 131      28.345  25.722  17.026  1.00 20.94     0.034 C 
BRANCH   2   3
ATOM      3  CG  LYS A 131      27.601  24.406  16.859  1.00 22.96     0.005 C 
BRANCH   3   4
ATOM      4  CD  LYS A 131      26.532  24.224  17.901  1.00 24.33     0.041 C 
BRANCH   4   5
ATOM      5  CE  LYS A 131      25.159  24.327  17.245  1.00 26.91     0.338 C 
ATOM      6  NZ  LYS A 131      24.501  25.603  17.616  1.00 27.40     0.618 N 
ENDBRANCH   4   5
ENDBRANCH   3   4
ENDBRANCH   2   3
ENDBRANCH   1   2
END_RES LYS A 131
BEGIN_RES LYS A 135
REMARK  4 active torsions:
REMARK  status: ('A' for Active; 'I' for Inactive)
REMARK    5  A    between atoms: CA   and  CB  
REMARK    6  A    between atoms: CB   and  CG  
REMARK    7  A    between atoms: CG   and  CD  
REMARK    8  A    between atoms: CD   and  CE  
ROOT
ATOM      7  CA  LYS A 135      33.193  34.663   9.290  1.00 25.02     0.186 C 
ENDROOT
BRANCH   7   8
ATOM      8  CB  LYS A 135      32.060  35.360  10.034  1.00 26.63     0.034 C 
BRANCH   8   9
ATOM      9  CG  LYS A 135      32.502  36.039  11.305  1.00 29.45     0.005 C 
BRANCH   9  10
ATOM     10  CD  LYS A 135      31.893  37.428  11.411  1.00 32.00     0.041 C 
BRANCH  10  11
ATOM     11  CE  LYS A 135      31.433  37.914  10.049  1.00 34.25     0.338 C 
ATOM     12  NZ  LYS A 135      32.279  39.041   9.568  1.00 35.99     0.618 N 
ENDBRANCH  10  11
ENDBRANCH   9  10
ENDBRANCH   8   9
ENDBRANCH   7   8
END_RES LYS A 135
