REMARK VINA RESULT:    -5.540      2.635      4.163
REMARK INTER + INTRA:         -14.085
REMARK INTER:                  -8.985
REMARK INTRA:                  -5.100
REMARK UNBOUND:                -4.497
REMARK SMILES CC(=O)N[C@@H]1[C@@H](O)C[C@](O)(C(=O)O)O[C@H]1C(O)[C@H](O)CNC(=O)OCc1cn(-c2cccc(Cl)c2)nn1
REMARK SMILES IDX 20 1 18 2 16 3 15 4 9 5 8 6 14 7 6 8 5 9 10 10 11 12 12 13
REMARK SMILES IDX 13 14 7 16 4 18 2 19 1 21 3 22 17 23 19 25 21 27 22 28 23 30
REMARK SMILES IDX 24 31 25 32 26 33 27 34 37 35 28 36 36 37 29 38 30 39 35 40
REMARK SMILES IDX 31 41 33 42 32 43 34 44
REMARK H PARENT 10 11 13 15 7 17 4 20 17 24 19 26 21 29
REMARK Flexibility Score: inf
ROOT
ATOM      1  C   UNL     1      30.362  27.048  21.600  1.00  0.00     0.154 C 
ENDROOT
BRANCH   1   2
ATOM      2  C   UNL     1      31.842  27.198  21.398  1.00  0.00     0.165 C 
BRANCH   2   3
ATOM      3  C   UNL     1      32.520  27.923  22.525  1.00  0.00     0.176 C 
BRANCH   3   4
ATOM      4  C   UNL     1      33.127  29.241  22.037  1.00  0.00     0.178 C 
ATOM      5  C   UNL     1      34.913  29.960  23.388  1.00  0.00     0.269 C 
ATOM      6  C   UNL     1      34.299  31.353  23.409  1.00  0.00     0.112 C 
ATOM      7  O   UNL     1      34.428  29.247  22.346  1.00  0.00    -0.332 OA
ATOM      8  C   UNL     1      32.824  31.097  23.715  1.00  0.00     0.145 C 
ATOM      9  C   UNL     1      32.269  30.351  22.533  1.00  0.00     0.142 C 
BRANCH   5  10
ATOM     10  O   UNL     1      34.651  29.410  24.635  1.00  0.00    -0.357 OA
ATOM     11  H   UNL     1      34.362  28.472  24.510  1.00  0.00     0.214 HD
ENDBRANCH   5  10
BRANCH   5  12
ATOM     12  C   UNL     1      36.382  30.076  23.229  1.00  0.00     0.364 C 
ATOM     13  O   UNL     1      37.127  29.329  23.902  1.00  0.00    -0.246 OA
BRANCH  12  14
ATOM     14  O   UNL     1      36.974  30.982  22.361  1.00  0.00    -0.477 OA
ATOM     15  H   UNL     1      36.806  30.869  21.355  1.00  0.00     0.296 HD
ENDBRANCH  12  14
ENDBRANCH   5  12
BRANCH   8  16
ATOM     16  O   UNL     1      32.668  30.297  24.841  1.00  0.00    -0.391 OA
ATOM     17  H   UNL     1      31.744  30.350  25.217  1.00  0.00     0.211 HD
ENDBRANCH   8  16
BRANCH   9  18
ATOM     18  N   UNL     1      32.034  31.328  21.491  1.00  0.00    -0.348 N 
ATOM     19  C   UNL     1      30.893  31.203  20.657  1.00  0.00     0.217 C 
ATOM     20  H   UNL     1      32.699  32.140  21.335  1.00  0.00     0.163 HD
ATOM     21  C   UNL     1      30.658  32.210  19.590  1.00  0.00     0.114 C 
ATOM     22  O   UNL     1      30.094  30.247  20.827  1.00  0.00    -0.275 OA
ENDBRANCH   9  18
ENDBRANCH   3   4
BRANCH   3  23
ATOM     23  O   UNL     1      33.552  27.072  22.977  1.00  0.00    -0.388 OA
ATOM     24  H   UNL     1      34.212  27.563  23.485  1.00  0.00     0.211 HD
ENDBRANCH   3  23
ENDBRANCH   2   3
BRANCH   2  25
ATOM     25  O   UNL     1      32.065  27.909  20.205  1.00  0.00    -0.388 OA
ATOM     26  H   UNL     1      32.872  27.564  19.783  1.00  0.00     0.211 HD
ENDBRANCH   2  25
ENDBRANCH   1   2
BRANCH   1  27
ATOM     27  N   UNL     1      29.683  27.050  20.308  1.00  0.00    -0.319 N 
ATOM     28  C   UNL     1      28.318  27.415  20.207  1.00  0.00     0.407 C 
ATOM     29  H   UNL     1      30.233  26.775  19.469  1.00  0.00     0.167 HD
ATOM     30  O   UNL     1      27.693  27.740  21.248  1.00  0.00    -0.225 OA
BRANCH  28  31
ATOM     31  O   UNL     1      27.636  27.429  19.001  1.00  0.00    -0.443 OA
BRANCH  31  32
ATOM     32  C   UNL     1      26.600  28.371  18.830  1.00  0.00     0.294 C 
BRANCH  32  33
ATOM     33  C   UNL     1      26.940  29.275  17.701  1.00  0.00     0.121 A 
ATOM     34  C   UNL     1      28.088  30.036  17.568  1.00  0.00     0.144 A 
ATOM     35  N   UNL     1      26.222  29.538  16.594  1.00  0.00    -0.131 NA
ATOM     36  N   UNL     1      28.038  30.729  16.406  1.00  0.00    -0.220 N 
ATOM     37  N   UNL     1      26.888  30.401  15.841  1.00  0.00    -0.062 NA
BRANCH  36  38
ATOM     38  C   UNL     1      29.022  31.625  15.903  1.00  0.00     0.068 A 
ATOM     39  C   UNL     1      30.352  31.374  16.161  1.00  0.00     0.028 A 
ATOM     40  C   UNL     1      28.716  32.746  15.162  1.00  0.00     0.049 A 
ATOM     41  C   UNL     1      31.347  32.217  15.693  1.00  0.00     0.004 A 
ATOM     42  C   UNL     1      29.680  33.607  14.681  1.00  0.00     0.043 A 
ATOM     43  C   UNL     1      31.003  33.328  14.956  1.00  0.00     0.020 A 
ATOM     44  Cl  UNL     1      29.244  35.036  13.732  1.00  0.00    -0.084 Cl
ENDBRANCH  36  38
ENDBRANCH  32  33
ENDBRANCH  31  32
ENDBRANCH  28  31
ENDBRANCH   1  27
TORSDOF 15
BEGIN_RES LYS A 131
REMARK  4 active torsions:
REMARK  status: ('A' for Active; 'I' for Inactive)
REMARK    1  A    between atoms: CA   and  CB  
REMARK    2  A    between atoms: CB   and  CG  
REMARK    3  A    between atoms: CG   and  CD  
REMARK    4  A    between atoms: CD   and  CE  
ROOT
ATOM      1  CA  LYS A 131      29.867  25.555  16.977  1.00 20.52     0.186 C 
ENDROOT
BRANCH   1   2
ATOM      2  CB  LYS A 131      28.345  25.722  17.026  1.00 20.94     0.034 C 
BRANCH   2   3
ATOM      3  CG  LYS A 131      27.601  24.403  16.887  1.00 22.96     0.005 C 
BRANCH   3   4
ATOM      4  CD  LYS A 131      26.271  24.426  17.587  1.00 24.33     0.041 C 
BRANCH   4   5
ATOM      5  CE  LYS A 131      25.658  23.030  17.562  1.00 26.91     0.338 C 
ATOM      6  NZ  LYS A 131      24.235  23.095  17.153  1.00 27.40     0.618 N 
ENDBRANCH   4   5
ENDBRANCH   3   4
ENDBRANCH   2   3
ENDBRANCH   1   2
END_RES LYS A 131
BEGIN_RES LYS A 135
REMARK  4 active torsions:
REMARK  status: ('A' for Active; 'I' for Inactive)
REMARK    5  A    between atoms: CA   and  CB  
REMARK    6  A    between atoms: CB   and  CG  
REMARK    7  A    between atoms: CG   and  CD  
REMARK    8  A    between atoms: CD   and  CE  
ROOT
ATOM      7  CA  LYS A 135      33.193  34.663   9.290  1.00 25.02     0.186 C 
ENDROOT
BRANCH   7   8
ATOM      8  CB  LYS A 135      32.060  35.360  10.034  1.00 26.63     0.034 C 
BRANCH   8   9
ATOM      9  CG  LYS A 135      30.711  34.727   9.807  1.00 29.45     0.005 C 
BRANCH   9  10
ATOM     10  CD  LYS A 135      30.389  34.669   8.322  1.00 32.00     0.041 C 
BRANCH  10  11
ATOM     11  CE  LYS A 135      29.257  35.620   7.984  1.00 34.25     0.338 C 
ATOM     12  NZ  LYS A 135      28.887  35.523   6.545  1.00 35.99     0.618 N 
ENDBRANCH  10  11
ENDBRANCH   9  10
ENDBRANCH   8   9
ENDBRANCH   7   8
END_RES LYS A 135
