REMARK VINA RESULT:    -4.610      7.873     13.623
REMARK INTER + INTRA:         -14.265
REMARK INTER:                  -8.016
REMARK INTRA:                  -6.248
REMARK UNBOUND:                -5.477
REMARK SMILES CC(=O)N[C@@H]1[C@@H](O)C[C@](O)(C(=O)O)O[C@H]1C(O)[C@H](O)CNC(=O)OCc1cn(CC(O)CO)nn1
REMARK SMILES IDX 21 1 22 2 23 3 20 5 18 6 16 7 15 8 9 9 8 10 14 11 6 12 5 13
REMARK SMILES IDX 10 14 11 16 12 17 13 18 7 20 4 22 2 23 1 25 3 26 17 27 19 29
REMARK SMILES IDX 24 31 25 32 26 33 27 34 35 35 28 36 34 37 29 38 30 39 31 40
REMARK SMILES IDX 32 42 33 43
REMARK H PARENT 21 4 10 15 13 19 7 21 4 24 17 28 19 30 31 41 33 44
REMARK Flexibility Score: inf
ROOT
ATOM      1  N   UNL     1      27.110  39.722   5.110  1.00  0.00    -0.319 N 
ATOM      2  C   UNL     1      27.393  41.042   4.678  1.00  0.00     0.407 C 
ATOM      3  O   UNL     1      28.261  41.268   3.817  1.00  0.00    -0.225 OA
ATOM      4  H   UNL     1      26.352  39.633   5.851  1.00  0.00     0.167 HD
ENDROOT
BRANCH   1   5
ATOM      5  C   UNL     1      27.803  38.597   4.581  1.00  0.00     0.154 C 
BRANCH   5   6
ATOM      6  C   UNL     1      27.989  37.474   5.577  1.00  0.00     0.165 C 
BRANCH   6   7
ATOM      7  C   UNL     1      27.139  37.831   6.790  1.00  0.00     0.176 C 
BRANCH   7   8
ATOM      8  C   UNL     1      26.366  36.599   7.273  1.00  0.00     0.178 C 
ATOM      9  C   UNL     1      24.573  37.051   8.680  1.00  0.00     0.269 C 
ATOM     10  C   UNL     1      24.618  35.646   9.251  1.00  0.00     0.112 C 
ATOM     11  O   UNL     1      25.057  36.972   7.397  1.00  0.00    -0.332 OA
ATOM     12  C   UNL     1      26.051  35.262   9.381  1.00  0.00     0.145 C 
ATOM     13  C   UNL     1      26.998  36.051   8.513  1.00  0.00     0.142 C 
BRANCH   9  14
ATOM     14  O   UNL     1      25.345  37.849   9.522  1.00  0.00    -0.357 OA
ATOM     15  H   UNL     1      24.823  38.237  10.261  1.00  0.00     0.214 HD
ENDBRANCH   9  14
BRANCH   9  16
ATOM     16  C   UNL     1      23.183  37.571   8.633  1.00  0.00     0.364 C 
ATOM     17  O   UNL     1      22.610  37.854   9.716  1.00  0.00    -0.246 OA
BRANCH  16  18
ATOM     18  O   UNL     1      22.550  37.736   7.424  1.00  0.00    -0.477 OA
ATOM     19  H   UNL     1      21.602  38.095   7.380  1.00  0.00     0.296 HD
ENDBRANCH  16  18
ENDBRANCH   9  16
BRANCH  12  20
ATOM     20  O   UNL     1      26.433  35.477  10.711  1.00  0.00    -0.391 OA
ATOM     21  H   UNL     1      27.125  36.162  10.744  1.00  0.00     0.211 HD
ENDBRANCH  12  20
BRANCH  13  22
ATOM     22  N   UNL     1      28.084  35.155   8.177  1.00  0.00    -0.348 N 
ATOM     23  C   UNL     1      29.382  35.415   8.687  1.00  0.00     0.217 C 
ATOM     24  H   UNL     1      27.956  34.315   7.567  1.00  0.00     0.163 HD
ATOM     25  C   UNL     1      30.549  34.520   8.369  1.00  0.00     0.114 C 
ATOM     26  O   UNL     1      29.643  36.398   9.428  1.00  0.00    -0.275 OA
ENDBRANCH  13  22
ENDBRANCH   7   8
BRANCH   7  27
ATOM     27  O   UNL     1      27.941  38.369   7.766  1.00  0.00    -0.388 OA
ATOM     28  H   UNL     1      28.839  37.934   7.786  1.00  0.00     0.211 HD
ENDBRANCH   7  27
ENDBRANCH   6   7
BRANCH   6  29
ATOM     29  O   UNL     1      29.333  37.350   5.928  1.00  0.00    -0.388 OA
ATOM     30  H   UNL     1      29.857  37.797   5.236  1.00  0.00     0.211 HD
ENDBRANCH   6  29
ENDBRANCH   5   6
ENDBRANCH   1   5
BRANCH   2  31
ATOM     31  O   UNL     1      26.699  42.140   5.209  1.00  0.00    -0.443 OA
BRANCH  31  32
ATOM     32  C   UNL     1      27.386  43.007   6.063  1.00  0.00     0.294 C 
BRANCH  32  33
ATOM     33  C   UNL     1      27.926  42.303   7.254  1.00  0.00     0.120 A 
ATOM     34  C   UNL     1      29.197  42.377   7.745  1.00  0.00     0.138 A 
ATOM     35  N   UNL     1      27.256  41.469   8.052  1.00  0.00    -0.132 NA
ATOM     36  N   UNL     1      29.242  41.572   8.840  1.00  0.00    -0.249 N 
ATOM     37  N   UNL     1      28.048  41.023   9.015  1.00  0.00    -0.067 NA
BRANCH  36  38
ATOM     38  C   UNL     1      30.427  41.363   9.670  1.00  0.00     0.180 C 
BRANCH  38  39
ATOM     39  C   UNL     1      30.793  39.900   9.521  1.00  0.00     0.161 C 
BRANCH  39  40
ATOM     40  O   UNL     1      29.742  39.113   9.977  1.00  0.00    -0.389 OA
ATOM     41  H   UNL     1      29.399  39.518  10.818  1.00  0.00     0.211 HD
ENDBRANCH  39  40
BRANCH  39  42
ATOM     42  C   UNL     1      31.079  39.576   8.051  1.00  0.00     0.189 C 
BRANCH  42  43
ATOM     43  O   UNL     1      31.461  38.237   7.941  1.00  0.00    -0.394 OA
ATOM     44  H   UNL     1      31.458  37.818   8.853  1.00  0.00     0.210 HD
ENDBRANCH  42  43
ENDBRANCH  39  42
ENDBRANCH  38  39
ENDBRANCH  36  38
ENDBRANCH  32  33
ENDBRANCH  31  32
ENDBRANCH   2  31
TORSDOF 19
BEGIN_RES LYS A 131
REMARK  4 active torsions:
REMARK  status: ('A' for Active; 'I' for Inactive)
REMARK    1  A    between atoms: CA   and  CB  
REMARK    2  A    between atoms: CB   and  CG  
REMARK    3  A    between atoms: CG   and  CD  
REMARK    4  A    between atoms: CD   and  CE  
ROOT
ATOM      1  CA  LYS A 131      29.867  25.555  16.977  1.00 20.52     0.186 C 
ENDROOT
BRANCH   1   2
ATOM      2  CB  LYS A 131      28.345  25.722  17.026  1.00 20.94     0.034 C 
BRANCH   2   3
ATOM      3  CG  LYS A 131      27.602  24.400  16.915  1.00 22.96     0.005 C 
BRANCH   3   4
ATOM      4  CD  LYS A 131      26.516  24.272  17.947  1.00 24.33     0.041 C 
BRANCH   4   5
ATOM      5  CE  LYS A 131      25.418  23.354  17.420  1.00 26.91     0.338 C 
ATOM      6  NZ  LYS A 131      24.292  24.151  16.878  1.00 27.40     0.618 N 
ENDBRANCH   4   5
ENDBRANCH   3   4
ENDBRANCH   2   3
ENDBRANCH   1   2
END_RES LYS A 131
BEGIN_RES LYS A 135
REMARK  4 active torsions:
REMARK  status: ('A' for Active; 'I' for Inactive)
REMARK    5  A    between atoms: CA   and  CB  
REMARK    6  A    between atoms: CB   and  CG  
REMARK    7  A    between atoms: CG   and  CD  
REMARK    8  A    between atoms: CD   and  CE  
ROOT
ATOM      7  CA  LYS A 135      33.193  34.663   9.290  1.00 25.02     0.186 C 
ENDROOT
BRANCH   7   8
ATOM      8  CB  LYS A 135      32.060  35.360  10.034  1.00 26.63     0.034 C 
BRANCH   8   9
ATOM      9  CG  LYS A 135      32.413  35.743  11.448  1.00 29.45     0.005 C 
BRANCH   9  10
ATOM     10  CD  LYS A 135      32.218  37.235  11.665  1.00 32.00     0.041 C 
BRANCH  10  11
ATOM     11  CE  LYS A 135      31.446  37.490  12.946  1.00 34.25     0.338 C 
ATOM     12  NZ  LYS A 135      31.414  36.274  13.804  1.00 35.99     0.618 N 
ENDBRANCH  10  11
ENDBRANCH   9  10
ENDBRANCH   8   9
ENDBRANCH   7   8
END_RES LYS A 135
