REMARK VINA RESULT:    -5.492      6.172     11.456
REMARK INTER + INTRA:         -13.902
REMARK INTER:                 -10.099
REMARK INTRA:                  -3.803
REMARK UNBOUND:                -4.396
REMARK SMILES CC(=O)N[C@@H]1[C@@H](O)C[C@](O)(C(=O)O)O[C@H]1C(O)[C@H](O)CNC(=O)OCc1cn(-c2ccccc2Br)nn1
REMARK SMILES IDX 20 1 18 2 16 3 15 4 9 5 8 6 14 7 6 8 5 9 10 10 11 12 12 13
REMARK SMILES IDX 13 14 7 16 4 18 2 19 1 21 3 22 17 23 19 25 21 27 22 28 23 30
REMARK SMILES IDX 24 31 25 32 26 33 27 34 37 35 28 36 36 37 29 38 30 39 34 40
REMARK SMILES IDX 31 41 33 42 35 43 32 44
REMARK H PARENT 10 11 13 15 7 17 4 20 17 24 19 26 21 29
REMARK Flexibility Score: inf
ROOT
ATOM      1  C   UNL     1      27.933  38.645  11.983  1.00  0.00     0.154 C 
ENDROOT
BRANCH   1   2
ATOM      2  C   UNL     1      27.201  38.855  10.682  1.00  0.00     0.165 C 
BRANCH   2   3
ATOM      3  C   UNL     1      28.062  38.327   9.577  1.00  0.00     0.176 C 
BRANCH   3   4
ATOM      4  C   UNL     1      27.503  37.147   8.816  1.00  0.00     0.178 C 
ATOM      5  C   UNL     1      29.276  35.827   8.037  1.00  0.00     0.269 C 
ATOM      6  C   UNL     1      28.420  35.308   6.881  1.00  0.00     0.112 C 
ATOM      7  O   UNL     1      28.405  36.113   9.033  1.00  0.00    -0.332 OA
ATOM      8  C   UNL     1      27.681  36.508   6.362  1.00  0.00     0.145 C 
ATOM      9  C   UNL     1      27.106  37.403   7.428  1.00  0.00     0.142 C 
BRANCH   5  10
ATOM     10  O   UNL     1      30.029  36.861   7.543  1.00  0.00    -0.357 OA
ATOM     11  H   UNL     1      29.442  37.654   7.472  1.00  0.00     0.214 HD
ENDBRANCH   5  10
BRANCH   5  12
ATOM     12  C   UNL     1      30.198  34.744   8.480  1.00  0.00     0.364 C 
ATOM     13  O   UNL     1      29.832  33.972   9.401  1.00  0.00    -0.246 OA
BRANCH  12  14
ATOM     14  O   UNL     1      31.448  34.569   7.898  1.00  0.00    -0.477 OA
ATOM     15  H   UNL     1      32.153  33.938   8.271  1.00  0.00     0.296 HD
ENDBRANCH  12  14
ENDBRANCH   5  12
BRANCH   8  16
ATOM     16  O   UNL     1      28.592  37.229   5.589  1.00  0.00    -0.391 OA
ATOM     17  H   UNL     1      29.279  36.652   5.211  1.00  0.00     0.211 HD
ENDBRANCH   8  16
BRANCH   9  18
ATOM     18  N   UNL     1      25.632  37.324   7.347  1.00  0.00    -0.348 N 
ATOM     19  C   UNL     1      24.821  38.458   7.571  1.00  0.00     0.217 C 
ATOM     20  H   UNL     1      25.159  36.403   7.115  1.00  0.00     0.163 HD
ATOM     21  C   UNL     1      23.322  38.384   7.500  1.00  0.00     0.114 C 
ATOM     22  O   UNL     1      25.388  39.548   7.837  1.00  0.00    -0.275 OA
ENDBRANCH   9  18
ENDBRANCH   3   4
BRANCH   3  23
ATOM     23  O   UNL     1      28.538  39.351   8.799  1.00  0.00    -0.388 OA
ATOM     24  H   UNL     1      29.099  40.004   9.317  1.00  0.00     0.211 HD
ENDBRANCH   3  23
ENDBRANCH   2   3
BRANCH   2  25
ATOM     25  O   UNL     1      26.930  40.186  10.500  1.00  0.00    -0.388 OA
ATOM     26  H   UNL     1      26.677  40.405   9.562  1.00  0.00     0.211 HD
ENDBRANCH   2  25
ENDBRANCH   1   2
BRANCH   1  27
ATOM     27  N   UNL     1      28.642  37.419  12.130  1.00  0.00    -0.319 N 
ATOM     28  C   UNL     1      28.057  36.206  12.552  1.00  0.00     0.407 C 
ATOM     29  H   UNL     1      29.693  37.377  11.915  1.00  0.00     0.167 HD
ATOM     30  O   UNL     1      26.846  36.091  12.853  1.00  0.00    -0.225 OA
BRANCH  28  31
ATOM     31  O   UNL     1      28.870  35.066  12.640  1.00  0.00    -0.443 OA
BRANCH  31  32
ATOM     32  C   UNL     1      28.576  34.138  13.659  1.00  0.00     0.294 C 
BRANCH  32  33
ATOM     33  C   UNL     1      29.822  33.892  14.427  1.00  0.00     0.121 A 
ATOM     34  C   UNL     1      30.565  34.890  15.071  1.00  0.00     0.144 A 
ATOM     35  N   UNL     1      30.504  32.769  14.681  1.00  0.00    -0.131 NA
ATOM     36  N   UNL     1      31.637  34.345  15.672  1.00  0.00    -0.219 N 
ATOM     37  N   UNL     1      31.574  33.050  15.417  1.00  0.00    -0.062 NA
BRANCH  36  38
ATOM     38  C   UNL     1      32.628  35.044  16.426  1.00  0.00     0.081 A 
ATOM     39  C   UNL     1      33.692  35.673  15.819  1.00  0.00     0.029 A 
ATOM     40  C   UNL     1      32.555  35.116  17.801  1.00  0.00     0.043 A 
ATOM     41  C   UNL     1      34.652  36.351  16.572  1.00  0.00     0.002 A 
ATOM     42  C   UNL     1      33.506  35.789  18.553  1.00  0.00     0.018 A 
ATOM     43  Br  UNL     1      31.077  34.243  18.658  1.00  0.00    -0.048 Br
ATOM     44  C   UNL     1      34.572  36.420  17.947  1.00  0.00     0.001 A 
ENDBRANCH  36  38
ENDBRANCH  32  33
ENDBRANCH  31  32
ENDBRANCH  28  31
ENDBRANCH   1  27
TORSDOF 15
BEGIN_RES LYS A 131
REMARK  4 active torsions:
REMARK  status: ('A' for Active; 'I' for Inactive)
REMARK    1  A    between atoms: CA   and  CB  
REMARK    2  A    between atoms: CB   and  CG  
REMARK    3  A    between atoms: CG   and  CD  
REMARK    4  A    between atoms: CD   and  CE  
ROOT
ATOM      1  CA  LYS A 131      29.867  25.555  16.977  1.00 20.52     0.186 C 
ENDROOT
BRANCH   1   2
ATOM      2  CB  LYS A 131      28.345  25.722  17.026  1.00 20.94     0.034 C 
BRANCH   2   3
ATOM      3  CG  LYS A 131      27.601  24.401  16.899  1.00 22.96     0.005 C 
BRANCH   3   4
ATOM      4  CD  LYS A 131      26.151  24.530  17.273  1.00 24.33     0.041 C 
BRANCH   4   5
ATOM      5  CE  LYS A 131      25.780  23.427  18.259  1.00 26.91     0.338 C 
ATOM      6  NZ  LYS A 131      25.104  22.310  17.558  1.00 27.40     0.618 N 
ENDBRANCH   4   5
ENDBRANCH   3   4
ENDBRANCH   2   3
ENDBRANCH   1   2
END_RES LYS A 131
BEGIN_RES LYS A 135
REMARK  4 active torsions:
REMARK  status: ('A' for Active; 'I' for Inactive)
REMARK    5  A    between atoms: CA   and  CB  
REMARK    6  A    between atoms: CB   and  CG  
REMARK    7  A    between atoms: CG   and  CD  
REMARK    8  A    between atoms: CD   and  CE  
ROOT
ATOM      7  CA  LYS A 135      33.193  34.663   9.290  1.00 25.02     0.186 C 
ENDROOT
BRANCH   7   8
ATOM      8  CB  LYS A 135      32.060  35.360  10.034  1.00 26.63     0.034 C 
BRANCH   8   9
ATOM      9  CG  LYS A 135      32.362  35.616  11.488  1.00 29.45     0.005 C 
BRANCH   9  10
ATOM     10  CD  LYS A 135      32.137  37.080  11.833  1.00 32.00     0.041 C 
BRANCH  10  11
ATOM     11  CE  LYS A 135      31.822  37.880  10.583  1.00 34.25     0.338 C 
ATOM     12  NZ  LYS A 135      31.493  39.293  10.919  1.00 35.99     0.618 N 
ENDBRANCH  10  11
ENDBRANCH   9  10
ENDBRANCH   8   9
ENDBRANCH   7   8
END_RES LYS A 135
