REMARK VINA RESULT:    -5.545      3.884      8.346
REMARK INTER + INTRA:         -13.992
REMARK INTER:                  -9.968
REMARK INTRA:                  -4.024
REMARK UNBOUND:                -4.396
REMARK SMILES CC(=O)N[C@@H]1[C@@H](O)C[C@](O)(C(=O)O)O[C@H]1C(O)[C@H](O)CNC(=O)OCc1cn(-c2ccccc2Br)nn1
REMARK SMILES IDX 20 1 18 2 16 3 15 4 9 5 8 6 14 7 6 8 5 9 10 10 11 12 12 13
REMARK SMILES IDX 13 14 7 16 4 18 2 19 1 21 3 22 17 23 19 25 21 27 22 28 23 30
REMARK SMILES IDX 24 31 25 32 26 33 27 34 37 35 28 36 36 37 29 38 30 39 34 40
REMARK SMILES IDX 31 41 33 42 35 43 32 44
REMARK H PARENT 10 11 13 15 7 17 4 20 17 24 19 26 21 29
REMARK Flexibility Score: inf
ROOT
ATOM      1  C   UNL     1      27.807  37.042  15.242  1.00  0.00     0.154 C 
ENDROOT
BRANCH   1   2
ATOM      2  C   UNL     1      28.695  35.906  15.679  1.00  0.00     0.165 C 
BRANCH   2   3
ATOM      3  C   UNL     1      28.307  34.689  14.900  1.00  0.00     0.176 C 
BRANCH   3   4
ATOM      4  C   UNL     1      29.446  33.796  14.467  1.00  0.00     0.178 C 
ATOM      5  C   UNL     1      29.703  32.068  16.031  1.00  0.00     0.269 C 
ATOM      6  C   UNL     1      31.183  31.924  15.672  1.00  0.00     0.112 C 
ATOM      7  O   UNL     1      29.101  32.524  14.908  1.00  0.00    -0.332 OA
ATOM      8  C   UNL     1      31.701  33.328  15.545  1.00  0.00     0.145 C 
ATOM      9  C   UNL     1      30.796  34.268  14.792  1.00  0.00     0.142 C 
BRANCH   5  10
ATOM     10  O   UNL     1      29.639  32.864  17.147  1.00  0.00    -0.357 OA
ATOM     11  H   UNL     1      30.403  33.492  17.113  1.00  0.00     0.214 HD
ENDBRANCH   5  10
BRANCH   5  12
ATOM     12  C   UNL     1      29.157  30.727  16.378  1.00  0.00     0.364 C 
ATOM     13  O   UNL     1      28.760  29.974  15.455  1.00  0.00    -0.246 OA
BRANCH  12  14
ATOM     14  O   UNL     1      29.078  30.292  17.696  1.00  0.00    -0.477 OA
ATOM     15  H   UNL     1      28.731  29.373  17.959  1.00  0.00     0.296 HD
ENDBRANCH  12  14
ENDBRANCH   5  12
BRANCH   8  16
ATOM     16  O   UNL     1      31.887  33.800  16.845  1.00  0.00    -0.391 OA
ATOM     17  H   UNL     1      32.546  33.272  17.329  1.00  0.00     0.211 HD
ENDBRANCH   8  16
BRANCH   9  18
ATOM     18  N   UNL     1      31.471  34.643  13.531  1.00  0.00    -0.348 N 
ATOM     19  C   UNL     1      31.990  35.941  13.333  1.00  0.00     0.217 C 
ATOM     20  H   UNL     1      31.575  33.933  12.751  1.00  0.00     0.163 HD
ATOM     21  C   UNL     1      32.668  36.332  12.051  1.00  0.00     0.114 C 
ATOM     22  O   UNL     1      31.871  36.776  14.265  1.00  0.00    -0.275 OA
ENDBRANCH   9  18
ENDBRANCH   3   4
BRANCH   3  23
ATOM     23  O   UNL     1      27.254  34.044  15.497  1.00  0.00    -0.388 OA
ATOM     24  H   UNL     1      26.675  33.554  14.839  1.00  0.00     0.211 HD
ENDBRANCH   3  23
ENDBRANCH   2   3
BRANCH   2  25
ATOM     25  O   UNL     1      28.561  35.691  17.027  1.00  0.00    -0.388 OA
ATOM     26  H   UNL     1      28.116  36.448  17.497  1.00  0.00     0.211 HD
ENDBRANCH   2  25
ENDBRANCH   1   2
BRANCH   1  27
ATOM     27  N   UNL     1      26.698  36.708  14.415  1.00  0.00    -0.319 N 
ATOM     28  C   UNL     1      26.088  37.597  13.503  1.00  0.00     0.407 C 
ATOM     29  H   UNL     1      26.268  35.725  14.462  1.00  0.00     0.167 HD
ATOM     30  O   UNL     1      26.461  38.782  13.339  1.00  0.00    -0.225 OA
BRANCH  28  31
ATOM     31  O   UNL     1      25.008  37.132  12.737  1.00  0.00    -0.443 OA
BRANCH  31  32
ATOM     32  C   UNL     1      24.377  38.056  11.880  1.00  0.00     0.294 C 
BRANCH  32  33
ATOM     33  C   UNL     1      24.539  37.572  10.487  1.00  0.00     0.121 A 
ATOM     34  C   UNL     1      25.752  37.570   9.786  1.00  0.00     0.144 A 
ATOM     35  N   UNL     1      23.662  37.066   9.613  1.00  0.00    -0.131 NA
ATOM     36  N   UNL     1      25.565  37.076   8.550  1.00  0.00    -0.219 N 
ATOM     37  N   UNL     1      24.280  36.777   8.472  1.00  0.00    -0.062 NA
BRANCH  36  38
ATOM     38  C   UNL     1      26.565  36.916   7.544  1.00  0.00     0.081 A 
ATOM     39  C   UNL     1      26.839  37.909   6.630  1.00  0.00     0.029 A 
ATOM     40  C   UNL     1      27.301  35.754   7.450  1.00  0.00     0.043 A 
ATOM     41  C   UNL     1      27.821  37.736   5.652  1.00  0.00     0.002 A 
ATOM     42  C   UNL     1      28.277  35.578   6.482  1.00  0.00     0.018 A 
ATOM     43  Br  UNL     1      26.928  34.363   8.719  1.00  0.00    -0.048 Br
ATOM     44  C   UNL     1      28.553  36.571   5.565  1.00  0.00     0.001 A 
ENDBRANCH  36  38
ENDBRANCH  32  33
ENDBRANCH  31  32
ENDBRANCH  28  31
ENDBRANCH   1  27
TORSDOF 15
BEGIN_RES LYS A 131
REMARK  4 active torsions:
REMARK  status: ('A' for Active; 'I' for Inactive)
REMARK    1  A    between atoms: CA   and  CB  
REMARK    2  A    between atoms: CB   and  CG  
REMARK    3  A    between atoms: CG   and  CD  
REMARK    4  A    between atoms: CD   and  CE  
ROOT
ATOM      1  CA  LYS A 131      29.867  25.555  16.977  1.00 20.52     0.186 C 
ENDROOT
BRANCH   1   2
ATOM      2  CB  LYS A 131      28.345  25.722  17.026  1.00 20.94     0.034 C 
BRANCH   2   3
ATOM      3  CG  LYS A 131      27.601  24.403  16.886  1.00 22.96     0.005 C 
BRANCH   3   4
ATOM      4  CD  LYS A 131      26.193  24.489  17.407  1.00 24.33     0.041 C 
BRANCH   4   5
ATOM      5  CE  LYS A 131      26.150  25.431  18.606  1.00 26.91     0.338 C 
ATOM      6  NZ  LYS A 131      25.478  24.778  19.754  1.00 27.40     0.618 N 
ENDBRANCH   4   5
ENDBRANCH   3   4
ENDBRANCH   2   3
ENDBRANCH   1   2
END_RES LYS A 131
BEGIN_RES LYS A 135
REMARK  4 active torsions:
REMARK  status: ('A' for Active; 'I' for Inactive)
REMARK    5  A    between atoms: CA   and  CB  
REMARK    6  A    between atoms: CB   and  CG  
REMARK    7  A    between atoms: CG   and  CD  
REMARK    8  A    between atoms: CD   and  CE  
ROOT
ATOM      7  CA  LYS A 135      33.193  34.663   9.290  1.00 25.02     0.186 C 
ENDROOT
BRANCH   7   8
ATOM      8  CB  LYS A 135      32.060  35.360  10.034  1.00 26.63     0.034 C 
BRANCH   8   9
ATOM      9  CG  LYS A 135      30.768  35.403   9.260  1.00 29.45     0.005 C 
BRANCH   9  10
ATOM     10  CD  LYS A 135      29.991  36.670   9.583  1.00 32.00     0.041 C 
BRANCH  10  11
ATOM     11  CE  LYS A 135      30.433  37.809   8.684  1.00 34.25     0.338 C 
ATOM     12  NZ  LYS A 135      29.473  38.946   8.748  1.00 35.99     0.618 N 
ENDBRANCH  10  11
ENDBRANCH   9  10
ENDBRANCH   8   9
ENDBRANCH   7   8
END_RES LYS A 135
