REMARK VINA RESULT:    -5.114      3.106      8.536
REMARK INTER + INTRA:         -16.553
REMARK INTER:                  -7.859
REMARK INTRA:                  -8.694
REMARK UNBOUND:                -5.759
REMARK SMILES CC(=O)N[C@@H]1[C@@H](O)C[C@](O)(C(=O)O)O[C@H]1C(O)[C@H](O)CNC(=O)OCc1cn(CC(=O)NCC(O)Cn2ccnc2[N+](=O)[O-])nn1
REMARK SMILES IDX 25 1 24 2 22 3 21 4 23 6 20 7 18 8 16 9 15 10 9 11 8 12
REMARK SMILES IDX 14 13 6 14 5 15 10 16 11 18 12 19 13 20 7 22 4 24 2 25 1 27
REMARK SMILES IDX 3 28 17 29 19 31 26 33 27 34 46 35 28 36 45 37 29 38 30 39
REMARK SMILES IDX 31 40 32 41 33 43 34 44 35 45 36 47 37 48 38 49 41 50 39 51
REMARK SMILES IDX 40 52 42 53 43 54 44 55
REMARK H PARENT 21 5 10 17 13 21 7 23 4 26 17 30 19 32 32 42 35 46
REMARK Flexibility Score: inf
ROOT
ATOM      1  C   UNL     1      28.061  39.473  14.048  1.00  0.00     0.294 C 
ENDROOT
BRANCH   1   2
ATOM      2  O   UNL     1      26.717  39.121  14.307  1.00  0.00    -0.443 OA
BRANCH   2   3
ATOM      3  C   UNL     1      26.386  38.134  15.218  1.00  0.00     0.407 C 
ATOM      4  N   UNL     1      26.037  36.808  14.787  1.00  0.00    -0.319 N 
ATOM      5  H   UNL     1      26.041  36.645  13.760  1.00  0.00     0.167 HD
ATOM      6  O   UNL     1      26.395  38.417  16.429  1.00  0.00    -0.225 OA
BRANCH   4   7
ATOM      7  C   UNL     1      25.699  35.757  15.683  1.00  0.00     0.154 C 
BRANCH   7   8
ATOM      8  C   UNL     1      26.642  34.606  15.675  1.00  0.00     0.165 C 
BRANCH   8   9
ATOM      9  C   UNL     1      27.889  34.995  14.897  1.00  0.00     0.176 C 
BRANCH   9  10
ATOM     10  C   UNL     1      29.150  34.534  15.554  1.00  0.00     0.178 C 
ATOM     11  C   UNL     1      30.989  35.603  14.602  1.00  0.00     0.269 C 
ATOM     12  C   UNL     1      31.888  34.376  14.590  1.00  0.00     0.112 C 
ATOM     13  O   UNL     1      30.067  35.552  15.611  1.00  0.00    -0.332 OA
ATOM     14  C   UNL     1      31.206  33.235  15.332  1.00  0.00     0.145 C 
ATOM     15  C   UNL     1      29.726  33.304  14.933  1.00  0.00     0.142 C 
BRANCH  11  16
ATOM     16  O   UNL     1      30.342  35.616  13.380  1.00  0.00    -0.357 OA
ATOM     17  H   UNL     1      29.599  36.271  13.381  1.00  0.00     0.214 HD
ENDBRANCH  11  16
BRANCH  11  18
ATOM     18  C   UNL     1      31.781  36.854  14.715  1.00  0.00     0.364 C 
ATOM     19  O   UNL     1      32.472  37.115  15.741  1.00  0.00    -0.246 OA
BRANCH  18  20
ATOM     20  O   UNL     1      31.795  37.787  13.692  1.00  0.00    -0.477 OA
ATOM     21  H   UNL     1      32.465  37.827  12.946  1.00  0.00     0.296 HD
ENDBRANCH  18  20
ENDBRANCH  11  18
BRANCH  14  22
ATOM     22  O   UNL     1      31.784  32.053  14.907  1.00  0.00    -0.391 OA
ATOM     23  H   UNL     1      32.158  32.106  14.000  1.00  0.00     0.211 HD
ENDBRANCH  14  22
BRANCH  15  24
ATOM     24  N   UNL     1      29.045  32.100  15.390  1.00  0.00    -0.348 N 
ATOM     25  C   UNL     1      28.881  31.879  16.772  1.00  0.00     0.217 C 
ATOM     26  H   UNL     1      28.698  31.425  14.706  1.00  0.00     0.163 HD
ATOM     27  C   UNL     1      28.181  30.646  17.289  1.00  0.00     0.114 C 
ATOM     28  O   UNL     1      29.294  32.670  17.653  1.00  0.00    -0.275 OA
ENDBRANCH  15  24
ENDBRANCH   9  10
BRANCH   9  29
ATOM     29  O   UNL     1      27.841  34.512  13.599  1.00  0.00    -0.388 OA
ATOM     30  H   UNL     1      28.372  33.707  13.463  1.00  0.00     0.211 HD
ENDBRANCH   9  29
ENDBRANCH   8   9
BRANCH   8  31
ATOM     31  O   UNL     1      26.125  33.435  15.145  1.00  0.00    -0.388 OA
ATOM     32  H   UNL     1      26.202  32.665  15.770  1.00  0.00     0.211 HD
ENDBRANCH   8  31
ENDBRANCH   7   8
ENDBRANCH   4   7
ENDBRANCH   2   3
ENDBRANCH   1   2
BRANCH   1  33
ATOM     33  C   UNL     1      28.464  38.675  12.865  1.00  0.00     0.120 A 
ATOM     34  C   UNL     1      29.253  39.153  11.842  1.00  0.00     0.138 A 
ATOM     35  N   UNL     1      28.189  37.410  12.514  1.00  0.00    -0.132 NA
ATOM     36  N   UNL     1      29.439  38.178  10.900  1.00  0.00    -0.243 N 
ATOM     37  N   UNL     1      28.781  37.132  11.337  1.00  0.00    -0.067 NA
BRANCH  36  38
ATOM     38  C   UNL     1      30.224  38.405   9.706  1.00  0.00     0.245 C 
BRANCH  38  39
ATOM     39  C   UNL     1      29.280  38.203   8.536  1.00  0.00     0.241 C 
ATOM     40  O   UNL     1      29.721  38.223   7.367  1.00  0.00    -0.273 OA
ATOM     41  N   UNL     1      27.911  37.991   8.712  1.00  0.00    -0.352 N 
ATOM     42  H   UNL     1      27.620  37.968   9.763  1.00  0.00     0.163 HD
BRANCH  41  43
ATOM     43  C   UNL     1      26.880  37.813   7.756  1.00  0.00     0.151 C 
BRANCH  43  44
ATOM     44  C   UNL     1      25.524  37.476   8.179  1.00  0.00     0.168 C 
BRANCH  44  45
ATOM     45  O   UNL     1      24.618  37.350   7.091  1.00  0.00    -0.388 OA
ATOM     46  H   UNL     1      23.869  36.765   7.359  1.00  0.00     0.211 HD
ENDBRANCH  44  45
BRANCH  44  47
ATOM     47  C   UNL     1      25.261  36.550   9.293  1.00  0.00     0.239 C 
BRANCH  47  48
ATOM     48  N   UNL     1      24.787  37.206  10.496  1.00  0.00    -0.227 N 
ATOM     49  C   UNL     1      24.708  38.548  10.686  1.00  0.00     0.204 A 
ATOM     50  C   UNL     1      24.368  36.593  11.618  1.00  0.00     0.434 A 
ATOM     51  C   UNL     1      24.227  38.737  11.968  1.00  0.00     0.245 A 
ATOM     52  N   UNL     1      24.021  37.547  12.534  1.00  0.00    -0.074 NA
BRANCH  50  53
ATOM     53  N   UNL     1      24.268  35.208  11.895  1.00  0.00    -0.047 N 
ATOM     54  O   UNL     1      25.276  34.637  12.408  1.00  0.00    -0.390 OA
ATOM     55  O   UNL     1      23.192  34.419  11.664  1.00  0.00    -0.390 OA
ENDBRANCH  50  53
ENDBRANCH  47  48
ENDBRANCH  44  47
ENDBRANCH  43  44
ENDBRANCH  41  43
ENDBRANCH  38  39
ENDBRANCH  36  38
ENDBRANCH   1  33
TORSDOF 22
BEGIN_RES LYS A 131
REMARK  4 active torsions:
REMARK  status: ('A' for Active; 'I' for Inactive)
REMARK    1  A    between atoms: CA   and  CB  
REMARK    2  A    between atoms: CB   and  CG  
REMARK    3  A    between atoms: CG   and  CD  
REMARK    4  A    between atoms: CD   and  CE  
ROOT
ATOM      1  CA  LYS A 131      29.867  25.555  16.977  1.00 20.52     0.186 C 
ENDROOT
BRANCH   1   2
ATOM      2  CB  LYS A 131      28.345  25.722  17.026  1.00 20.94     0.034 C 
BRANCH   2   3
ATOM      3  CG  LYS A 131      27.601  24.403  16.881  1.00 22.96     0.005 C 
BRANCH   3   4
ATOM      4  CD  LYS A 131      26.173  24.505  17.340  1.00 24.33     0.041 C 
BRANCH   4   5
ATOM      5  CE  LYS A 131      25.644  23.114  17.670  1.00 26.91     0.338 C 
ATOM      6  NZ  LYS A 131      24.277  22.935  17.126  1.00 27.40     0.618 N 
ENDBRANCH   4   5
ENDBRANCH   3   4
ENDBRANCH   2   3
ENDBRANCH   1   2
END_RES LYS A 131
BEGIN_RES LYS A 135
REMARK  4 active torsions:
REMARK  status: ('A' for Active; 'I' for Inactive)
REMARK    5  A    between atoms: CA   and  CB  
REMARK    6  A    between atoms: CB   and  CG  
REMARK    7  A    between atoms: CG   and  CD  
REMARK    8  A    between atoms: CD   and  CE  
ROOT
ATOM      7  CA  LYS A 135      33.193  34.663   9.290  1.00 25.02     0.186 C 
ENDROOT
BRANCH   7   8
ATOM      8  CB  LYS A 135      32.060  35.360  10.034  1.00 26.63     0.034 C 
BRANCH   8   9
ATOM      9  CG  LYS A 135      30.731  34.662   9.899  1.00 29.45     0.005 C 
BRANCH   9  10
ATOM     10  CD  LYS A 135      30.327  34.557   8.436  1.00 32.00     0.041 C 
BRANCH  10  11
ATOM     11  CE  LYS A 135      28.816  34.563   8.300  1.00 34.25     0.338 C 
ATOM     12  NZ  LYS A 135      28.172  33.850   9.438  1.00 35.99     0.618 N 
ENDBRANCH  10  11
ENDBRANCH   9  10
ENDBRANCH   8   9
ENDBRANCH   7   8
END_RES LYS A 135
