REMARK VINA RESULT:    -4.566      0.000      0.000
REMARK INTER + INTRA:         -14.654
REMARK INTER:                  -8.738
REMARK INTRA:                  -5.916
REMARK UNBOUND:                -5.949
REMARK SMILES CCOC(=O)Cn1cc(COC(=O)NC[C@@H](O)C(O)[C@@H]2O[C@@](O)(C(=O)O)C[C@H](O)[C@H]2NC(C)=O)nn1
REMARK SMILES IDX 14 1 12 2 13 3 15 5 16 6 18 7 20 8 22 9 27 10 21 11 28 12
REMARK SMILES IDX 30 13 23 14 24 16 25 17 26 18 29 20 31 22 32 23 33 25 34 26
REMARK SMILES IDX 19 27 17 29 11 31 10 32 9 33 8 34 35 35 7 36 36 37 6 38 4 39
REMARK SMILES IDX 5 40 3 41 2 42 1 43
REMARK H PARENT 14 4 23 15 26 19 29 21 31 24 19 28 17 30
REMARK Flexibility Score: inf
ROOT
ATOM      1  N   UNL     1      27.848  29.076  17.848  1.00  0.00    -0.319 N 
ATOM      2  C   UNL     1      27.114  28.709  18.998  1.00  0.00     0.407 C 
ATOM      3  O   UNL     1      25.884  28.594  18.994  1.00  0.00    -0.225 OA
ATOM      4  H   UNL     1      28.908  29.126  18.015  1.00  0.00     0.167 HD
ENDROOT
BRANCH   1   5
ATOM      5  C   UNL     1      27.315  29.368  16.557  1.00  0.00     0.154 C 
BRANCH   5   6
ATOM      6  C   UNL     1      27.321  30.793  16.125  1.00  0.00     0.165 C 
BRANCH   6   7
ATOM      7  C   UNL     1      28.644  31.290  15.663  1.00  0.00     0.176 C 
BRANCH   7   8
ATOM      8  C   UNL     1      28.984  32.709  16.031  1.00  0.00     0.178 C 
ATOM      9  C   UNL     1      30.530  33.630  14.537  1.00  0.00     0.269 C 
ATOM     10  C   UNL     1      31.058  34.663  15.509  1.00  0.00     0.112 C 
ATOM     11  O   UNL     1      29.227  33.370  14.829  1.00  0.00    -0.332 OA
ATOM     12  C   UNL     1      30.726  34.254  16.896  1.00  0.00     0.145 C 
ATOM     13  C   UNL     1      30.136  32.837  16.987  1.00  0.00     0.142 C 
BRANCH   9  14
ATOM     14  O   UNL     1      31.398  32.554  14.585  1.00  0.00    -0.357 OA
ATOM     15  H   UNL     1      31.265  32.024  13.766  1.00  0.00     0.214 HD
ENDBRANCH   9  14
BRANCH   9  16
ATOM     16  C   UNL     1      30.593  34.247  13.193  1.00  0.00     0.364 C 
ATOM     17  O   UNL     1      29.523  34.523  12.610  1.00  0.00    -0.246 OA
BRANCH  16  18
ATOM     18  O   UNL     1      31.789  34.521  12.580  1.00  0.00    -0.477 OA
ATOM     19  H   UNL     1      32.295  35.392  12.738  1.00  0.00     0.296 HD
ENDBRANCH  16  18
ENDBRANCH   9  16
BRANCH  12  20
ATOM     20  O   UNL     1      31.801  34.341  17.777  1.00  0.00    -0.391 OA
ATOM     21  H   UNL     1      32.599  33.861  17.477  1.00  0.00     0.211 HD
ENDBRANCH  12  20
BRANCH  13  22
ATOM     22  N   UNL     1      29.703  32.729  18.365  1.00  0.00    -0.348 N 
ATOM     23  C   UNL     1      29.892  31.608  19.191  1.00  0.00     0.217 C 
ATOM     24  H   UNL     1      29.213  33.554  18.773  1.00  0.00     0.163 HD
ATOM     25  C   UNL     1      29.441  31.518  20.601  1.00  0.00     0.114 C 
ATOM     26  O   UNL     1      30.491  30.610  18.682  1.00  0.00    -0.275 OA
ENDBRANCH  13  22
ENDBRANCH   7   8
BRANCH   7  27
ATOM     27  O   UNL     1      29.650  30.404  15.966  1.00  0.00    -0.388 OA
ATOM     28  H   UNL     1      29.978  29.876  15.196  1.00  0.00     0.211 HD
ENDBRANCH   7  27
ENDBRANCH   6   7
BRANCH   6  29
ATOM     29  O   UNL     1      26.976  31.585  17.240  1.00  0.00    -0.388 OA
ATOM     30  H   UNL     1      27.800  31.980  17.652  1.00  0.00     0.211 HD
ENDBRANCH   6  29
ENDBRANCH   5   6
ENDBRANCH   1   5
BRANCH   2  31
ATOM     31  O   UNL     1      27.773  28.456  20.223  1.00  0.00    -0.443 OA
BRANCH  31  32
ATOM     32  C   UNL     1      28.708  27.400  20.342  1.00  0.00     0.294 C 
BRANCH  32  33
ATOM     33  C   UNL     1      29.467  27.639  21.598  1.00  0.00     0.120 A 
ATOM     34  C   UNL     1      30.623  27.025  22.021  1.00  0.00     0.139 A 
ATOM     35  N   UNL     1      29.163  28.522  22.589  1.00  0.00    -0.132 NA
ATOM     36  N   UNL     1      30.954  27.561  23.229  1.00  0.00    -0.241 N 
ATOM     37  N   UNL     1      30.046  28.468  23.544  1.00  0.00    -0.066 NA
BRANCH  36  38
ATOM     38  C   UNL     1      32.089  27.231  24.059  1.00  0.00     0.268 C 
BRANCH  38  39
ATOM     39  C   UNL     1      33.352  27.457  23.341  1.00  0.00     0.327 C 
ATOM     40  O   UNL     1      34.255  26.595  23.408  1.00  0.00    -0.250 OA
BRANCH  39  41
ATOM     41  O   UNL     1      33.497  28.634  22.606  1.00  0.00    -0.465 OA
BRANCH  41  42
ATOM     42  C   UNL     1      34.630  29.440  22.945  1.00  0.00     0.229 C 
ATOM     43  C   UNL     1      34.533  30.724  22.161  1.00  0.00     0.049 C 
ENDBRANCH  41  42
ENDBRANCH  39  41
ENDBRANCH  38  39
ENDBRANCH  36  38
ENDBRANCH  32  33
ENDBRANCH  31  32
ENDBRANCH   2  31
TORSDOF 18
BEGIN_RES LYS A 131
REMARK  4 active torsions:
REMARK  status: ('A' for Active; 'I' for Inactive)
REMARK    1  A    between atoms: CA   and  CB  
REMARK    2  A    between atoms: CB   and  CG  
REMARK    3  A    between atoms: CG   and  CD  
REMARK    4  A    between atoms: CD   and  CE  
ROOT
ATOM      1  CA  LYS A 131      29.867  25.555  16.977  1.00 20.52     0.186 C 
ENDROOT
BRANCH   1   2
ATOM      2  CB  LYS A 131      28.345  25.722  17.026  1.00 20.94     0.034 C 
BRANCH   2   3
ATOM      3  CG  LYS A 131      27.601  24.402  16.889  1.00 22.96     0.005 C 
BRANCH   3   4
ATOM      4  CD  LYS A 131      26.172  24.508  17.346  1.00 24.33     0.041 C 
BRANCH   4   5
ATOM      5  CE  LYS A 131      26.133  25.026  18.780  1.00 26.91     0.338 C 
ATOM      6  NZ  LYS A 131      24.743  25.352  19.176  1.00 27.40     0.618 N 
ENDBRANCH   4   5
ENDBRANCH   3   4
ENDBRANCH   2   3
ENDBRANCH   1   2
END_RES LYS A 131
BEGIN_RES LYS A 135
REMARK  4 active torsions:
REMARK  status: ('A' for Active; 'I' for Inactive)
REMARK    5  A    between atoms: CA   and  CB  
REMARK    6  A    between atoms: CB   and  CG  
REMARK    7  A    between atoms: CG   and  CD  
REMARK    8  A    between atoms: CD   and  CE  
ROOT
ATOM      7  CA  LYS A 135      33.193  34.663   9.290  1.00 25.02     0.186 C 
ENDROOT
BRANCH   7   8
ATOM      8  CB  LYS A 135      32.060  35.360  10.034  1.00 26.63     0.034 C 
BRANCH   8   9
ATOM      9  CG  LYS A 135      30.809  35.524   9.210  1.00 29.45     0.005 C 
BRANCH   9  10
ATOM     10  CD  LYS A 135      30.099  34.189   9.041  1.00 32.00     0.041 C 
BRANCH  10  11
ATOM     11  CE  LYS A 135      28.627  34.403   8.747  1.00 34.25     0.338 C 
ATOM     12  NZ  LYS A 135      27.774  33.608   9.673  1.00 35.99     0.618 N 
ENDBRANCH  10  11
ENDBRANCH   9  10
ENDBRANCH   8   9
ENDBRANCH   7   8
END_RES LYS A 135
