REMARK VINA RESULT:    -4.235      2.593      3.767
REMARK INTER + INTRA:         -14.337
REMARK INTER:                  -9.414
REMARK INTRA:                  -4.923
REMARK UNBOUND:                -7.007
REMARK SMILES CC(=O)N[C@@H]1[C@@H](O)C[C@](O)(C(=O)O)O[C@H]1C(O)[C@H](O)CNC(=O)OCc1cn(-c2ccc(Cl)cc2)nn1
REMARK SMILES IDX 20 1 18 2 16 3 15 4 9 5 8 6 14 7 6 8 5 9 10 10 11 12 12 13
REMARK SMILES IDX 13 14 7 16 4 18 2 19 1 21 3 22 17 23 19 25 21 27 22 28 23 30
REMARK SMILES IDX 24 31 25 32 26 33 27 34 37 35 28 36 36 37 29 38 30 39 35 40
REMARK SMILES IDX 31 41 34 42 32 43 33 44
REMARK H PARENT 10 11 13 15 7 17 4 20 17 24 19 26 21 29
REMARK Flexibility Score: inf
ROOT
ATOM      1  C   UNL     1      28.329  29.097  19.965  1.00  0.00     0.154 C 
ENDROOT
BRANCH   1   2
ATOM      2  C   UNL     1      29.093  28.058  20.723  1.00  0.00     0.165 C 
BRANCH   2   3
ATOM      3  C   UNL     1      30.471  28.645  21.067  1.00  0.00     0.176 C 
BRANCH   3   4
ATOM      4  C   UNL     1      31.351  27.605  21.758  1.00  0.00     0.178 C 
ATOM      5  C   UNL     1      30.404  26.775  23.739  1.00  0.00     0.269 C 
ATOM      6  C   UNL     1      31.713  26.618  24.482  1.00  0.00     0.112 C 
ATOM      7  O   UNL     1      30.491  26.731  22.391  1.00  0.00    -0.332 OA
ATOM      8  C   UNL     1      32.823  27.095  23.615  1.00  0.00     0.145 C 
ATOM      9  C   UNL     1      32.295  28.200  22.720  1.00  0.00     0.142 C 
BRANCH   5  10
ATOM     10  O   UNL     1      29.805  27.926  24.246  1.00  0.00    -0.357 OA
ATOM     11  H   UNL     1      29.256  27.634  25.017  1.00  0.00     0.214 HD
ENDBRANCH   5  10
BRANCH   5  12
ATOM     12  C   UNL     1      29.562  25.628  24.166  1.00  0.00     0.364 C 
ATOM     13  O   UNL     1      30.030  24.840  25.019  1.00  0.00    -0.246 OA
BRANCH  12  14
ATOM     14  O   UNL     1      28.311  25.415  23.657  1.00  0.00    -0.477 OA
ATOM     15  H   UNL     1      28.199  25.200  22.663  1.00  0.00     0.296 HD
ENDBRANCH  12  14
ENDBRANCH   5  12
BRANCH   8  16
ATOM     16  O   UNL     1      33.950  27.490  24.324  1.00  0.00    -0.391 OA
ATOM     17  H   UNL     1      34.381  26.722  24.750  1.00  0.00     0.211 HD
ENDBRANCH   8  16
BRANCH   9  18
ATOM     18  N   UNL     1      33.417  28.905  22.203  1.00  0.00    -0.348 N 
ATOM     19  C   UNL     1      33.648  30.282  22.435  1.00  0.00     0.217 C 
ATOM     20  H   UNL     1      34.087  28.333  21.622  1.00  0.00     0.163 HD
ATOM     21  C   UNL     1      34.826  30.980  21.882  1.00  0.00     0.114 C 
ATOM     22  O   UNL     1      32.772  30.848  23.146  1.00  0.00    -0.275 OA
ENDBRANCH   9  18
ENDBRANCH   3   4
BRANCH   3  23
ATOM     23  O   UNL     1      30.314  29.761  21.896  1.00  0.00    -0.388 OA
ATOM     24  H   UNL     1      30.881  30.525  21.592  1.00  0.00     0.211 HD
ENDBRANCH   3  23
ENDBRANCH   2   3
BRANCH   2  25
ATOM     25  O   UNL     1      29.215  26.867  20.044  1.00  0.00    -0.388 OA
ATOM     26  H   UNL     1      29.990  26.320  20.257  1.00  0.00     0.211 HD
ENDBRANCH   2  25
ENDBRANCH   1   2
BRANCH   1  27
ATOM     27  N   UNL     1      29.092  29.960  19.128  1.00  0.00    -0.319 N 
ATOM     28  C   UNL     1      28.659  30.479  17.882  1.00  0.00     0.407 C 
ATOM     29  H   UNL     1      30.061  30.250  19.440  1.00  0.00     0.167 HD
ATOM     30  O   UNL     1      27.538  30.215  17.417  1.00  0.00    -0.225 OA
BRANCH  28  31
ATOM     31  O   UNL     1      29.508  31.319  17.134  1.00  0.00    -0.443 OA
BRANCH  31  32
ATOM     32  C   UNL     1      29.311  31.488  15.733  1.00  0.00     0.294 C 
BRANCH  32  33
ATOM     33  C   UNL     1      30.275  32.524  15.288  1.00  0.00     0.121 A 
ATOM     34  C   UNL     1      30.016  33.539  14.415  1.00  0.00     0.144 A 
ATOM     35  N   UNL     1      31.542  32.639  15.659  1.00  0.00    -0.131 NA
ATOM     36  N   UNL     1      31.156  34.248  14.283  1.00  0.00    -0.220 N 
ATOM     37  N   UNL     1      32.076  33.688  15.047  1.00  0.00    -0.062 NA
BRANCH  36  38
ATOM     38  C   UNL     1      31.269  35.399  13.440  1.00  0.00     0.066 A 
ATOM     39  C   UNL     1      30.196  36.247  13.308  1.00  0.00     0.030 A 
ATOM     40  C   UNL     1      32.461  35.605  12.794  1.00  0.00     0.030 A 
ATOM     41  C   UNL     1      30.347  37.346  12.484  1.00  0.00     0.023 A 
ATOM     42  C   UNL     1      32.580  36.713  11.978  1.00  0.00     0.023 A 
ATOM     43  C   UNL     1      31.536  37.590  11.813  1.00  0.00     0.041 A 
ATOM     44  Cl  UNL     1      31.750  38.969  10.769  1.00  0.00    -0.084 Cl
ENDBRANCH  36  38
ENDBRANCH  32  33
ENDBRANCH  31  32
ENDBRANCH  28  31
ENDBRANCH   1  27
TORSDOF 15
BEGIN_RES LYS A 131
REMARK  4 active torsions:
REMARK  status: ('A' for Active; 'I' for Inactive)
REMARK    1  A    between atoms: CA   and  CB  
REMARK    2  A    between atoms: CB   and  CG  
REMARK    3  A    between atoms: CG   and  CD  
REMARK    4  A    between atoms: CD   and  CE  
ROOT
ATOM      1  CA  LYS A 131      29.867  25.555  16.977  1.00 20.52     0.186 C 
ENDROOT
BRANCH   1   2
ATOM      2  CB  LYS A 131      28.345  25.722  17.026  1.00 20.94     0.034 C 
BRANCH   2   3
ATOM      3  CG  LYS A 131      27.601  24.402  16.897  1.00 22.96     0.005 C 
BRANCH   3   4
ATOM      4  CD  LYS A 131      26.202  24.484  17.441  1.00 24.33     0.041 C 
BRANCH   4   5
ATOM      5  CE  LYS A 131      26.212  25.255  18.757  1.00 26.91     0.338 C 
ATOM      6  NZ  LYS A 131      24.908  25.924  18.976  1.00 27.40     0.618 N 
ENDBRANCH   4   5
ENDBRANCH   3   4
ENDBRANCH   2   3
ENDBRANCH   1   2
END_RES LYS A 131
BEGIN_RES LYS A 135
REMARK  4 active torsions:
REMARK  status: ('A' for Active; 'I' for Inactive)
REMARK    5  A    between atoms: CA   and  CB  
REMARK    6  A    between atoms: CB   and  CG  
REMARK    7  A    between atoms: CG   and  CD  
REMARK    8  A    between atoms: CD   and  CE  
ROOT
ATOM      7  CA  LYS A 135      33.193  34.663   9.290  1.00 25.02     0.186 C 
ENDROOT
BRANCH   7   8
ATOM      8  CB  LYS A 135      32.060  35.360  10.034  1.00 26.63     0.034 C 
BRANCH   8   9
ATOM      9  CG  LYS A 135      30.692  34.844   9.669  1.00 29.45     0.005 C 
BRANCH   9  10
ATOM     10  CD  LYS A 135      30.619  34.522   8.184  1.00 32.00     0.041 C 
BRANCH  10  11
ATOM     11  CE  LYS A 135      29.303  35.001   7.600  1.00 34.25     0.338 C 
ATOM     12  NZ  LYS A 135      28.692  36.059   8.451  1.00 35.99     0.618 N 
ENDBRANCH  10  11
ENDBRANCH   9  10
ENDBRANCH   8   9
ENDBRANCH   7   8
END_RES LYS A 135
