REMARK VINA RESULT:    -4.697      6.902     11.458
REMARK INTER + INTRA:         -14.698
REMARK INTER:                 -10.004
REMARK INTRA:                  -4.694
REMARK UNBOUND:                -6.295
REMARK SMILES CC(=O)N[C@@H]1[C@@H](O)C[C@](O)(C(=O)O)O[C@H]1C(O)[C@H](O)CNC(=O)OCc1cn(Cc2cccc(Br)c2)nn1
REMARK SMILES IDX 21 1 22 2 23 3 20 5 18 6 16 7 15 8 9 9 8 10 14 11 6 12 5 13
REMARK SMILES IDX 10 14 11 16 12 17 13 18 7 20 4 22 2 23 1 25 3 26 17 27 19 29
REMARK SMILES IDX 24 31 25 32 26 33 27 34 38 35 28 36 37 37 29 38 30 39 31 40
REMARK SMILES IDX 36 41 32 42 34 43 33 44 35 45
REMARK H PARENT 21 4 10 15 13 19 7 21 4 24 17 28 19 30
REMARK Flexibility Score: inf
ROOT
ATOM      1  N   UNL     1      33.353  39.248   6.411  1.00  0.00    -0.319 N 
ATOM      2  C   UNL     1      32.693  40.197   7.227  1.00  0.00     0.407 C 
ATOM      3  O   UNL     1      32.511  41.390   6.819  1.00  0.00    -0.225 OA
ATOM      4  H   UNL     1      33.480  38.283   6.784  1.00  0.00     0.167 HD
ENDROOT
BRANCH   1   5
ATOM      5  C   UNL     1      33.799  39.689   5.117  1.00  0.00     0.154 C 
BRANCH   5   6
ATOM      6  C   UNL     1      35.282  40.088   5.147  1.00  0.00     0.165 C 
BRANCH   6   7
ATOM      7  C   UNL     1      35.907  39.235   6.195  1.00  0.00     0.176 C 
BRANCH   7   8
ATOM      8  C   UNL     1      37.387  39.394   6.384  1.00  0.00     0.178 C 
ATOM      9  C   UNL     1      38.782  40.710   7.718  1.00  0.00     0.269 C 
ATOM     10  C   UNL     1      39.803  40.643   6.597  1.00  0.00     0.112 C 
ATOM     11  O   UNL     1      37.522  40.517   7.209  1.00  0.00    -0.332 OA
ATOM     12  C   UNL     1      39.119  40.682   5.240  1.00  0.00     0.145 C 
ATOM     13  C   UNL     1      38.209  39.442   5.155  1.00  0.00     0.142 C 
BRANCH   9  14
ATOM     14  O   UNL     1      38.806  42.050   8.161  1.00  0.00    -0.357 OA
ATOM     15  H   UNL     1      39.717  42.386   8.264  1.00  0.00     0.214 HD
ENDBRANCH   9  14
BRANCH   9  16
ATOM     16  C   UNL     1      39.139  39.862   8.857  1.00  0.00     0.364 C 
ATOM     17  O   UNL     1      38.790  40.183  10.017  1.00  0.00    -0.246 OA
BRANCH  16  18
ATOM     18  O   UNL     1      39.865  38.686   8.727  1.00  0.00    -0.477 OA
ATOM     19  H   UNL     1      40.495  38.415   9.456  1.00  0.00     0.296 HD
ENDBRANCH  16  18
ENDBRANCH   9  16
BRANCH  12  20
ATOM     20  O   UNL     1      38.426  41.850   5.055  1.00  0.00    -0.391 OA
ATOM     21  H   UNL     1      39.023  42.507   4.576  1.00  0.00     0.211 HD
ENDBRANCH  12  20
BRANCH  13  22
ATOM     22  N   UNL     1      39.152  38.319   5.089  1.00  0.00    -0.348 N 
ATOM     23  C   UNL     1      38.909  37.194   4.256  1.00  0.00     0.217 C 
ATOM     24  H   UNL     1      40.033  38.293   5.647  1.00  0.00     0.163 HD
ATOM     25  C   UNL     1      39.889  36.051   4.206  1.00  0.00     0.114 C 
ATOM     26  O   UNL     1      37.893  37.112   3.547  1.00  0.00    -0.275 OA
ENDBRANCH  13  22
ENDBRANCH   7   8
BRANCH   7  27
ATOM     27  O   UNL     1      35.741  37.896   5.751  1.00  0.00    -0.388 OA
ATOM     28  H   UNL     1      34.779  37.693   5.928  1.00  0.00     0.211 HD
ENDBRANCH   7  27
ENDBRANCH   6   7
BRANCH   6  29
ATOM     29  O   UNL     1      35.299  41.451   5.428  1.00  0.00    -0.388 OA
ATOM     30  H   UNL     1      36.193  41.799   5.221  1.00  0.00     0.211 HD
ENDBRANCH   6  29
ENDBRANCH   5   6
ENDBRANCH   1   5
BRANCH   2  31
ATOM     31  O   UNL     1      32.212  39.904   8.495  1.00  0.00    -0.443 OA
BRANCH  31  32
ATOM     32  C   UNL     1      30.878  40.147   8.903  1.00  0.00     0.294 C 
BRANCH  32  33
ATOM     33  C   UNL     1      29.904  39.645   7.898  1.00  0.00     0.120 A 
ATOM     34  C   UNL     1      29.598  38.303   7.642  1.00  0.00     0.138 A 
ATOM     35  N   UNL     1      29.130  40.342   7.046  1.00  0.00    -0.132 NA
ATOM     36  N   UNL     1      28.679  38.256   6.672  1.00  0.00    -0.248 N 
ATOM     37  N   UNL     1      28.411  39.502   6.329  1.00  0.00    -0.067 NA
BRANCH  36  38
ATOM     38  C   UNL     1      28.058  37.095   6.073  1.00  0.00     0.181 C 
BRANCH  38  39
ATOM     39  C   UNL     1      27.234  36.378   7.080  1.00  0.00    -0.025 A 
ATOM     40  C   UNL     1      27.571  35.111   7.504  1.00  0.00     0.006 A 
ATOM     41  C   UNL     1      26.120  36.972   7.603  1.00  0.00     0.021 A 
ATOM     42  C   UNL     1      26.798  34.434   8.451  1.00  0.00     0.002 A 
ATOM     43  C   UNL     1      25.340  36.307   8.548  1.00  0.00     0.018 A 
ATOM     44  C   UNL     1      25.684  35.033   8.972  1.00  0.00     0.016 A 
ATOM     45  Br  UNL     1      23.800  37.165   9.253  1.00  0.00    -0.051 Br
ENDBRANCH  38  39
ENDBRANCH  36  38
ENDBRANCH  32  33
ENDBRANCH  31  32
ENDBRANCH   2  31
TORSDOF 16
BEGIN_RES LYS A 131
REMARK  4 active torsions:
REMARK  status: ('A' for Active; 'I' for Inactive)
REMARK    1  A    between atoms: CA   and  CB  
REMARK    2  A    between atoms: CB   and  CG  
REMARK    3  A    between atoms: CG   and  CD  
REMARK    4  A    between atoms: CD   and  CE  
ROOT
ATOM      1  CA  LYS A 131      29.867  25.555  16.977  1.00 20.52     0.186 C 
ENDROOT
BRANCH   1   2
ATOM      2  CB  LYS A 131      28.345  25.722  17.026  1.00 20.94     0.034 C 
BRANCH   2   3
ATOM      3  CG  LYS A 131      27.600  24.408  16.849  1.00 22.96     0.005 C 
BRANCH   3   4
ATOM      4  CD  LYS A 131      26.157  24.515  17.257  1.00 24.33     0.041 C 
BRANCH   4   5
ATOM      5  CE  LYS A 131      26.073  24.905  18.729  1.00 26.91     0.338 C 
ATOM      6  NZ  LYS A 131      24.741  24.563  19.281  1.00 27.40     0.618 N 
ENDBRANCH   4   5
ENDBRANCH   3   4
ENDBRANCH   2   3
ENDBRANCH   1   2
END_RES LYS A 131
BEGIN_RES LYS A 135
REMARK  4 active torsions:
REMARK  status: ('A' for Active; 'I' for Inactive)
REMARK    5  A    between atoms: CA   and  CB  
REMARK    6  A    between atoms: CB   and  CG  
REMARK    7  A    between atoms: CG   and  CD  
REMARK    8  A    between atoms: CD   and  CE  
ROOT
ATOM      7  CA  LYS A 135      33.193  34.663   9.290  1.00 25.02     0.186 C 
ENDROOT
BRANCH   7   8
ATOM      8  CB  LYS A 135      32.060  35.360  10.034  1.00 26.63     0.034 C 
BRANCH   8   9
ATOM      9  CG  LYS A 135      30.688  34.951   9.562  1.00 29.45     0.005 C 
BRANCH   9  10
ATOM     10  CD  LYS A 135      29.710  34.911  10.727  1.00 32.00     0.041 C 
BRANCH  10  11
ATOM     11  CE  LYS A 135      30.456  34.882  12.047  1.00 34.25     0.338 C 
ATOM     12  NZ  LYS A 135      29.618  35.433  13.148  1.00 35.99     0.618 N 
ENDBRANCH  10  11
ENDBRANCH   9  10
ENDBRANCH   8   9
ENDBRANCH   7   8
END_RES LYS A 135
