REMARK VINA RESULT:    -5.177      2.076      2.984
REMARK INTER + INTRA:         -14.233
REMARK INTER:                  -8.292
REMARK INTRA:                  -5.941
REMARK UNBOUND:                -5.272
REMARK SMILES CC(=O)N[C@@H]1[C@@H](O)C[C@](O)(C(=O)O)O[C@H]1C(O)[C@H](O)CNC(=O)OCc1cn(-c2ccncc2)nn1
REMARK SMILES IDX 20 1 18 2 16 3 15 4 9 5 8 6 14 7 6 8 5 9 10 10 11 12 12 13
REMARK SMILES IDX 13 14 7 16 4 18 2 19 1 21 3 22 17 23 19 25 21 27 22 28 23 30
REMARK SMILES IDX 24 31 25 32 26 33 27 34 36 35 28 36 35 37 29 38 30 39 34 40
REMARK SMILES IDX 31 41 33 42 32 43
REMARK H PARENT 10 11 13 15 7 17 4 20 17 24 19 26 21 29
REMARK Flexibility Score: inf
ROOT
ATOM      1  C   UNL     1      27.208  27.543  19.014  1.00  0.00     0.154 C 
ENDROOT
BRANCH   1   2
ATOM      2  C   UNL     1      28.106  27.613  20.197  1.00  0.00     0.165 C 
BRANCH   2   3
ATOM      3  C   UNL     1      28.436  29.041  20.599  1.00  0.00     0.176 C 
BRANCH   3   4
ATOM      4  C   UNL     1      29.873  29.255  20.912  1.00  0.00     0.178 C 
ATOM      5  C   UNL     1      31.524  28.948  22.495  1.00  0.00     0.269 C 
ATOM      6  C   UNL     1      32.375  29.729  21.525  1.00  0.00     0.112 C 
ATOM      7  O   UNL     1      30.339  28.515  21.962  1.00  0.00    -0.332 OA
ATOM      8  C   UNL     1      31.652  30.910  20.939  1.00  0.00     0.145 C 
ATOM      9  C   UNL     1      30.172  30.716  21.203  1.00  0.00     0.142 C 
BRANCH   5  10
ATOM     10  O   UNL     1      31.327  29.641  23.689  1.00  0.00    -0.357 OA
ATOM     11  H   UNL     1      31.026  29.039  24.421  1.00  0.00     0.214 HD
ENDBRANCH   5  10
BRANCH   5  12
ATOM     12  C   UNL     1      32.317  27.720  22.854  1.00  0.00     0.364 C 
ATOM     13  O   UNL     1      32.713  27.476  24.004  1.00  0.00    -0.246 OA
BRANCH  12  14
ATOM     14  O   UNL     1      32.591  26.849  21.803  1.00  0.00    -0.477 OA
ATOM     15  H   UNL     1      33.541  26.528  21.637  1.00  0.00     0.296 HD
ENDBRANCH  12  14
ENDBRANCH   5  12
BRANCH   8  16
ATOM     16  O   UNL     1      32.088  32.116  21.488  1.00  0.00    -0.391 OA
ATOM     17  H   UNL     1      31.568  32.861  21.102  1.00  0.00     0.211 HD
ENDBRANCH   8  16
BRANCH   9  18
ATOM     18  N   UNL     1      29.363  31.607  20.404  1.00  0.00    -0.348 N 
ATOM     19  C   UNL     1      28.496  32.552  21.017  1.00  0.00     0.217 C 
ATOM     20  H   UNL     1      29.390  31.584  19.368  1.00  0.00     0.163 HD
ATOM     21  C   UNL     1      27.644  33.490  20.218  1.00  0.00     0.114 C 
ATOM     22  O   UNL     1      28.444  32.601  22.272  1.00  0.00    -0.275 OA
ENDBRANCH   9  18
ENDBRANCH   3   4
BRANCH   3  23
ATOM     23  O   UNL     1      27.537  29.520  21.516  1.00  0.00    -0.388 OA
ATOM     24  H   UNL     1      26.718  28.953  21.495  1.00  0.00     0.211 HD
ENDBRANCH   3  23
ENDBRANCH   2   3
BRANCH   2  25
ATOM     25  O   UNL     1      29.324  26.989  19.994  1.00  0.00    -0.388 OA
ATOM     26  H   UNL     1      29.801  26.766  20.824  1.00  0.00     0.211 HD
ENDBRANCH   2  25
ENDBRANCH   1   2
BRANCH   1  27
ATOM     27  N   UNL     1      27.582  28.505  18.017  1.00  0.00    -0.319 N 
ATOM     28  C   UNL     1      26.755  29.161  17.096  1.00  0.00     0.407 C 
ATOM     29  H   UNL     1      28.625  28.770  17.953  1.00  0.00     0.167 HD
ATOM     30  O   UNL     1      25.545  28.939  17.061  1.00  0.00    -0.225 OA
BRANCH  28  31
ATOM     31  O   UNL     1      27.248  30.099  16.169  1.00  0.00    -0.443 OA
BRANCH  31  32
ATOM     32  C   UNL     1      28.583  29.952  15.670  1.00  0.00     0.294 C 
BRANCH  32  33
ATOM     33  C   UNL     1      29.473  30.971  16.233  1.00  0.00     0.121 A 
ATOM     34  C   UNL     1      30.209  31.942  15.594  1.00  0.00     0.144 A 
ATOM     35  N   UNL     1      29.725  31.128  17.550  1.00  0.00    -0.131 NA
ATOM     36  N   UNL     1      30.869  32.635  16.550  1.00  0.00    -0.220 N 
ATOM     37  N   UNL     1      30.571  32.137  17.723  1.00  0.00    -0.062 NA
BRANCH  36  38
ATOM     38  C   UNL     1      31.754  33.738  16.346  1.00  0.00     0.069 A 
ATOM     39  C   UNL     1      32.034  34.565  17.407  1.00  0.00     0.048 A 
ATOM     40  C   UNL     1      32.316  33.967  15.096  1.00  0.00     0.048 A 
ATOM     41  C   UNL     1      32.890  35.624  17.193  1.00  0.00     0.113 A 
ATOM     42  C   UNL     1      33.158  35.029  14.934  1.00  0.00     0.113 A 
ATOM     43  N   UNL     1      33.426  35.833  15.984  1.00  0.00    -0.265 NA
ENDBRANCH  36  38
ENDBRANCH  32  33
ENDBRANCH  31  32
ENDBRANCH  28  31
ENDBRANCH   1  27
TORSDOF 15
BEGIN_RES LYS A 131
REMARK  4 active torsions:
REMARK  status: ('A' for Active; 'I' for Inactive)
REMARK    1  A    between atoms: CA   and  CB  
REMARK    2  A    between atoms: CB   and  CG  
REMARK    3  A    between atoms: CG   and  CD  
REMARK    4  A    between atoms: CD   and  CE  
ROOT
ATOM      1  CA  LYS A 131      29.867  25.555  16.977  1.00 20.52     0.186 C 
ENDROOT
BRANCH   1   2
ATOM      2  CB  LYS A 131      28.345  25.722  17.026  1.00 20.94     0.034 C 
BRANCH   2   3
ATOM      3  CG  LYS A 131      27.601  24.401  16.903  1.00 22.96     0.005 C 
BRANCH   3   4
ATOM      4  CD  LYS A 131      26.151  24.530  17.278  1.00 24.33     0.041 C 
BRANCH   4   5
ATOM      5  CE  LYS A 131      25.714  23.293  18.055  1.00 26.91     0.338 C 
ATOM      6  NZ  LYS A 131      24.302  22.961  17.750  1.00 27.40     0.618 N 
ENDBRANCH   4   5
ENDBRANCH   3   4
ENDBRANCH   2   3
ENDBRANCH   1   2
END_RES LYS A 131
BEGIN_RES LYS A 135
REMARK  4 active torsions:
REMARK  status: ('A' for Active; 'I' for Inactive)
REMARK    5  A    between atoms: CA   and  CB  
REMARK    6  A    between atoms: CB   and  CG  
REMARK    7  A    between atoms: CG   and  CD  
REMARK    8  A    between atoms: CD   and  CE  
ROOT
ATOM      7  CA  LYS A 135      33.193  34.663   9.290  1.00 25.02     0.186 C 
ENDROOT
BRANCH   7   8
ATOM      8  CB  LYS A 135      32.060  35.360  10.034  1.00 26.63     0.034 C 
BRANCH   8   9
ATOM      9  CG  LYS A 135      30.733  34.658   9.904  1.00 29.45     0.005 C 
BRANCH   9  10
ATOM     10  CD  LYS A 135      30.336  34.526   8.442  1.00 32.00     0.041 C 
BRANCH  10  11
ATOM     11  CE  LYS A 135      28.827  34.554   8.295  1.00 34.25     0.338 C 
ATOM     12  NZ  LYS A 135      28.165  33.828   9.415  1.00 35.99     0.618 N 
ENDBRANCH  10  11
ENDBRANCH   9  10
ENDBRANCH   8   9
ENDBRANCH   7   8
END_RES LYS A 135
