REMARK VINA RESULT:    -5.291      5.078      8.226
REMARK INTER + INTRA:         -14.319
REMARK INTER:                  -8.659
REMARK INTRA:                  -5.660
REMARK UNBOUND:                -5.161
REMARK SMILES CC(=O)N[C@@H]1[C@@H](O)C[C@](O)(C(=O)O)O[C@H]1C(O)[C@H](O)CNC(=O)OCc1cn(-c2ccc(Br)cc2)nn1
REMARK SMILES IDX 20 1 18 2 16 3 15 4 9 5 8 6 14 7 6 8 5 9 10 10 11 12 12 13
REMARK SMILES IDX 13 14 7 16 4 18 2 19 1 21 3 22 17 23 19 25 21 27 22 28 23 30
REMARK SMILES IDX 24 31 25 32 26 33 27 34 37 35 28 36 36 37 29 38 30 39 35 40
REMARK SMILES IDX 31 41 34 42 32 43 33 44
REMARK H PARENT 10 11 13 15 7 17 4 20 17 24 19 26 21 29
REMARK Flexibility Score: inf
ROOT
ATOM      1  C   UNL     1      30.519  33.163  17.080  1.00  0.00     0.154 C 
ENDROOT
BRANCH   1   2
ATOM      2  C   UNL     1      30.833  32.799  15.660  1.00  0.00     0.165 C 
BRANCH   2   3
ATOM      3  C   UNL     1      29.823  33.221  14.652  1.00  0.00     0.176 C 
BRANCH   3   4
ATOM      4  C   UNL     1      30.113  34.558  14.002  1.00  0.00     0.178 C 
ATOM      5  C   UNL     1      31.883  36.098  14.024  1.00  0.00     0.269 C 
ATOM      6  C   UNL     1      30.819  37.151  13.889  1.00  0.00     0.112 C 
ATOM      7  O   UNL     1      31.374  34.925  14.458  1.00  0.00    -0.332 OA
ATOM      8  C   UNL     1      29.731  36.844  14.892  1.00  0.00     0.145 C 
ATOM      9  C   UNL     1      29.062  35.537  14.445  1.00  0.00     0.142 C 
BRANCH   5  10
ATOM     10  O   UNL     1      32.823  36.524  15.004  1.00  0.00    -0.357 OA
ATOM     11  H   UNL     1      32.705  37.508  15.056  1.00  0.00     0.214 HD
ENDBRANCH   5  10
BRANCH   5  12
ATOM     12  C   UNL     1      32.610  35.886  12.742  1.00  0.00     0.364 C 
ATOM     13  O   UNL     1      32.582  36.694  11.797  1.00  0.00    -0.246 OA
BRANCH  12  14
ATOM     14  O   UNL     1      33.358  34.733  12.583  1.00  0.00    -0.477 OA
ATOM     15  H   UNL     1      33.075  33.968  11.969  1.00  0.00     0.296 HD
ENDBRANCH  12  14
ENDBRANCH   5  12
BRANCH   8  16
ATOM     16  O   UNL     1      30.351  36.565  16.109  1.00  0.00    -0.391 OA
ATOM     17  H   UNL     1      31.292  36.824  16.135  1.00  0.00     0.211 HD
ENDBRANCH   8  16
BRANCH   9  18
ATOM     18  N   UNL     1      28.244  35.897  13.320  1.00  0.00    -0.348 N 
ATOM     19  C   UNL     1      26.947  35.384  13.083  1.00  0.00     0.217 C 
ATOM     20  H   UNL     1      28.604  36.585  12.609  1.00  0.00     0.163 HD
ATOM     21  C   UNL     1      26.136  35.787  11.896  1.00  0.00     0.114 C 
ATOM     22  O   UNL     1      26.462  34.568  13.892  1.00  0.00    -0.275 OA
ENDBRANCH   9  18
ENDBRANCH   3   4
BRANCH   3  23
ATOM     23  O   UNL     1      28.560  33.265  15.292  1.00  0.00    -0.388 OA
ATOM     24  H   UNL     1      27.955  32.692  14.775  1.00  0.00     0.211 HD
ENDBRANCH   3  23
ENDBRANCH   2   3
BRANCH   2  25
ATOM     25  O   UNL     1      30.963  31.394  15.606  1.00  0.00    -0.388 OA
ATOM     26  H   UNL     1      30.487  30.967  16.360  1.00  0.00     0.211 HD
ENDBRANCH   2  25
ENDBRANCH   1   2
BRANCH   1  27
ATOM     27  N   UNL     1      29.907  32.138  17.860  1.00  0.00    -0.319 N 
ATOM     28  C   UNL     1      28.620  32.366  18.470  1.00  0.00     0.407 C 
ATOM     29  H   UNL     1      30.303  31.196  18.056  1.00  0.00     0.167 HD
ATOM     30  O   UNL     1      28.079  33.483  18.287  1.00  0.00    -0.225 OA
BRANCH  28  31
ATOM     31  O   UNL     1      28.000  31.388  19.233  1.00  0.00    -0.443 OA
BRANCH  31  32
ATOM     32  C   UNL     1      27.993  30.077  18.684  1.00  0.00     0.294 C 
BRANCH  32  33
ATOM     33  C   UNL     1      27.348  30.175  17.343  1.00  0.00     0.121 A 
ATOM     34  C   UNL     1      26.022  29.925  17.046  1.00  0.00     0.144 A 
ATOM     35  N   UNL     1      27.915  30.520  16.171  1.00  0.00    -0.131 NA
ATOM     36  N   UNL     1      25.826  30.122  15.731  1.00  0.00    -0.220 N 
ATOM     37  N   UNL     1      26.991  30.480  15.243  1.00  0.00    -0.062 NA
BRANCH  36  38
ATOM     38  C   UNL     1      24.635  29.991  14.960  1.00  0.00     0.066 A 
ATOM     39  C   UNL     1      23.495  29.389  15.457  1.00  0.00     0.029 A 
ATOM     40  C   UNL     1      24.574  30.469  13.667  1.00  0.00     0.029 A 
ATOM     41  C   UNL     1      22.346  29.270  14.697  1.00  0.00     0.018 A 
ATOM     42  C   UNL     1      23.422  30.351  12.898  1.00  0.00     0.018 A 
ATOM     43  C   UNL     1      22.291  29.751  13.401  1.00  0.00     0.018 A 
ATOM     44  Br  UNL     1      20.683  29.561  12.398  1.00  0.00    -0.051 Br
ENDBRANCH  36  38
ENDBRANCH  32  33
ENDBRANCH  31  32
ENDBRANCH  28  31
ENDBRANCH   1  27
TORSDOF 15
BEGIN_RES LYS A 131
REMARK  4 active torsions:
REMARK  status: ('A' for Active; 'I' for Inactive)
REMARK    1  A    between atoms: CA   and  CB  
REMARK    2  A    between atoms: CB   and  CG  
REMARK    3  A    between atoms: CG   and  CD  
REMARK    4  A    between atoms: CD   and  CE  
ROOT
ATOM      1  CA  LYS A 131      29.867  25.555  16.977  1.00 20.52     0.186 C 
ENDROOT
BRANCH   1   2
ATOM      2  CB  LYS A 131      28.345  25.722  17.026  1.00 20.94     0.034 C 
BRANCH   2   3
ATOM      3  CG  LYS A 131      27.600  24.409  16.837  1.00 22.96     0.005 C 
BRANCH   3   4
ATOM      4  CD  LYS A 131      26.551  24.196  17.893  1.00 24.33     0.041 C 
BRANCH   4   5
ATOM      5  CE  LYS A 131      25.201  23.950  17.227  1.00 26.91     0.338 C 
ATOM      6  NZ  LYS A 131      24.741  22.565  17.485  1.00 27.40     0.618 N 
ENDBRANCH   4   5
ENDBRANCH   3   4
ENDBRANCH   2   3
ENDBRANCH   1   2
END_RES LYS A 131
BEGIN_RES LYS A 135
REMARK  4 active torsions:
REMARK  status: ('A' for Active; 'I' for Inactive)
REMARK    5  A    between atoms: CA   and  CB  
REMARK    6  A    between atoms: CB   and  CG  
REMARK    7  A    between atoms: CG   and  CD  
REMARK    8  A    between atoms: CD   and  CE  
ROOT
ATOM      7  CA  LYS A 135      33.193  34.663   9.290  1.00 25.02     0.186 C 
ENDROOT
BRANCH   7   8
ATOM      8  CB  LYS A 135      32.060  35.360  10.034  1.00 26.63     0.034 C 
BRANCH   8   9
ATOM      9  CG  LYS A 135      30.731  35.270   9.329  1.00 29.45     0.005 C 
BRANCH   9  10
ATOM     10  CD  LYS A 135      29.620  34.948  10.316  1.00 32.00     0.041 C 
BRANCH  10  11
ATOM     11  CE  LYS A 135      28.597  34.025   9.684  1.00 34.25     0.338 C 
ATOM     12  NZ  LYS A 135      28.202  34.507   8.332  1.00 35.99     0.618 N 
ENDBRANCH  10  11
ENDBRANCH   9  10
ENDBRANCH   8   9
ENDBRANCH   7   8
END_RES LYS A 135
