REMARK VINA RESULT:    -6.264      0.000      0.000
REMARK INTER + INTRA:         -16.973
REMARK INTER:                 -12.192
REMARK INTRA:                  -4.781
REMARK UNBOUND:                -5.216
REMARK SMILES CC(=O)N[C@@H]1[C@@H](O)C[C@](O)(C(=O)O)O[C@H]1C(O)[C@H](O)CNC(=O)OCc1cn(-c2cc(C(=O)O)nc(-c3ccccc3)c2)nn1
REMARK SMILES IDX 21 1 22 2 23 3 20 5 18 6 16 7 15 8 9 9 8 10 14 11 6 12 5 13
REMARK SMILES IDX 10 14 11 16 12 17 13 18 7 20 4 22 2 23 1 25 3 26 17 27 19 29
REMARK SMILES IDX 24 31 25 32 26 33 27 34 45 35 28 36 44 37 29 38 30 39 43 40
REMARK SMILES IDX 31 41 36 42 35 43 32 44 33 45 34 46 37 48 38 49 42 50 39 51
REMARK SMILES IDX 41 52 40 53
REMARK H PARENT 21 4 10 15 13 19 7 21 4 24 17 28 19 30 34 47
REMARK Flexibility Score: inf
ROOT
ATOM      1  N   UNL     1      26.044  36.301  15.592  1.00  0.00    -0.319 N 
ATOM      2  C   UNL     1      25.336  35.263  16.277  1.00  0.00     0.407 C 
ATOM      3  O   UNL     1      25.930  34.647  17.199  1.00  0.00    -0.225 OA
ATOM      4  H   UNL     1      25.487  36.780  14.826  1.00  0.00     0.167 HD
ENDROOT
BRANCH   1   5
ATOM      5  C   UNL     1      27.397  36.677  15.899  1.00  0.00     0.154 C 
BRANCH   5   6
ATOM      6  C   UNL     1      28.306  36.431  14.733  1.00  0.00     0.165 C 
BRANCH   6   7
ATOM      7  C   UNL     1      28.358  34.930  14.483  1.00  0.00     0.176 C 
BRANCH   7   8
ATOM      8  C   UNL     1      29.417  34.308  15.324  1.00  0.00     0.178 C 
ATOM      9  C   UNL     1      31.644  33.647  15.216  1.00  0.00     0.269 C 
ATOM     10  C   UNL     1      31.417  33.502  16.716  1.00  0.00     0.112 C 
ATOM     11  O   UNL     1      30.612  34.280  14.573  1.00  0.00    -0.332 OA
ATOM     12  C   UNL     1      30.208  32.658  16.911  1.00  0.00     0.145 C 
ATOM     13  C   UNL     1      29.189  32.906  15.776  1.00  0.00     0.142 C 
BRANCH   9  14
ATOM     14  O   UNL     1      31.813  32.320  14.754  1.00  0.00    -0.357 OA
ATOM     15  H   UNL     1      32.728  32.063  15.038  1.00  0.00     0.214 HD
ENDBRANCH   9  14
BRANCH   9  16
ATOM     16  C   UNL     1      32.885  34.393  14.933  1.00  0.00     0.364 C 
ATOM     17  O   UNL     1      33.187  35.387  15.617  1.00  0.00    -0.246 OA
BRANCH  16  18
ATOM     18  O   UNL     1      33.721  33.997  13.911  1.00  0.00    -0.477 OA
ATOM     19  H   UNL     1      33.773  34.483  13.019  1.00  0.00     0.296 HD
ENDBRANCH  16  18
ENDBRANCH   9  16
BRANCH  12  20
ATOM     20  O   UNL     1      30.475  31.313  17.045  1.00  0.00    -0.391 OA
ATOM     21  H   UNL     1      29.654  30.812  17.247  1.00  0.00     0.211 HD
ENDBRANCH  12  20
BRANCH  13  22
ATOM     22  N   UNL     1      27.875  32.606  16.276  1.00  0.00    -0.348 N 
ATOM     23  C   UNL     1      27.287  31.300  16.104  1.00  0.00     0.217 C 
ATOM     24  H   UNL     1      27.340  33.321  16.773  1.00  0.00     0.163 HD
ATOM     25  C   UNL     1      25.947  30.951  16.599  1.00  0.00     0.114 C 
ATOM     26  O   UNL     1      28.008  30.459  15.488  1.00  0.00    -0.275 OA
ENDBRANCH  13  22
ENDBRANCH   7   8
BRANCH   7  27
ATOM     27  O   UNL     1      28.427  34.592  13.159  1.00  0.00    -0.388 OA
ATOM     28  H   UNL     1      28.784  35.272  12.561  1.00  0.00     0.211 HD
ENDBRANCH   7  27
ENDBRANCH   6   7
BRANCH   6  29
ATOM     29  O   UNL     1      29.580  36.869  15.149  1.00  0.00    -0.388 OA
ATOM     30  H   UNL     1      29.918  36.166  15.742  1.00  0.00     0.211 HD
ENDBRANCH   6  29
ENDBRANCH   5   6
ENDBRANCH   1   5
BRANCH   2  31
ATOM     31  O   UNL     1      24.030  34.952  15.929  1.00  0.00    -0.443 OA
BRANCH  31  32
ATOM     32  C   UNL     1      23.798  33.730  15.258  1.00  0.00     0.294 C 
BRANCH  32  33
ATOM     33  C   UNL     1      23.513  34.060  13.837  1.00  0.00     0.121 A 
ATOM     34  C   UNL     1      24.409  34.587  12.899  1.00  0.00     0.144 A 
ATOM     35  N   UNL     1      22.363  33.933  13.136  1.00  0.00    -0.131 NA
ATOM     36  N   UNL     1      23.788  34.750  11.718  1.00  0.00    -0.220 N 
ATOM     37  N   UNL     1      22.552  34.347  11.889  1.00  0.00    -0.062 NA
BRANCH  36  38
ATOM     38  C   UNL     1      24.433  35.275  10.539  1.00  0.00     0.071 A 
ATOM     39  C   UNL     1      23.774  36.100   9.664  1.00  0.00     0.064 A 
ATOM     40  C   UNL     1      25.754  34.949  10.257  1.00  0.00     0.057 A 
ATOM     41  C   UNL     1      24.359  36.617   8.527  1.00  0.00     0.151 A 
ATOM     42  C   UNL     1      26.349  35.456   9.131  1.00  0.00     0.073 A 
ATOM     43  N   UNL     1      25.637  36.265   8.313  1.00  0.00    -0.241 NA
BRANCH  41  44
ATOM     44  C   UNL     1      23.642  37.491   7.614  1.00  0.00     0.354 C 
ATOM     45  O   UNL     1      22.502  37.159   7.230  1.00  0.00    -0.245 OA
BRANCH  44  46
ATOM     46  O   UNL     1      24.189  38.673   7.165  1.00  0.00    -0.477 OA
ATOM     47  H   UNL     1      24.975  38.707   6.506  1.00  0.00     0.297 HD
ENDBRANCH  44  46
ENDBRANCH  41  44
BRANCH  42  48
ATOM     48  C   UNL     1      27.749  35.126   8.807  1.00  0.00     0.000 A 
ATOM     49  C   UNL     1      28.468  34.380   9.716  1.00  0.00     0.010 A 
ATOM     50  C   UNL     1      28.308  35.554   7.637  1.00  0.00     0.010 A 
ATOM     51  C   UNL     1      29.774  34.071   9.418  1.00  0.00     0.001 A 
ATOM     52  C   UNL     1      29.623  35.221   7.376  1.00  0.00     0.001 A 
ATOM     53  C   UNL     1      30.384  34.477   8.250  1.00  0.00     0.000 A 
ENDBRANCH  42  48
ENDBRANCH  36  38
ENDBRANCH  32  33
ENDBRANCH  31  32
ENDBRANCH   2  31
TORSDOF 18
BEGIN_RES LYS A 131
REMARK  4 active torsions:
REMARK  status: ('A' for Active; 'I' for Inactive)
REMARK    1  A    between atoms: CA   and  CB  
REMARK    2  A    between atoms: CB   and  CG  
REMARK    3  A    between atoms: CG   and  CD  
REMARK    4  A    between atoms: CD   and  CE  
ROOT
ATOM      1  CA  LYS A 131      29.867  25.555  16.977  1.00 20.52     0.186 C 
ENDROOT
BRANCH   1   2
ATOM      2  CB  LYS A 131      28.345  25.722  17.026  1.00 20.94     0.034 C 
BRANCH   2   3
ATOM      3  CG  LYS A 131      27.601  24.403  16.887  1.00 22.96     0.005 C 
BRANCH   3   4
ATOM      4  CD  LYS A 131      26.209  24.475  17.451  1.00 24.33     0.041 C 
BRANCH   4   5
ATOM      5  CE  LYS A 131      25.638  23.066  17.579  1.00 26.91     0.338 C 
ATOM      6  NZ  LYS A 131      24.858  22.935  18.832  1.00 27.40     0.618 N 
ENDBRANCH   4   5
ENDBRANCH   3   4
ENDBRANCH   2   3
ENDBRANCH   1   2
END_RES LYS A 131
BEGIN_RES LYS A 135
REMARK  4 active torsions:
REMARK  status: ('A' for Active; 'I' for Inactive)
REMARK    5  A    between atoms: CA   and  CB  
REMARK    6  A    between atoms: CB   and  CG  
REMARK    7  A    between atoms: CG   and  CD  
REMARK    8  A    between atoms: CD   and  CE  
ROOT
ATOM      7  CA  LYS A 135      33.193  34.663   9.290  1.00 25.02     0.186 C 
ENDROOT
BRANCH   7   8
ATOM      8  CB  LYS A 135      32.060  35.360  10.034  1.00 26.63     0.034 C 
BRANCH   8   9
ATOM      9  CG  LYS A 135      32.512  36.094  11.270  1.00 29.45     0.005 C 
BRANCH   9  10
ATOM     10  CD  LYS A 135      31.765  37.410  11.416  1.00 32.00     0.041 C 
BRANCH  10  11
ATOM     11  CE  LYS A 135      30.270  37.168  11.497  1.00 34.25     0.338 C 
ATOM     12  NZ  LYS A 135      29.553  37.867  10.395  1.00 35.99     0.618 N 
ENDBRANCH  10  11
ENDBRANCH   9  10
ENDBRANCH   8   9
ENDBRANCH   7   8
END_RES LYS A 135
