REMARK VINA RESULT:    -5.030      3.400      7.637
REMARK INTER + INTRA:         -14.226
REMARK INTER:                  -8.478
REMARK INTRA:                  -5.748
REMARK UNBOUND:                -5.226
REMARK SMILES COc1ccc(-n2cc(COC(=O)NC[C@@H](O)C(O)[C@@H]3O[C@@](O)(C(=O)O)C[C@H](O)[C@H]3NC(C)=O)nn2)cc1
REMARK SMILES IDX 14 1 12 2 13 3 15 5 16 6 18 7 20 8 22 9 27 10 21 11 28 12
REMARK SMILES IDX 30 13 23 14 24 16 25 17 26 18 29 20 31 22 32 23 33 25 34 26
REMARK SMILES IDX 19 27 17 29 11 31 10 32 9 33 8 34 35 35 7 36 36 37 6 38 5 39
REMARK SMILES IDX 37 40 4 41 38 42 3 43 2 44 1 45
REMARK H PARENT 14 4 23 15 26 19 29 21 31 24 19 28 17 30
REMARK Flexibility Score: inf
ROOT
ATOM      1  N   UNL     1      31.866  34.138  17.314  1.00  0.00    -0.319 N 
ATOM      2  C   UNL     1      32.594  34.688  16.236  1.00  0.00     0.407 C 
ATOM      3  O   UNL     1      33.340  35.669  16.371  1.00  0.00    -0.225 OA
ATOM      4  H   UNL     1      31.241  33.311  17.048  1.00  0.00     0.167 HD
ENDROOT
BRANCH   1   5
ATOM      5  C   UNL     1      31.858  34.527  18.666  1.00  0.00     0.154 C 
BRANCH   5   6
ATOM      6  C   UNL     1      30.628  34.435  19.449  1.00  0.00     0.165 C 
BRANCH   6   7
ATOM      7  C   UNL     1      30.163  33.151  19.926  1.00  0.00     0.176 C 
BRANCH   7   8
ATOM      8  C   UNL     1      30.038  32.033  18.868  1.00  0.00     0.178 C 
ATOM      9  C   UNL     1      28.661  31.935  16.956  1.00  0.00     0.269 C 
ATOM     10  C   UNL     1      27.657  31.035  17.694  1.00  0.00     0.112 C 
ATOM     11  O   UNL     1      29.293  32.659  17.884  1.00  0.00    -0.332 OA
ATOM     12  C   UNL     1      28.468  30.086  18.488  1.00  0.00     0.145 C 
ATOM     13  C   UNL     1      29.528  30.766  19.375  1.00  0.00     0.142 C 
BRANCH   9  14
ATOM     14  O   UNL     1      27.818  32.850  16.269  1.00  0.00    -0.357 OA
ATOM     15  H   UNL     1      27.230  33.332  16.900  1.00  0.00     0.214 HD
ENDBRANCH   9  14
BRANCH   9  16
ATOM     16  C   UNL     1      29.454  31.236  15.965  1.00  0.00     0.364 C 
ATOM     17  O   UNL     1      29.013  30.193  15.418  1.00  0.00    -0.246 OA
BRANCH  16  18
ATOM     18  O   UNL     1      30.724  31.615  15.527  1.00  0.00    -0.477 OA
ATOM     19  H   UNL     1      30.902  31.929  14.570  1.00  0.00     0.296 HD
ENDBRANCH  16  18
ENDBRANCH   9  16
BRANCH  12  20
ATOM     20  O   UNL     1      27.708  29.271  19.343  1.00  0.00    -0.391 OA
ATOM     21  H   UNL     1      26.776  29.301  18.960  1.00  0.00     0.211 HD
ENDBRANCH  12  20
BRANCH  13  22
ATOM     22  N   UNL     1      30.464  29.704  19.583  1.00  0.00    -0.348 N 
ATOM     23  C   UNL     1      30.632  28.926  20.728  1.00  0.00     0.217 C 
ATOM     24  H   UNL     1      31.100  29.500  18.755  1.00  0.00     0.163 HD
ATOM     25  C   UNL     1      31.665  27.847  20.800  1.00  0.00     0.114 C 
ATOM     26  O   UNL     1      29.890  29.164  21.687  1.00  0.00    -0.275 OA
ENDBRANCH  13  22
ENDBRANCH   7   8
BRANCH   7  27
ATOM     27  O   UNL     1      30.941  32.723  20.996  1.00  0.00    -0.388 OA
ATOM     28  H   UNL     1      30.566  31.919  21.436  1.00  0.00     0.211 HD
ENDBRANCH   7  27
ENDBRANCH   6   7
BRANCH   6  29
ATOM     29  O   UNL     1      29.605  35.204  18.823  1.00  0.00    -0.388 OA
ATOM     30  H   UNL     1      28.714  34.892  19.130  1.00  0.00     0.211 HD
ENDBRANCH   6  29
ENDBRANCH   5   6
ENDBRANCH   1   5
BRANCH   2  31
ATOM     31  O   UNL     1      32.502  34.138  14.941  1.00  0.00    -0.443 OA
BRANCH  31  32
ATOM     32  C   UNL     1      32.173  34.968  13.855  1.00  0.00     0.294 C 
BRANCH  32  33
ATOM     33  C   UNL     1      30.735  34.861  13.564  1.00  0.00     0.121 A 
ATOM     34  C   UNL     1      30.130  35.420  12.433  1.00  0.00     0.144 A 
ATOM     35  N   UNL     1      29.744  34.270  14.227  1.00  0.00    -0.131 NA
ATOM     36  N   UNL     1      28.815  35.139  12.472  1.00  0.00    -0.220 N 
ATOM     37  N   UNL     1      28.619  34.434  13.584  1.00  0.00    -0.062 NA
BRANCH  36  38
ATOM     38  C   UNL     1      27.826  35.512  11.523  1.00  0.00     0.067 A 
ATOM     39  C   UNL     1      27.737  36.778  10.990  1.00  0.00     0.032 A 
ATOM     40  C   UNL     1      26.882  34.581  11.083  1.00  0.00     0.032 A 
ATOM     41  C   UNL     1      26.764  37.123  10.060  1.00  0.00     0.048 A 
ATOM     42  C   UNL     1      25.915  34.927  10.160  1.00  0.00     0.048 A 
ATOM     43  C   UNL     1      25.841  36.197   9.636  1.00  0.00     0.119 A 
BRANCH  43  44
ATOM     44  O   UNL     1      24.889  36.540   8.725  1.00  0.00    -0.497 OA
ATOM     45  C   UNL     1      25.166  37.525   7.752  1.00  0.00     0.278 C 
ENDBRANCH  43  44
ENDBRANCH  36  38
ENDBRANCH  32  33
ENDBRANCH  31  32
ENDBRANCH   2  31
TORSDOF 16
BEGIN_RES LYS A 131
REMARK  4 active torsions:
REMARK  status: ('A' for Active; 'I' for Inactive)
REMARK    1  A    between atoms: CA   and  CB  
REMARK    2  A    between atoms: CB   and  CG  
REMARK    3  A    between atoms: CG   and  CD  
REMARK    4  A    between atoms: CD   and  CE  
ROOT
ATOM      1  CA  LYS A 131      29.867  25.555  16.977  1.00 20.52     0.186 C 
ENDROOT
BRANCH   1   2
ATOM      2  CB  LYS A 131      28.345  25.722  17.026  1.00 20.94     0.034 C 
BRANCH   2   3
ATOM      3  CG  LYS A 131      27.601  24.406  16.858  1.00 22.96     0.005 C 
BRANCH   3   4
ATOM      4  CD  LYS A 131      26.526  24.228  17.894  1.00 24.33     0.041 C 
BRANCH   4   5
ATOM      5  CE  LYS A 131      25.157  24.277  17.222  1.00 26.91     0.338 C 
ATOM      6  NZ  LYS A 131      24.333  23.117  17.636  1.00 27.40     0.618 N 
ENDBRANCH   4   5
ENDBRANCH   3   4
ENDBRANCH   2   3
ENDBRANCH   1   2
END_RES LYS A 131
BEGIN_RES LYS A 135
REMARK  4 active torsions:
REMARK  status: ('A' for Active; 'I' for Inactive)
REMARK    5  A    between atoms: CA   and  CB  
REMARK    6  A    between atoms: CB   and  CG  
REMARK    7  A    between atoms: CG   and  CD  
REMARK    8  A    between atoms: CD   and  CE  
ROOT
ATOM      7  CA  LYS A 135      33.193  34.663   9.290  1.00 25.02     0.186 C 
ENDROOT
BRANCH   7   8
ATOM      8  CB  LYS A 135      32.060  35.360  10.034  1.00 26.63     0.034 C 
BRANCH   8   9
ATOM      9  CG  LYS A 135      30.869  35.669   9.165  1.00 29.45     0.005 C 
BRANCH   9  10
ATOM     10  CD  LYS A 135      30.264  34.389   8.608  1.00 32.00     0.041 C 
BRANCH  10  11
ATOM     11  CE  LYS A 135      28.900  34.663   8.003  1.00 34.25     0.338 C 
ATOM     12  NZ  LYS A 135      28.870  35.990   7.328  1.00 35.99     0.618 N 
ENDBRANCH  10  11
ENDBRANCH   9  10
ENDBRANCH   8   9
ENDBRANCH   7   8
END_RES LYS A 135
