REMARK VINA RESULT:    -5.709      2.017      3.410
REMARK INTER + INTRA:         -15.728
REMARK INTER:                  -9.619
REMARK INTRA:                  -6.109
REMARK UNBOUND:                -5.012
REMARK SMILES CC(=O)N[C@@H]1[C@@H](O)C[C@](O)(C(=O)O)O[C@H]1C(O)[C@H](O)CNC(=O)OCc1cn(CC(O)c2ccccc2)nn1
REMARK SMILES IDX 21 1 22 2 23 3 20 5 18 6 16 7 15 8 9 9 8 10 14 11 6 12 5 13
REMARK SMILES IDX 10 14 11 16 12 17 13 18 7 20 4 22 2 23 1 25 3 26 17 27 19 29
REMARK SMILES IDX 24 31 25 32 26 33 27 34 39 35 28 36 38 37 29 38 30 39 31 40
REMARK SMILES IDX 32 42 33 43 37 44 34 45 36 46 35 47
REMARK H PARENT 21 4 10 15 13 19 7 21 4 24 17 28 19 30 31 41
REMARK Flexibility Score: inf
ROOT
ATOM      1  N   UNL     1      27.572  27.706  18.573  1.00  0.00    -0.319 N 
ATOM      2  C   UNL     1      26.258  28.109  18.226  1.00  0.00     0.407 C 
ATOM      3  O   UNL     1      25.387  28.160  19.124  1.00  0.00    -0.225 OA
ATOM      4  H   UNL     1      28.252  27.693  17.751  1.00  0.00     0.167 HD
ENDROOT
BRANCH   1   5
ATOM      5  C   UNL     1      28.001  27.338  19.902  1.00  0.00     0.154 C 
BRANCH   5   6
ATOM      6  C   UNL     1      28.537  28.522  20.678  1.00  0.00     0.165 C 
BRANCH   6   7
ATOM      7  C   UNL     1      30.009  28.301  21.029  1.00  0.00     0.176 C 
BRANCH   7   8
ATOM      8  C   UNL     1      30.908  29.439  20.627  1.00  0.00     0.178 C 
ATOM      9  C   UNL     1      32.545  29.018  22.246  1.00  0.00     0.269 C 
ATOM     10  C   UNL     1      31.679  29.683  23.239  1.00  0.00     0.112 C 
ATOM     11  O   UNL     1      32.221  29.077  20.933  1.00  0.00    -0.332 OA
ATOM     12  C   UNL     1      30.739  30.736  22.740  1.00  0.00     0.145 C 
ATOM     13  C   UNL     1      30.523  30.715  21.246  1.00  0.00     0.142 C 
BRANCH   9  14
ATOM     14  O   UNL     1      32.536  27.631  22.583  1.00  0.00    -0.357 OA
ATOM     15  H   UNL     1      33.477  27.400  22.742  1.00  0.00     0.214 HD
ENDBRANCH   9  14
BRANCH   9  16
ATOM     16  C   UNL     1      33.973  29.441  22.499  1.00  0.00     0.364 C 
ATOM     17  O   UNL     1      34.324  30.644  22.493  1.00  0.00    -0.246 OA
BRANCH  16  18
ATOM     18  O   UNL     1      34.944  28.476  22.747  1.00  0.00    -0.477 OA
ATOM     19  H   UNL     1      35.921  28.599  22.531  1.00  0.00     0.296 HD
ENDBRANCH  16  18
ENDBRANCH   9  16
BRANCH  12  20
ATOM     20  O   UNL     1      29.492  30.617  23.417  1.00  0.00    -0.391 OA
ATOM     21  H   UNL     1      29.249  29.672  23.386  1.00  0.00     0.211 HD
ENDBRANCH  12  20
BRANCH  13  22
ATOM     22  N   UNL     1      31.242  31.867  20.726  1.00  0.00    -0.348 N 
ATOM     23  C   UNL     1      30.811  32.636  19.617  1.00  0.00     0.217 C 
ATOM     24  H   UNL     1      32.123  32.108  21.229  1.00  0.00     0.163 HD
ATOM     25  C   UNL     1      31.568  33.806  19.111  1.00  0.00     0.114 C 
ATOM     26  O   UNL     1      29.736  32.266  19.077  1.00  0.00    -0.275 OA
ENDBRANCH  13  22
ENDBRANCH   7   8
BRANCH   7  27
ATOM     27  O   UNL     1      30.353  27.203  20.150  1.00  0.00    -0.388 OA
ATOM     28  H   UNL     1      31.211  26.821  20.387  1.00  0.00     0.211 HD
ENDBRANCH   7  27
ENDBRANCH   6   7
BRANCH   6  29
ATOM     29  O   UNL     1      27.741  28.732  21.780  1.00  0.00    -0.388 OA
ATOM     30  H   UNL     1      27.254  29.578  21.644  1.00  0.00     0.211 HD
ENDBRANCH   6  29
ENDBRANCH   5   6
ENDBRANCH   1   5
BRANCH   2  31
ATOM     31  O   UNL     1      25.887  28.452  16.935  1.00  0.00    -0.443 OA
BRANCH  31  32
ATOM     32  C   UNL     1      25.738  29.794  16.516  1.00  0.00     0.294 C 
BRANCH  32  33
ATOM     33  C   UNL     1      27.071  30.338  16.183  1.00  0.00     0.120 A 
ATOM     34  C   UNL     1      27.356  31.643  15.811  1.00  0.00     0.138 A 
ATOM     35  N   UNL     1      28.271  29.714  16.165  1.00  0.00    -0.132 NA
ATOM     36  N   UNL     1      28.677  31.766  15.586  1.00  0.00    -0.249 N 
ATOM     37  N   UNL     1      29.201  30.586  15.807  1.00  0.00    -0.067 NA
BRANCH  36  38
ATOM     38  C   UNL     1      29.356  33.003  15.175  1.00  0.00     0.182 C 
BRANCH  38  39
ATOM     39  C   UNL     1      30.777  32.969  15.681  1.00  0.00     0.166 C 
BRANCH  39  40
ATOM     40  O   UNL     1      31.498  32.110  14.821  1.00  0.00    -0.386 OA
ATOM     41  H   UNL     1      31.726  32.606  13.987  1.00  0.00     0.211 HD
ENDBRANCH  39  40
BRANCH  39  42
ATOM     42  C   UNL     1      31.376  34.315  15.579  1.00  0.00    -0.018 A 
ATOM     43  C   UNL     1      30.623  35.470  15.623  1.00  0.00     0.006 A 
ATOM     44  C   UNL     1      32.765  34.426  15.434  1.00  0.00     0.006 A 
ATOM     45  C   UNL     1      31.200  36.712  15.528  1.00  0.00     0.000 A 
ATOM     46  C   UNL     1      33.342  35.660  15.340  1.00  0.00     0.000 A 
ATOM     47  C   UNL     1      32.565  36.796  15.386  1.00  0.00     0.000 A 
ENDBRANCH  39  42
ENDBRANCH  38  39
ENDBRANCH  36  38
ENDBRANCH  32  33
ENDBRANCH  31  32
ENDBRANCH   2  31
TORSDOF 18
BEGIN_RES LYS A 131
REMARK  4 active torsions:
REMARK  status: ('A' for Active; 'I' for Inactive)
REMARK    1  A    between atoms: CA   and  CB  
REMARK    2  A    between atoms: CB   and  CG  
REMARK    3  A    between atoms: CG   and  CD  
REMARK    4  A    between atoms: CD   and  CE  
ROOT
ATOM      1  CA  LYS A 131      29.867  25.555  16.977  1.00 20.52     0.186 C 
ENDROOT
BRANCH   1   2
ATOM      2  CB  LYS A 131      28.345  25.722  17.026  1.00 20.94     0.034 C 
BRANCH   2   3
ATOM      3  CG  LYS A 131      27.600  24.407  16.852  1.00 22.96     0.005 C 
BRANCH   3   4
ATOM      4  CD  LYS A 131      26.731  24.088  18.037  1.00 24.33     0.041 C 
BRANCH   4   5
ATOM      5  CE  LYS A 131      25.322  23.753  17.558  1.00 26.91     0.338 C 
ATOM      6  NZ  LYS A 131      24.608  24.984  17.144  1.00 27.40     0.618 N 
ENDBRANCH   4   5
ENDBRANCH   3   4
ENDBRANCH   2   3
ENDBRANCH   1   2
END_RES LYS A 131
BEGIN_RES LYS A 135
REMARK  4 active torsions:
REMARK  status: ('A' for Active; 'I' for Inactive)
REMARK    5  A    between atoms: CA   and  CB  
REMARK    6  A    between atoms: CB   and  CG  
REMARK    7  A    between atoms: CG   and  CD  
REMARK    8  A    between atoms: CD   and  CE  
ROOT
ATOM      7  CA  LYS A 135      33.193  34.663   9.290  1.00 25.02     0.186 C 
ENDROOT
BRANCH   7   8
ATOM      8  CB  LYS A 135      32.060  35.360  10.034  1.00 26.63     0.034 C 
BRANCH   8   9
ATOM      9  CG  LYS A 135      30.807  35.519   9.212  1.00 29.45     0.005 C 
BRANCH   9  10
ATOM     10  CD  LYS A 135      30.084  34.188   9.072  1.00 32.00     0.041 C 
BRANCH  10  11
ATOM     11  CE  LYS A 135      28.696  34.394   8.496  1.00 34.25     0.338 C 
ATOM     12  NZ  LYS A 135      28.744  35.245   7.274  1.00 35.99     0.618 N 
ENDBRANCH  10  11
ENDBRANCH   9  10
ENDBRANCH   8   9
ENDBRANCH   7   8
END_RES LYS A 135
