REMARK VINA RESULT:    -4.117      7.452     11.896
REMARK INTER + INTRA:         -14.792
REMARK INTER:                  -9.040
REMARK INTRA:                  -5.751
REMARK UNBOUND:                -7.426
REMARK SMILES CC(=O)N[C@@H]1[C@@H](O)C[C@](O)(C(=O)O)O[C@H]1C(O)[C@H](O)CNC(=O)OCc1cn(Cc2ccccc2Br)nn1
REMARK SMILES IDX 21 1 22 2 23 3 20 5 18 6 16 7 15 8 9 9 8 10 14 11 6 12 5 13
REMARK SMILES IDX 10 14 11 16 12 17 13 18 7 20 4 22 2 23 1 25 3 26 17 27 19 29
REMARK SMILES IDX 24 31 25 32 26 33 27 34 38 35 28 36 37 37 29 38 30 39 31 40
REMARK SMILES IDX 35 41 32 42 34 43 36 44 33 45
REMARK H PARENT 21 4 10 15 13 19 7 21 4 24 17 28 19 30
REMARK Flexibility Score: inf
ROOT
ATOM      1  N   UNL     1      25.623  36.734  10.380  1.00  0.00    -0.319 N 
ATOM      2  C   UNL     1      25.072  35.516  10.791  1.00  0.00     0.407 C 
ATOM      3  O   UNL     1      23.886  35.235  10.464  1.00  0.00    -0.225 OA
ATOM      4  H   UNL     1      26.620  36.931  10.674  1.00  0.00     0.167 HD
ENDROOT
BRANCH   1   5
ATOM      5  C   UNL     1      24.933  37.733   9.594  1.00  0.00     0.154 C 
BRANCH   5   6
ATOM      6  C   UNL     1      25.723  38.017   8.335  1.00  0.00     0.165 C 
BRANCH   6   7
ATOM      7  C   UNL     1      26.302  39.416   8.351  1.00  0.00     0.176 C 
BRANCH   7   8
ATOM      8  C   UNL     1      27.135  39.702   7.118  1.00  0.00     0.178 C 
ATOM      9  C   UNL     1      26.856  40.343   4.892  1.00  0.00     0.269 C 
ATOM     10  C   UNL     1      27.645  39.193   4.395  1.00  0.00     0.112 C 
ATOM     11  O   UNL     1      26.277  40.033   6.113  1.00  0.00    -0.332 OA
ATOM     12  C   UNL     1      27.995  38.129   5.363  1.00  0.00     0.145 C 
ATOM     13  C   UNL     1      28.054  38.557   6.801  1.00  0.00     0.142 C 
BRANCH   9  14
ATOM     14  O   UNL     1      25.761  40.553   4.014  1.00  0.00    -0.357 OA
ATOM     15  H   UNL     1      25.100  41.179   4.411  1.00  0.00     0.214 HD
ENDBRANCH   9  14
BRANCH   9  16
ATOM     16  C   UNL     1      27.644  41.577   4.915  1.00  0.00     0.364 C 
ATOM     17  O   UNL     1      28.880  41.613   4.665  1.00  0.00    -0.246 OA
BRANCH  16  18
ATOM     18  O   UNL     1      27.019  42.776   5.226  1.00  0.00    -0.477 OA
ATOM     19  H   UNL     1      27.439  43.477   5.826  1.00  0.00     0.296 HD
ENDBRANCH  16  18
ENDBRANCH   9  16
BRANCH  12  20
ATOM     20  O   UNL     1      27.136  37.025   5.206  1.00  0.00    -0.391 OA
ATOM     21  H   UNL     1      27.685  36.237   5.519  1.00  0.00     0.211 HD
ENDBRANCH  12  20
BRANCH  13  22
ATOM     22  N   UNL     1      29.414  38.808   7.223  1.00  0.00    -0.348 N 
ATOM     23  C   UNL     1      29.926  38.359   8.467  1.00  0.00     0.217 C 
ATOM     24  H   UNL     1      30.054  39.338   6.599  1.00  0.00     0.163 HD
ATOM     25  C   UNL     1      31.324  38.610   8.917  1.00  0.00     0.114 C 
ATOM     26  O   UNL     1      29.120  37.710   9.216  1.00  0.00    -0.275 OA
ENDBRANCH  13  22
ENDBRANCH   7   8
BRANCH   7  27
ATOM     27  O   UNL     1      27.018  39.616   9.526  1.00  0.00    -0.388 OA
ATOM     28  H   UNL     1      27.008  38.760  10.056  1.00  0.00     0.211 HD
ENDBRANCH   7  27
ENDBRANCH   6   7
BRANCH   6  29
ATOM     29  O   UNL     1      24.794  37.886   7.275  1.00  0.00    -0.388 OA
ATOM     30  H   UNL     1      23.884  37.790   7.597  1.00  0.00     0.211 HD
ENDBRANCH   6  29
ENDBRANCH   5   6
ENDBRANCH   1   5
BRANCH   2  31
ATOM     31  O   UNL     1      25.743  34.565  11.547  1.00  0.00    -0.443 OA
BRANCH  31  32
ATOM     32  C   UNL     1      25.379  34.343  12.899  1.00  0.00     0.294 C 
BRANCH  32  33
ATOM     33  C   UNL     1      26.541  34.473  13.802  1.00  0.00     0.120 A 
ATOM     34  C   UNL     1      27.516  35.481  13.780  1.00  0.00     0.138 A 
ATOM     35  N   UNL     1      26.921  33.685  14.814  1.00  0.00    -0.132 NA
ATOM     36  N   UNL     1      28.417  35.289  14.728  1.00  0.00    -0.248 N 
ATOM     37  N   UNL     1      28.020  34.159  15.360  1.00  0.00    -0.067 NA
BRANCH  36  38
ATOM     38  C   UNL     1      29.610  35.986  15.145  1.00  0.00     0.182 C 
BRANCH  38  39
ATOM     39  C   UNL     1      30.670  36.083  14.150  1.00  0.00    -0.012 A 
ATOM     40  C   UNL     1      30.678  37.113  13.206  1.00  0.00     0.007 A 
ATOM     41  C   UNL     1      31.713  35.203  14.108  1.00  0.00     0.023 A 
ATOM     42  C   UNL     1      31.698  37.207  12.300  1.00  0.00     0.000 A 
ATOM     43  C   UNL     1      32.742  35.302  13.190  1.00  0.00     0.016 A 
ATOM     44  Br  UNL     1      31.799  33.705  15.321  1.00  0.00    -0.050 Br
ATOM     45  C   UNL     1      32.743  36.318  12.267  1.00  0.00     0.001 A 
ENDBRANCH  38  39
ENDBRANCH  36  38
ENDBRANCH  32  33
ENDBRANCH  31  32
ENDBRANCH   2  31
TORSDOF 16
BEGIN_RES LYS A 131
REMARK  4 active torsions:
REMARK  status: ('A' for Active; 'I' for Inactive)
REMARK    1  A    between atoms: CA   and  CB  
REMARK    2  A    between atoms: CB   and  CG  
REMARK    3  A    between atoms: CG   and  CD  
REMARK    4  A    between atoms: CD   and  CE  
ROOT
ATOM      1  CA  LYS A 131      29.867  25.555  16.977  1.00 20.52     0.186 C 
ENDROOT
BRANCH   1   2
ATOM      2  CB  LYS A 131      28.345  25.722  17.026  1.00 20.94     0.034 C 
BRANCH   2   3
ATOM      3  CG  LYS A 131      27.599  24.467  16.600  1.00 22.96     0.005 C 
BRANCH   3   4
ATOM      4  CD  LYS A 131      27.056  23.704  17.777  1.00 24.33     0.041 C 
BRANCH   4   5
ATOM      5  CE  LYS A 131      26.144  24.612  18.595  1.00 26.91     0.338 C 
ATOM      6  NZ  LYS A 131      24.842  24.794  17.910  1.00 27.40     0.618 N 
ENDBRANCH   4   5
ENDBRANCH   3   4
ENDBRANCH   2   3
ENDBRANCH   1   2
END_RES LYS A 131
BEGIN_RES LYS A 135
REMARK  4 active torsions:
REMARK  status: ('A' for Active; 'I' for Inactive)
REMARK    5  A    between atoms: CA   and  CB  
REMARK    6  A    between atoms: CB   and  CG  
REMARK    7  A    between atoms: CG   and  CD  
REMARK    8  A    between atoms: CD   and  CE  
ROOT
ATOM      7  CA  LYS A 135      33.193  34.663   9.290  1.00 25.02     0.186 C 
ENDROOT
BRANCH   7   8
ATOM      8  CB  LYS A 135      32.060  35.360  10.034  1.00 26.63     0.034 C 
BRANCH   8   9
ATOM      9  CG  LYS A 135      30.728  34.672   9.884  1.00 29.45     0.005 C 
BRANCH   9  10
ATOM     10  CD  LYS A 135      30.373  34.503   8.415  1.00 32.00     0.041 C 
BRANCH  10  11
ATOM     11  CE  LYS A 135      28.868  34.474   8.230  1.00 34.25     0.338 C 
ATOM     12  NZ  LYS A 135      28.195  33.859   9.407  1.00 35.99     0.618 N 
ENDBRANCH  10  11
ENDBRANCH   9  10
ENDBRANCH   8   9
ENDBRANCH   7   8
END_RES LYS A 135
