REMARK VINA RESULT:    -4.318      4.527      9.122
REMARK INTER + INTRA:         -14.962
REMARK INTER:                  -9.367
REMARK INTRA:                  -5.595
REMARK UNBOUND:                -7.237
REMARK SMILES CC(=O)N[C@@H]1[C@@H](O)C[C@](O)(C(=O)O)O[C@H]1C(O)[C@H](O)CNC(=O)OCc1cn(-c2ccccc2C(C)C)nn1
REMARK SMILES IDX 21 1 22 2 23 3 20 5 18 6 16 7 15 8 9 9 8 10 14 11 6 12 5 13
REMARK SMILES IDX 10 14 11 16 12 17 13 18 7 20 4 22 2 23 1 25 3 26 17 27 19 29
REMARK SMILES IDX 24 31 25 32 26 33 27 34 39 35 28 36 38 37 29 38 34 39 30 40
REMARK SMILES IDX 33 41 31 42 32 43 35 44 36 45 37 46
REMARK H PARENT 21 4 10 15 13 19 7 21 4 24 17 28 19 30
REMARK Flexibility Score: inf
ROOT
ATOM      1  N   UNL     1      29.311  34.538  15.409  1.00  0.00    -0.319 N 
ATOM      2  C   UNL     1      28.216  34.971  16.182  1.00  0.00     0.407 C 
ATOM      3  O   UNL     1      28.152  34.733  17.405  1.00  0.00    -0.225 OA
ATOM      4  H   UNL     1      29.317  34.780  14.381  1.00  0.00     0.167 HD
ENDROOT
BRANCH   1   5
ATOM      5  C   UNL     1      30.393  33.801  15.964  1.00  0.00     0.154 C 
BRANCH   5   6
ATOM      6  C   UNL     1      30.384  32.311  15.626  1.00  0.00     0.165 C 
BRANCH   6   7
ATOM      7  C   UNL     1      30.221  31.645  16.995  1.00  0.00     0.176 C 
BRANCH   7   8
ATOM      8  C   UNL     1      29.018  30.761  17.075  1.00  0.00     0.178 C 
ATOM      9  C   UNL     1      26.790  31.324  17.388  1.00  0.00     0.269 C 
ATOM     10  C   UNL     1      26.534  30.078  18.159  1.00  0.00     0.112 C 
ATOM     11  O   UNL     1      27.911  31.391  16.616  1.00  0.00    -0.332 OA
ATOM     12  C   UNL     1      27.760  29.399  18.731  1.00  0.00     0.145 C 
ATOM     13  C   UNL     1      28.902  30.352  18.536  1.00  0.00     0.142 C 
BRANCH   9  14
ATOM     14  O   UNL     1      26.685  32.446  18.250  1.00  0.00    -0.357 OA
ATOM     15  H   UNL     1      25.823  32.897  18.196  1.00  0.00     0.214 HD
ENDBRANCH   9  14
BRANCH   9  16
ATOM     16  C   UNL     1      25.638  31.464  16.424  1.00  0.00     0.364 C 
ATOM     17  O   UNL     1      24.545  31.878  16.866  1.00  0.00    -0.246 OA
BRANCH  16  18
ATOM     18  O   UNL     1      25.742  31.163  15.072  1.00  0.00    -0.477 OA
ATOM     19  H   UNL     1      26.367  31.637  14.424  1.00  0.00     0.296 HD
ENDBRANCH  16  18
ENDBRANCH   9  16
BRANCH  12  20
ATOM     20  O   UNL     1      27.545  29.215  20.133  1.00  0.00    -0.391 OA
ATOM     21  H   UNL     1      27.803  28.304  20.410  1.00  0.00     0.211 HD
ENDBRANCH  12  20
BRANCH  13  22
ATOM     22  N   UNL     1      30.165  30.014  19.063  1.00  0.00    -0.348 N 
ATOM     23  C   UNL     1      30.619  30.332  20.367  1.00  0.00     0.217 C 
ATOM     24  H   UNL     1      30.860  29.473  18.445  1.00  0.00     0.163 HD
ATOM     25  C   UNL     1      31.940  29.970  20.896  1.00  0.00     0.114 C 
ATOM     26  O   UNL     1      29.773  30.997  21.103  1.00  0.00    -0.275 OA
ENDBRANCH  13  22
ENDBRANCH   7   8
BRANCH   7  27
ATOM     27  O   UNL     1      30.191  32.704  17.906  1.00  0.00    -0.388 OA
ATOM     28  H   UNL     1      29.838  33.495  17.421  1.00  0.00     0.211 HD
ENDBRANCH   7  27
ENDBRANCH   6   7
BRANCH   6  29
ATOM     29  O   UNL     1      31.516  31.869  15.025  1.00  0.00    -0.388 OA
ATOM     30  H   UNL     1      31.379  31.157  14.404  1.00  0.00     0.211 HD
ENDBRANCH   6  29
ENDBRANCH   5   6
ENDBRANCH   1   5
BRANCH   2  31
ATOM     31  O   UNL     1      27.167  35.683  15.598  1.00  0.00    -0.443 OA
BRANCH  31  32
ATOM     32  C   UNL     1      25.873  35.101  15.643  1.00  0.00     0.294 C 
BRANCH  32  33
ATOM     33  C   UNL     1      25.566  34.708  14.245  1.00  0.00     0.121 A 
ATOM     34  C   UNL     1      26.190  35.271  13.124  1.00  0.00     0.144 A 
ATOM     35  N   UNL     1      24.772  33.723  13.798  1.00  0.00    -0.131 NA
ATOM     36  N   UNL     1      25.729  34.572  12.070  1.00  0.00    -0.220 N 
ATOM     37  N   UNL     1      24.919  33.692  12.500  1.00  0.00    -0.062 NA
BRANCH  36  38
ATOM     38  C   UNL     1      26.211  34.735  10.750  1.00  0.00     0.070 A 
ATOM     39  C   UNL     1      25.472  35.370   9.827  1.00  0.00    -0.020 A 
ATOM     40  C   UNL     1      27.391  34.073  10.379  1.00  0.00     0.029 A 
ATOM     41  C   UNL     1      25.893  35.362   8.498  1.00  0.00     0.006 A 
ATOM     42  C   UNL     1      27.812  34.055   9.101  1.00  0.00     0.002 A 
ATOM     43  C   UNL     1      27.071  34.702   8.122  1.00  0.00     0.000 A 
BRANCH  39  44
ATOM     44  C   UNL     1      24.326  36.173  10.202  1.00  0.00     0.015 C 
ATOM     45  C   UNL     1      23.005  35.530   9.809  1.00  0.00     0.012 C 
ATOM     46  C   UNL     1      24.330  37.394   9.177  1.00  0.00     0.012 C 
ENDBRANCH  39  44
ENDBRANCH  36  38
ENDBRANCH  32  33
ENDBRANCH  31  32
ENDBRANCH   2  31
TORSDOF 16
BEGIN_RES LYS A 131
REMARK  4 active torsions:
REMARK  status: ('A' for Active; 'I' for Inactive)
REMARK    1  A    between atoms: CA   and  CB  
REMARK    2  A    between atoms: CB   and  CG  
REMARK    3  A    between atoms: CG   and  CD  
REMARK    4  A    between atoms: CD   and  CE  
ROOT
ATOM      1  CA  LYS A 131      29.867  25.555  16.977  1.00 20.52     0.186 C 
ENDROOT
BRANCH   1   2
ATOM      2  CB  LYS A 131      28.345  25.722  17.026  1.00 20.94     0.034 C 
BRANCH   2   3
ATOM      3  CG  LYS A 131      27.603  24.395  16.972  1.00 22.96     0.005 C 
BRANCH   3   4
ATOM      4  CD  LYS A 131      26.447  24.354  17.932  1.00 24.33     0.041 C 
BRANCH   4   5
ATOM      5  CE  LYS A 131      26.466  25.604  18.807  1.00 26.91     0.338 C 
ATOM      6  NZ  LYS A 131      25.146  26.276  18.779  1.00 27.40     0.618 N 
ENDBRANCH   4   5
ENDBRANCH   3   4
ENDBRANCH   2   3
ENDBRANCH   1   2
END_RES LYS A 131
BEGIN_RES LYS A 135
REMARK  4 active torsions:
REMARK  status: ('A' for Active; 'I' for Inactive)
REMARK    5  A    between atoms: CA   and  CB  
REMARK    6  A    between atoms: CB   and  CG  
REMARK    7  A    between atoms: CG   and  CD  
REMARK    8  A    between atoms: CD   and  CE  
ROOT
ATOM      7  CA  LYS A 135      33.193  34.663   9.290  1.00 25.02     0.186 C 
ENDROOT
BRANCH   7   8
ATOM      8  CB  LYS A 135      32.060  35.360  10.034  1.00 26.63     0.034 C 
BRANCH   8   9
ATOM      9  CG  LYS A 135      30.828  35.573   9.193  1.00 29.45     0.005 C 
BRANCH   9  10
ATOM     10  CD  LYS A 135      30.224  36.943   9.463  1.00 32.00     0.041 C 
BRANCH  10  11
ATOM     11  CE  LYS A 135      31.268  37.882  10.036  1.00 34.25     0.338 C 
ATOM     12  NZ  LYS A 135      30.756  38.578  11.249  1.00 35.99     0.618 N 
ENDBRANCH  10  11
ENDBRANCH   9  10
ENDBRANCH   8   9
ENDBRANCH   7   8
END_RES LYS A 135
