REMARK VINA RESULT:    -4.333      3.112      6.773
REMARK INTER + INTRA:         -14.862
REMARK INTER:                  -9.554
REMARK INTRA:                  -5.308
REMARK UNBOUND:                -7.109
REMARK SMILES CC(=O)N[C@@H]1[C@@H](O)C[C@](O)(C(=O)O)O[C@H]1C(O)[C@H](O)CNC(=O)OCc1cn(-c2ncn3c2c(=O)n(C(C)C)c2ccccc23)nn1
REMARK SMILES IDX 21 1 22 2 23 3 20 5 18 6 16 7 15 8 9 9 8 10 14 11 6 12 5 13
REMARK SMILES IDX 10 14 11 16 12 17 13 18 7 20 4 22 2 23 1 25 3 26 17 27 19 29
REMARK SMILES IDX 24 31 25 32 26 33 27 34 47 35 28 36 46 37 29 38 30 39 33 40
REMARK SMILES IDX 31 41 32 42 34 43 45 44 36 45 35 46 44 47 40 48 43 49 41 50
REMARK SMILES IDX 42 51 37 52 38 53 39 54
REMARK H PARENT 21 4 10 15 13 19 7 21 4 24 17 28 19 30
REMARK Flexibility Score: inf
ROOT
ATOM      1  N   UNL     1      30.972  32.374  16.170  1.00  0.00    -0.319 N 
ATOM      2  C   UNL     1      31.002  33.580  16.871  1.00  0.00     0.407 C 
ATOM      3  O   UNL     1      30.344  33.802  17.888  1.00  0.00    -0.225 OA
ATOM      4  H   UNL     1      31.637  32.316  15.302  1.00  0.00     0.167 HD
ENDROOT
BRANCH   1   5
ATOM      5  C   UNL     1      30.182  31.242  16.467  1.00  0.00     0.154 C 
BRANCH   5   6
ATOM      6  C   UNL     1      29.042  30.979  15.588  1.00  0.00     0.165 C 
BRANCH   6   7
ATOM      7  C   UNL     1      27.727  31.623  15.757  1.00  0.00     0.176 C 
BRANCH   7   8
ATOM      8  C   UNL     1      26.803  30.538  16.382  1.00  0.00     0.178 C 
ATOM      9  C   UNL     1      24.870  30.577  15.049  1.00  0.00     0.269 C 
ATOM     10  C   UNL     1      24.042  30.902  16.247  1.00  0.00     0.112 C 
ATOM     11  O   UNL     1      26.051  30.011  15.401  1.00  0.00    -0.332 OA
ATOM     12  C   UNL     1      24.776  31.663  17.322  1.00  0.00     0.145 C 
ATOM     13  C   UNL     1      26.133  31.055  17.601  1.00  0.00     0.142 C 
BRANCH   9  14
ATOM     14  O   UNL     1      25.146  31.760  14.318  1.00  0.00    -0.357 OA
ATOM     15  H   UNL     1      25.925  32.170  14.779  1.00  0.00     0.214 HD
ENDBRANCH   9  14
BRANCH   9  16
ATOM     16  C   UNL     1      24.035  29.668  14.194  1.00  0.00     0.364 C 
ATOM     17  O   UNL     1      23.326  28.804  14.729  1.00  0.00    -0.246 OA
BRANCH  16  18
ATOM     18  O   UNL     1      24.059  29.797  12.826  1.00  0.00    -0.477 OA
ATOM     19  H   UNL     1      23.418  30.439  12.351  1.00  0.00     0.296 HD
ENDBRANCH  16  18
ENDBRANCH   9  16
BRANCH  12  20
ATOM     20  O   UNL     1      24.905  33.021  17.023  1.00  0.00    -0.391 OA
ATOM     21  H   UNL     1      25.805  33.330  17.290  1.00  0.00     0.211 HD
ENDBRANCH  12  20
BRANCH  13  22
ATOM     22  N   UNL     1      25.926  29.999  18.600  1.00  0.00    -0.348 N 
ATOM     23  C   UNL     1      26.976  29.478  19.383  1.00  0.00     0.217 C 
ATOM     24  H   UNL     1      24.962  29.592  18.762  1.00  0.00     0.163 HD
ATOM     25  C   UNL     1      26.762  28.409  20.393  1.00  0.00     0.114 C 
ATOM     26  O   UNL     1      28.154  29.922  19.237  1.00  0.00    -0.275 OA
ENDBRANCH  13  22
ENDBRANCH   7   8
BRANCH   7  27
ATOM     27  O   UNL     1      27.715  32.740  16.596  1.00  0.00    -0.388 OA
ATOM     28  H   UNL     1      26.956  32.671  17.256  1.00  0.00     0.211 HD
ENDBRANCH   7  27
ENDBRANCH   6   7
BRANCH   6  29
ATOM     29  O   UNL     1      28.859  29.544  15.612  1.00  0.00    -0.388 OA
ATOM     30  H   UNL     1      28.832  29.218  16.528  1.00  0.00     0.211 HD
ENDBRANCH   6  29
ENDBRANCH   5   6
ENDBRANCH   1   5
BRANCH   2  31
ATOM     31  O   UNL     1      31.815  34.649  16.433  1.00  0.00    -0.443 OA
BRANCH  31  32
ATOM     32  C   UNL     1      31.303  35.690  15.651  1.00  0.00     0.294 C 
BRANCH  32  33
ATOM     33  C   UNL     1      30.255  35.163  14.742  1.00  0.00     0.121 A 
ATOM     34  C   UNL     1      28.887  35.416  14.806  1.00  0.00     0.146 A 
ATOM     35  N   UNL     1      30.394  34.349  13.680  1.00  0.00    -0.131 NA
ATOM     36  N   UNL     1      28.245  34.760  13.798  1.00  0.00    -0.200 N 
ATOM     37  N   UNL     1      29.202  34.138  13.158  1.00  0.00    -0.060 NA
BRANCH  36  38
ATOM     38  C   UNL     1      26.837  34.821  13.590  1.00  0.00     0.186 A 
ATOM     39  N   UNL     1      25.884  34.683  14.558  1.00  0.00    -0.216 NA
ATOM     40  C   UNL     1      26.146  35.025  12.425  1.00  0.00     0.158 A 
ATOM     41  C   UNL     1      24.676  34.800  13.991  1.00  0.00     0.207 A 
ATOM     42  N   UNL     1      24.799  35.013  12.668  1.00  0.00    -0.291 N 
ATOM     43  C   UNL     1      26.548  35.227  11.142  1.00  0.00     0.279 A 
ATOM     44  C   UNL     1      23.893  35.192  11.689  1.00  0.00     0.071 A 
ATOM     45  N   UNL     1      25.687  35.409  10.144  1.00  0.00    -0.302 N 
ATOM     46  O   UNL     1      27.769  35.250  10.843  1.00  0.00    -0.267 OA
ATOM     47  C   UNL     1      22.543  35.173  11.973  1.00  0.00     0.029 A 
ATOM     48  C   UNL     1      24.364  35.393  10.408  1.00  0.00     0.068 A 
ATOM     49  C   UNL     1      21.587  35.354  10.986  1.00  0.00     0.002 A 
ATOM     50  C   UNL     1      23.388  35.571   9.439  1.00  0.00     0.028 A 
ATOM     51  C   UNL     1      22.033  35.555   9.708  1.00  0.00     0.002 A 
BRANCH  45  52
ATOM     52  C   UNL     1      26.048  35.631   8.762  1.00  0.00     0.085 C 
ATOM     53  C   UNL     1      26.938  34.481   8.343  1.00  0.00     0.031 C 
ATOM     54  C   UNL     1      26.796  36.901   8.508  1.00  0.00     0.031 C 
ENDBRANCH  45  52
ENDBRANCH  36  38
ENDBRANCH  32  33
ENDBRANCH  31  32
ENDBRANCH   2  31
TORSDOF 16
BEGIN_RES LYS A 131
REMARK  4 active torsions:
REMARK  status: ('A' for Active; 'I' for Inactive)
REMARK    1  A    between atoms: CA   and  CB  
REMARK    2  A    between atoms: CB   and  CG  
REMARK    3  A    between atoms: CG   and  CD  
REMARK    4  A    between atoms: CD   and  CE  
ROOT
ATOM      1  CA  LYS A 131      29.867  25.555  16.977  1.00 20.52     0.186 C 
ENDROOT
BRANCH   1   2
ATOM      2  CB  LYS A 131      28.345  25.722  17.026  1.00 20.94     0.034 C 
BRANCH   2   3
ATOM      3  CG  LYS A 131      27.599  24.428  16.739  1.00 22.96     0.005 C 
BRANCH   3   4
ATOM      4  CD  LYS A 131      26.994  23.836  17.981  1.00 24.33     0.041 C 
BRANCH   4   5
ATOM      5  CE  LYS A 131      25.589  24.395  18.180  1.00 26.91     0.338 C 
ATOM      6  NZ  LYS A 131      24.852  24.415  16.894  1.00 27.40     0.618 N 
ENDBRANCH   4   5
ENDBRANCH   3   4
ENDBRANCH   2   3
ENDBRANCH   1   2
END_RES LYS A 131
BEGIN_RES LYS A 135
REMARK  4 active torsions:
REMARK  status: ('A' for Active; 'I' for Inactive)
REMARK    5  A    between atoms: CA   and  CB  
REMARK    6  A    between atoms: CB   and  CG  
REMARK    7  A    between atoms: CG   and  CD  
REMARK    8  A    between atoms: CD   and  CE  
ROOT
ATOM      7  CA  LYS A 135      33.193  34.663   9.290  1.00 25.02     0.186 C 
ENDROOT
BRANCH   7   8
ATOM      8  CB  LYS A 135      32.060  35.360  10.034  1.00 26.63     0.034 C 
BRANCH   8   9
ATOM      9  CG  LYS A 135      30.755  35.362   9.280  1.00 29.45     0.005 C 
BRANCH   9  10
ATOM     10  CD  LYS A 135      30.385  36.773   8.851  1.00 32.00     0.041 C 
BRANCH  10  11
ATOM     11  CE  LYS A 135      31.061  37.796   9.744  1.00 34.25     0.338 C 
ATOM     12  NZ  LYS A 135      31.659  38.898   8.940  1.00 35.99     0.618 N 
ENDBRANCH  10  11
ENDBRANCH   9  10
ENDBRANCH   8   9
ENDBRANCH   7   8
END_RES LYS A 135
