REMARK VINA RESULT:    -4.703      4.271      6.734
REMARK INTER + INTRA:         -14.024
REMARK INTER:                  -7.646
REMARK INTRA:                  -6.379
REMARK UNBOUND:                -4.785
REMARK SMILES C=CCCCCn1cc(COC(=O)NC[C@@H](O)C(O)[C@@H]2O[C@@](O)(C(=O)O)C[C@H](O)[C@H]2NC(C)=O)nn1
REMARK SMILES IDX 11 1 12 2 14 3 13 5 15 6 16 7 18 8 20 9 22 10 27 11 21 12
REMARK SMILES IDX 28 13 30 14 23 15 24 17 25 18 26 19 29 21 31 23 32 24 33 26
REMARK SMILES IDX 34 27 19 28 17 30 10 32 9 33 8 34 35 35 7 36 36 37 6 38 5 39
REMARK SMILES IDX 4 40 3 41 2 42 1 43
REMARK H PARENT 14 4 23 16 26 20 29 22 31 25 19 29 17 31
REMARK Flexibility Score: inf
ROOT
ATOM      1  O   UNL     1      29.441  32.191  18.842  1.00  0.00    -0.443 OA
ENDROOT
BRANCH   1   2
ATOM      2  C   UNL     1      29.564  30.930  19.394  1.00  0.00     0.407 C 
ATOM      3  N   UNL     1      28.356  30.271  19.797  1.00  0.00    -0.319 N 
ATOM      4  H   UNL     1      27.453  30.765  19.657  1.00  0.00     0.167 HD
ATOM      5  O   UNL     1      30.697  30.369  19.542  1.00  0.00    -0.225 OA
BRANCH   3   6
ATOM      6  C   UNL     1      28.367  28.971  20.377  1.00  0.00     0.154 C 
BRANCH   6   7
ATOM      7  C   UNL     1      28.125  27.845  19.369  1.00  0.00     0.165 C 
BRANCH   7   8
ATOM      8  C   UNL     1      26.642  27.852  19.095  1.00  0.00     0.176 C 
BRANCH   8   9
ATOM      9  C   UNL     1      26.273  28.408  17.759  1.00  0.00     0.178 C 
ATOM     10  C   UNL     1      26.608  30.443  16.694  1.00  0.00     0.269 C 
ATOM     11  C   UNL     1      25.529  29.946  15.755  1.00  0.00     0.112 C 
ATOM     12  O   UNL     1      27.161  29.382  17.389  1.00  0.00    -0.332 OA
ATOM     13  C   UNL     1      24.347  29.535  16.603  1.00  0.00     0.145 C 
ATOM     14  C   UNL     1      24.850  28.964  17.908  1.00  0.00     0.142 C 
BRANCH  10  15
ATOM     15  O   UNL     1      26.120  31.435  17.539  1.00  0.00    -0.357 OA
ATOM     16  H   UNL     1      25.960  32.263  17.034  1.00  0.00     0.214 HD
ENDBRANCH  10  15
BRANCH  10  17
ATOM     17  C   UNL     1      27.657  31.069  15.850  1.00  0.00     0.364 C 
ATOM     18  O   UNL     1      27.576  32.258  15.447  1.00  0.00    -0.246 OA
BRANCH  17  19
ATOM     19  O   UNL     1      28.808  30.369  15.450  1.00  0.00    -0.477 OA
ATOM     20  H   UNL     1      29.034  29.516  15.955  1.00  0.00     0.296 HD
ENDBRANCH  17  19
ENDBRANCH  10  17
BRANCH  13  21
ATOM     21  O   UNL     1      23.594  30.656  16.897  1.00  0.00    -0.391 OA
ATOM     22  H   UNL     1      23.168  30.550  17.783  1.00  0.00     0.211 HD
ENDBRANCH  13  21
BRANCH  14  23
ATOM     23  N   UNL     1      24.004  27.884  18.384  1.00  0.00    -0.348 N 
ATOM     24  C   UNL     1      22.835  28.096  19.167  1.00  0.00     0.217 C 
ATOM     25  H   UNL     1      24.220  26.870  18.166  1.00  0.00     0.163 HD
ATOM     26  C   UNL     1      21.973  26.976  19.652  1.00  0.00     0.114 C 
ATOM     27  O   UNL     1      22.549  29.293  19.445  1.00  0.00    -0.275 OA
ENDBRANCH  14  23
ENDBRANCH   8   9
BRANCH   8  28
ATOM     28  O   UNL     1      26.055  28.561  20.156  1.00  0.00    -0.388 OA
ATOM     29  H   UNL     1      25.857  29.498  19.906  1.00  0.00     0.211 HD
ENDBRANCH   8  28
ENDBRANCH   7   8
BRANCH   7  30
ATOM     30  O   UNL     1      28.604  26.637  19.831  1.00  0.00    -0.388 OA
ATOM     31  H   UNL     1      29.523  26.430  19.592  1.00  0.00     0.211 HD
ENDBRANCH   7  30
ENDBRANCH   6   7
ENDBRANCH   3   6
ENDBRANCH   1   2
BRANCH   1  32
ATOM     32  C   UNL     1      30.583  32.948  18.539  1.00  0.00     0.294 C 
BRANCH  32  33
ATOM     33  C   UNL     1      30.697  32.977  17.044  1.00  0.00     0.120 A 
ATOM     34  C   UNL     1      30.361  34.073  16.266  1.00  0.00     0.138 A 
ATOM     35  N   UNL     1      31.112  32.039  16.192  1.00  0.00    -0.132 NA
ATOM     36  N   UNL     1      30.581  33.764  14.981  1.00  0.00    -0.252 N 
ATOM     37  N   UNL     1      31.035  32.526  14.966  1.00  0.00    -0.067 NA
BRANCH  36  38
ATOM     38  C   UNL     1      30.383  34.573  13.787  1.00  0.00     0.146 C 
BRANCH  38  39
ATOM     39  C   UNL     1      29.160  35.435  13.950  1.00  0.00     0.024 C 
BRANCH  39  40
ATOM     40  C   UNL     1      28.488  35.694  12.625  1.00  0.00     0.006 C 
BRANCH  40  41
ATOM     41  C   UNL     1      27.352  34.740  12.361  1.00  0.00     0.027 C 
BRANCH  41  42
ATOM     42  C   UNL     1      27.158  34.571  10.903  1.00  0.00    -0.035 C 
ATOM     43  C   UNL     1      26.514  35.446  10.164  1.00  0.00     0.004 C 
ENDBRANCH  41  42
ENDBRANCH  40  41
ENDBRANCH  39  40
ENDBRANCH  38  39
ENDBRANCH  36  38
ENDBRANCH  32  33
ENDBRANCH   1  32
TORSDOF 19
BEGIN_RES LYS A 131
REMARK  4 active torsions:
REMARK  status: ('A' for Active; 'I' for Inactive)
REMARK    1  A    between atoms: CA   and  CB  
REMARK    2  A    between atoms: CB   and  CG  
REMARK    3  A    between atoms: CG   and  CD  
REMARK    4  A    between atoms: CD   and  CE  
ROOT
ATOM      1  CA  LYS A 131      29.867  25.555  16.977  1.00 20.52     0.186 C 
ENDROOT
BRANCH   1   2
ATOM      2  CB  LYS A 131      28.345  25.722  17.026  1.00 20.94     0.034 C 
BRANCH   2   3
ATOM      3  CG  LYS A 131      27.602  24.398  16.934  1.00 22.96     0.005 C 
BRANCH   3   4
ATOM      4  CD  LYS A 131      26.156  24.531  17.325  1.00 24.33     0.041 C 
BRANCH   4   5
ATOM      5  CE  LYS A 131      25.991  24.166  18.796  1.00 26.91     0.338 C 
ATOM      6  NZ  LYS A 131      25.187  22.929  18.936  1.00 27.40     0.618 N 
ENDBRANCH   4   5
ENDBRANCH   3   4
ENDBRANCH   2   3
ENDBRANCH   1   2
END_RES LYS A 131
BEGIN_RES LYS A 135
REMARK  4 active torsions:
REMARK  status: ('A' for Active; 'I' for Inactive)
REMARK    5  A    between atoms: CA   and  CB  
REMARK    6  A    between atoms: CB   and  CG  
REMARK    7  A    between atoms: CG   and  CD  
REMARK    8  A    between atoms: CD   and  CE  
ROOT
ATOM      7  CA  LYS A 135      33.193  34.663   9.290  1.00 25.02     0.186 C 
ENDROOT
BRANCH   7   8
ATOM      8  CB  LYS A 135      32.060  35.360  10.034  1.00 26.63     0.034 C 
BRANCH   8   9
ATOM      9  CG  LYS A 135      30.701  34.778   9.743  1.00 29.45     0.005 C 
BRANCH   9  10
ATOM     10  CD  LYS A 135      30.567  34.436   8.267  1.00 32.00     0.041 C 
BRANCH  10  11
ATOM     11  CE  LYS A 135      29.326  35.081   7.681  1.00 34.25     0.338 C 
ATOM     12  NZ  LYS A 135      29.282  36.538   7.989  1.00 35.99     0.618 N 
ENDBRANCH  10  11
ENDBRANCH   9  10
ENDBRANCH   8   9
ENDBRANCH   7   8
END_RES LYS A 135
