REMARK VINA RESULT:    -5.277      3.011      6.317
REMARK INTER + INTRA:         -14.778
REMARK INTER:                 -10.282
REMARK INTRA:                  -4.497
REMARK UNBOUND:                -5.337
REMARK SMILES CC(=O)N[C@@H]1[C@@H](O)C[C@](O)(C(=O)O)O[C@H]1C(O)[C@H](O)CNC(=O)OCc1cn(CC2=CC[C@H]3C[C@@H]2C3(C)C)nn1
REMARK SMILES IDX 21 1 22 2 23 3 20 5 18 6 16 7 15 8 9 9 8 10 14 11 6 12 5 13
REMARK SMILES IDX 10 14 11 16 12 17 13 18 7 20 4 22 2 23 1 25 3 26 17 27 19 29
REMARK SMILES IDX 24 31 25 32 26 33 27 34 40 35 28 36 39 37 29 38 30 39 31 40
REMARK SMILES IDX 35 41 32 42 34 43 36 44 33 45 37 46 38 47
REMARK H PARENT 21 4 10 15 13 19 7 21 4 24 17 28 19 30
REMARK Flexibility Score: inf
ROOT
ATOM      1  N   UNL     1      26.081  31.209  15.424  1.00  0.00    -0.319 N 
ATOM      2  C   UNL     1      24.789  31.810  15.233  1.00  0.00     0.407 C 
ATOM      3  O   UNL     1      23.783  31.242  15.729  1.00  0.00    -0.225 OA
ATOM      4  H   UNL     1      26.917  31.676  15.015  1.00  0.00     0.167 HD
ENDROOT
BRANCH   1   5
ATOM      5  C   UNL     1      26.195  29.976  16.173  1.00  0.00     0.154 C 
BRANCH   5   6
ATOM      6  C   UNL     1      27.363  30.104  17.109  1.00  0.00     0.165 C 
BRANCH   6   7
ATOM      7  C   UNL     1      28.530  30.829  16.476  1.00  0.00     0.176 C 
BRANCH   7   8
ATOM      8  C   UNL     1      28.481  32.261  16.956  1.00  0.00     0.178 C 
ATOM      9  C   UNL     1      29.558  33.508  15.327  1.00  0.00     0.269 C 
ATOM     10  C   UNL     1      30.635  33.999  16.269  1.00  0.00     0.112 C 
ATOM     11  O   UNL     1      28.381  33.185  15.958  1.00  0.00    -0.332 OA
ATOM     12  C   UNL     1      30.086  33.943  17.673  1.00  0.00     0.145 C 
ATOM     13  C   UNL     1      29.622  32.520  17.913  1.00  0.00     0.142 C 
BRANCH   9  14
ATOM     14  O   UNL     1      30.062  32.459  14.552  1.00  0.00    -0.357 OA
ATOM     15  H   UNL     1      29.285  31.864  14.368  1.00  0.00     0.214 HD
ENDBRANCH   9  14
BRANCH   9  16
ATOM     16  C   UNL     1      29.267  34.630  14.387  1.00  0.00     0.364 C 
ATOM     17  O   UNL     1      29.317  34.414  13.129  1.00  0.00    -0.246 OA
BRANCH  16  18
ATOM     18  O   UNL     1      28.945  35.900  14.814  1.00  0.00    -0.477 OA
ATOM     19  H   UNL     1      28.179  36.070  15.460  1.00  0.00     0.296 HD
ENDBRANCH  16  18
ENDBRANCH   9  16
BRANCH  12  20
ATOM     20  O   UNL     1      31.035  34.259  18.624  1.00  0.00    -0.391 OA
ATOM     21  H   UNL     1      31.842  34.576  18.145  1.00  0.00     0.211 HD
ENDBRANCH  12  20
BRANCH  13  22
ATOM     22  N   UNL     1      29.263  32.302  19.290  1.00  0.00    -0.348 N 
ATOM     23  C   UNL     1      29.864  31.278  20.066  1.00  0.00     0.217 C 
ATOM     24  H   UNL     1      28.539  32.923  19.712  1.00  0.00     0.163 HD
ATOM     25  C   UNL     1      29.432  31.123  21.482  1.00  0.00     0.114 C 
ATOM     26  O   UNL     1      30.736  30.527  19.564  1.00  0.00    -0.275 OA
ENDBRANCH  13  22
ENDBRANCH   7   8
BRANCH   7  27
ATOM     27  O   UNL     1      29.740  30.282  16.897  1.00  0.00    -0.388 OA
ATOM     28  H   UNL     1      30.495  30.884  16.790  1.00  0.00     0.211 HD
ENDBRANCH   7  27
ENDBRANCH   6   7
BRANCH   6  29
ATOM     29  O   UNL     1      27.776  28.790  17.417  1.00  0.00    -0.388 OA
ATOM     30  H   UNL     1      28.467  28.806  18.137  1.00  0.00     0.211 HD
ENDBRANCH   6  29
ENDBRANCH   5   6
ENDBRANCH   1   5
BRANCH   2  31
ATOM     31  O   UNL     1      24.605  32.974  14.536  1.00  0.00    -0.443 OA
BRANCH  31  32
ATOM     32  C   UNL     1      25.413  34.127  14.691  1.00  0.00     0.294 C 
BRANCH  32  33
ATOM     33  C   UNL     1      25.694  34.733  13.374  1.00  0.00     0.120 A 
ATOM     34  C   UNL     1      25.517  34.191  12.122  1.00  0.00     0.138 A 
ATOM     35  N   UNL     1      26.189  35.963  13.174  1.00  0.00    -0.132 NA
ATOM     36  N   UNL     1      25.908  35.104  11.183  1.00  0.00    -0.248 N 
ATOM     37  N   UNL     1      26.311  36.169  11.861  1.00  0.00    -0.067 NA
BRANCH  36  38
ATOM     38  C   UNL     1      25.869  34.893   9.757  1.00  0.00     0.177 C 
BRANCH  38  39
ATOM     39  C   UNL     1      27.243  35.015   9.155  1.00  0.00    -0.049 C 
ATOM     40  C   UNL     1      28.224  34.185   9.499  1.00  0.00    -0.025 C 
ATOM     41  C   UNL     1      27.552  36.060   8.160  1.00  0.00     0.023 C 
ATOM     42  C   UNL     1      29.478  34.195   8.698  1.00  0.00     0.031 C 
ATOM     43  C   UNL     1      28.160  35.331   6.953  1.00  0.00     0.013 C 
ATOM     44  C   UNL     1      28.942  36.605   8.422  1.00  0.00    -0.026 C 
ATOM     45  C   UNL     1      29.466  35.337   7.730  1.00  0.00    -0.000 C 
ATOM     46  C   UNL     1      29.289  37.814   7.600  1.00  0.00     0.012 C 
ATOM     47  C   UNL     1      29.330  36.742   9.854  1.00  0.00     0.012 C 
ENDBRANCH  38  39
ENDBRANCH  36  38
ENDBRANCH  32  33
ENDBRANCH  31  32
ENDBRANCH   2  31
TORSDOF 16
BEGIN_RES LYS A 131
REMARK  4 active torsions:
REMARK  status: ('A' for Active; 'I' for Inactive)
REMARK    1  A    between atoms: CA   and  CB  
REMARK    2  A    between atoms: CB   and  CG  
REMARK    3  A    between atoms: CG   and  CD  
REMARK    4  A    between atoms: CD   and  CE  
ROOT
ATOM      1  CA  LYS A 131      29.867  25.555  16.977  1.00 20.52     0.186 C 
ENDROOT
BRANCH   1   2
ATOM      2  CB  LYS A 131      28.345  25.722  17.026  1.00 20.94     0.034 C 
BRANCH   2   3
ATOM      3  CG  LYS A 131      27.601  24.401  16.906  1.00 22.96     0.005 C 
BRANCH   3   4
ATOM      4  CD  LYS A 131      26.148  24.533  17.269  1.00 24.33     0.041 C 
BRANCH   4   5
ATOM      5  CE  LYS A 131      26.021  24.838  18.758  1.00 26.91     0.338 C 
ATOM      6  NZ  LYS A 131      24.773  25.590  19.029  1.00 27.40     0.618 N 
ENDBRANCH   4   5
ENDBRANCH   3   4
ENDBRANCH   2   3
ENDBRANCH   1   2
END_RES LYS A 131
BEGIN_RES LYS A 135
REMARK  4 active torsions:
REMARK  status: ('A' for Active; 'I' for Inactive)
REMARK    5  A    between atoms: CA   and  CB  
REMARK    6  A    between atoms: CB   and  CG  
REMARK    7  A    between atoms: CG   and  CD  
REMARK    8  A    between atoms: CD   and  CE  
ROOT
ATOM      7  CA  LYS A 135      33.193  34.663   9.290  1.00 25.02     0.186 C 
ENDROOT
BRANCH   7   8
ATOM      8  CB  LYS A 135      32.060  35.360  10.034  1.00 26.63     0.034 C 
BRANCH   8   9
ATOM      9  CG  LYS A 135      32.176  35.265  11.533  1.00 29.45     0.005 C 
BRANCH   9  10
ATOM     10  CD  LYS A 135      32.228  36.652  12.156  1.00 32.00     0.041 C 
BRANCH  10  11
ATOM     11  CE  LYS A 135      32.266  36.555  13.670  1.00 34.25     0.338 C 
ATOM     12  NZ  LYS A 135      33.034  35.358  14.111  1.00 35.99     0.618 N 
ENDBRANCH  10  11
ENDBRANCH   9  10
ENDBRANCH   8   9
ENDBRANCH   7   8
END_RES LYS A 135
