REMARK VINA RESULT:    -5.223      7.556     13.931
REMARK INTER + INTRA:         -14.927
REMARK INTER:                  -9.060
REMARK INTRA:                  -5.866
REMARK UNBOUND:                -5.276
REMARK SMILES COc1ccc(Cn2cc(COC(=O)NC[C@@H](O)C(O)[C@@H]3O[C@@](O)(C(=O)O)C[C@H](O)[C@H]3NC(C)=O)nn2)cc1
REMARK SMILES IDX 15 1 13 2 14 3 16 5 17 6 19 7 21 8 23 9 28 10 22 11 29 12
REMARK SMILES IDX 31 13 24 14 25 16 26 17 27 18 30 20 32 22 33 23 34 25 35 26
REMARK SMILES IDX 20 27 18 29 12 31 11 32 10 33 9 34 36 35 8 36 37 37 7 38
REMARK SMILES IDX 6 39 5 40 38 41 4 42 39 43 3 44 2 45 1 46
REMARK H PARENT 15 4 24 15 27 19 30 21 32 24 20 28 18 30
REMARK Flexibility Score: inf
ROOT
ATOM      1  N   UNL     1      27.433  38.395   4.675  1.00  0.00    -0.319 N 
ATOM      2  C   UNL     1      27.474  39.781   4.413  1.00  0.00     0.407 C 
ATOM      3  O   UNL     1      28.513  40.473   4.532  1.00  0.00    -0.225 OA
ATOM      4  H   UNL     1      26.510  37.918   4.548  1.00  0.00     0.167 HD
ENDROOT
BRANCH   1   5
ATOM      5  C   UNL     1      28.557  37.619   5.093  1.00  0.00     0.154 C 
BRANCH   5   6
ATOM      6  C   UNL     1      28.222  36.399   5.879  1.00  0.00     0.165 C 
BRANCH   6   7
ATOM      7  C   UNL     1      27.432  36.708   7.132  1.00  0.00     0.176 C 
BRANCH   7   8
ATOM      8  C   UNL     1      28.057  37.726   8.016  1.00  0.00     0.178 C 
ATOM      9  C   UNL     1      30.073  38.548   8.800  1.00  0.00     0.269 C 
ATOM     10  C   UNL     1      29.547  38.683  10.201  1.00  0.00     0.112 C 
ATOM     11  O   UNL     1      29.447  37.631   8.017  1.00  0.00    -0.332 OA
ATOM     12  C   UNL     1      28.037  38.583  10.270  1.00  0.00     0.145 C 
ATOM     13  C   UNL     1      27.639  37.399   9.455  1.00  0.00     0.142 C 
BRANCH   9  14
ATOM     14  O   UNL     1      31.407  38.087   8.956  1.00  0.00    -0.357 OA
ATOM     15  H   UNL     1      31.825  38.712   9.597  1.00  0.00     0.214 HD
ENDBRANCH   9  14
BRANCH   9  16
ATOM     16  C   UNL     1      30.174  39.909   8.222  1.00  0.00     0.364 C 
ATOM     17  O   UNL     1      31.178  40.656   8.414  1.00  0.00    -0.246 OA
BRANCH  16  18
ATOM     18  O   UNL     1      29.161  40.446   7.429  1.00  0.00    -0.477 OA
ATOM     19  H   UNL     1      29.199  41.399   7.122  1.00  0.00     0.296 HD
ENDBRANCH  16  18
ENDBRANCH   9  16
BRANCH  12  20
ATOM     20  O   UNL     1      27.633  38.510  11.589  1.00  0.00    -0.391 OA
ATOM     21  H   UNL     1      27.906  37.660  11.967  1.00  0.00     0.211 HD
ENDBRANCH  12  20
BRANCH  13  22
ATOM     22  N   UNL     1      26.269  37.019   9.579  1.00  0.00    -0.348 N 
ATOM     23  C   UNL     1      25.763  36.103  10.513  1.00  0.00     0.217 C 
ATOM     24  H   UNL     1      25.577  37.464   8.918  1.00  0.00     0.163 HD
ATOM     25  C   UNL     1      24.315  35.793  10.541  1.00  0.00     0.114 C 
ATOM     26  O   UNL     1      26.521  35.551  11.316  1.00  0.00    -0.275 OA
ENDBRANCH  13  22
ENDBRANCH   7   8
BRANCH   7  27
ATOM     27  O   UNL     1      26.150  37.074   6.783  1.00  0.00    -0.388 OA
ATOM     28  H   UNL     1      25.450  36.415   6.985  1.00  0.00     0.211 HD
ENDBRANCH   7  27
ENDBRANCH   6   7
BRANCH   6  29
ATOM     29  O   UNL     1      29.294  35.594   6.131  1.00  0.00    -0.388 OA
ATOM     30  H   UNL     1      29.323  35.422   7.120  1.00  0.00     0.211 HD
ENDBRANCH   6  29
ENDBRANCH   5   6
ENDBRANCH   1   5
BRANCH   2  31
ATOM     31  O   UNL     1      26.302  40.442   3.997  1.00  0.00    -0.443 OA
BRANCH  31  32
ATOM     32  C   UNL     1      25.742  41.411   4.853  1.00  0.00     0.294 C 
BRANCH  32  33
ATOM     33  C   UNL     1      25.295  40.837   6.134  1.00  0.00     0.120 A 
ATOM     34  C   UNL     1      24.001  40.862   6.665  1.00  0.00     0.138 A 
ATOM     35  N   UNL     1      26.031  40.182   7.049  1.00  0.00    -0.132 NA
ATOM     36  N   UNL     1      24.009  40.234   7.849  1.00  0.00    -0.248 N 
ATOM     37  N   UNL     1      25.248  39.833   8.058  1.00  0.00    -0.067 NA
BRANCH  36  38
ATOM     38  C   UNL     1      22.901  40.023   8.743  1.00  0.00     0.181 C 
BRANCH  38  39
ATOM     39  C   UNL     1      22.191  38.762   8.439  1.00  0.00    -0.026 A 
ATOM     40  C   UNL     1      20.880  38.589   8.821  1.00  0.00     0.009 A 
ATOM     41  C   UNL     1      22.844  37.758   7.773  1.00  0.00     0.009 A 
ATOM     42  C   UNL     1      20.220  37.397   8.531  1.00  0.00     0.047 A 
ATOM     43  C   UNL     1      22.195  36.561   7.476  1.00  0.00     0.047 A 
ATOM     44  C   UNL     1      20.889  36.389   7.856  1.00  0.00     0.118 A 
BRANCH  44  45
ATOM     45  O   UNL     1      20.210  35.202   7.574  1.00  0.00    -0.497 OA
ATOM     46  C   UNL     1      19.068  34.853   8.338  1.00  0.00     0.278 C 
ENDBRANCH  44  45
ENDBRANCH  38  39
ENDBRANCH  36  38
ENDBRANCH  32  33
ENDBRANCH  31  32
ENDBRANCH   2  31
TORSDOF 17
BEGIN_RES LYS A 131
REMARK  4 active torsions:
REMARK  status: ('A' for Active; 'I' for Inactive)
REMARK    1  A    between atoms: CA   and  CB  
REMARK    2  A    between atoms: CB   and  CG  
REMARK    3  A    between atoms: CG   and  CD  
REMARK    4  A    between atoms: CD   and  CE  
ROOT
ATOM      1  CA  LYS A 131      29.867  25.555  16.977  1.00 20.52     0.186 C 
ENDROOT
BRANCH   1   2
ATOM      2  CB  LYS A 131      28.345  25.722  17.026  1.00 20.94     0.034 C 
BRANCH   2   3
ATOM      3  CG  LYS A 131      27.599  24.438  16.698  1.00 22.96     0.005 C 
BRANCH   3   4
ATOM      4  CD  LYS A 131      26.992  23.807  17.920  1.00 24.33     0.041 C 
BRANCH   4   5
ATOM      5  CE  LYS A 131      25.619  23.241  17.573  1.00 26.91     0.338 C 
ATOM      6  NZ  LYS A 131      24.764  24.289  16.968  1.00 27.40     0.618 N 
ENDBRANCH   4   5
ENDBRANCH   3   4
ENDBRANCH   2   3
ENDBRANCH   1   2
END_RES LYS A 131
BEGIN_RES LYS A 135
REMARK  4 active torsions:
REMARK  status: ('A' for Active; 'I' for Inactive)
REMARK    5  A    between atoms: CA   and  CB  
REMARK    6  A    between atoms: CB   and  CG  
REMARK    7  A    between atoms: CG   and  CD  
REMARK    8  A    between atoms: CD   and  CE  
ROOT
ATOM      7  CA  LYS A 135      33.193  34.663   9.290  1.00 25.02     0.186 C 
ENDROOT
BRANCH   7   8
ATOM      8  CB  LYS A 135      32.060  35.360  10.034  1.00 26.63     0.034 C 
BRANCH   8   9
ATOM      9  CG  LYS A 135      30.689  34.892   9.619  1.00 29.45     0.005 C 
BRANCH   9  10
ATOM     10  CD  LYS A 135      29.794  34.708  10.835  1.00 32.00     0.041 C 
BRANCH  10  11
ATOM     11  CE  LYS A 135      30.546  35.051  12.107  1.00 34.25     0.338 C 
ATOM     12  NZ  LYS A 135      29.870  36.152  12.849  1.00 35.99     0.618 N 
ENDBRANCH  10  11
ENDBRANCH   9  10
ENDBRANCH   8   9
ENDBRANCH   7   8
END_RES LYS A 135
