REMARK VINA RESULT:    -6.380      1.787      2.608
REMARK INTER + INTRA:         -15.935
REMARK INTER:                 -10.663
REMARK INTRA:                  -5.272
REMARK UNBOUND:                -3.774
REMARK SMILES CC(=O)N[C@@H]1[C@@H](O)C[C@](O)(C(=O)O)O[C@H]1C(O)[C@H](O)CNC(=O)OCc1cn(COCc2ccccc2)nn1
REMARK SMILES IDX 21 1 22 2 23 3 20 5 18 6 16 7 15 8 9 9 8 10 14 11 6 12 5 13
REMARK SMILES IDX 10 14 11 16 12 17 13 18 7 20 4 22 2 23 1 25 3 26 17 27 19 29
REMARK SMILES IDX 24 31 25 32 26 33 27 34 39 35 28 36 38 37 29 38 30 39 31 40
REMARK SMILES IDX 32 41 33 42 37 43 34 44 36 45 35 46
REMARK H PARENT 21 4 10 15 13 19 7 21 4 24 17 28 19 30
REMARK Flexibility Score: inf
ROOT
ATOM      1  N   UNL     1      22.706  39.732   7.418  1.00  0.00    -0.319 N 
ATOM      2  C   UNL     1      22.035  40.053   8.635  1.00  0.00     0.407 C 
ATOM      3  O   UNL     1      22.456  40.980   9.392  1.00  0.00    -0.225 OA
ATOM      4  H   UNL     1      22.334  38.972   6.826  1.00  0.00     0.167 HD
ENDROOT
BRANCH   1   5
ATOM      5  C   UNL     1      23.884  40.508   7.087  1.00  0.00     0.154 C 
BRANCH   5   6
ATOM      6  C   UNL     1      25.071  39.636   6.781  1.00  0.00     0.165 C 
BRANCH   6   7
ATOM      7  C   UNL     1      25.984  39.564   7.986  1.00  0.00     0.176 C 
BRANCH   7   8
ATOM      8  C   UNL     1      26.911  38.395   7.941  1.00  0.00     0.178 C 
ATOM      9  C   UNL     1      29.022  37.798   7.155  1.00  0.00     0.269 C 
ATOM     10  C   UNL     1      28.501  36.369   7.228  1.00  0.00     0.112 C 
ATOM     11  O   UNL     1      28.005  38.745   7.155  1.00  0.00    -0.332 OA
ATOM     12  C   UNL     1      27.160  36.359   6.528  1.00  0.00     0.145 C 
ATOM     13  C   UNL     1      26.222  37.151   7.424  1.00  0.00     0.142 C 
BRANCH   9  14
ATOM     14  O   UNL     1      29.647  37.904   5.914  1.00  0.00    -0.357 OA
ATOM     15  H   UNL     1      29.476  38.780   5.485  1.00  0.00     0.214 HD
ENDBRANCH   9  14
BRANCH   9  16
ATOM     16  C   UNL     1      30.018  38.039   8.207  1.00  0.00     0.364 C 
ATOM     17  O   UNL     1      29.648  38.101   9.405  1.00  0.00    -0.246 OA
BRANCH  16  18
ATOM     18  O   UNL     1      31.374  38.208   7.955  1.00  0.00    -0.477 OA
ATOM     19  H   UNL     1      31.659  38.383   6.997  1.00  0.00     0.296 HD
ENDBRANCH  16  18
ENDBRANCH   9  16
BRANCH  12  20
ATOM     20  O   UNL     1      27.235  36.940   5.266  1.00  0.00    -0.391 OA
ATOM     21  H   UNL     1      28.105  37.442   5.200  1.00  0.00     0.211 HD
ENDBRANCH  12  20
BRANCH  13  22
ATOM     22  N   UNL     1      25.887  36.297   8.543  1.00  0.00    -0.348 N 
ATOM     23  C   UNL     1      24.558  36.267   9.044  1.00  0.00     0.217 C 
ATOM     24  H   UNL     1      26.582  35.676   9.025  1.00  0.00     0.163 HD
ATOM     25  C   UNL     1      24.158  35.406  10.191  1.00  0.00     0.114 C 
ATOM     26  O   UNL     1      23.661  36.980   8.525  1.00  0.00    -0.275 OA
ENDBRANCH  13  22
ENDBRANCH   7   8
BRANCH   7  27
ATOM     27  O   UNL     1      25.242  39.671   9.137  1.00  0.00    -0.388 OA
ATOM     28  H   UNL     1      25.318  40.616   9.456  1.00  0.00     0.211 HD
ENDBRANCH   7  27
ENDBRANCH   6   7
BRANCH   6  29
ATOM     29  O   UNL     1      25.732  40.146   5.670  1.00  0.00    -0.388 OA
ATOM     30  H   UNL     1      25.779  39.454   4.958  1.00  0.00     0.211 HD
ENDBRANCH   6  29
ENDBRANCH   5   6
ENDBRANCH   1   5
BRANCH   2  31
ATOM     31  O   UNL     1      20.898  39.377   9.054  1.00  0.00    -0.443 OA
BRANCH  31  32
ATOM     32  C   UNL     1      20.742  38.823  10.344  1.00  0.00     0.294 C 
BRANCH  32  33
ATOM     33  C   UNL     1      20.526  37.360  10.319  1.00  0.00     0.120 A 
ATOM     34  C   UNL     1      20.716  36.404  11.294  1.00  0.00     0.141 A 
ATOM     35  N   UNL     1      20.074  36.680   9.251  1.00  0.00    -0.132 NA
ATOM     36  N   UNL     1      20.380  35.187  10.800  1.00  0.00    -0.226 N 
ATOM     37  N   UNL     1      19.996  35.404   9.557  1.00  0.00    -0.065 NA
BRANCH  36  38
ATOM     38  C   UNL     1      20.431  33.894  11.500  1.00  0.00     0.307 C 
BRANCH  38  39
ATOM     39  O   UNL     1      21.697  33.720  12.051  1.00  0.00    -0.355 OA
BRANCH  39  40
ATOM     40  C   UNL     1      21.683  32.914  13.166  1.00  0.00     0.198 C 
BRANCH  40  41
ATOM     41  C   UNL     1      22.259  31.570  12.958  1.00  0.00    -0.022 A 
ATOM     42  C   UNL     1      21.453  30.539  12.521  1.00  0.00     0.006 A 
ATOM     43  C   UNL     1      23.589  31.323  13.186  1.00  0.00     0.006 A 
ATOM     44  C   UNL     1      21.978  29.261  12.312  1.00  0.00     0.000 A 
ATOM     45  C   UNL     1      24.105  30.054  12.977  1.00  0.00     0.000 A 
ATOM     46  C   UNL     1      23.319  29.031  12.547  1.00  0.00     0.000 A 
ENDBRANCH  40  41
ENDBRANCH  39  40
ENDBRANCH  38  39
ENDBRANCH  36  38
ENDBRANCH  32  33
ENDBRANCH  31  32
ENDBRANCH   2  31
TORSDOF 18
BEGIN_RES LYS A 131
REMARK  4 active torsions:
REMARK  status: ('A' for Active; 'I' for Inactive)
REMARK    1  A    between atoms: CA   and  CB  
REMARK    2  A    between atoms: CB   and  CG  
REMARK    3  A    between atoms: CG   and  CD  
REMARK    4  A    between atoms: CD   and  CE  
ROOT
ATOM      1  CA  LYS A 131      29.867  25.555  16.977  1.00 20.52     0.186 C 
ENDROOT
BRANCH   1   2
ATOM      2  CB  LYS A 131      28.345  25.722  17.026  1.00 20.94     0.034 C 
BRANCH   2   3
ATOM      3  CG  LYS A 131      27.601  24.403  16.887  1.00 22.96     0.005 C 
BRANCH   3   4
ATOM      4  CD  LYS A 131      26.665  24.157  18.037  1.00 24.33     0.041 C 
BRANCH   4   5
ATOM      5  CE  LYS A 131      25.531  23.242  17.584  1.00 26.91     0.338 C 
ATOM      6  NZ  LYS A 131      24.487  24.021  16.878  1.00 27.40     0.618 N 
ENDBRANCH   4   5
ENDBRANCH   3   4
ENDBRANCH   2   3
ENDBRANCH   1   2
END_RES LYS A 131
BEGIN_RES LYS A 135
REMARK  4 active torsions:
REMARK  status: ('A' for Active; 'I' for Inactive)
REMARK    5  A    between atoms: CA   and  CB  
REMARK    6  A    between atoms: CB   and  CG  
REMARK    7  A    between atoms: CG   and  CD  
REMARK    8  A    between atoms: CD   and  CE  
ROOT
ATOM      7  CA  LYS A 135      33.193  34.663   9.290  1.00 25.02     0.186 C 
ENDROOT
BRANCH   7   8
ATOM      8  CB  LYS A 135      32.060  35.360  10.034  1.00 26.63     0.034 C 
BRANCH   8   9
ATOM      9  CG  LYS A 135      30.698  34.794   9.725  1.00 29.45     0.005 C 
BRANCH   9  10
ATOM     10  CD  LYS A 135      29.789  34.889  10.940  1.00 32.00     0.041 C 
BRANCH  10  11
ATOM     11  CE  LYS A 135      30.597  35.194  12.187  1.00 34.25     0.338 C 
ATOM     12  NZ  LYS A 135      30.164  34.341  13.329  1.00 35.99     0.618 N 
ENDBRANCH  10  11
ENDBRANCH   9  10
ENDBRANCH   8   9
ENDBRANCH   7   8
END_RES LYS A 135
