REMARK VINA RESULT:    -6.197      2.420      4.082
REMARK INTER + INTRA:         -16.228
REMARK INTER:                 -10.595
REMARK INTRA:                  -5.633
REMARK UNBOUND:                -4.777
REMARK SMILES CC(=O)N[C@@H]1[C@@H](O)C[C@](O)(C(=O)O)O[C@H]1C(O)[C@H](O)CNC(=O)OCc1cn(C(C)(C)C(=O)c2c[nH]c3ccccc23)nn1
REMARK SMILES IDX 21 1 22 2 23 3 20 5 18 6 16 7 15 8 9 9 8 10 14 11 6 12 5 13
REMARK SMILES IDX 10 14 11 16 12 17 13 18 7 20 4 22 2 23 1 25 3 26 17 27 19 29
REMARK SMILES IDX 24 31 25 32 26 33 27 34 44 35 28 36 43 37 29 38 30 39 31 40
REMARK SMILES IDX 32 41 33 42 34 43 35 44 42 45 36 46 37 47 41 48 38 50 40 51
REMARK SMILES IDX 39 52
REMARK H PARENT 21 4 10 15 13 19 7 21 4 24 17 28 19 30 36 49
REMARK Flexibility Score: inf
ROOT
ATOM      1  N   UNL     1      29.214  40.554  12.869  1.00  0.00    -0.319 N 
ATOM      2  C   UNL     1      30.594  40.758  13.105  1.00  0.00     0.407 C 
ATOM      3  O   UNL     1      31.393  40.860  12.171  1.00  0.00    -0.225 OA
ATOM      4  H   UNL     1      28.607  40.486  13.755  1.00  0.00     0.167 HD
ENDROOT
BRANCH   1   5
ATOM      5  C   UNL     1      28.584  40.433  11.583  1.00  0.00     0.154 C 
BRANCH   5   6
ATOM      6  C   UNL     1      28.755  39.130  10.895  1.00  0.00     0.165 C 
BRANCH   6   7
ATOM      7  C   UNL     1      27.640  38.808   9.913  1.00  0.00     0.176 C 
BRANCH   7   8
ATOM      8  C   UNL     1      28.154  38.054   8.714  1.00  0.00     0.178 C 
ATOM      9  C   UNL     1      29.428  39.285   7.221  1.00  0.00     0.269 C 
ATOM     10  C   UNL     1      28.823  38.645   5.990  1.00  0.00     0.112 C 
ATOM     11  O   UNL     1      29.404  38.431   8.316  1.00  0.00    -0.332 OA
ATOM     12  C   UNL     1      27.877  37.520   6.358  1.00  0.00     0.145 C 
ATOM     13  C   UNL     1      27.129  38.004   7.602  1.00  0.00     0.142 C 
BRANCH   9  14
ATOM     14  O   UNL     1      28.839  40.509   7.532  1.00  0.00    -0.357 OA
ATOM     15  H   UNL     1      27.871  40.391   7.752  1.00  0.00     0.214 HD
ENDBRANCH   9  14
BRANCH   9  16
ATOM     16  C   UNL     1      30.857  39.559   6.910  1.00  0.00     0.364 C 
ATOM     17  O   UNL     1      31.608  40.049   7.812  1.00  0.00    -0.246 OA
BRANCH  16  18
ATOM     18  O   UNL     1      31.428  39.309   5.684  1.00  0.00    -0.477 OA
ATOM     19  H   UNL     1      31.533  38.379   5.298  1.00  0.00     0.296 HD
ENDBRANCH  16  18
ENDBRANCH   9  16
BRANCH  12  20
ATOM     20  O   UNL     1      27.011  37.203   5.338  1.00  0.00    -0.391 OA
ATOM     21  H   UNL     1      26.710  36.249   5.474  1.00  0.00     0.211 HD
ENDBRANCH  12  20
BRANCH  13  22
ATOM     22  N   UNL     1      26.065  37.106   7.960  1.00  0.00    -0.348 N 
ATOM     23  C   UNL     1      24.687  37.524   7.977  1.00  0.00     0.217 C 
ATOM     24  H   UNL     1      26.221  36.103   8.229  1.00  0.00     0.163 HD
ATOM     25  C   UNL     1      23.576  36.643   8.335  1.00  0.00     0.114 C 
ATOM     26  O   UNL     1      24.469  38.736   7.654  1.00  0.00    -0.275 OA
ENDBRANCH  13  22
ENDBRANCH   7   8
BRANCH   7  27
ATOM     27  O   UNL     1      26.740  38.006  10.620  1.00  0.00    -0.388 OA
ATOM     28  H   UNL     1      26.768  37.069  10.346  1.00  0.00     0.211 HD
ENDBRANCH   7  27
ENDBRANCH   6   7
BRANCH   6  29
ATOM     29  O   UNL     1      28.786  38.091  11.806  1.00  0.00    -0.388 OA
ATOM     30  H   UNL     1      28.321  38.397  12.627  1.00  0.00     0.211 HD
ENDBRANCH   6  29
ENDBRANCH   5   6
ENDBRANCH   1   5
BRANCH   2  31
ATOM     31  O   UNL     1      31.116  40.853  14.397  1.00  0.00    -0.443 OA
BRANCH  31  32
ATOM     32  C   UNL     1      30.689  39.991  15.410  1.00  0.00     0.294 C 
BRANCH  32  33
ATOM     33  C   UNL     1      30.517  38.613  14.881  1.00  0.00     0.120 A 
ATOM     34  C   UNL     1      31.520  37.803  14.371  1.00  0.00     0.139 A 
ATOM     35  N   UNL     1      29.396  37.870  14.784  1.00  0.00    -0.132 NA
ATOM     36  N   UNL     1      30.988  36.624  13.990  1.00  0.00    -0.239 N 
ATOM     37  N   UNL     1      29.695  36.698  14.254  1.00  0.00    -0.066 NA
BRANCH  36  38
ATOM     38  C   UNL     1      31.724  35.491  13.398  1.00  0.00     0.122 C 
ATOM     39  C   UNL     1      30.754  34.554  12.766  1.00  0.00     0.046 C 
ATOM     40  C   UNL     1      32.612  36.158  12.330  1.00  0.00     0.046 C 
BRANCH  38  41
ATOM     41  C   UNL     1      32.588  34.939  14.439  1.00  0.00     0.192 C 
ATOM     42  O   UNL     1      33.829  34.718  14.216  1.00  0.00    -0.291 OA
BRANCH  41  43
ATOM     43  C   UNL     1      32.157  34.588  15.788  1.00  0.00     0.045 A 
ATOM     44  C   UNL     1      32.345  35.384  16.917  1.00  0.00     0.095 A 
ATOM     45  C   UNL     1      31.533  33.421  16.145  1.00  0.00     0.010 A 
ATOM     46  N   UNL     1      31.839  34.702  17.942  1.00  0.00    -0.360 N 
ATOM     47  C   UNL     1      31.340  33.518  17.526  1.00  0.00     0.046 A 
ATOM     48  C   UNL     1      31.096  32.291  15.460  1.00  0.00     0.011 A 
ATOM     49  H   UNL     1      31.822  35.018  18.923  1.00  0.00     0.166 HD
ATOM     50  C   UNL     1      30.716  32.468  18.172  1.00  0.00     0.027 A 
ATOM     51  C   UNL     1      30.483  31.273  16.131  1.00  0.00     0.001 A 
ATOM     52  C   UNL     1      30.294  31.360  17.478  1.00  0.00     0.002 A 
ENDBRANCH  41  43
ENDBRANCH  38  41
ENDBRANCH  36  38
ENDBRANCH  32  33
ENDBRANCH  31  32
ENDBRANCH   2  31
TORSDOF 17
BEGIN_RES LYS A 131
REMARK  4 active torsions:
REMARK  status: ('A' for Active; 'I' for Inactive)
REMARK    1  A    between atoms: CA   and  CB  
REMARK    2  A    between atoms: CB   and  CG  
REMARK    3  A    between atoms: CG   and  CD  
REMARK    4  A    between atoms: CD   and  CE  
ROOT
ATOM      1  CA  LYS A 131      29.867  25.555  16.977  1.00 20.52     0.186 C 
ENDROOT
BRANCH   1   2
ATOM      2  CB  LYS A 131      28.345  25.722  17.026  1.00 20.94     0.034 C 
BRANCH   2   3
ATOM      3  CG  LYS A 131      27.602  24.399  16.917  1.00 22.96     0.005 C 
BRANCH   3   4
ATOM      4  CD  LYS A 131      26.157  24.528  17.312  1.00 24.33     0.041 C 
BRANCH   4   5
ATOM      5  CE  LYS A 131      26.063  25.129  18.711  1.00 26.91     0.338 C 
ATOM      6  NZ  LYS A 131      24.820  25.925  18.851  1.00 27.40     0.618 N 
ENDBRANCH   4   5
ENDBRANCH   3   4
ENDBRANCH   2   3
ENDBRANCH   1   2
END_RES LYS A 131
BEGIN_RES LYS A 135
REMARK  4 active torsions:
REMARK  status: ('A' for Active; 'I' for Inactive)
REMARK    5  A    between atoms: CA   and  CB  
REMARK    6  A    between atoms: CB   and  CG  
REMARK    7  A    between atoms: CG   and  CD  
REMARK    8  A    between atoms: CD   and  CE  
ROOT
ATOM      7  CA  LYS A 135      33.193  34.663   9.290  1.00 25.02     0.186 C 
ENDROOT
BRANCH   7   8
ATOM      8  CB  LYS A 135      32.060  35.360  10.034  1.00 26.63     0.034 C 
BRANCH   8   9
ATOM      9  CG  LYS A 135      30.809  35.523   9.210  1.00 29.45     0.005 C 
BRANCH   9  10
ATOM     10  CD  LYS A 135      30.076  34.196   9.079  1.00 32.00     0.041 C 
BRANCH  10  11
ATOM     11  CE  LYS A 135      28.744  34.391   8.381  1.00 34.25     0.338 C 
ATOM     12  NZ  LYS A 135      27.609  34.125   9.308  1.00 35.99     0.618 N 
ENDBRANCH  10  11
ENDBRANCH   9  10
ENDBRANCH   8   9
ENDBRANCH   7   8
END_RES LYS A 135
