REMARK VINA RESULT:    -5.342      5.186      8.595
REMARK INTER + INTRA:         -14.307
REMARK INTER:                  -8.474
REMARK INTRA:                  -5.833
REMARK UNBOUND:                -4.749
REMARK SMILES CC(=O)N[C@@H]1[C@@H](O)C[C@](O)(C(=O)O)O[C@H]1C(O)[C@H](O)CNC(=O)OCc1cn(-c2ccc([N+](=O)[O-])cc2)nn1
REMARK SMILES IDX 21 1 22 2 23 3 20 5 18 6 16 7 15 8 9 9 8 10 14 11 6 12 5 13
REMARK SMILES IDX 10 14 11 16 12 17 13 18 7 20 4 22 2 23 1 25 3 26 17 27 19 29
REMARK SMILES IDX 24 31 25 32 26 33 27 34 39 35 28 36 38 37 29 38 30 39 37 40
REMARK SMILES IDX 31 41 36 42 32 43 33 44 34 45 35 46
REMARK H PARENT 21 4 10 15 13 19 7 21 4 24 17 28 19 30
REMARK Flexibility Score: inf
ROOT
ATOM      1  N   UNL     1      27.803  31.689  15.453  1.00  0.00    -0.319 N 
ATOM      2  C   UNL     1      26.985  31.842  16.588  1.00  0.00     0.407 C 
ATOM      3  O   UNL     1      27.417  31.785  17.753  1.00  0.00    -0.225 OA
ATOM      4  H   UNL     1      27.312  31.788  14.499  1.00  0.00     0.167 HD
ENDROOT
BRANCH   1   5
ATOM      5  C   UNL     1      29.187  31.418  15.483  1.00  0.00     0.154 C 
BRANCH   5   6
ATOM      6  C   UNL     1      30.168  32.509  15.322  1.00  0.00     0.165 C 
BRANCH   6   7
ATOM      7  C   UNL     1      29.968  33.626  14.406  1.00  0.00     0.176 C 
BRANCH   7   8
ATOM      8  C   UNL     1      31.031  34.718  14.573  1.00  0.00     0.178 C 
ATOM      9  C   UNL     1      31.969  35.986  16.283  1.00  0.00     0.269 C 
ATOM     10  C   UNL     1      32.739  36.595  15.134  1.00  0.00     0.112 C 
ATOM     11  O   UNL     1      31.303  34.828  15.952  1.00  0.00    -0.332 OA
ATOM     12  C   UNL     1      31.874  36.901  13.952  1.00  0.00     0.145 C 
ATOM     13  C   UNL     1      30.594  36.060  14.109  1.00  0.00     0.142 C 
BRANCH   9  14
ATOM     14  O   UNL     1      31.135  36.969  16.788  1.00  0.00    -0.357 OA
ATOM     15  H   UNL     1      30.584  36.587  17.500  1.00  0.00     0.214 HD
ENDBRANCH   9  14
BRANCH   9  16
ATOM     16  C   UNL     1      32.968  35.639  17.327  1.00  0.00     0.364 C 
ATOM     17  O   UNL     1      34.177  35.957  17.191  1.00  0.00    -0.246 OA
BRANCH  16  18
ATOM     18  O   UNL     1      32.596  34.958  18.473  1.00  0.00    -0.477 OA
ATOM     19  H   UNL     1      31.733  35.174  18.979  1.00  0.00     0.296 HD
ENDBRANCH  16  18
ENDBRANCH   9  16
BRANCH  12  20
ATOM     20  O   UNL     1      31.578  38.235  13.790  1.00  0.00    -0.391 OA
ATOM     21  H   UNL     1      31.397  38.622  14.683  1.00  0.00     0.211 HD
ENDBRANCH  12  20
BRANCH  13  22
ATOM     22  N   UNL     1      29.962  36.086  12.806  1.00  0.00    -0.348 N 
ATOM     23  C   UNL     1      28.674  36.693  12.634  1.00  0.00     0.217 C 
ATOM     24  H   UNL     1      30.399  35.680  11.957  1.00  0.00     0.163 HD
ATOM     25  C   UNL     1      27.971  36.757  11.334  1.00  0.00     0.114 C 
ATOM     26  O   UNL     1      28.133  37.189  13.644  1.00  0.00    -0.275 OA
ENDBRANCH  13  22
ENDBRANCH   7   8
BRANCH   7  27
ATOM     27  O   UNL     1      28.703  34.146  14.497  1.00  0.00    -0.388 OA
ATOM     28  H   UNL     1      28.546  34.792  15.221  1.00  0.00     0.211 HD
ENDBRANCH   7  27
ENDBRANCH   6   7
BRANCH   6  29
ATOM     29  O   UNL     1      31.421  31.857  15.135  1.00  0.00    -0.388 OA
ATOM     30  H   UNL     1      31.691  31.405  15.976  1.00  0.00     0.211 HD
ENDBRANCH   6  29
ENDBRANCH   5   6
ENDBRANCH   1   5
BRANCH   2  31
ATOM     31  O   UNL     1      25.609  32.072  16.367  1.00  0.00    -0.443 OA
BRANCH  31  32
ATOM     32  C   UNL     1      25.113  31.710  15.094  1.00  0.00     0.294 C 
BRANCH  32  33
ATOM     33  C   UNL     1      25.101  32.908  14.187  1.00  0.00     0.121 A 
ATOM     34  C   UNL     1      24.297  33.120  13.088  1.00  0.00     0.144 A 
ATOM     35  N   UNL     1      25.877  34.017  14.263  1.00  0.00    -0.131 NA
ATOM     36  N   UNL     1      24.587  34.320  12.530  1.00  0.00    -0.220 N 
ATOM     37  N   UNL     1      25.548  34.818  13.279  1.00  0.00    -0.062 NA
BRANCH  36  38
ATOM     38  C   UNL     1      23.976  34.899  11.380  1.00  0.00     0.067 A 
ATOM     39  C   UNL     1      22.608  35.014  11.255  1.00  0.00     0.035 A 
ATOM     40  C   UNL     1      24.740  35.376  10.330  1.00  0.00     0.035 A 
ATOM     41  C   UNL     1      22.038  35.580  10.132  1.00  0.00     0.088 A 
ATOM     42  C   UNL     1      24.171  35.943   9.207  1.00  0.00     0.088 A 
ATOM     43  C   UNL     1      22.803  36.059   9.079  1.00  0.00     0.269 A 
BRANCH  43  44
ATOM     44  N   UNL     1      22.227  36.641   7.926  1.00  0.00     0.062 N 
ATOM     45  O   UNL     1      22.907  37.438   7.258  1.00  0.00    -0.258 OA
ATOM     46  O   UNL     1      20.957  36.377   7.495  1.00  0.00    -0.258 OA
ENDBRANCH  43  44
ENDBRANCH  36  38
ENDBRANCH  32  33
ENDBRANCH  31  32
ENDBRANCH   2  31
TORSDOF 16
BEGIN_RES LYS A 131
REMARK  4 active torsions:
REMARK  status: ('A' for Active; 'I' for Inactive)
REMARK    1  A    between atoms: CA   and  CB  
REMARK    2  A    between atoms: CB   and  CG  
REMARK    3  A    between atoms: CG   and  CD  
REMARK    4  A    between atoms: CD   and  CE  
ROOT
ATOM      1  CA  LYS A 131      29.867  25.555  16.977  1.00 20.52     0.186 C 
ENDROOT
BRANCH   1   2
ATOM      2  CB  LYS A 131      28.345  25.722  17.026  1.00 20.94     0.034 C 
BRANCH   2   3
ATOM      3  CG  LYS A 131      27.601  24.406  16.861  1.00 22.96     0.005 C 
BRANCH   3   4
ATOM      4  CD  LYS A 131      26.570  24.199  17.936  1.00 24.33     0.041 C 
BRANCH   4   5
ATOM      5  CE  LYS A 131      25.223  23.879  17.296  1.00 26.91     0.338 C 
ATOM      6  NZ  LYS A 131      24.803  22.499  17.634  1.00 27.40     0.618 N 
ENDBRANCH   4   5
ENDBRANCH   3   4
ENDBRANCH   2   3
ENDBRANCH   1   2
END_RES LYS A 131
BEGIN_RES LYS A 135
REMARK  4 active torsions:
REMARK  status: ('A' for Active; 'I' for Inactive)
REMARK    5  A    between atoms: CA   and  CB  
REMARK    6  A    between atoms: CB   and  CG  
REMARK    7  A    between atoms: CG   and  CD  
REMARK    8  A    between atoms: CD   and  CE  
ROOT
ATOM      7  CA  LYS A 135      33.193  34.663   9.290  1.00 25.02     0.186 C 
ENDROOT
BRANCH   7   8
ATOM      8  CB  LYS A 135      32.060  35.360  10.034  1.00 26.63     0.034 C 
BRANCH   8   9
ATOM      9  CG  LYS A 135      30.828  35.572   9.193  1.00 29.45     0.005 C 
BRANCH   9  10
ATOM     10  CD  LYS A 135      30.200  34.240   8.814  1.00 32.00     0.041 C 
BRANCH  10  11
ATOM     11  CE  LYS A 135      28.726  34.414   8.503  1.00 34.25     0.338 C 
ATOM     12  NZ  LYS A 135      27.881  33.659   9.469  1.00 35.99     0.618 N 
ENDBRANCH  10  11
ENDBRANCH   9  10
ENDBRANCH   8   9
ENDBRANCH   7   8
END_RES LYS A 135
