REMARK VINA RESULT:    -4.833      5.794      9.685
REMARK INTER + INTRA:         -13.391
REMARK INTER:                  -8.447
REMARK INTRA:                  -4.944
REMARK UNBOUND:                -5.026
REMARK SMILES CC(=O)N[C@@H]1[C@@H](O)C[C@](O)(C(=O)O)O[C@H]1C(O)[C@H](O)CNC(=O)OCc1cn(C2CCCC2)nn1
REMARK SMILES IDX 20 1 18 2 16 3 15 4 9 5 8 6 14 7 6 8 5 9 10 10 11 12 12 13
REMARK SMILES IDX 13 14 7 16 4 18 2 19 1 21 3 22 17 23 19 25 21 27 22 28 23 30
REMARK SMILES IDX 24 31 25 32 26 33 27 34 35 35 28 36 34 37 29 38 30 39 33 40
REMARK SMILES IDX 31 41 32 42
REMARK H PARENT 10 11 13 15 7 17 4 20 17 24 19 26 21 29
REMARK Flexibility Score: inf
ROOT
ATOM      1  C   UNL     1      26.509  40.143   5.990  1.00  0.00     0.154 C 
ENDROOT
BRANCH   1   2
ATOM      2  C   UNL     1      27.296  39.642   4.811  1.00  0.00     0.165 C 
BRANCH   2   3
ATOM      3  C   UNL     1      28.102  38.458   5.308  1.00  0.00     0.176 C 
BRANCH   3   4
ATOM      4  C   UNL     1      28.595  38.646   6.707  1.00  0.00     0.178 C 
ATOM      5  C   UNL     1      29.834  40.123   7.994  1.00  0.00     0.269 C 
ATOM      6  C   UNL     1      29.517  39.068   9.043  1.00  0.00     0.112 C 
ATOM      7  O   UNL     1      29.621  39.561   6.734  1.00  0.00    -0.332 OA
ATOM      8  C   UNL     1      29.982  37.738   8.486  1.00  0.00     0.145 C 
ATOM      9  C   UNL     1      28.998  37.366   7.384  1.00  0.00     0.142 C 
BRANCH   5  10
ATOM     10  O   UNL     1      31.171  40.463   8.166  1.00  0.00    -0.357 OA
ATOM     11  H   UNL     1      31.686  39.600   8.222  1.00  0.00     0.214 HD
ENDBRANCH   5  10
BRANCH   5  12
ATOM     12  C   UNL     1      29.011  41.328   8.156  1.00  0.00     0.364 C 
ATOM     13  O   UNL     1      29.072  42.279   7.337  1.00  0.00    -0.246 OA
BRANCH  12  14
ATOM     14  O   UNL     1      28.138  41.451   9.224  1.00  0.00    -0.477 OA
ATOM     15  H   UNL     1      28.465  41.625  10.183  1.00  0.00     0.296 HD
ENDBRANCH  12  14
ENDBRANCH   5  12
BRANCH   8  16
ATOM     16  O   UNL     1      31.252  37.955   7.926  1.00  0.00    -0.391 OA
ATOM     17  H   UNL     1      31.150  37.875   6.941  1.00  0.00     0.211 HD
ENDBRANCH   8  16
BRANCH   9  18
ATOM     18  N   UNL     1      27.869  36.683   7.981  1.00  0.00    -0.348 N 
ATOM     19  C   UNL     1      27.828  35.273   8.054  1.00  0.00     0.217 C 
ATOM     20  H   UNL     1      27.075  37.228   8.364  1.00  0.00     0.163 HD
ATOM     21  C   UNL     1      26.705  34.510   8.652  1.00  0.00     0.114 C 
ATOM     22  O   UNL     1      28.796  34.629   7.588  1.00  0.00    -0.275 OA
ENDBRANCH   9  18
ENDBRANCH   3   4
BRANCH   3  23
ATOM     23  O   UNL     1      27.239  37.361   5.301  1.00  0.00    -0.388 OA
ATOM     24  H   UNL     1      26.320  37.585   5.055  1.00  0.00     0.211 HD
ENDBRANCH   3  23
ENDBRANCH   2   3
BRANCH   2  25
ATOM     25  O   UNL     1      28.140  40.602   4.305  1.00  0.00    -0.388 OA
ATOM     26  H   UNL     1      27.666  41.116   3.597  1.00  0.00     0.211 HD
ENDBRANCH   2  25
ENDBRANCH   1   2
BRANCH   1  27
ATOM     27  N   UNL     1      25.367  39.365   6.354  1.00  0.00    -0.319 N 
ATOM     28  C   UNL     1      24.257  39.814   7.077  1.00  0.00     0.407 C 
ATOM     29  H   UNL     1      25.375  38.343   6.039  1.00  0.00     0.167 HD
ATOM     30  O   UNL     1      24.203  41.000   7.476  1.00  0.00    -0.225 OA
BRANCH  28  31
ATOM     31  O   UNL     1      23.192  38.940   7.361  1.00  0.00    -0.443 OA
BRANCH  31  32
ATOM     32  C   UNL     1      23.507  37.572   7.544  1.00  0.00     0.294 C 
BRANCH  32  33
ATOM     33  C   UNL     1      24.292  37.440   8.791  1.00  0.00     0.120 A 
ATOM     34  C   UNL     1      23.864  36.717   9.897  1.00  0.00     0.138 A 
ATOM     35  N   UNL     1      25.480  37.935   9.116  1.00  0.00    -0.132 NA
ATOM     36  N   UNL     1      24.810  36.810  10.831  1.00  0.00    -0.249 N 
ATOM     37  N   UNL     1      25.785  37.553  10.346  1.00  0.00    -0.067 NA
BRANCH  36  38
ATOM     38  C   UNL     1      24.716  36.177  12.142  1.00  0.00     0.109 C 
ATOM     39  C   UNL     1      24.147  34.801  11.943  1.00  0.00     0.027 C 
ATOM     40  C   UNL     1      26.111  36.006  12.702  1.00  0.00     0.027 C 
ATOM     41  C   UNL     1      25.129  33.840  12.531  1.00  0.00     0.002 C 
ATOM     42  C   UNL     1      26.449  34.553  12.420  1.00  0.00     0.002 C 
ENDBRANCH  36  38
ENDBRANCH  32  33
ENDBRANCH  31  32
ENDBRANCH  28  31
ENDBRANCH   1  27
TORSDOF 15
BEGIN_RES LYS A 131
REMARK  4 active torsions:
REMARK  status: ('A' for Active; 'I' for Inactive)
REMARK    1  A    between atoms: CA   and  CB  
REMARK    2  A    between atoms: CB   and  CG  
REMARK    3  A    between atoms: CG   and  CD  
REMARK    4  A    between atoms: CD   and  CE  
ROOT
ATOM      1  CA  LYS A 131      29.867  25.555  16.977  1.00 20.52     0.186 C 
ENDROOT
BRANCH   1   2
ATOM      2  CB  LYS A 131      28.345  25.722  17.026  1.00 20.94     0.034 C 
BRANCH   2   3
ATOM      3  CG  LYS A 131      27.601  24.401  16.905  1.00 22.96     0.005 C 
BRANCH   3   4
ATOM      4  CD  LYS A 131      26.152  24.530  17.284  1.00 24.33     0.041 C 
BRANCH   4   5
ATOM      5  CE  LYS A 131      25.732  23.318  18.109  1.00 26.91     0.338 C 
ATOM      6  NZ  LYS A 131      24.291  23.393  18.445  1.00 27.40     0.618 N 
ENDBRANCH   4   5
ENDBRANCH   3   4
ENDBRANCH   2   3
ENDBRANCH   1   2
END_RES LYS A 131
BEGIN_RES LYS A 135
REMARK  4 active torsions:
REMARK  status: ('A' for Active; 'I' for Inactive)
REMARK    5  A    between atoms: CA   and  CB  
REMARK    6  A    between atoms: CB   and  CG  
REMARK    7  A    between atoms: CG   and  CD  
REMARK    8  A    between atoms: CD   and  CE  
ROOT
ATOM      7  CA  LYS A 135      33.193  34.663   9.290  1.00 25.02     0.186 C 
ENDROOT
BRANCH   7   8
ATOM      8  CB  LYS A 135      32.060  35.360  10.034  1.00 26.63     0.034 C 
BRANCH   8   9
ATOM      9  CG  LYS A 135      30.844  34.491  10.231  1.00 29.45     0.005 C 
BRANCH   9  10
ATOM     10  CD  LYS A 135      29.883  35.130  11.221  1.00 32.00     0.041 C 
BRANCH  10  11
ATOM     11  CE  LYS A 135      30.143  34.614  12.624  1.00 34.25     0.338 C 
ATOM     12  NZ  LYS A 135      30.996  35.562  13.394  1.00 35.99     0.618 N 
ENDBRANCH  10  11
ENDBRANCH   9  10
ENDBRANCH   8   9
ENDBRANCH   7   8
END_RES LYS A 135
