REMARK VINA RESULT:    -4.915      4.348      8.055
REMARK INTER + INTRA:         -16.302
REMARK INTER:                  -9.915
REMARK INTRA:                  -6.388
REMARK UNBOUND:                -6.934
REMARK SMILES CC(=O)N[C@@H]1[C@@H](O)C[C@](O)(C(=O)O)O[C@H]1C(O)[C@H](O)CNC(=O)OCc1cn(C(C)CC(=O)c2ccccc2)nn1
REMARK SMILES IDX 21 1 22 2 23 3 20 5 18 6 16 7 15 8 9 9 8 10 14 11 6 12 5 13
REMARK SMILES IDX 10 14 11 16 12 17 13 18 7 20 4 22 2 23 1 25 3 26 17 27 19 29
REMARK SMILES IDX 24 31 25 32 26 33 27 34 41 35 28 36 40 37 29 38 30 39 31 40
REMARK SMILES IDX 32 41 33 42 34 43 35 44 39 45 36 46 38 47 37 48
REMARK H PARENT 21 4 10 15 13 19 7 21 4 24 17 28 19 30
REMARK Flexibility Score: inf
ROOT
ATOM      1  N   UNL     1      28.602  32.719  17.605  1.00  0.00    -0.319 N 
ATOM      2  C   UNL     1      27.673  33.726  17.995  1.00  0.00     0.407 C 
ATOM      3  O   UNL     1      27.920  34.911  17.707  1.00  0.00    -0.225 OA
ATOM      4  H   UNL     1      28.318  31.731  17.885  1.00  0.00     0.167 HD
ENDROOT
BRANCH   1   5
ATOM      5  C   UNL     1      29.833  32.976  16.890  1.00  0.00     0.154 C 
BRANCH   5   6
ATOM      6  C   UNL     1      29.660  32.825  15.395  1.00  0.00     0.165 C 
BRANCH   6   7
ATOM      7  C   UNL     1      30.757  33.531  14.626  1.00  0.00     0.176 C 
BRANCH   7   8
ATOM      8  C   UNL     1      30.971  34.946  15.074  1.00  0.00     0.178 C 
ATOM      9  C   UNL     1      30.069  36.288  13.392  1.00  0.00     0.269 C 
ATOM     10  C   UNL     1      31.430  36.767  12.955  1.00  0.00     0.112 C 
ATOM     11  O   UNL     1      29.993  35.813  14.666  1.00  0.00    -0.332 OA
ATOM     12  C   UNL     1      32.528  35.803  13.292  1.00  0.00     0.145 C 
ATOM     13  C   UNL     1      32.370  35.441  14.752  1.00  0.00     0.142 C 
BRANCH   9  14
ATOM     14  O   UNL     1      29.553  35.401  12.420  1.00  0.00    -0.357 OA
ATOM     15  H   UNL     1      28.578  35.349  12.447  1.00  0.00     0.214 HD
ENDBRANCH   9  14
BRANCH   9  16
ATOM     16  C   UNL     1      29.176  37.504  13.331  1.00  0.00     0.364 C 
ATOM     17  O   UNL     1      29.373  38.461  12.571  1.00  0.00    -0.246 OA
BRANCH  16  18
ATOM     18  O   UNL     1      28.083  37.473  14.213  1.00  0.00    -0.477 OA
ATOM     19  H   UNL     1      27.676  38.327  14.561  1.00  0.00     0.296 HD
ENDBRANCH  16  18
ENDBRANCH   9  16
BRANCH  12  20
ATOM     20  O   UNL     1      32.556  34.703  12.469  1.00  0.00    -0.391 OA
ATOM     21  H   UNL     1      31.801  34.103  12.683  1.00  0.00     0.211 HD
ENDBRANCH  12  20
BRANCH  13  22
ATOM     22  N   UNL     1      32.520  36.707  15.488  1.00  0.00    -0.348 N 
ATOM     23  C   UNL     1      33.631  36.871  16.361  1.00  0.00     0.217 C 
ATOM     24  H   UNL     1      31.842  37.486  15.390  1.00  0.00     0.163 HD
ATOM     25  C   UNL     1      33.768  38.156  17.094  1.00  0.00     0.114 C 
ATOM     26  O   UNL     1      34.449  35.933  16.479  1.00  0.00    -0.275 OA
ENDBRANCH  13  22
ENDBRANCH   7   8
BRANCH   7  27
ATOM     27  O   UNL     1      31.915  32.767  14.786  1.00  0.00    -0.388 OA
ATOM     28  H   UNL     1      31.653  31.836  15.055  1.00  0.00     0.211 HD
ENDBRANCH   7  27
ENDBRANCH   6   7
BRANCH   6  29
ATOM     29  O   UNL     1      28.401  33.345  15.031  1.00  0.00    -0.388 OA
ATOM     30  H   UNL     1      27.685  32.668  15.119  1.00  0.00     0.211 HD
ENDBRANCH   6  29
ENDBRANCH   5   6
ENDBRANCH   1   5
BRANCH   2  31
ATOM     31  O   UNL     1      26.511  33.443  18.676  1.00  0.00    -0.443 OA
BRANCH  31  32
ATOM     32  C   UNL     1      25.283  33.070  18.089  1.00  0.00     0.294 C 
BRANCH  32  33
ATOM     33  C   UNL     1      25.395  32.524  16.733  1.00  0.00     0.120 A 
ATOM     34  C   UNL     1      24.789  33.052  15.586  1.00  0.00     0.138 A 
ATOM     35  N   UNL     1      26.078  31.435  16.298  1.00  0.00    -0.132 NA
ATOM     36  N   UNL     1      25.119  32.295  14.557  1.00  0.00    -0.249 N 
ATOM     37  N   UNL     1      25.885  31.339  14.996  1.00  0.00    -0.067 NA
BRANCH  36  38
ATOM     38  C   UNL     1      24.676  32.522  13.145  1.00  0.00     0.114 C 
ATOM     39  C   UNL     1      23.253  32.026  13.122  1.00  0.00     0.034 C 
BRANCH  38  40
ATOM     40  C   UNL     1      24.791  33.952  12.894  1.00  0.00     0.108 C 
BRANCH  40  41
ATOM     41  C   UNL     1      25.924  34.484  12.203  1.00  0.00     0.164 C 
ATOM     42  O   UNL     1      26.833  34.996  13.038  1.00  0.00    -0.294 OA
BRANCH  41  43
ATOM     43  C   UNL     1      26.296  34.591  10.827  1.00  0.00     0.018 A 
ATOM     44  C   UNL     1      25.560  35.472   9.995  1.00  0.00     0.012 A 
ATOM     45  C   UNL     1      27.333  33.922  10.225  1.00  0.00     0.012 A 
ATOM     46  C   UNL     1      25.874  35.636   8.670  1.00  0.00     0.001 A 
ATOM     47  C   UNL     1      27.621  34.113   8.881  1.00  0.00     0.001 A 
ATOM     48  C   UNL     1      26.914  34.955   8.088  1.00  0.00     0.000 A 
ENDBRANCH  41  43
ENDBRANCH  40  41
ENDBRANCH  38  40
ENDBRANCH  36  38
ENDBRANCH  32  33
ENDBRANCH  31  32
ENDBRANCH   2  31
TORSDOF 18
BEGIN_RES LYS A 131
REMARK  4 active torsions:
REMARK  status: ('A' for Active; 'I' for Inactive)
REMARK    1  A    between atoms: CA   and  CB  
REMARK    2  A    between atoms: CB   and  CG  
REMARK    3  A    between atoms: CG   and  CD  
REMARK    4  A    between atoms: CD   and  CE  
ROOT
ATOM      1  CA  LYS A 131      29.867  25.555  16.977  1.00 20.52     0.186 C 
ENDROOT
BRANCH   1   2
ATOM      2  CB  LYS A 131      28.345  25.722  17.026  1.00 20.94     0.034 C 
BRANCH   2   3
ATOM      3  CG  LYS A 131      27.599  24.461  16.617  1.00 22.96     0.005 C 
BRANCH   3   4
ATOM      4  CD  LYS A 131      27.197  23.631  17.805  1.00 24.33     0.041 C 
BRANCH   4   5
ATOM      5  CE  LYS A 131      26.129  24.370  18.604  1.00 26.91     0.338 C 
ATOM      6  NZ  LYS A 131      25.425  23.438  19.516  1.00 27.40     0.618 N 
ENDBRANCH   4   5
ENDBRANCH   3   4
ENDBRANCH   2   3
ENDBRANCH   1   2
END_RES LYS A 131
BEGIN_RES LYS A 135
REMARK  4 active torsions:
REMARK  status: ('A' for Active; 'I' for Inactive)
REMARK    5  A    between atoms: CA   and  CB  
REMARK    6  A    between atoms: CB   and  CG  
REMARK    7  A    between atoms: CG   and  CD  
REMARK    8  A    between atoms: CD   and  CE  
ROOT
ATOM      7  CA  LYS A 135      33.193  34.663   9.290  1.00 25.02     0.186 C 
ENDROOT
BRANCH   7   8
ATOM      8  CB  LYS A 135      32.060  35.360  10.034  1.00 26.63     0.034 C 
BRANCH   8   9
ATOM      9  CG  LYS A 135      30.822  35.559   9.198  1.00 29.45     0.005 C 
BRANCH   9  10
ATOM     10  CD  LYS A 135      30.258  36.957   9.398  1.00 32.00     0.041 C 
BRANCH  10  11
ATOM     11  CE  LYS A 135      29.557  37.433   8.140  1.00 34.25     0.338 C 
ATOM     12  NZ  LYS A 135      28.610  38.543   8.442  1.00 35.99     0.618 N 
ENDBRANCH  10  11
ENDBRANCH   9  10
ENDBRANCH   8   9
ENDBRANCH   7   8
END_RES LYS A 135
