REMARK VINA RESULT:    -4.478      4.777      8.062
REMARK INTER + INTRA:         -14.307
REMARK INTER:                  -8.949
REMARK INTRA:                  -5.358
REMARK UNBOUND:                -6.295
REMARK SMILES CC(=O)N[C@@H]1[C@@H](O)C[C@](O)(C(=O)O)O[C@H]1C(O)[C@H](O)CNC(=O)OCc1cn(Cc2cccc(Br)c2)nn1
REMARK SMILES IDX 21 1 22 2 23 3 20 5 18 6 16 7 15 8 9 9 8 10 14 11 6 12 5 13
REMARK SMILES IDX 10 14 11 16 12 17 13 18 7 20 4 22 2 23 1 25 3 26 17 27 19 29
REMARK SMILES IDX 24 31 25 32 26 33 27 34 38 35 28 36 37 37 29 38 30 39 31 40
REMARK SMILES IDX 36 41 32 42 34 43 33 44 35 45
REMARK H PARENT 21 4 10 15 13 19 7 21 4 24 17 28 19 30
REMARK Flexibility Score: inf
ROOT
ATOM      1  N   UNL     1      25.904  29.886  18.721  1.00  0.00    -0.319 N 
ATOM      2  C   UNL     1      25.556  31.257  18.666  1.00  0.00     0.407 C 
ATOM      3  O   UNL     1      25.894  32.051  19.603  1.00  0.00    -0.225 OA
ATOM      4  H   UNL     1      25.607  29.273  17.933  1.00  0.00     0.167 HD
ENDROOT
BRANCH   1   5
ATOM      5  C   UNL     1      26.646  29.441  19.870  1.00  0.00     0.154 C 
BRANCH   5   6
ATOM      6  C   UNL     1      27.950  28.744  19.454  1.00  0.00     0.165 C 
BRANCH   6   7
ATOM      7  C   UNL     1      29.047  29.635  19.918  1.00  0.00     0.176 C 
BRANCH   7   8
ATOM      8  C   UNL     1      29.907  29.106  21.028  1.00  0.00     0.178 C 
ATOM      9  C   UNL     1      32.125  29.369  21.712  1.00  0.00     0.269 C 
ATOM     10  C   UNL     1      32.058  27.952  22.248  1.00  0.00     0.112 C 
ATOM     11  O   UNL     1      31.203  29.531  20.708  1.00  0.00    -0.332 OA
ATOM     12  C   UNL     1      31.220  27.068  21.337  1.00  0.00     0.145 C 
ATOM     13  C   UNL     1      29.798  27.658  21.315  1.00  0.00     0.142 C 
BRANCH   9  14
ATOM     14  O   UNL     1      33.385  29.467  21.082  1.00  0.00    -0.357 OA
ATOM     15  H   UNL     1      33.902  28.644  21.168  1.00  0.00     0.214 HD
ENDBRANCH   9  14
BRANCH   9  16
ATOM     16  C   UNL     1      32.085  30.377  22.774  1.00  0.00     0.364 C 
ATOM     17  O   UNL     1      32.391  30.068  23.949  1.00  0.00    -0.246 OA
BRANCH  16  18
ATOM     18  O   UNL     1      31.714  31.695  22.551  1.00  0.00    -0.477 OA
ATOM     19  H   UNL     1      30.884  32.051  22.982  1.00  0.00     0.296 HD
ENDBRANCH  16  18
ENDBRANCH   9  16
BRANCH  12  20
ATOM     20  O   UNL     1      31.763  26.975  20.082  1.00  0.00    -0.391 OA
ATOM     21  H   UNL     1      32.417  27.734  19.957  1.00  0.00     0.211 HD
ENDBRANCH  12  20
BRANCH  13  22
ATOM     22  N   UNL     1      29.295  27.412  22.673  1.00  0.00    -0.348 N 
ATOM     23  C   UNL     1      27.964  26.974  22.903  1.00  0.00     0.217 C 
ATOM     24  H   UNL     1      29.885  27.548  23.523  1.00  0.00     0.163 HD
ATOM     25  C   UNL     1      27.469  26.730  24.306  1.00  0.00     0.114 C 
ATOM     26  O   UNL     1      27.169  26.778  21.970  1.00  0.00    -0.275 OA
ENDBRANCH  13  22
ENDBRANCH   7   8
BRANCH   7  27
ATOM     27  O   UNL     1      28.409  30.778  20.470  1.00  0.00    -0.388 OA
ATOM     28  H   UNL     1      27.600  30.911  19.899  1.00  0.00     0.211 HD
ENDBRANCH   7  27
ENDBRANCH   6   7
BRANCH   6  29
ATOM     29  O   UNL     1      27.872  28.598  18.071  1.00  0.00    -0.388 OA
ATOM     30  H   UNL     1      26.949  28.780  17.791  1.00  0.00     0.211 HD
ENDBRANCH   6  29
ENDBRANCH   5   6
ENDBRANCH   1   5
BRANCH   2  31
ATOM     31  O   UNL     1      24.843  31.818  17.617  1.00  0.00    -0.443 OA
BRANCH  31  32
ATOM     32  C   UNL     1      25.434  32.222  16.395  1.00  0.00     0.294 C 
BRANCH  32  33
ATOM     33  C   UNL     1      26.776  31.609  16.213  1.00  0.00     0.120 A 
ATOM     34  C   UNL     1      28.005  32.210  16.506  1.00  0.00     0.138 A 
ATOM     35  N   UNL     1      27.094  30.388  15.746  1.00  0.00    -0.132 NA
ATOM     36  N   UNL     1      28.981  31.346  16.209  1.00  0.00    -0.248 N 
ATOM     37  N   UNL     1      28.405  30.251  15.751  1.00  0.00    -0.067 NA
BRANCH  36  38
ATOM     38  C   UNL     1      30.411  31.519  16.341  1.00  0.00     0.181 C 
BRANCH  38  39
ATOM     39  C   UNL     1      30.843  32.757  15.642  1.00  0.00    -0.025 A 
ATOM     40  C   UNL     1      30.297  33.119  14.430  1.00  0.00     0.006 A 
ATOM     41  C   UNL     1      31.798  33.561  16.200  1.00  0.00     0.021 A 
ATOM     42  C   UNL     1      30.703  34.282  13.771  1.00  0.00     0.002 A 
ATOM     43  C   UNL     1      32.211  34.725  15.551  1.00  0.00     0.018 A 
ATOM     44  C   UNL     1      31.658  35.084  14.333  1.00  0.00     0.016 A 
ATOM     45  Br  UNL     1      33.539  35.816  16.356  1.00  0.00    -0.051 Br
ENDBRANCH  38  39
ENDBRANCH  36  38
ENDBRANCH  32  33
ENDBRANCH  31  32
ENDBRANCH   2  31
TORSDOF 16
BEGIN_RES LYS A 131
REMARK  4 active torsions:
REMARK  status: ('A' for Active; 'I' for Inactive)
REMARK    1  A    between atoms: CA   and  CB  
REMARK    2  A    between atoms: CB   and  CG  
REMARK    3  A    between atoms: CG   and  CD  
REMARK    4  A    between atoms: CD   and  CE  
ROOT
ATOM      1  CA  LYS A 131      29.867  25.555  16.977  1.00 20.52     0.186 C 
ENDROOT
BRANCH   1   2
ATOM      2  CB  LYS A 131      28.345  25.722  17.026  1.00 20.94     0.034 C 
BRANCH   2   3
ATOM      3  CG  LYS A 131      27.602  24.399  16.921  1.00 22.96     0.005 C 
BRANCH   3   4
ATOM      4  CD  LYS A 131      26.160  24.526  17.328  1.00 24.33     0.041 C 
BRANCH   4   5
ATOM      5  CE  LYS A 131      26.074  25.181  18.703  1.00 26.91     0.338 C 
ATOM      6  NZ  LYS A 131      25.486  24.244  19.688  1.00 27.40     0.618 N 
ENDBRANCH   4   5
ENDBRANCH   3   4
ENDBRANCH   2   3
ENDBRANCH   1   2
END_RES LYS A 131
BEGIN_RES LYS A 135
REMARK  4 active torsions:
REMARK  status: ('A' for Active; 'I' for Inactive)
REMARK    5  A    between atoms: CA   and  CB  
REMARK    6  A    between atoms: CB   and  CG  
REMARK    7  A    between atoms: CG   and  CD  
REMARK    8  A    between atoms: CD   and  CE  
ROOT
ATOM      7  CA  LYS A 135      33.193  34.663   9.290  1.00 25.02     0.186 C 
ENDROOT
BRANCH   7   8
ATOM      8  CB  LYS A 135      32.060  35.360  10.034  1.00 26.63     0.034 C 
BRANCH   8   9
ATOM      9  CG  LYS A 135      30.759  34.601   9.998  1.00 29.45     0.005 C 
BRANCH   9  10
ATOM     10  CD  LYS A 135      30.393  34.229   8.570  1.00 32.00     0.041 C 
BRANCH  10  11
ATOM     11  CE  LYS A 135      29.008  34.740   8.224  1.00 34.25     0.338 C 
ATOM     12  NZ  LYS A 135      29.017  36.214   8.011  1.00 35.99     0.618 N 
ENDBRANCH  10  11
ENDBRANCH   9  10
ENDBRANCH   8   9
ENDBRANCH   7   8
END_RES LYS A 135
