REMARK VINA RESULT:    -4.173      8.949     15.366
REMARK INTER + INTRA:         -14.317
REMARK INTER:                  -8.994
REMARK INTRA:                  -5.322
REMARK UNBOUND:                -5.875
REMARK SMILES CC[N+](C)(CC)CCCn1cc(COC(=O)NC[C@@H](O)C(O)[C@@H]2O[C@@](O)(C(=O)O)C[C@H](O)[C@H]2NC(C)=O)nn1
REMARK SMILES IDX 14 1 15 2 17 3 16 5 18 6 19 7 21 8 23 9 25 10 30 11 24 12
REMARK SMILES IDX 31 13 33 14 26 15 27 17 28 18 29 19 32 21 34 23 35 24 36 26
REMARK SMILES IDX 37 27 22 28 20 30 13 32 12 33 11 34 38 35 10 36 39 37 9 38
REMARK SMILES IDX 8 39 7 40 3 41 4 42 2 43 1 44 5 45 6 46
REMARK H PARENT 17 4 26 16 29 20 32 22 34 25 22 29 20 31
REMARK Flexibility Score: inf
ROOT
ATOM      1  O   UNL     1      25.688  41.716   9.430  1.00  0.00    -0.443 OA
ENDROOT
BRANCH   1   2
ATOM      2  C   UNL     1      24.342  41.625   9.721  1.00  0.00     0.407 C 
ATOM      3  N   UNL     1      23.336  41.699   8.705  1.00  0.00    -0.319 N 
ATOM      4  H   UNL     1      23.676  41.815   7.744  1.00  0.00     0.167 HD
ATOM      5  O   UNL     1      23.993  41.474  10.914  1.00  0.00    -0.225 OA
BRANCH   3   6
ATOM      6  C   UNL     1      21.975  41.598   9.082  1.00  0.00     0.154 C 
BRANCH   6   7
ATOM      7  C   UNL     1      21.210  40.438   8.537  1.00  0.00     0.165 C 
BRANCH   7   8
ATOM      8  C   UNL     1      21.963  39.147   8.450  1.00  0.00     0.176 C 
BRANCH   8   9
ATOM      9  C   UNL     1      21.112  37.927   8.259  1.00  0.00     0.178 C 
ATOM     10  C   UNL     1      18.925  37.218   8.273  1.00  0.00     0.269 C 
ATOM     11  C   UNL     1      19.609  36.016   7.648  1.00  0.00     0.112 C 
ATOM     12  O   UNL     1      19.796  38.262   8.469  1.00  0.00    -0.332 OA
ATOM     13  C   UNL     1      20.725  35.530   8.519  1.00  0.00     0.145 C 
ATOM     14  C   UNL     1      21.489  36.737   9.070  1.00  0.00     0.142 C 
BRANCH  10  15
ATOM     15  O   UNL     1      18.437  36.807   9.526  1.00  0.00    -0.357 OA
ATOM     16  H   UNL     1      19.222  36.812  10.135  1.00  0.00     0.214 HD
ENDBRANCH  10  15
BRANCH  10  17
ATOM     17  C   UNL     1      17.786  37.632   7.439  1.00  0.00     0.364 C 
ATOM     18  O   UNL     1      16.603  37.470   7.849  1.00  0.00    -0.246 OA
BRANCH  17  19
ATOM     19  O   UNL     1      17.968  38.207   6.198  1.00  0.00    -0.477 OA
ATOM     20  H   UNL     1      18.786  38.748   5.989  1.00  0.00     0.296 HD
ENDBRANCH  17  19
ENDBRANCH  10  17
BRANCH  13  21
ATOM     21  O   UNL     1      20.180  34.778   9.569  1.00  0.00    -0.391 OA
ATOM     22  H   UNL     1      20.318  35.252  10.417  1.00  0.00     0.211 HD
ENDBRANCH  13  21
BRANCH  14  23
ATOM     23  N   UNL     1      22.900  36.380   8.890  1.00  0.00    -0.348 N 
ATOM     24  C   UNL     1      23.552  35.537   9.822  1.00  0.00     0.217 C 
ATOM     25  H   UNL     1      23.418  36.759   8.064  1.00  0.00     0.163 HD
ATOM     26  C   UNL     1      24.994  35.185   9.628  1.00  0.00     0.114 C 
ATOM     27  O   UNL     1      22.971  35.047  10.839  1.00  0.00    -0.275 OA
ENDBRANCH  14  23
ENDBRANCH   8   9
BRANCH   8  28
ATOM     28  O   UNL     1      22.914  39.245   7.423  1.00  0.00    -0.388 OA
ATOM     29  H   UNL     1      23.312  38.338   7.305  1.00  0.00     0.211 HD
ENDBRANCH   8  28
ENDBRANCH   7   8
BRANCH   7  30
ATOM     30  O   UNL     1      20.760  40.818   7.254  1.00  0.00    -0.388 OA
ATOM     31  H   UNL     1      21.497  41.014   6.642  1.00  0.00     0.211 HD
ENDBRANCH   7  30
ENDBRANCH   6   7
ENDBRANCH   3   6
ENDBRANCH   1   2
BRANCH   1  32
ATOM     32  C   UNL     1      26.544  40.641   9.792  1.00  0.00     0.294 C 
BRANCH  32  33
ATOM     33  C   UNL     1      26.453  39.563   8.782  1.00  0.00     0.120 A 
ATOM     34  C   UNL     1      27.275  39.281   7.713  1.00  0.00     0.138 A 
ATOM     35  N   UNL     1      25.491  38.617   8.728  1.00  0.00    -0.132 NA
ATOM     36  N   UNL     1      26.815  38.203   7.049  1.00  0.00    -0.252 N 
ATOM     37  N   UNL     1      25.731  37.831   7.698  1.00  0.00    -0.067 NA
BRANCH  36  38
ATOM     38  C   UNL     1      27.342  37.564   5.887  1.00  0.00     0.152 C 
BRANCH  38  39
ATOM     39  C   UNL     1      28.645  36.892   6.101  1.00  0.00     0.085 C 
BRANCH  39  40
ATOM     40  C   UNL     1      28.671  35.614   6.831  1.00  0.00     0.265 C 
BRANCH  40  41
ATOM     41  N   UNL     1      29.323  35.501   8.070  1.00  0.00    -0.326 N 
ATOM     42  C   UNL     1      30.436  34.593   8.143  1.00  0.00     0.334 C 
BRANCH  41  43
ATOM     43  C   UNL     1      29.912  36.829   8.337  1.00  0.00     0.260 C 
ATOM     44  C   UNL     1      29.538  37.414   9.643  1.00  0.00     0.071 C 
ENDBRANCH  41  43
BRANCH  41  45
ATOM     45  C   UNL     1      28.445  35.229   9.173  1.00  0.00     0.260 C 
ATOM     46  C   UNL     1      28.307  33.793   9.531  1.00  0.00     0.071 C 
ENDBRANCH  41  45
ENDBRANCH  40  41
ENDBRANCH  39  40
ENDBRANCH  38  39
ENDBRANCH  36  38
ENDBRANCH  32  33
ENDBRANCH   1  32
TORSDOF 20
BEGIN_RES LYS A 131
REMARK  4 active torsions:
REMARK  status: ('A' for Active; 'I' for Inactive)
REMARK    1  A    between atoms: CA   and  CB  
REMARK    2  A    between atoms: CB   and  CG  
REMARK    3  A    between atoms: CG   and  CD  
REMARK    4  A    between atoms: CD   and  CE  
ROOT
ATOM      1  CA  LYS A 131      29.867  25.555  16.977  1.00 20.52     0.186 C 
ENDROOT
BRANCH   1   2
ATOM      2  CB  LYS A 131      28.345  25.722  17.026  1.00 20.94     0.034 C 
BRANCH   2   3
ATOM      3  CG  LYS A 131      27.601  24.406  16.863  1.00 22.96     0.005 C 
BRANCH   3   4
ATOM      4  CD  LYS A 131      26.239  24.442  17.501  1.00 24.33     0.041 C 
BRANCH   4   5
ATOM      5  CE  LYS A 131      26.160  25.621  18.465  1.00 26.91     0.338 C 
ATOM      6  NZ  LYS A 131      24.964  26.447  18.178  1.00 27.40     0.618 N 
ENDBRANCH   4   5
ENDBRANCH   3   4
ENDBRANCH   2   3
ENDBRANCH   1   2
END_RES LYS A 131
BEGIN_RES LYS A 135
REMARK  4 active torsions:
REMARK  status: ('A' for Active; 'I' for Inactive)
REMARK    5  A    between atoms: CA   and  CB  
REMARK    6  A    between atoms: CB   and  CG  
REMARK    7  A    between atoms: CG   and  CD  
REMARK    8  A    between atoms: CD   and  CE  
ROOT
ATOM      7  CA  LYS A 135      33.193  34.663   9.290  1.00 25.02     0.186 C 
ENDROOT
BRANCH   7   8
ATOM      8  CB  LYS A 135      32.060  35.360  10.034  1.00 26.63     0.034 C 
BRANCH   8   9
ATOM      9  CG  LYS A 135      32.530  36.217  11.181  1.00 29.45     0.005 C 
BRANCH   9  10
ATOM     10  CD  LYS A 135      31.796  35.849  12.462  1.00 32.00     0.041 C 
BRANCH  10  11
ATOM     11  CE  LYS A 135      30.677  34.867  12.170  1.00 34.25     0.338 C 
ATOM     12  NZ  LYS A 135      30.176  34.237  13.423  1.00 35.99     0.618 N 
ENDBRANCH  10  11
ENDBRANCH   9  10
ENDBRANCH   8   9
ENDBRANCH   7   8
END_RES LYS A 135
