REMARK VINA RESULT:    -4.996      4.633      9.262
REMARK INTER + INTRA:         -15.935
REMARK INTER:                  -9.530
REMARK INTRA:                  -6.405
REMARK UNBOUND:                -6.121
REMARK SMILES CC(=O)N[C@@H]1[C@@H](O)C[C@](O)(C(=O)O)O[C@H]1C(O)[C@H](O)CNC(=O)OCc1cn(C[C@@H](C)CN2CCN(c3ccc(Cl)cc3)CC2)nn1
REMARK SMILES IDX 24 1 22 2 21 3 23 5 20 6 18 7 16 8 15 9 9 10 8 11 14 12 6 13
REMARK SMILES IDX 5 14 10 15 11 17 12 18 13 19 7 21 4 23 2 24 1 26 3 27 17 28
REMARK SMILES IDX 19 30 25 32 26 33 27 34 47 35 28 36 46 37 29 38 30 39 31 40
REMARK SMILES IDX 32 41 33 42 34 43 45 44 35 45 44 46 36 47 37 48 38 49 43 50
REMARK SMILES IDX 39 51 42 52 40 53 41 54
REMARK H PARENT 21 4 10 16 13 20 7 22 4 25 17 29 19 31
REMARK Flexibility Score: inf
ROOT
ATOM      1  O   UNL     1      20.798  32.684  12.145  1.00  0.00    -0.443 OA
ENDROOT
BRANCH   1   2
ATOM      2  C   UNL     1      21.235  31.542  12.798  1.00  0.00     0.407 C 
ATOM      3  N   UNL     1      22.401  30.812  12.436  1.00  0.00    -0.319 N 
ATOM      4  H   UNL     1      22.937  31.170  11.623  1.00  0.00     0.167 HD
ATOM      5  O   UNL     1      20.530  31.160  13.772  1.00  0.00    -0.225 OA
BRANCH   3   6
ATOM      6  C   UNL     1      22.719  29.665  13.222  1.00  0.00     0.154 C 
BRANCH   6   7
ATOM      7  C   UNL     1      23.806  29.816  14.209  1.00  0.00     0.165 C 
BRANCH   7   8
ATOM      8  C   UNL     1      23.421  30.496  15.511  1.00  0.00     0.176 C 
BRANCH   8   9
ATOM      9  C   UNL     1      24.281  29.796  16.565  1.00  0.00     0.178 C 
ATOM     10  C   UNL     1      26.543  29.402  16.981  1.00  0.00     0.269 C 
ATOM     11  C   UNL     1      26.214  28.012  17.446  1.00  0.00     0.112 C 
ATOM     12  O   UNL     1      25.583  29.970  16.187  1.00  0.00    -0.332 OA
ATOM     13  C   UNL     1      24.786  27.790  17.792  1.00  0.00     0.145 C 
ATOM     14  C   UNL     1      23.942  28.343  16.624  1.00  0.00     0.142 C 
BRANCH  10  15
ATOM     15  O   UNL     1      27.694  29.247  16.165  1.00  0.00    -0.357 OA
ATOM     16  H   UNL     1      28.307  29.997  16.273  1.00  0.00     0.214 HD
ENDBRANCH  10  15
BRANCH  10  17
ATOM     17  C   UNL     1      26.954  30.306  18.096  1.00  0.00     0.364 C 
ATOM     18  O   UNL     1      27.415  29.825  19.162  1.00  0.00    -0.246 OA
BRANCH  17  19
ATOM     19  O   UNL     1      26.857  31.687  18.022  1.00  0.00    -0.477 OA
ATOM     20  H   UNL     1      26.040  32.220  18.299  1.00  0.00     0.296 HD
ENDBRANCH  17  19
ENDBRANCH  10  17
BRANCH  13  21
ATOM     21  O   UNL     1      24.555  26.417  17.881  1.00  0.00    -0.391 OA
ATOM     22  H   UNL     1      23.759  26.160  17.346  1.00  0.00     0.211 HD
ENDBRANCH  13  21
BRANCH  14  23
ATOM     23  N   UNL     1      22.545  28.095  16.868  1.00  0.00    -0.348 N 
ATOM     24  C   UNL     1      21.865  27.035  16.228  1.00  0.00     0.217 C 
ATOM     25  H   UNL     1      22.032  28.707  17.524  1.00  0.00     0.163 HD
ATOM     26  C   UNL     1      20.417  26.868  16.552  1.00  0.00     0.114 C 
ATOM     27  O   UNL     1      22.415  26.252  15.426  1.00  0.00    -0.275 OA
ENDBRANCH  14  23
ENDBRANCH   8   9
BRANCH   8  28
ATOM     28  O   UNL     1      23.754  31.857  15.421  1.00  0.00    -0.388 OA
ATOM     29  H   UNL     1      22.918  32.356  15.608  1.00  0.00     0.211 HD
ENDBRANCH   8  28
ENDBRANCH   7   8
BRANCH   7  30
ATOM     30  O   UNL     1      24.752  30.711  13.634  1.00  0.00    -0.388 OA
ATOM     31  H   UNL     1      25.085  30.222  12.828  1.00  0.00     0.211 HD
ENDBRANCH   7  30
ENDBRANCH   6   7
ENDBRANCH   3   6
ENDBRANCH   1   2
BRANCH   1  32
ATOM     32  C   UNL     1      21.259  33.967  12.538  1.00  0.00     0.294 C 
BRANCH  32  33
ATOM     33  C   UNL     1      22.724  34.069  12.353  1.00  0.00     0.120 A 
ATOM     34  C   UNL     1      23.332  34.844  11.362  1.00  0.00     0.138 A 
ATOM     35  N   UNL     1      23.751  33.521  13.016  1.00  0.00    -0.132 NA
ATOM     36  N   UNL     1      24.666  34.749  11.449  1.00  0.00    -0.252 N 
ATOM     37  N   UNL     1      24.896  33.916  12.488  1.00  0.00    -0.067 NA
BRANCH  36  38
ATOM     38  C   UNL     1      25.695  35.392  10.652  1.00  0.00     0.150 C 
BRANCH  38  39
ATOM     39  C   UNL     1      27.003  34.601  10.784  1.00  0.00     0.022 C 
ATOM     40  C   UNL     1      27.365  33.911   9.523  1.00  0.00     0.011 C 
BRANCH  39  41
ATOM     41  C   UNL     1      28.030  35.358  11.516  1.00  0.00     0.089 C 
BRANCH  41  42
ATOM     42  N   UNL     1      28.464  34.725  12.723  1.00  0.00    -0.299 NA
ATOM     43  C   UNL     1      29.949  34.769  12.807  1.00  0.00     0.106 C 
ATOM     44  C   UNL     1      28.039  35.515  13.874  1.00  0.00     0.106 C 
ATOM     45  C   UNL     1      30.435  34.267  14.121  1.00  0.00     0.132 C 
ATOM     46  C   UNL     1      28.105  34.530  15.052  1.00  0.00     0.132 C 
ATOM     47  N   UNL     1      29.437  33.999  15.109  1.00  0.00    -0.369 N 
BRANCH  47  48
ATOM     48  C   UNL     1      29.767  33.171  16.217  1.00  0.00     0.037 A 
ATOM     49  C   UNL     1      29.761  33.705  17.486  1.00  0.00     0.027 A 
ATOM     50  C   UNL     1      30.104  31.837  16.035  1.00  0.00     0.027 A 
ATOM     51  C   UNL     1      30.090  32.901  18.553  1.00  0.00     0.022 A 
ATOM     52  C   UNL     1      30.431  31.046  17.106  1.00  0.00     0.022 A 
ATOM     53  C   UNL     1      30.421  31.591  18.380  1.00  0.00     0.041 A 
ATOM     54  Cl  UNL     1      30.847  30.572  19.729  1.00  0.00    -0.084 Cl
ENDBRANCH  47  48
ENDBRANCH  41  42
ENDBRANCH  39  41
ENDBRANCH  38  39
ENDBRANCH  36  38
ENDBRANCH  32  33
ENDBRANCH   1  32
TORSDOF 19
BEGIN_RES LYS A 131
REMARK  4 active torsions:
REMARK  status: ('A' for Active; 'I' for Inactive)
REMARK    1  A    between atoms: CA   and  CB  
REMARK    2  A    between atoms: CB   and  CG  
REMARK    3  A    between atoms: CG   and  CD  
REMARK    4  A    between atoms: CD   and  CE  
ROOT
ATOM      1  CA  LYS A 131      29.867  25.555  16.977  1.00 20.52     0.186 C 
ENDROOT
BRANCH   1   2
ATOM      2  CB  LYS A 131      28.345  25.722  17.026  1.00 20.94     0.034 C 
BRANCH   2   3
ATOM      3  CG  LYS A 131      27.599  24.454  16.641  1.00 22.96     0.005 C 
BRANCH   3   4
ATOM      4  CD  LYS A 131      27.177  23.657  17.845  1.00 24.33     0.041 C 
BRANCH   4   5
ATOM      5  CE  LYS A 131      25.818  23.018  17.581  1.00 26.91     0.338 C 
ATOM      6  NZ  LYS A 131      24.941  23.157  18.768  1.00 27.40     0.618 N 
ENDBRANCH   4   5
ENDBRANCH   3   4
ENDBRANCH   2   3
ENDBRANCH   1   2
END_RES LYS A 131
BEGIN_RES LYS A 135
REMARK  4 active torsions:
REMARK  status: ('A' for Active; 'I' for Inactive)
REMARK    5  A    between atoms: CA   and  CB  
REMARK    6  A    between atoms: CB   and  CG  
REMARK    7  A    between atoms: CG   and  CD  
REMARK    8  A    between atoms: CD   and  CE  
ROOT
ATOM      7  CA  LYS A 135      33.193  34.663   9.290  1.00 25.02     0.186 C 
ENDROOT
BRANCH   7   8
ATOM      8  CB  LYS A 135      32.060  35.360  10.034  1.00 26.63     0.034 C 
BRANCH   8   9
ATOM      9  CG  LYS A 135      30.761  35.380   9.271  1.00 29.45     0.005 C 
BRANCH   9  10
ATOM     10  CD  LYS A 135      30.318  36.811   9.003  1.00 32.00     0.041 C 
BRANCH  10  11
ATOM     11  CE  LYS A 135      29.203  36.839   7.975  1.00 34.25     0.338 C 
ATOM     12  NZ  LYS A 135      27.993  37.518   8.516  1.00 35.99     0.618 N 
ENDBRANCH  10  11
ENDBRANCH   9  10
ENDBRANCH   8   9
ENDBRANCH   7   8
END_RES LYS A 135
