REMARK VINA RESULT:    -3.860      3.708      7.860
REMARK INTER + INTRA:         -14.697
REMARK INTER:                  -8.280
REMARK INTRA:                  -6.417
REMARK UNBOUND:                -7.565
REMARK SMILES CC(=O)N[C@@H]1[C@@H](O)C[C@](O)(C(=O)O)O[C@H]1C(O)[C@H](O)CNC(=O)OCc1cn(CC(=O)Nc2ncccn2)nn1
REMARK SMILES IDX 21 1 22 2 23 3 20 5 18 6 16 7 15 8 9 9 8 10 14 11 6 12 5 13
REMARK SMILES IDX 10 14 11 16 12 17 13 18 7 20 4 22 2 23 1 25 3 26 17 27 19 29
REMARK SMILES IDX 24 31 25 32 26 33 27 34 40 35 28 36 39 37 29 38 30 39 31 40
REMARK SMILES IDX 32 41 33 43 34 44 38 45 35 46 37 47 36 48
REMARK H PARENT 21 4 10 15 13 19 7 21 4 24 17 28 19 30 32 42
REMARK Flexibility Score: inf
ROOT
ATOM      1  N   UNL     1      26.725  31.390  21.519  1.00  0.00    -0.319 N 
ATOM      2  C   UNL     1      25.629  31.889  20.733  1.00  0.00     0.407 C 
ATOM      3  O   UNL     1      25.750  32.932  20.044  1.00  0.00    -0.225 OA
ATOM      4  H   UNL     1      26.607  30.529  22.078  1.00  0.00     0.167 HD
ENDROOT
BRANCH   1   5
ATOM      5  C   UNL     1      27.958  32.126  21.488  1.00  0.00     0.154 C 
BRANCH   5   6
ATOM      6  C   UNL     1      29.078  31.451  22.241  1.00  0.00     0.165 C 
BRANCH   6   7
ATOM      7  C   UNL     1      29.945  30.751  21.223  1.00  0.00     0.176 C 
BRANCH   7   8
ATOM      8  C   UNL     1      30.632  29.526  21.831  1.00  0.00     0.178 C 
ATOM      9  C   UNL     1      32.629  28.725  22.513  1.00  0.00     0.269 C 
ATOM     10  C   UNL     1      32.160  27.344  22.233  1.00  0.00     0.112 C 
ATOM     11  O   UNL     1      31.997  29.645  21.728  1.00  0.00    -0.332 OA
ATOM     12  C   UNL     1      31.184  27.203  21.089  1.00  0.00     0.145 C 
ATOM     13  C   UNL     1      30.159  28.301  21.065  1.00  0.00     0.142 C 
BRANCH   9  14
ATOM     14  O   UNL     1      34.012  28.822  22.137  1.00  0.00    -0.357 OA
ATOM     15  H   UNL     1      34.171  28.207  21.369  1.00  0.00     0.214 HD
ENDBRANCH   9  14
BRANCH   9  16
ATOM     16  C   UNL     1      32.619  29.042  23.970  1.00  0.00     0.364 C 
ATOM     17  O   UNL     1      32.235  28.213  24.797  1.00  0.00    -0.246 OA
BRANCH  16  18
ATOM     18  O   UNL     1      33.042  30.283  24.452  1.00  0.00    -0.477 OA
ATOM     19  H   UNL     1      32.453  31.097  24.422  1.00  0.00     0.296 HD
ENDBRANCH  16  18
ENDBRANCH   9  16
BRANCH  12  20
ATOM     20  O   UNL     1      31.940  27.186  19.915  1.00  0.00    -0.391 OA
ATOM     21  H   UNL     1      32.168  26.254  19.637  1.00  0.00     0.211 HD
ENDBRANCH  12  20
BRANCH  13  22
ATOM     22  N   UNL     1      28.869  27.933  21.536  1.00  0.00    -0.348 N 
ATOM     23  C   UNL     1      27.877  27.278  20.762  1.00  0.00     0.217 C 
ATOM     24  H   UNL     1      28.602  28.150  22.527  1.00  0.00     0.163 HD
ATOM     25  C   UNL     1      26.537  26.924  21.323  1.00  0.00     0.114 C 
ATOM     26  O   UNL     1      28.155  27.003  19.582  1.00  0.00    -0.275 OA
ENDBRANCH  13  22
ENDBRANCH   7   8
BRANCH   7  27
ATOM     27  O   UNL     1      29.235  30.401  20.090  1.00  0.00    -0.388 OA
ATOM     28  H   UNL     1      29.879  30.366  19.318  1.00  0.00     0.211 HD
ENDBRANCH   7  27
ENDBRANCH   6   7
BRANCH   6  29
ATOM     29  O   UNL     1      28.504  30.549  23.135  1.00  0.00    -0.388 OA
ATOM     30  H   UNL     1      29.251  30.085  23.599  1.00  0.00     0.211 HD
ENDBRANCH   6  29
ENDBRANCH   5   6
ENDBRANCH   1   5
BRANCH   2  31
ATOM     31  O   UNL     1      24.415  31.242  20.709  1.00  0.00    -0.443 OA
BRANCH  31  32
ATOM     32  C   UNL     1      24.192  29.916  20.330  1.00  0.00     0.294 C 
BRANCH  32  33
ATOM     33  C   UNL     1      24.757  29.666  18.987  1.00  0.00     0.120 A 
ATOM     34  C   UNL     1      26.074  29.473  18.626  1.00  0.00     0.138 A 
ATOM     35  N   UNL     1      24.032  29.577  17.861  1.00  0.00    -0.132 NA
ATOM     36  N   UNL     1      26.097  29.276  17.309  1.00  0.00    -0.243 N 
ATOM     37  N   UNL     1      24.851  29.346  16.878  1.00  0.00    -0.067 NA
BRANCH  36  38
ATOM     38  C   UNL     1      27.313  29.021  16.529  1.00  0.00     0.246 C 
BRANCH  38  39
ATOM     39  C   UNL     1      28.085  30.289  16.369  1.00  0.00     0.248 C 
ATOM     40  O   UNL     1      27.669  31.289  15.762  1.00  0.00    -0.272 OA
ATOM     41  N   UNL     1      29.391  30.352  16.955  1.00  0.00    -0.293 N 
ATOM     42  H   UNL     1      29.768  29.525  17.470  1.00  0.00     0.173 HD
BRANCH  41  43
ATOM     43  C   UNL     1      30.196  31.511  16.862  1.00  0.00     0.229 A 
ATOM     44  N   UNL     1      30.364  32.382  17.876  1.00  0.00    -0.221 NA
ATOM     45  N   UNL     1      30.846  31.791  15.716  1.00  0.00    -0.221 NA
ATOM     46  C   UNL     1      31.139  33.478  17.760  1.00  0.00     0.117 A 
ATOM     47  C   UNL     1      31.625  32.854  15.538  1.00  0.00     0.117 A 
ATOM     48  C   UNL     1      31.797  33.747  16.577  1.00  0.00     0.040 A 
ENDBRANCH  41  43
ENDBRANCH  38  39
ENDBRANCH  36  38
ENDBRANCH  32  33
ENDBRANCH  31  32
ENDBRANCH   2  31
TORSDOF 17
BEGIN_RES LYS A 131
REMARK  4 active torsions:
REMARK  status: ('A' for Active; 'I' for Inactive)
REMARK    1  A    between atoms: CA   and  CB  
REMARK    2  A    between atoms: CB   and  CG  
REMARK    3  A    between atoms: CG   and  CD  
REMARK    4  A    between atoms: CD   and  CE  
ROOT
ATOM      1  CA  LYS A 131      29.867  25.555  16.977  1.00 20.52     0.186 C 
ENDROOT
BRANCH   1   2
ATOM      2  CB  LYS A 131      28.345  25.722  17.026  1.00 20.94     0.034 C 
BRANCH   2   3
ATOM      3  CG  LYS A 131      27.602  24.399  16.918  1.00 22.96     0.005 C 
BRANCH   3   4
ATOM      4  CD  LYS A 131      26.558  24.247  17.989  1.00 24.33     0.041 C 
BRANCH   4   5
ATOM      5  CE  LYS A 131      25.225  24.788  17.482  1.00 26.91     0.338 C 
ATOM      6  NZ  LYS A 131      24.854  26.022  18.214  1.00 27.40     0.618 N 
ENDBRANCH   4   5
ENDBRANCH   3   4
ENDBRANCH   2   3
ENDBRANCH   1   2
END_RES LYS A 131
BEGIN_RES LYS A 135
REMARK  4 active torsions:
REMARK  status: ('A' for Active; 'I' for Inactive)
REMARK    5  A    between atoms: CA   and  CB  
REMARK    6  A    between atoms: CB   and  CG  
REMARK    7  A    between atoms: CG   and  CD  
REMARK    8  A    between atoms: CD   and  CE  
ROOT
ATOM      7  CA  LYS A 135      33.193  34.663   9.290  1.00 25.02     0.186 C 
ENDROOT
BRANCH   7   8
ATOM      8  CB  LYS A 135      32.060  35.360  10.034  1.00 26.63     0.034 C 
BRANCH   8   9
ATOM      9  CG  LYS A 135      30.732  34.660   9.903  1.00 29.45     0.005 C 
BRANCH   9  10
ATOM     10  CD  LYS A 135      30.333  34.537   8.440  1.00 32.00     0.041 C 
BRANCH  10  11
ATOM     11  CE  LYS A 135      28.824  34.578   8.295  1.00 34.25     0.338 C 
ATOM     12  NZ  LYS A 135      28.157  33.858   9.415  1.00 35.99     0.618 N 
ENDBRANCH  10  11
ENDBRANCH   9  10
ENDBRANCH   8   9
ENDBRANCH   7   8
END_RES LYS A 135
