REMARK VINA RESULT:    -5.961      3.078      6.237
REMARK INTER + INTRA:         -16.404
REMARK INTER:                  -9.574
REMARK INTRA:                  -6.831
REMARK UNBOUND:                -5.216
REMARK SMILES CC(=O)N[C@@H]1[C@@H](O)C[C@](O)(C(=O)O)O[C@H]1C(O)[C@H](O)CNC(=O)OCc1cn(-c2cc(C(=O)O)nc(-c3ccccc3)c2)nn1
REMARK SMILES IDX 21 1 22 2 23 3 20 5 18 6 16 7 15 8 9 9 8 10 14 11 6 12 5 13
REMARK SMILES IDX 10 14 11 16 12 17 13 18 7 20 4 22 2 23 1 25 3 26 17 27 19 29
REMARK SMILES IDX 24 31 25 32 26 33 27 34 45 35 28 36 44 37 29 38 30 39 43 40
REMARK SMILES IDX 31 41 36 42 35 43 32 44 33 45 34 46 37 48 38 49 42 50 39 51
REMARK SMILES IDX 41 52 40 53
REMARK H PARENT 21 4 10 15 13 19 7 21 4 24 17 28 19 30 34 47
REMARK Flexibility Score: inf
ROOT
ATOM      1  N   UNL     1      28.819  38.154  17.208  1.00  0.00    -0.319 N 
ATOM      2  C   UNL     1      28.287  38.399  15.903  1.00  0.00     0.407 C 
ATOM      3  O   UNL     1      29.084  38.731  14.988  1.00  0.00    -0.225 OA
ATOM      4  H   UNL     1      28.094  37.879  17.933  1.00  0.00     0.167 HD
ENDROOT
BRANCH   1   5
ATOM      5  C   UNL     1      30.215  38.267  17.530  1.00  0.00     0.154 C 
BRANCH   5   6
ATOM      6  C   UNL     1      30.792  36.938  17.914  1.00  0.00     0.165 C 
BRANCH   6   7
ATOM      7  C   UNL     1      31.648  36.442  16.756  1.00  0.00     0.176 C 
BRANCH   7   8
ATOM      8  C   UNL     1      30.929  35.374  16.008  1.00  0.00     0.178 C 
ATOM      9  C   UNL     1      30.894  33.062  15.763  1.00  0.00     0.269 C 
ATOM     10  C   UNL     1      29.616  33.409  15.010  1.00  0.00     0.112 C 
ATOM     11  O   UNL     1      31.423  34.126  16.446  1.00  0.00    -0.332 OA
ATOM     12  C   UNL     1      29.955  34.444  13.996  1.00  0.00     0.145 C 
ATOM     13  C   UNL     1      31.073  35.369  14.525  1.00  0.00     0.142 C 
BRANCH   9  14
ATOM     14  O   UNL     1      31.778  32.591  14.763  1.00  0.00    -0.357 OA
ATOM     15  H   UNL     1      32.595  32.313  15.252  1.00  0.00     0.214 HD
ENDBRANCH   9  14
BRANCH   9  16
ATOM     16  C   UNL     1      30.667  31.968  16.727  1.00  0.00     0.364 C 
ATOM     17  O   UNL     1      30.684  32.198  17.949  1.00  0.00    -0.246 OA
BRANCH  16  18
ATOM     18  O   UNL     1      30.433  30.684  16.284  1.00  0.00    -0.477 OA
ATOM     19  H   UNL     1      29.537  30.382  15.911  1.00  0.00     0.296 HD
ENDBRANCH  16  18
ENDBRANCH   9  16
BRANCH  12  20
ATOM     20  O   UNL     1      30.284  33.935  12.759  1.00  0.00    -0.391 OA
ATOM     21  H   UNL     1      29.855  33.063  12.613  1.00  0.00     0.211 HD
ENDBRANCH  12  20
BRANCH  13  22
ATOM     22  N   UNL     1      30.950  36.644  13.872  1.00  0.00    -0.348 N 
ATOM     23  C   UNL     1      31.726  36.964  12.698  1.00  0.00     0.217 C 
ATOM     24  H   UNL     1      30.297  37.344  14.231  1.00  0.00     0.163 HD
ATOM     25  C   UNL     1      31.631  38.254  11.999  1.00  0.00     0.114 C 
ATOM     26  O   UNL     1      32.508  36.048  12.301  1.00  0.00    -0.275 OA
ENDBRANCH  13  22
ENDBRANCH   7   8
BRANCH   7  27
ATOM     27  O   UNL     1      32.925  36.109  17.116  1.00  0.00    -0.388 OA
ATOM     28  H   UNL     1      33.560  36.845  17.179  1.00  0.00     0.211 HD
ENDBRANCH   7  27
ENDBRANCH   6   7
BRANCH   6  29
ATOM     29  O   UNL     1      29.686  36.076  18.065  1.00  0.00    -0.388 OA
ATOM     30  H   UNL     1      29.249  36.055  17.188  1.00  0.00     0.211 HD
ENDBRANCH   6  29
ENDBRANCH   5   6
ENDBRANCH   1   5
BRANCH   2  31
ATOM     31  O   UNL     1      26.927  38.271  15.660  1.00  0.00    -0.443 OA
BRANCH  31  32
ATOM     32  C   UNL     1      26.485  38.340  14.320  1.00  0.00     0.294 C 
BRANCH  32  33
ATOM     33  C   UNL     1      26.437  36.947  13.805  1.00  0.00     0.121 A 
ATOM     34  C   UNL     1      26.016  35.806  14.499  1.00  0.00     0.144 A 
ATOM     35  N   UNL     1      26.776  36.466  12.585  1.00  0.00    -0.131 NA
ATOM     36  N   UNL     1      26.114  34.727  13.703  1.00  0.00    -0.220 N 
ATOM     37  N   UNL     1      26.576  35.154  12.552  1.00  0.00    -0.062 NA
BRANCH  36  38
ATOM     38  C   UNL     1      25.757  33.392  14.115  1.00  0.00     0.071 A 
ATOM     39  C   UNL     1      26.427  32.744  15.121  1.00  0.00     0.064 A 
ATOM     40  C   UNL     1      24.711  32.720  13.492  1.00  0.00     0.057 A 
ATOM     41  C   UNL     1      26.113  31.468  15.538  1.00  0.00     0.151 A 
ATOM     42  C   UNL     1      24.388  31.451  13.897  1.00  0.00     0.073 A 
ATOM     43  N   UNL     1      25.094  30.875  14.897  1.00  0.00    -0.241 NA
BRANCH  41  44
ATOM     44  C   UNL     1      26.837  30.802  16.608  1.00  0.00     0.354 C 
ATOM     45  O   UNL     1      26.650  31.168  17.785  1.00  0.00    -0.245 OA
BRANCH  44  46
ATOM     46  O   UNL     1      27.723  29.777  16.351  1.00  0.00    -0.477 OA
ATOM     47  H   UNL     1      27.725  28.898  16.880  1.00  0.00     0.297 HD
ENDBRANCH  44  46
ENDBRANCH  41  44
BRANCH  42  48
ATOM     48  C   UNL     1      23.284  30.715  13.253  1.00  0.00     0.000 A 
ATOM     49  C   UNL     1      22.119  31.399  12.981  1.00  0.00     0.010 A 
ATOM     50  C   UNL     1      23.424  29.393  12.939  1.00  0.00     0.010 A 
ATOM     51  C   UNL     1      21.088  30.715  12.380  1.00  0.00     0.001 A 
ATOM     52  C   UNL     1      22.363  28.744  12.337  1.00  0.00     0.001 A 
ATOM     53  C   UNL     1      21.179  29.382  12.044  1.00  0.00     0.000 A 
ENDBRANCH  42  48
ENDBRANCH  36  38
ENDBRANCH  32  33
ENDBRANCH  31  32
ENDBRANCH   2  31
TORSDOF 18
BEGIN_RES LYS A 131
REMARK  4 active torsions:
REMARK  status: ('A' for Active; 'I' for Inactive)
REMARK    1  A    between atoms: CA   and  CB  
REMARK    2  A    between atoms: CB   and  CG  
REMARK    3  A    between atoms: CG   and  CD  
REMARK    4  A    between atoms: CD   and  CE  
ROOT
ATOM      1  CA  LYS A 131      29.867  25.555  16.977  1.00 20.52     0.186 C 
ENDROOT
BRANCH   1   2
ATOM      2  CB  LYS A 131      28.345  25.722  17.026  1.00 20.94     0.034 C 
BRANCH   2   3
ATOM      3  CG  LYS A 131      27.601  24.401  16.902  1.00 22.96     0.005 C 
BRANCH   3   4
ATOM      4  CD  LYS A 131      26.310  24.403  17.672  1.00 24.33     0.041 C 
BRANCH   4   5
ATOM      5  CE  LYS A 131      26.034  25.808  18.198  1.00 26.91     0.338 C 
ATOM      6  NZ  LYS A 131      25.862  25.786  19.670  1.00 27.40     0.618 N 
ENDBRANCH   4   5
ENDBRANCH   3   4
ENDBRANCH   2   3
ENDBRANCH   1   2
END_RES LYS A 131
BEGIN_RES LYS A 135
REMARK  4 active torsions:
REMARK  status: ('A' for Active; 'I' for Inactive)
REMARK    5  A    between atoms: CA   and  CB  
REMARK    6  A    between atoms: CB   and  CG  
REMARK    7  A    between atoms: CG   and  CD  
REMARK    8  A    between atoms: CD   and  CE  
ROOT
ATOM      7  CA  LYS A 135      33.193  34.663   9.290  1.00 25.02     0.186 C 
ENDROOT
BRANCH   7   8
ATOM      8  CB  LYS A 135      32.060  35.360  10.034  1.00 26.63     0.034 C 
BRANCH   8   9
ATOM      9  CG  LYS A 135      30.801  35.503   9.218  1.00 29.45     0.005 C 
BRANCH   9  10
ATOM     10  CD  LYS A 135      30.169  34.143   8.965  1.00 32.00     0.041 C 
BRANCH  10  11
ATOM     11  CE  LYS A 135      28.703  34.296   8.607  1.00 34.25     0.338 C 
ATOM     12  NZ  LYS A 135      27.830  33.668   9.637  1.00 35.99     0.618 N 
ENDBRANCH  10  11
ENDBRANCH   9  10
ENDBRANCH   8   9
ENDBRANCH   7   8
END_RES LYS A 135
