REMARK VINA RESULT:    -4.088      3.242      6.496
REMARK INTER + INTRA:         -14.535
REMARK INTER:                 -10.352
REMARK INTRA:                  -4.183
REMARK UNBOUND:                -6.980
REMARK SMILES CC(=O)N[C@@H]1[C@@H](O)C[C@](O)(C(=O)O)O[C@H]1C(O)[C@H](O)CNC(=O)OCc1cn(Cc2ccc(C#N)cc2)nn1
REMARK SMILES IDX 21 1 22 2 23 3 20 5 18 6 16 7 15 8 9 9 8 10 14 11 6 12 5 13
REMARK SMILES IDX 10 14 11 16 12 17 13 18 7 20 4 22 2 23 1 25 3 26 17 27 19 29
REMARK SMILES IDX 24 31 25 32 26 33 27 34 39 35 28 36 38 37 29 38 30 39 31 40
REMARK SMILES IDX 37 41 32 42 36 43 33 44 34 45 35 46
REMARK H PARENT 21 4 10 15 13 19 7 21 4 24 17 28 19 30
REMARK Flexibility Score: inf
ROOT
ATOM      1  N   UNL     1      30.699  32.245  14.799  1.00  0.00    -0.319 N 
ATOM      2  C   UNL     1      31.121  33.575  15.093  1.00  0.00     0.407 C 
ATOM      3  O   UNL     1      31.225  33.937  16.316  1.00  0.00    -0.225 OA
ATOM      4  H   UNL     1      30.626  31.975  13.801  1.00  0.00     0.167 HD
ENDROOT
BRANCH   1   5
ATOM      5  C   UNL     1      30.401  31.355  15.860  1.00  0.00     0.154 C 
BRANCH   5   6
ATOM      6  C   UNL     1      28.942  31.027  16.072  1.00  0.00     0.165 C 
BRANCH   6   7
ATOM      7  C   UNL     1      28.444  31.385  17.457  1.00  0.00     0.176 C 
BRANCH   7   8
ATOM      8  C   UNL     1      29.308  30.840  18.543  1.00  0.00     0.178 C 
ATOM      9  C   UNL     1      29.271  29.336  20.319  1.00  0.00     0.269 C 
ATOM     10  C   UNL     1      30.727  29.731  20.423  1.00  0.00     0.112 C 
ATOM     11  O   UNL     1      28.671  29.764  19.173  1.00  0.00    -0.332 OA
ATOM     12  C   UNL     1      30.945  31.198  20.302  1.00  0.00     0.145 C 
ATOM     13  C   UNL     1      29.703  31.800  19.620  1.00  0.00     0.142 C 
BRANCH   9  14
ATOM     14  O   UNL     1      28.605  29.792  21.477  1.00  0.00    -0.357 OA
ATOM     15  H   UNL     1      27.622  29.762  21.286  1.00  0.00     0.214 HD
ENDBRANCH   9  14
BRANCH   9  16
ATOM     16  C   UNL     1      29.228  27.858  20.345  1.00  0.00     0.364 C 
ATOM     17  O   UNL     1      29.935  27.236  21.169  1.00  0.00    -0.246 OA
BRANCH  16  18
ATOM     18  O   UNL     1      28.417  27.169  19.474  1.00  0.00    -0.477 OA
ATOM     19  H   UNL     1      28.373  27.320  18.482  1.00  0.00     0.296 HD
ENDBRANCH  16  18
ENDBRANCH   9  16
BRANCH  12  20
ATOM     20  O   UNL     1      31.209  31.834  21.498  1.00  0.00    -0.391 OA
ATOM     21  H   UNL     1      31.369  31.114  22.183  1.00  0.00     0.211 HD
ENDBRANCH  12  20
BRANCH  13  22
ATOM     22  N   UNL     1      29.960  33.144  19.206  1.00  0.00    -0.348 N 
ATOM     23  C   UNL     1      29.586  34.261  20.030  1.00  0.00     0.217 C 
ATOM     24  H   UNL     1      30.439  33.376  18.291  1.00  0.00     0.163 HD
ATOM     25  C   UNL     1      29.858  35.661  19.588  1.00  0.00     0.114 C 
ATOM     26  O   UNL     1      29.021  34.084  21.136  1.00  0.00    -0.275 OA
ENDBRANCH  13  22
ENDBRANCH   7   8
BRANCH   7  27
ATOM     27  O   UNL     1      27.117  31.123  17.572  1.00  0.00    -0.388 OA
ATOM     28  H   UNL     1      26.791  30.345  17.117  1.00  0.00     0.211 HD
ENDBRANCH   7  27
ENDBRANCH   6   7
BRANCH   6  29
ATOM     29  O   UNL     1      28.878  29.620  15.908  1.00  0.00    -0.388 OA
ATOM     30  H   UNL     1      29.740  29.194  16.069  1.00  0.00     0.211 HD
ENDBRANCH   6  29
ENDBRANCH   5   6
ENDBRANCH   1   5
BRANCH   2  31
ATOM     31  O   UNL     1      31.435  34.527  14.140  1.00  0.00    -0.443 OA
BRANCH  31  32
ATOM     32  C   UNL     1      30.681  35.718  14.094  1.00  0.00     0.294 C 
BRANCH  32  33
ATOM     33  C   UNL     1      29.288  35.477  13.648  1.00  0.00     0.120 A 
ATOM     34  C   UNL     1      28.856  34.939  12.446  1.00  0.00     0.138 A 
ATOM     35  N   UNL     1      28.184  35.746  14.355  1.00  0.00    -0.132 NA
ATOM     36  N   UNL     1      27.520  34.897  12.465  1.00  0.00    -0.248 N 
ATOM     37  N   UNL     1      27.147  35.391  13.627  1.00  0.00    -0.067 NA
BRANCH  36  38
ATOM     38  C   UNL     1      26.641  34.405  11.428  1.00  0.00     0.181 C 
BRANCH  38  39
ATOM     39  C   UNL     1      26.866  35.016  10.117  1.00  0.00    -0.026 A 
ATOM     40  C   UNL     1      27.311  34.251   9.070  1.00  0.00     0.007 A 
ATOM     41  C   UNL     1      26.633  36.370   9.937  1.00  0.00     0.007 A 
ATOM     42  C   UNL     1      27.533  34.815   7.828  1.00  0.00     0.020 A 
ATOM     43  C   UNL     1      26.848  36.961   8.699  1.00  0.00     0.020 A 
ATOM     44  C   UNL     1      27.302  36.162   7.648  1.00  0.00     0.052 A 
BRANCH  44  45
ATOM     45  C   UNL     1      27.531  36.758   6.365  1.00  0.00     0.099 C 
ATOM     46  N   UNL     1      27.720  37.261   5.324  1.00  0.00    -0.192 NA
ENDBRANCH  44  45
ENDBRANCH  38  39
ENDBRANCH  36  38
ENDBRANCH  32  33
ENDBRANCH  31  32
ENDBRANCH   2  31
TORSDOF 17
BEGIN_RES LYS A 131
REMARK  4 active torsions:
REMARK  status: ('A' for Active; 'I' for Inactive)
REMARK    1  A    between atoms: CA   and  CB  
REMARK    2  A    between atoms: CB   and  CG  
REMARK    3  A    between atoms: CG   and  CD  
REMARK    4  A    between atoms: CD   and  CE  
ROOT
ATOM      1  CA  LYS A 131      29.867  25.555  16.977  1.00 20.52     0.186 C 
ENDROOT
BRANCH   1   2
ATOM      2  CB  LYS A 131      28.345  25.722  17.026  1.00 20.94     0.034 C 
BRANCH   2   3
ATOM      3  CG  LYS A 131      27.601  24.406  16.859  1.00 22.96     0.005 C 
BRANCH   3   4
ATOM      4  CD  LYS A 131      26.540  24.219  17.909  1.00 24.33     0.041 C 
BRANCH   4   5
ATOM      5  CE  LYS A 131      25.167  24.481  17.298  1.00 26.91     0.338 C 
ATOM      6  NZ  LYS A 131      24.119  24.450  18.345  1.00 27.40     0.618 N 
ENDBRANCH   4   5
ENDBRANCH   3   4
ENDBRANCH   2   3
ENDBRANCH   1   2
END_RES LYS A 131
BEGIN_RES LYS A 135
REMARK  4 active torsions:
REMARK  status: ('A' for Active; 'I' for Inactive)
REMARK    5  A    between atoms: CA   and  CB  
REMARK    6  A    between atoms: CB   and  CG  
REMARK    7  A    between atoms: CG   and  CD  
REMARK    8  A    between atoms: CD   and  CE  
ROOT
ATOM      7  CA  LYS A 135      33.193  34.663   9.290  1.00 25.02     0.186 C 
ENDROOT
BRANCH   7   8
ATOM      8  CB  LYS A 135      32.060  35.360  10.034  1.00 26.63     0.034 C 
BRANCH   8   9
ATOM      9  CG  LYS A 135      30.827  35.569   9.194  1.00 29.45     0.005 C 
BRANCH   9  10
ATOM     10  CD  LYS A 135      30.551  37.053   9.005  1.00 32.00     0.041 C 
BRANCH  10  11
ATOM     11  CE  LYS A 135      31.187  37.859  10.122  1.00 34.25     0.338 C 
ATOM     12  NZ  LYS A 135      32.026  38.962   9.577  1.00 35.99     0.618 N 
ENDBRANCH  10  11
ENDBRANCH   9  10
ENDBRANCH   8   9
ENDBRANCH   7   8
END_RES LYS A 135
