REMARK VINA RESULT:    -5.338      3.636      6.589
REMARK INTER + INTRA:         -16.583
REMARK INTER:                  -9.044
REMARK INTRA:                  -7.540
REMARK UNBOUND:                -6.408
REMARK SMILES CC(=O)N[C@@H]1[C@@H](O)C[C@](O)(C(=O)O)O[C@H]1C(O)[C@H](O)CNC(=O)OCc1cn(-c2ccc(S(=O)(=O)Nc3nccs3)cc2)nn1
REMARK SMILES IDX 21 1 22 2 23 3 20 5 18 6 16 7 15 8 9 9 8 10 14 11 6 12 5 13
REMARK SMILES IDX 10 14 11 16 12 17 13 18 7 20 4 22 2 23 1 25 3 26 17 27 19 29
REMARK SMILES IDX 24 31 25 32 26 33 27 34 45 35 28 36 44 37 29 38 30 39 43 40
REMARK SMILES IDX 31 41 42 42 32 43 33 44 34 45 35 46 36 47 37 49 38 50 41 51
REMARK SMILES IDX 39 52 40 53
REMARK H PARENT 21 4 10 15 13 19 7 21 4 24 17 28 19 30 36 48
REMARK Flexibility Score: inf
ROOT
ATOM      1  N   UNL     1      25.688  31.844  20.565  1.00  0.00    -0.319 N 
ATOM      2  C   UNL     1      26.571  32.060  21.646  1.00  0.00     0.407 C 
ATOM      3  O   UNL     1      26.528  33.183  22.254  1.00  0.00    -0.225 OA
ATOM      4  H   UNL     1      25.715  30.937  20.069  1.00  0.00     0.167 HD
ENDROOT
BRANCH   1   5
ATOM      5  C   UNL     1      24.752  32.849  20.139  1.00  0.00     0.154 C 
BRANCH   5   6
ATOM      6  C   UNL     1      23.980  32.444  18.908  1.00  0.00     0.165 C 
BRANCH   6   7
ATOM      7  C   UNL     1      24.876  32.226  17.724  1.00  0.00     0.176 C 
BRANCH   7   8
ATOM      8  C   UNL     1      24.709  30.800  17.169  1.00  0.00     0.178 C 
ATOM      9  C   UNL     1      26.632  29.684  17.958  1.00  0.00     0.269 C 
ATOM     10  C   UNL     1      26.994  29.335  16.527  1.00  0.00     0.112 C 
ATOM     11  O   UNL     1      25.313  29.958  18.052  1.00  0.00    -0.332 OA
ATOM     12  C   UNL     1      26.670  30.563  15.711  1.00  0.00     0.145 C 
ATOM     13  C   UNL     1      25.178  30.774  15.768  1.00  0.00     0.142 C 
BRANCH   9  14
ATOM     14  O   UNL     1      27.370  30.835  18.264  1.00  0.00    -0.357 OA
ATOM     15  H   UNL     1      26.857  31.657  18.161  1.00  0.00     0.214 HD
ENDBRANCH   9  14
BRANCH   9  16
ATOM     16  C   UNL     1      27.075  28.618  18.894  1.00  0.00     0.364 C 
ATOM     17  O   UNL     1      27.468  27.532  18.444  1.00  0.00    -0.246 OA
BRANCH  16  18
ATOM     18  O   UNL     1      27.053  28.822  20.260  1.00  0.00    -0.477 OA
ATOM     19  H   UNL     1      26.178  29.104  20.726  1.00  0.00     0.296 HD
ENDBRANCH  16  18
ENDBRANCH   9  16
BRANCH  12  20
ATOM     20  O   UNL     1      27.395  31.651  16.184  1.00  0.00    -0.391 OA
ATOM     21  H   UNL     1      26.733  32.341  16.480  1.00  0.00     0.211 HD
ENDBRANCH  12  20
BRANCH  13  22
ATOM     22  N   UNL     1      24.571  29.795  14.925  1.00  0.00    -0.348 N 
ATOM     23  C   UNL     1      24.164  30.132  13.615  1.00  0.00     0.217 C 
ATOM     24  H   UNL     1      24.422  28.831  15.265  1.00  0.00     0.163 HD
ATOM     25  C   UNL     1      23.526  29.179  12.672  1.00  0.00     0.114 C 
ATOM     26  O   UNL     1      24.351  31.294  13.232  1.00  0.00    -0.275 OA
ENDBRANCH  13  22
ENDBRANCH   7   8
BRANCH   7  27
ATOM     27  O   UNL     1      24.631  33.158  16.688  1.00  0.00    -0.388 OA
ATOM     28  H   UNL     1      23.795  33.614  16.898  1.00  0.00     0.211 HD
ENDBRANCH   7  27
ENDBRANCH   6   7
BRANCH   6  29
ATOM     29  O   UNL     1      23.068  33.496  18.676  1.00  0.00    -0.388 OA
ATOM     30  H   UNL     1      22.791  33.821  19.568  1.00  0.00     0.211 HD
ENDBRANCH   6  29
ENDBRANCH   5   6
ENDBRANCH   1   5
BRANCH   2  31
ATOM     31  O   UNL     1      27.485  31.127  22.090  1.00  0.00    -0.443 OA
BRANCH  31  32
ATOM     32  C   UNL     1      28.873  31.447  22.258  1.00  0.00     0.294 C 
BRANCH  32  33
ATOM     33  C   UNL     1      29.493  31.333  20.905  1.00  0.00     0.121 A 
ATOM     34  C   UNL     1      29.902  32.384  20.081  1.00  0.00     0.144 A 
ATOM     35  N   UNL     1      29.789  30.221  20.200  1.00  0.00    -0.131 NA
ATOM     36  N   UNL     1      30.411  31.884  18.943  1.00  0.00    -0.220 N 
ATOM     37  N   UNL     1      30.324  30.574  19.057  1.00  0.00    -0.062 NA
BRANCH  36  38
ATOM     38  C   UNL     1      30.927  32.657  17.868  1.00  0.00     0.066 A 
ATOM     39  C   UNL     1      31.448  33.918  18.043  1.00  0.00     0.030 A 
ATOM     40  C   UNL     1      30.914  32.141  16.590  1.00  0.00     0.030 A 
ATOM     41  C   UNL     1      31.948  34.661  16.974  1.00  0.00     0.024 A 
ATOM     42  C   UNL     1      31.408  32.872  15.532  1.00  0.00     0.024 A 
ATOM     43  C   UNL     1      31.940  34.155  15.695  1.00  0.00     0.088 A 
BRANCH  43  44
ATOM     44  S   UNL     1      32.564  35.038  14.333  1.00  0.00     0.263 S 
ATOM     45  O   UNL     1      33.967  34.507  14.069  1.00  0.00    -0.201 OA
ATOM     46  O   UNL     1      32.723  36.460  14.744  1.00  0.00    -0.201 OA
BRANCH  44  47
ATOM     47  N   UNL     1      31.638  34.894  12.915  1.00  0.00    -0.255 N 
ATOM     48  H   UNL     1      32.146  34.638  12.025  1.00  0.00     0.182 HD
BRANCH  47  49
ATOM     49  C   UNL     1      30.253  35.081  12.783  1.00  0.00     0.196 A 
ATOM     50  N   UNL     1      29.240  34.526  12.388  1.00  0.00    -0.228 NA
ATOM     51  S   UNL     1      29.486  36.703  13.375  1.00  0.00    -0.105 S 
ATOM     52  C   UNL     1      28.021  34.962  12.395  1.00  0.00     0.125 A 
ATOM     53  C   UNL     1      27.764  36.193  12.893  1.00  0.00     0.089 A 
ENDBRANCH  47  49
ENDBRANCH  44  47
ENDBRANCH  43  44
ENDBRANCH  36  38
ENDBRANCH  32  33
ENDBRANCH  31  32
ENDBRANCH   2  31
TORSDOF 18
BEGIN_RES LYS A 131
REMARK  4 active torsions:
REMARK  status: ('A' for Active; 'I' for Inactive)
REMARK    1  A    between atoms: CA   and  CB  
REMARK    2  A    between atoms: CB   and  CG  
REMARK    3  A    between atoms: CG   and  CD  
REMARK    4  A    between atoms: CD   and  CE  
ROOT
ATOM      1  CA  LYS A 131      29.867  25.555  16.977  1.00 20.52     0.186 C 
ENDROOT
BRANCH   1   2
ATOM      2  CB  LYS A 131      28.345  25.722  17.026  1.00 20.94     0.034 C 
BRANCH   2   3
ATOM      3  CG  LYS A 131      27.599  24.445  16.671  1.00 22.96     0.005 C 
BRANCH   3   4
ATOM      4  CD  LYS A 131      26.737  23.959  17.803  1.00 24.33     0.041 C 
BRANCH   4   5
ATOM      5  CE  LYS A 131      25.274  23.977  17.373  1.00 26.91     0.338 C 
ATOM      6  NZ  LYS A 131      24.671  22.632  17.528  1.00 27.40     0.618 N 
ENDBRANCH   4   5
ENDBRANCH   3   4
ENDBRANCH   2   3
ENDBRANCH   1   2
END_RES LYS A 131
BEGIN_RES LYS A 135
REMARK  4 active torsions:
REMARK  status: ('A' for Active; 'I' for Inactive)
REMARK    5  A    between atoms: CA   and  CB  
REMARK    6  A    between atoms: CB   and  CG  
REMARK    7  A    between atoms: CG   and  CD  
REMARK    8  A    between atoms: CD   and  CE  
ROOT
ATOM      7  CA  LYS A 135      33.193  34.663   9.290  1.00 25.02     0.186 C 
ENDROOT
BRANCH   7   8
ATOM      8  CB  LYS A 135      32.060  35.360  10.034  1.00 26.63     0.034 C 
BRANCH   8   9
ATOM      9  CG  LYS A 135      30.846  35.617   9.179  1.00 29.45     0.005 C 
BRANCH   9  10
ATOM     10  CD  LYS A 135      30.133  34.313   8.854  1.00 32.00     0.041 C 
BRANCH  10  11
ATOM     11  CE  LYS A 135      28.705  34.581   8.418  1.00 34.25     0.338 C 
ATOM     12  NZ  LYS A 135      27.740  33.781   9.223  1.00 35.99     0.618 N 
ENDBRANCH  10  11
ENDBRANCH   9  10
ENDBRANCH   8   9
ENDBRANCH   7   8
END_RES LYS A 135
