REMARK VINA RESULT:    -5.089      3.241      5.684
REMARK INTER + INTRA:         -16.108
REMARK INTER:                  -9.758
REMARK INTRA:                  -6.350
REMARK UNBOUND:                -6.408
REMARK SMILES CC(=O)N[C@@H]1[C@@H](O)C[C@](O)(C(=O)O)O[C@H]1C(O)[C@H](O)CNC(=O)OCc1cn(-c2ccc(S(=O)(=O)Nc3nccs3)cc2)nn1
REMARK SMILES IDX 21 1 22 2 23 3 20 5 18 6 16 7 15 8 9 9 8 10 14 11 6 12 5 13
REMARK SMILES IDX 10 14 11 16 12 17 13 18 7 20 4 22 2 23 1 25 3 26 17 27 19 29
REMARK SMILES IDX 24 31 25 32 26 33 27 34 45 35 28 36 44 37 29 38 30 39 43 40
REMARK SMILES IDX 31 41 42 42 32 43 33 44 34 45 35 46 36 47 37 49 38 50 41 51
REMARK SMILES IDX 39 52 40 53
REMARK H PARENT 21 4 10 15 13 19 7 21 4 24 17 28 19 30 36 48
REMARK Flexibility Score: inf
ROOT
ATOM      1  N   UNL     1      28.175  29.165  18.284  1.00  0.00    -0.319 N 
ATOM      2  C   UNL     1      27.823  30.469  17.872  1.00  0.00     0.407 C 
ATOM      3  O   UNL     1      26.630  30.875  18.082  1.00  0.00    -0.225 OA
ATOM      4  H   UNL     1      29.140  28.831  18.119  1.00  0.00     0.167 HD
ENDROOT
BRANCH   1   5
ATOM      5  C   UNL     1      27.230  28.293  18.928  1.00  0.00     0.154 C 
BRANCH   5   6
ATOM      6  C   UNL     1      27.698  27.825  20.284  1.00  0.00     0.165 C 
BRANCH   6   7
ATOM      7  C   UNL     1      29.194  27.839  20.403  1.00  0.00     0.176 C 
BRANCH   7   8
ATOM      8  C   UNL     1      29.639  28.744  21.565  1.00  0.00     0.178 C 
ATOM      9  C   UNL     1      30.689  30.552  20.472  1.00  0.00     0.269 C 
ATOM     10  C   UNL     1      31.953  30.274  21.263  1.00  0.00     0.112 C 
ATOM     11  O   UNL     1      29.618  30.024  21.101  1.00  0.00    -0.332 OA
ATOM     12  C   UNL     1      32.082  28.771  21.314  1.00  0.00     0.145 C 
ATOM     13  C   UNL     1      30.916  28.233  22.107  1.00  0.00     0.142 C 
BRANCH   9  14
ATOM     14  O   UNL     1      30.868  29.911  19.239  1.00  0.00    -0.357 OA
ATOM     15  H   UNL     1      31.143  28.980  19.328  1.00  0.00     0.214 HD
ENDBRANCH   9  14
BRANCH   9  16
ATOM     16  C   UNL     1      30.546  32.005  20.192  1.00  0.00     0.364 C 
ATOM     17  O   UNL     1      31.548  32.734  20.212  1.00  0.00    -0.246 OA
BRANCH  16  18
ATOM     18  O   UNL     1      29.309  32.553  19.913  1.00  0.00    -0.477 OA
ATOM     19  H   UNL     1      28.703  32.877  20.680  1.00  0.00     0.296 HD
ENDBRANCH  16  18
ENDBRANCH   9  16
BRANCH  12  20
ATOM     20  O   UNL     1      32.149  28.256  20.024  1.00  0.00    -0.391 OA
ATOM     21  H   UNL     1      31.227  28.307  19.637  1.00  0.00     0.211 HD
ENDBRANCH  12  20
BRANCH  13  22
ATOM     22  N   UNL     1      31.166  28.513  23.484  1.00  0.00    -0.348 N 
ATOM     23  C   UNL     1      31.038  27.496  24.455  1.00  0.00     0.217 C 
ATOM     24  H   UNL     1      31.440  29.463  23.784  1.00  0.00     0.163 HD
ATOM     25  C   UNL     1      31.277  27.698  25.907  1.00  0.00     0.114 C 
ATOM     26  O   UNL     1      30.705  26.367  24.071  1.00  0.00    -0.275 OA
ENDBRANCH  13  22
ENDBRANCH   7   8
BRANCH   7  27
ATOM     27  O   UNL     1      29.728  26.543  20.594  1.00  0.00    -0.388 OA
ATOM     28  H   UNL     1      30.614  26.648  20.986  1.00  0.00     0.211 HD
ENDBRANCH   7  27
ENDBRANCH   6   7
BRANCH   6  29
ATOM     29  O   UNL     1      27.184  26.517  20.425  1.00  0.00    -0.388 OA
ATOM     30  H   UNL     1      26.330  26.610  20.916  1.00  0.00     0.211 HD
ENDBRANCH   6  29
ENDBRANCH   5   6
ENDBRANCH   1   5
BRANCH   2  31
ATOM     31  O   UNL     1      28.694  31.340  17.251  1.00  0.00    -0.443 OA
BRANCH  31  32
ATOM     32  C   UNL     1      28.827  31.390  15.824  1.00  0.00     0.294 C 
BRANCH  32  33
ATOM     33  C   UNL     1      29.820  32.467  15.536  1.00  0.00     0.121 A 
ATOM     34  C   UNL     1      30.713  33.045  16.441  1.00  0.00     0.144 A 
ATOM     35  N   UNL     1      30.066  33.103  14.372  1.00  0.00    -0.131 NA
ATOM     36  N   UNL     1      31.443  33.979  15.811  1.00  0.00    -0.220 N 
ATOM     37  N   UNL     1      31.020  33.982  14.563  1.00  0.00    -0.062 NA
BRANCH  36  38
ATOM     38  C   UNL     1      32.454  34.775  16.415  1.00  0.00     0.066 A 
ATOM     39  C   UNL     1      33.500  35.313  15.702  1.00  0.00     0.030 A 
ATOM     40  C   UNL     1      32.405  35.028  17.769  1.00  0.00     0.030 A 
ATOM     41  C   UNL     1      34.483  36.089  16.314  1.00  0.00     0.024 A 
ATOM     42  C   UNL     1      33.374  35.794  18.376  1.00  0.00     0.024 A 
ATOM     43  C   UNL     1      34.443  36.349  17.664  1.00  0.00     0.088 A 
BRANCH  43  44
ATOM     44  S   UNL     1      35.638  37.321  18.470  1.00  0.00     0.263 S 
ATOM     45  O   UNL     1      34.942  37.987  19.650  1.00  0.00    -0.201 OA
ATOM     46  O   UNL     1      36.036  38.417  17.543  1.00  0.00    -0.201 OA
BRANCH  44  47
ATOM     47  N   UNL     1      36.988  36.456  19.035  1.00  0.00    -0.255 N 
ATOM     48  H   UNL     1      37.423  36.772  19.945  1.00  0.00     0.182 HD
BRANCH  47  49
ATOM     49  C   UNL     1      37.606  35.353  18.425  1.00  0.00     0.196 A 
ATOM     50  N   UNL     1      38.031  34.960  17.351  1.00  0.00    -0.228 NA
ATOM     51  S   UNL     1      38.014  33.836  19.474  1.00  0.00    -0.105 S 
ATOM     52  C   UNL     1      38.590  33.828  17.065  1.00  0.00     0.125 A 
ATOM     53  C   UNL     1      38.756  32.909  18.043  1.00  0.00     0.089 A 
ENDBRANCH  47  49
ENDBRANCH  44  47
ENDBRANCH  43  44
ENDBRANCH  36  38
ENDBRANCH  32  33
ENDBRANCH  31  32
ENDBRANCH   2  31
TORSDOF 18
BEGIN_RES LYS A 131
REMARK  4 active torsions:
REMARK  status: ('A' for Active; 'I' for Inactive)
REMARK    1  A    between atoms: CA   and  CB  
REMARK    2  A    between atoms: CB   and  CG  
REMARK    3  A    between atoms: CG   and  CD  
REMARK    4  A    between atoms: CD   and  CE  
ROOT
ATOM      1  CA  LYS A 131      29.867  25.555  16.977  1.00 20.52     0.186 C 
ENDROOT
BRANCH   1   2
ATOM      2  CB  LYS A 131      28.345  25.722  17.026  1.00 20.94     0.034 C 
BRANCH   2   3
ATOM      3  CG  LYS A 131      27.602  24.398  16.929  1.00 22.96     0.005 C 
BRANCH   3   4
ATOM      4  CD  LYS A 131      26.168  24.521  17.365  1.00 24.33     0.041 C 
BRANCH   4   5
ATOM      5  CE  LYS A 131      25.845  23.416  18.366  1.00 26.91     0.338 C 
ATOM      6  NZ  LYS A 131      24.988  22.382  17.739  1.00 27.40     0.618 N 
ENDBRANCH   4   5
ENDBRANCH   3   4
ENDBRANCH   2   3
ENDBRANCH   1   2
END_RES LYS A 131
BEGIN_RES LYS A 135
REMARK  4 active torsions:
REMARK  status: ('A' for Active; 'I' for Inactive)
REMARK    5  A    between atoms: CA   and  CB  
REMARK    6  A    between atoms: CB   and  CG  
REMARK    7  A    between atoms: CG   and  CD  
REMARK    8  A    between atoms: CD   and  CE  
ROOT
ATOM      7  CA  LYS A 135      33.193  34.663   9.290  1.00 25.02     0.186 C 
ENDROOT
BRANCH   7   8
ATOM      8  CB  LYS A 135      32.060  35.360  10.034  1.00 26.63     0.034 C 
BRANCH   8   9
ATOM      9  CG  LYS A 135      30.708  34.741   9.790  1.00 29.45     0.005 C 
BRANCH   9  10
ATOM     10  CD  LYS A 135      30.475  34.530   8.302  1.00 32.00     0.041 C 
BRANCH  10  11
ATOM     11  CE  LYS A 135      29.034  34.837   7.940  1.00 34.25     0.338 C 
ATOM     12  NZ  LYS A 135      28.949  35.545   6.632  1.00 35.99     0.618 N 
ENDBRANCH  10  11
ENDBRANCH   9  10
ENDBRANCH   8   9
ENDBRANCH   7   8
END_RES LYS A 135
