REMARK VINA RESULT:    -4.385      6.719     11.791
REMARK INTER + INTRA:         -14.095
REMARK INTER:                  -8.468
REMARK INTRA:                  -5.627
REMARK UNBOUND:                -5.994
REMARK SMILES CC(=O)N[C@@H]1[C@@H](O)C[C@](O)(C(=O)O)O[C@H]1C(O)[C@H](O)CNC(=O)OCc1cn(CCN2CCCC2)nn1
REMARK SMILES IDX 21 1 22 2 23 3 20 5 18 6 16 7 15 8 9 9 8 10 14 11 6 12 5 13
REMARK SMILES IDX 10 14 11 16 12 17 13 18 7 20 4 22 2 23 1 25 3 26 17 27 19 29
REMARK SMILES IDX 24 31 25 32 26 33 27 34 37 35 28 36 36 37 29 38 30 39 31 40
REMARK SMILES IDX 32 41 35 42 33 43 34 44
REMARK H PARENT 21 4 10 15 13 19 7 21 4 24 17 28 19 30
REMARK Flexibility Score: inf
ROOT
ATOM      1  N   UNL     1      26.575  30.496  17.665  1.00  0.00    -0.319 N 
ATOM      2  C   UNL     1      26.545  30.784  16.288  1.00  0.00     0.407 C 
ATOM      3  O   UNL     1      25.744  30.206  15.542  1.00  0.00    -0.225 OA
ATOM      4  H   UNL     1      27.317  31.049  18.214  1.00  0.00     0.167 HD
ENDROOT
BRANCH   1   5
ATOM      5  C   UNL     1      25.742  29.572  18.368  1.00  0.00     0.154 C 
BRANCH   5   6
ATOM      6  C   UNL     1      26.521  28.362  18.795  1.00  0.00     0.165 C 
BRANCH   6   7
ATOM      7  C   UNL     1      27.247  28.605  20.114  1.00  0.00     0.176 C 
BRANCH   7   8
ATOM      8  C   UNL     1      28.752  28.584  19.792  1.00  0.00     0.178 C 
ATOM      9  C   UNL     1      30.073  27.494  21.394  1.00  0.00     0.269 C 
ATOM     10  C   UNL     1      29.933  28.767  22.207  1.00  0.00     0.112 C 
ATOM     11  O   UNL     1      29.322  27.453  20.261  1.00  0.00    -0.332 OA
ATOM     12  C   UNL     1      30.187  29.960  21.352  1.00  0.00     0.145 C 
ATOM     13  C   UNL     1      29.404  29.886  20.081  1.00  0.00     0.142 C 
BRANCH   9  14
ATOM     14  O   UNL     1      29.562  26.478  22.239  1.00  0.00    -0.357 OA
ATOM     15  H   UNL     1      29.662  25.600  21.761  1.00  0.00     0.214 HD
ENDBRANCH   9  14
BRANCH   9  16
ATOM     16  C   UNL     1      31.497  27.164  21.151  1.00  0.00     0.364 C 
ATOM     17  O   UNL     1      32.260  26.969  22.121  1.00  0.00    -0.246 OA
BRANCH  16  18
ATOM     18  O   UNL     1      31.996  27.067  19.866  1.00  0.00    -0.477 OA
ATOM     19  H   UNL     1      32.025  27.897  19.291  1.00  0.00     0.296 HD
ENDBRANCH  16  18
ENDBRANCH   9  16
BRANCH  12  20
ATOM     20  O   UNL     1      29.852  31.093  22.084  1.00  0.00    -0.391 OA
ATOM     21  H   UNL     1      29.801  30.874  23.053  1.00  0.00     0.211 HD
ENDBRANCH  12  20
BRANCH  13  22
ATOM     22  N   UNL     1      30.181  30.360  18.937  1.00  0.00    -0.348 N 
ATOM     23  C   UNL     1      29.890  31.555  18.268  1.00  0.00     0.217 C 
ATOM     24  H   UNL     1      30.972  29.762  18.634  1.00  0.00     0.163 HD
ATOM     25  C   UNL     1      30.733  31.959  17.114  1.00  0.00     0.114 C 
ATOM     26  O   UNL     1      28.916  32.285  18.644  1.00  0.00    -0.275 OA
ENDBRANCH  13  22
ENDBRANCH   7   8
BRANCH   7  27
ATOM     27  O   UNL     1      26.875  29.866  20.571  1.00  0.00    -0.388 OA
ATOM     28  H   UNL     1      26.186  30.299  20.039  1.00  0.00     0.211 HD
ENDBRANCH   7  27
ENDBRANCH   6   7
BRANCH   6  29
ATOM     29  O   UNL     1      27.373  27.855  17.839  1.00  0.00    -0.388 OA
ATOM     30  H   UNL     1      28.322  27.822  18.101  1.00  0.00     0.211 HD
ENDBRANCH   6  29
ENDBRANCH   5   6
ENDBRANCH   1   5
BRANCH   2  31
ATOM     31  O   UNL     1      27.400  31.718  15.699  1.00  0.00    -0.443 OA
BRANCH  31  32
ATOM     32  C   UNL     1      27.164  33.104  15.847  1.00  0.00     0.294 C 
BRANCH  32  33
ATOM     33  C   UNL     1      27.712  33.895  14.716  1.00  0.00     0.120 A 
ATOM     34  C   UNL     1      26.993  34.492  13.679  1.00  0.00     0.138 A 
ATOM     35  N   UNL     1      28.993  34.202  14.448  1.00  0.00    -0.132 NA
ATOM     36  N   UNL     1      27.830  35.124  12.838  1.00  0.00    -0.251 N 
ATOM     37  N   UNL     1      29.052  34.918  13.352  1.00  0.00    -0.067 NA
BRANCH  36  38
ATOM     38  C   UNL     1      27.527  35.868  11.633  1.00  0.00     0.161 C 
BRANCH  38  39
ATOM     39  C   UNL     1      26.484  36.915  11.842  1.00  0.00     0.108 C 
BRANCH  39  40
ATOM     40  N   UNL     1      25.362  36.830  10.941  1.00  0.00    -0.301 NA
ATOM     41  C   UNL     1      25.774  37.373   9.658  1.00  0.00     0.084 C 
ATOM     42  C   UNL     1      24.971  35.458  10.680  1.00  0.00     0.084 C 
ATOM     43  C   UNL     1      25.257  36.467   8.588  1.00  0.00     0.017 C 
ATOM     44  C   UNL     1      24.278  35.589   9.339  1.00  0.00     0.017 C 
ENDBRANCH  39  40
ENDBRANCH  38  39
ENDBRANCH  36  38
ENDBRANCH  32  33
ENDBRANCH  31  32
ENDBRANCH   2  31
TORSDOF 17
BEGIN_RES LYS A 131
REMARK  4 active torsions:
REMARK  status: ('A' for Active; 'I' for Inactive)
REMARK    1  A    between atoms: CA   and  CB  
REMARK    2  A    between atoms: CB   and  CG  
REMARK    3  A    between atoms: CG   and  CD  
REMARK    4  A    between atoms: CD   and  CE  
ROOT
ATOM      1  CA  LYS A 131      29.867  25.555  16.977  1.00 20.52     0.186 C 
ENDROOT
BRANCH   1   2
ATOM      2  CB  LYS A 131      28.345  25.722  17.026  1.00 20.94     0.034 C 
BRANCH   2   3
ATOM      3  CG  LYS A 131      27.600  24.408  16.847  1.00 22.96     0.005 C 
BRANCH   3   4
ATOM      4  CD  LYS A 131      26.159  24.512  17.264  1.00 24.33     0.041 C 
BRANCH   4   5
ATOM      5  CE  LYS A 131      26.075  24.614  18.783  1.00 26.91     0.338 C 
ATOM      6  NZ  LYS A 131      25.589  23.339  19.363  1.00 27.40     0.618 N 
ENDBRANCH   4   5
ENDBRANCH   3   4
ENDBRANCH   2   3
ENDBRANCH   1   2
END_RES LYS A 131
BEGIN_RES LYS A 135
REMARK  4 active torsions:
REMARK  status: ('A' for Active; 'I' for Inactive)
REMARK    5  A    between atoms: CA   and  CB  
REMARK    6  A    between atoms: CB   and  CG  
REMARK    7  A    between atoms: CG   and  CD  
REMARK    8  A    between atoms: CD   and  CE  
ROOT
ATOM      7  CA  LYS A 135      33.193  34.663   9.290  1.00 25.02     0.186 C 
ENDROOT
BRANCH   7   8
ATOM      8  CB  LYS A 135      32.060  35.360  10.034  1.00 26.63     0.034 C 
BRANCH   8   9
ATOM      9  CG  LYS A 135      30.703  34.763   9.761  1.00 29.45     0.005 C 
BRANCH   9  10
ATOM     10  CD  LYS A 135      30.516  34.514   8.273  1.00 32.00     0.041 C 
BRANCH  10  11
ATOM     11  CE  LYS A 135      29.139  34.965   7.826  1.00 34.25     0.338 C 
ATOM     12  NZ  LYS A 135      28.071  34.274   8.600  1.00 35.99     0.618 N 
ENDBRANCH  10  11
ENDBRANCH   9  10
ENDBRANCH   8   9
ENDBRANCH   7   8
END_RES LYS A 135
