REMARK VINA RESULT:    -5.945      7.557     12.489
REMARK INTER + INTRA:         -14.821
REMARK INTER:                 -10.158
REMARK INTRA:                  -4.664
REMARK UNBOUND:                -4.533
REMARK SMILES CC(=O)N[C@@H]1[C@@H](O)C[C@](O)(C(=O)O)O[C@H]1C(O)[C@H](O)CNC(=O)OCc1cn(-c2cnc3ccccc3c2)nn1
REMARK SMILES IDX 20 1 18 2 16 3 15 4 9 5 8 6 14 7 6 8 5 9 10 10 11 12 12 13
REMARK SMILES IDX 13 14 7 16 4 18 2 19 1 21 3 22 17 23 19 25 21 27 22 28 23 30
REMARK SMILES IDX 24 31 25 32 26 33 27 34 40 35 28 36 39 37 29 38 30 39 38 40
REMARK SMILES IDX 31 41 37 42 32 43 36 44 33 45 35 46 34 47
REMARK H PARENT 10 11 13 15 7 17 4 20 17 24 19 26 21 29
REMARK Flexibility Score: inf
ROOT
ATOM      1  C   UNL     1      23.109  37.352   8.837  1.00  0.00     0.154 C 
ENDROOT
BRANCH   1   2
ATOM      2  C   UNL     1      24.130  38.439   9.025  1.00  0.00     0.165 C 
BRANCH   2   3
ATOM      3  C   UNL     1      25.073  38.597   7.864  1.00  0.00     0.176 C 
BRANCH   3   4
ATOM      4  C   UNL     1      25.868  37.366   7.538  1.00  0.00     0.178 C 
ATOM      5  C   UNL     1      27.094  35.774   8.699  1.00  0.00     0.269 C 
ATOM      6  C   UNL     1      27.565  35.211   7.381  1.00  0.00     0.112 C 
ATOM      7  O   UNL     1      25.916  36.471   8.598  1.00  0.00    -0.332 OA
ATOM      8  C   UNL     1      27.693  36.294   6.363  1.00  0.00     0.145 C 
ATOM      9  C   UNL     1      27.190  37.647   6.911  1.00  0.00     0.142 C 
BRANCH   5  10
ATOM     10  O   UNL     1      28.142  36.507   9.249  1.00  0.00    -0.357 OA
ATOM     11  H   UNL     1      27.852  37.152   9.920  1.00  0.00     0.214 HD
ENDBRANCH   5  10
BRANCH   5  12
ATOM     12  C   UNL     1      26.853  34.615   9.609  1.00  0.00     0.364 C 
ATOM     13  O   UNL     1      27.556  33.586   9.450  1.00  0.00    -0.246 OA
BRANCH  12  14
ATOM     14  O   UNL     1      25.894  34.637  10.606  1.00  0.00    -0.477 OA
ATOM     15  H   UNL     1      25.594  33.759  11.041  1.00  0.00     0.296 HD
ENDBRANCH  12  14
ENDBRANCH   5  12
BRANCH   8  16
ATOM     16  O   UNL     1      29.029  36.434   5.946  1.00  0.00    -0.391 OA
ATOM     17  H   UNL     1      29.063  36.542   4.966  1.00  0.00     0.211 HD
ENDBRANCH   8  16
BRANCH   9  18
ATOM     18  N   UNL     1      26.967  38.538   5.768  1.00  0.00    -0.348 N 
ATOM     19  C   UNL     1      27.945  39.449   5.291  1.00  0.00     0.217 C 
ATOM     20  H   UNL     1      26.058  38.518   5.272  1.00  0.00     0.163 HD
ATOM     21  C   UNL     1      27.699  40.348   4.132  1.00  0.00     0.114 C 
ATOM     22  O   UNL     1      29.070  39.522   5.846  1.00  0.00    -0.275 OA
ENDBRANCH   9  18
ENDBRANCH   3   4
BRANCH   3  23
ATOM     23  O   UNL     1      24.296  39.003   6.761  1.00  0.00    -0.388 OA
ATOM     24  H   UNL     1      24.648  39.884   6.482  1.00  0.00     0.211 HD
ENDBRANCH   3  23
ENDBRANCH   2   3
BRANCH   2  25
ATOM     25  O   UNL     1      24.840  38.253  10.229  1.00  0.00    -0.388 OA
ATOM     26  H   UNL     1      25.253  37.338  10.130  1.00  0.00     0.211 HD
ENDBRANCH   2  25
ENDBRANCH   1   2
BRANCH   1  27
ATOM     27  N   UNL     1      23.166  36.439   9.954  1.00  0.00    -0.319 N 
ATOM     28  C   UNL     1      22.042  35.745  10.444  1.00  0.00     0.407 C 
ATOM     29  H   UNL     1      24.074  36.249  10.462  1.00  0.00     0.167 HD
ATOM     30  O   UNL     1      20.911  35.882   9.933  1.00  0.00    -0.225 OA
BRANCH  28  31
ATOM     31  O   UNL     1      22.118  34.862  11.530  1.00  0.00    -0.443 OA
BRANCH  31  32
ATOM     32  C   UNL     1      22.352  35.371  12.852  1.00  0.00     0.294 C 
BRANCH  32  33
ATOM     33  C   UNL     1      23.776  35.218  13.216  1.00  0.00     0.121 A 
ATOM     34  C   UNL     1      24.368  34.202  13.898  1.00  0.00     0.144 A 
ATOM     35  N   UNL     1      24.732  36.103  12.909  1.00  0.00    -0.131 NA
ATOM     36  N   UNL     1      25.692  34.520  13.982  1.00  0.00    -0.219 N 
ATOM     37  N   UNL     1      25.889  35.669  13.379  1.00  0.00    -0.062 NA
BRANCH  36  38
ATOM     38  C   UNL     1      26.696  33.747  14.610  1.00  0.00     0.085 A 
ATOM     39  C   UNL     1      26.322  32.710  15.446  1.00  0.00     0.140 A 
ATOM     40  C   UNL     1      28.020  34.043  14.378  1.00  0.00     0.040 A 
ATOM     41  N   UNL     1      27.275  31.977  16.043  1.00  0.00    -0.254 NA
ATOM     42  C   UNL     1      28.993  33.271  15.006  1.00  0.00     0.002 A 
ATOM     43  C   UNL     1      28.595  32.243  15.834  1.00  0.00     0.070 A 
ATOM     44  C   UNL     1      30.310  33.541  14.794  1.00  0.00     0.010 A 
ATOM     45  C   UNL     1      29.557  31.476  16.458  1.00  0.00     0.029 A 
ATOM     46  C   UNL     1      31.289  32.771  15.421  1.00  0.00     0.001 A 
ATOM     47  C   UNL     1      30.906  31.743  16.249  1.00  0.00     0.002 A 
ENDBRANCH  36  38
ENDBRANCH  32  33
ENDBRANCH  31  32
ENDBRANCH  28  31
ENDBRANCH   1  27
TORSDOF 15
BEGIN_RES LYS A 131
REMARK  4 active torsions:
REMARK  status: ('A' for Active; 'I' for Inactive)
REMARK    1  A    between atoms: CA   and  CB  
REMARK    2  A    between atoms: CB   and  CG  
REMARK    3  A    between atoms: CG   and  CD  
REMARK    4  A    between atoms: CD   and  CE  
ROOT
ATOM      1  CA  LYS A 131      29.867  25.555  16.977  1.00 20.52     0.186 C 
ENDROOT
BRANCH   1   2
ATOM      2  CB  LYS A 131      28.345  25.722  17.026  1.00 20.94     0.034 C 
BRANCH   2   3
ATOM      3  CG  LYS A 131      27.602  24.400  16.913  1.00 22.96     0.005 C 
BRANCH   3   4
ATOM      4  CD  LYS A 131      26.167  24.518  17.347  1.00 24.33     0.041 C 
BRANCH   4   5
ATOM      5  CE  LYS A 131      26.004  25.745  18.239  1.00 26.91     0.338 C 
ATOM      6  NZ  LYS A 131      24.936  25.520  19.241  1.00 27.40     0.618 N 
ENDBRANCH   4   5
ENDBRANCH   3   4
ENDBRANCH   2   3
ENDBRANCH   1   2
END_RES LYS A 131
BEGIN_RES LYS A 135
REMARK  4 active torsions:
REMARK  status: ('A' for Active; 'I' for Inactive)
REMARK    5  A    between atoms: CA   and  CB  
REMARK    6  A    between atoms: CB   and  CG  
REMARK    7  A    between atoms: CG   and  CD  
REMARK    8  A    between atoms: CD   and  CE  
ROOT
ATOM      7  CA  LYS A 135      33.193  34.663   9.290  1.00 25.02     0.186 C 
ENDROOT
BRANCH   7   8
ATOM      8  CB  LYS A 135      32.060  35.360  10.034  1.00 26.63     0.034 C 
BRANCH   8   9
ATOM      9  CG  LYS A 135      30.826  34.509  10.186  1.00 29.45     0.005 C 
BRANCH   9  10
ATOM     10  CD  LYS A 135      30.084  34.864  11.466  1.00 32.00     0.041 C 
BRANCH  10  11
ATOM     11  CE  LYS A 135      30.504  36.233  11.963  1.00 34.25     0.338 C 
ATOM     12  NZ  LYS A 135      29.424  36.866  12.769  1.00 35.99     0.618 N 
ENDBRANCH  10  11
ENDBRANCH   9  10
ENDBRANCH   8   9
ENDBRANCH   7   8
END_RES LYS A 135
