REMARK VINA RESULT:    -5.473      4.606      7.619
REMARK INTER + INTRA:         -16.590
REMARK INTER:                  -9.442
REMARK INTRA:                  -7.148
REMARK UNBOUND:                -6.317
REMARK SMILES CC(=O)N[C@@H]1[C@@H](O)C[C@](O)(C(=O)O)O[C@H]1C(O)[C@H](O)CNC(=O)OCc1cn(-c2cccc(C=CC(=O)O)c2)nn1
REMARK SMILES IDX 21 1 22 2 23 3 20 5 18 6 16 7 15 8 9 9 8 10 14 11 6 12 5 13
REMARK SMILES IDX 10 14 11 16 12 17 13 18 7 20 4 22 2 23 1 25 3 26 17 27 19 29
REMARK SMILES IDX 24 31 25 32 26 33 27 34 41 35 28 36 40 37 29 38 39 39 30 40
REMARK SMILES IDX 33 41 31 42 32 43 34 44 35 45 36 46 37 47 38 48
REMARK H PARENT 21 4 10 15 13 19 7 21 4 24 17 28 19 30 38 49
REMARK Flexibility Score: inf
ROOT
ATOM      1  N   UNL     1      17.048  32.871   8.637  1.00  0.00    -0.319 N 
ATOM      2  C   UNL     1      16.903  31.465   8.629  1.00  0.00     0.407 C 
ATOM      3  O   UNL     1      17.249  30.757   7.661  1.00  0.00    -0.225 OA
ATOM      4  H   UNL     1      16.701  33.368   9.529  1.00  0.00     0.167 HD
ENDROOT
BRANCH   1   5
ATOM      5  C   UNL     1      17.605  33.673   7.586  1.00  0.00     0.154 C 
BRANCH   5   6
ATOM      6  C   UNL     1      18.973  34.157   7.943  1.00  0.00     0.165 C 
BRANCH   6   7
ATOM      7  C   UNL     1      19.047  34.865   9.283  1.00  0.00     0.176 C 
BRANCH   7   8
ATOM      8  C   UNL     1      19.800  36.140   9.171  1.00  0.00     0.178 C 
ATOM      9  C   UNL     1      21.798  37.265   8.903  1.00  0.00     0.269 C 
ATOM     10  C   UNL     1      20.882  38.457   8.871  1.00  0.00     0.112 C 
ATOM     11  O   UNL     1      21.128  36.058   8.894  1.00  0.00    -0.332 OA
ATOM     12  C   UNL     1      19.803  38.459   9.891  1.00  0.00     0.145 C 
ATOM     13  C   UNL     1      19.563  37.050  10.375  1.00  0.00     0.142 C 
BRANCH   9  14
ATOM     14  O   UNL     1      22.680  37.390   9.975  1.00  0.00    -0.357 OA
ATOM     15  H   UNL     1      23.612  37.501   9.686  1.00  0.00     0.214 HD
ENDBRANCH   9  14
BRANCH   9  16
ATOM     16  C   UNL     1      22.619  37.313   7.660  1.00  0.00     0.364 C 
ATOM     17  O   UNL     1      23.746  37.914   7.680  1.00  0.00    -0.246 OA
BRANCH  16  18
ATOM     18  O   UNL     1      22.203  36.727   6.473  1.00  0.00    -0.477 OA
ATOM     19  H   UNL     1      21.580  35.945   6.442  1.00  0.00     0.296 HD
ENDBRANCH  16  18
ENDBRANCH   9  16
BRANCH  12  20
ATOM     20  O   UNL     1      20.037  39.335  10.947  1.00  0.00    -0.391 OA
ATOM     21  H   UNL     1      19.496  40.134  10.837  1.00  0.00     0.211 HD
ENDBRANCH  12  20
BRANCH  13  22
ATOM     22  N   UNL     1      18.268  36.874  10.956  1.00  0.00    -0.348 N 
ATOM     23  C   UNL     1      18.077  36.296  12.238  1.00  0.00     0.217 C 
ATOM     24  H   UNL     1      17.386  37.174  10.443  1.00  0.00     0.163 HD
ATOM     25  C   UNL     1      16.722  36.136  12.797  1.00  0.00     0.114 C 
ATOM     26  O   UNL     1      19.059  35.911  12.920  1.00  0.00    -0.275 OA
ENDBRANCH  13  22
ENDBRANCH   7   8
BRANCH   7  27
ATOM     27  O   UNL     1      19.472  34.019  10.302  1.00  0.00    -0.388 OA
ATOM     28  H   UNL     1      18.807  33.303  10.396  1.00  0.00     0.211 HD
ENDBRANCH   7  27
ENDBRANCH   6   7
BRANCH   6  29
ATOM     29  O   UNL     1      19.497  35.005   6.965  1.00  0.00    -0.388 OA
ATOM     30  H   UNL     1      20.409  34.682   6.724  1.00  0.00     0.211 HD
ENDBRANCH   6  29
ENDBRANCH   5   6
ENDBRANCH   1   5
BRANCH   2  31
ATOM     31  O   UNL     1      16.349  30.788   9.736  1.00  0.00    -0.443 OA
BRANCH  31  32
ATOM     32  C   UNL     1      16.786  31.118  11.016  1.00  0.00     0.294 C 
BRANCH  32  33
ATOM     33  C   UNL     1      18.046  30.431  11.391  1.00  0.00     0.121 A 
ATOM     34  C   UNL     1      19.275  30.947  11.727  1.00  0.00     0.144 A 
ATOM     35  N   UNL     1      18.191  29.098  11.465  1.00  0.00    -0.131 NA
ATOM     36  N   UNL     1      20.134  29.933  11.996  1.00  0.00    -0.220 N 
ATOM     37  N   UNL     1      19.444  28.820  11.828  1.00  0.00    -0.062 NA
BRANCH  36  38
ATOM     38  C   UNL     1      21.501  30.092  12.380  1.00  0.00     0.067 A 
ATOM     39  C   UNL     1      22.012  31.322  12.699  1.00  0.00     0.036 A 
ATOM     40  C   UNL     1      22.336  29.000  12.434  1.00  0.00     0.028 A 
ATOM     41  C   UNL     1      23.372  31.490  13.081  1.00  0.00    -0.023 A 
ATOM     42  C   UNL     1      23.648  29.093  12.792  1.00  0.00     0.003 A 
ATOM     43  C   UNL     1      24.152  30.364  13.117  1.00  0.00     0.008 A 
BRANCH  41  44
ATOM     44  C   UNL     1      23.831  32.786  13.441  1.00  0.00     0.015 C 
ATOM     45  C   UNL     1      23.883  33.962  12.950  1.00  0.00     0.094 C 
BRANCH  45  46
ATOM     46  C   UNL     1      23.485  34.579  11.748  1.00  0.00     0.328 C 
ATOM     47  O   UNL     1      24.354  35.391  11.148  1.00  0.00    -0.247 OA
BRANCH  46  48
ATOM     48  O   UNL     1      22.323  34.520  11.021  1.00  0.00    -0.478 OA
ATOM     49  H   UNL     1      21.881  33.658  10.745  1.00  0.00     0.297 HD
ENDBRANCH  46  48
ENDBRANCH  45  46
ENDBRANCH  41  44
ENDBRANCH  36  38
ENDBRANCH  32  33
ENDBRANCH  31  32
ENDBRANCH   2  31
TORSDOF 18
BEGIN_RES LYS A 131
REMARK  4 active torsions:
REMARK  status: ('A' for Active; 'I' for Inactive)
REMARK    1  A    between atoms: CA   and  CB  
REMARK    2  A    between atoms: CB   and  CG  
REMARK    3  A    between atoms: CG   and  CD  
REMARK    4  A    between atoms: CD   and  CE  
ROOT
ATOM      1  CA  LYS A 131      29.867  25.555  16.977  1.00 20.52     0.186 C 
ENDROOT
BRANCH   1   2
ATOM      2  CB  LYS A 131      28.345  25.722  17.026  1.00 20.94     0.034 C 
BRANCH   2   3
ATOM      3  CG  LYS A 131      27.601  24.403  16.884  1.00 22.96     0.005 C 
BRANCH   3   4
ATOM      4  CD  LYS A 131      26.539  24.236  17.934  1.00 24.33     0.041 C 
BRANCH   4   5
ATOM      5  CE  LYS A 131      25.161  24.346  17.288  1.00 26.91     0.338 C 
ATOM      6  NZ  LYS A 131      24.416  23.073  17.435  1.00 27.40     0.618 N 
ENDBRANCH   4   5
ENDBRANCH   3   4
ENDBRANCH   2   3
ENDBRANCH   1   2
END_RES LYS A 131
BEGIN_RES LYS A 135
REMARK  4 active torsions:
REMARK  status: ('A' for Active; 'I' for Inactive)
REMARK    5  A    between atoms: CA   and  CB  
REMARK    6  A    between atoms: CB   and  CG  
REMARK    7  A    between atoms: CG   and  CD  
REMARK    8  A    between atoms: CD   and  CE  
ROOT
ATOM      7  CA  LYS A 135      33.193  34.663   9.290  1.00 25.02     0.186 C 
ENDROOT
BRANCH   7   8
ATOM      8  CB  LYS A 135      32.060  35.360  10.034  1.00 26.63     0.034 C 
BRANCH   8   9
ATOM      9  CG  LYS A 135      30.843  35.610   9.181  1.00 29.45     0.005 C 
BRANCH   9  10
ATOM     10  CD  LYS A 135      30.255  34.298   8.688  1.00 32.00     0.041 C 
BRANCH  10  11
ATOM     11  CE  LYS A 135      28.860  34.095   9.248  1.00 34.25     0.338 C 
ATOM     12  NZ  LYS A 135      27.824  34.598   8.303  1.00 35.99     0.618 N 
ENDBRANCH  10  11
ENDBRANCH   9  10
ENDBRANCH   8   9
ENDBRANCH   7   8
END_RES LYS A 135
