REMARK VINA RESULT:    -4.934      5.746     11.990
REMARK INTER + INTRA:         -15.603
REMARK INTER:                  -7.313
REMARK INTRA:                  -8.289
REMARK UNBOUND:                -5.909
REMARK SMILES CC(=O)N[C@@H]1[C@@H](O)C[C@](O)(C(=O)O)O[C@H]1C(O)[C@H](O)CNC(=O)OCc1cn(CCNC(=O)NCc2ccco2)nn1
REMARK SMILES IDX 24 1 22 2 21 3 23 5 20 6 18 7 16 8 15 9 9 10 8 11 14 12 6 13
REMARK SMILES IDX 5 14 10 15 11 17 12 18 13 19 7 21 4 23 2 24 1 26 3 27 17 28
REMARK SMILES IDX 19 30 25 32 26 33 27 34 42 35 28 36 41 37 29 38 30 39 31 40
REMARK SMILES IDX 32 41 33 43 34 44 35 46 36 47 37 48 40 49 38 50 39 51
REMARK H PARENT 21 4 10 16 13 20 7 22 4 25 17 29 19 31 31 42 34 45
REMARK Flexibility Score: inf
ROOT
ATOM      1  O   UNL     1      20.265  30.640  14.410  1.00  0.00    -0.443 OA
ENDROOT
BRANCH   1   2
ATOM      2  C   UNL     1      20.221  31.995  14.101  1.00  0.00     0.407 C 
ATOM      3  N   UNL     1      21.110  32.954  14.608  1.00  0.00    -0.319 N 
ATOM      4  H   UNL     1      21.859  32.670  15.255  1.00  0.00     0.167 HD
ATOM      5  O   UNL     1      19.318  32.378  13.312  1.00  0.00    -0.225 OA
BRANCH   3   6
ATOM      6  C   UNL     1      20.972  34.360  14.215  1.00  0.00     0.154 C 
BRANCH   6   7
ATOM      7  C   UNL     1      22.215  34.783  13.479  1.00  0.00     0.165 C 
BRANCH   7   8
ATOM      8  C   UNL     1      22.104  34.576  11.994  1.00  0.00     0.176 C 
BRANCH   8   9
ATOM      9  C   UNL     1      23.355  34.960  11.258  1.00  0.00     0.178 C 
ATOM     10  C   UNL     1      25.332  36.140  11.658  1.00  0.00     0.269 C 
ATOM     11  C   UNL     1      25.502  36.427  10.202  1.00  0.00     0.112 C 
ATOM     12  O   UNL     1      24.063  35.872  12.061  1.00  0.00    -0.332 OA
ATOM     13  C   UNL     1      24.476  35.853   9.310  1.00  0.00     0.145 C 
ATOM     14  C   UNL     1      23.117  35.710   9.970  1.00  0.00     0.142 C 
BRANCH  10  15
ATOM     15  O   UNL     1      25.712  37.335  12.322  1.00  0.00    -0.357 OA
ATOM     16  H   UNL     1      24.933  37.755  12.762  1.00  0.00     0.214 HD
ENDBRANCH  10  15
BRANCH  10  17
ATOM     17  C   UNL     1      26.246  35.080  12.149  1.00  0.00     0.364 C 
ATOM     18  O   UNL     1      27.496  35.152  11.975  1.00  0.00    -0.246 OA
BRANCH  17  19
ATOM     19  O   UNL     1      25.795  33.951  12.823  1.00  0.00    -0.477 OA
ATOM     20  H   UNL     1      24.800  33.795  12.939  1.00  0.00     0.296 HD
ENDBRANCH  17  19
ENDBRANCH  10  17
BRANCH  13  21
ATOM     21  O   UNL     1      24.355  36.645   8.149  1.00  0.00    -0.391 OA
ATOM     22  H   UNL     1      23.563  36.405   7.627  1.00  0.00     0.211 HD
ENDBRANCH  13  21
BRANCH  14  23
ATOM     23  N   UNL     1      22.181  35.122   9.075  1.00  0.00    -0.348 N 
ATOM     24  C   UNL     1      20.997  35.852   8.740  1.00  0.00     0.217 C 
ATOM     25  H   UNL     1      22.294  34.188   8.628  1.00  0.00     0.163 HD
ATOM     26  C   UNL     1      19.965  35.329   7.820  1.00  0.00     0.114 C 
ATOM     27  O   UNL     1      20.805  36.998   9.242  1.00  0.00    -0.275 OA
ENDBRANCH  14  23
ENDBRANCH   8   9
BRANCH   8  28
ATOM     28  O   UNL     1      21.599  33.337  11.642  1.00  0.00    -0.388 OA
ATOM     29  H   UNL     1      21.128  33.329  10.771  1.00  0.00     0.211 HD
ENDBRANCH   8  28
ENDBRANCH   7   8
BRANCH   7  30
ATOM     30  O   UNL     1      23.231  33.884  13.905  1.00  0.00    -0.388 OA
ATOM     31  H   UNL     1      23.418  34.169  14.852  1.00  0.00     0.211 HD
ENDBRANCH   7  30
ENDBRANCH   6   7
ENDBRANCH   3   6
ENDBRANCH   1   2
BRANCH   1  32
ATOM     32  C   UNL     1      21.084  29.746  13.686  1.00  0.00     0.294 C 
BRANCH  32  33
ATOM     33  C   UNL     1      22.486  30.205  13.801  1.00  0.00     0.120 A 
ATOM     34  C   UNL     1      23.362  29.936  14.817  1.00  0.00     0.138 A 
ATOM     35  N   UNL     1      23.143  30.973  12.918  1.00  0.00    -0.132 NA
ATOM     36  N   UNL     1      24.525  30.545  14.524  1.00  0.00    -0.250 N 
ATOM     37  N   UNL     1      24.388  31.174  13.368  1.00  0.00    -0.067 NA
BRANCH  36  38
ATOM     38  C   UNL     1      25.753  30.534  15.324  1.00  0.00     0.167 C 
BRANCH  38  39
ATOM     39  C   UNL     1      25.810  31.835  16.081  1.00  0.00     0.141 C 
BRANCH  39  40
ATOM     40  N   UNL     1      26.520  32.814  15.298  1.00  0.00    -0.336 N 
ATOM     41  C   UNL     1      27.456  33.733  15.828  1.00  0.00     0.315 C 
ATOM     42  H   UNL     1      26.350  32.872  14.254  1.00  0.00     0.165 HD
ATOM     43  O   UNL     1      27.692  33.696  17.073  1.00  0.00    -0.249 OA
ATOM     44  N   UNL     1      28.102  34.662  14.973  1.00  0.00    -0.331 N 
ATOM     45  H   UNL     1      27.928  34.713  13.953  1.00  0.00     0.165 HD
BRANCH  44  46
ATOM     46  C   UNL     1      29.053  35.586  15.551  1.00  0.00     0.193 C 
BRANCH  46  47
ATOM     47  C   UNL     1      30.417  35.119  15.223  1.00  0.00     0.122 A 
ATOM     48  C   UNL     1      31.308  35.828  14.424  1.00  0.00     0.047 A 
ATOM     49  O   UNL     1      30.986  34.020  15.608  1.00  0.00    -0.467 OA
ATOM     50  C   UNL     1      32.447  35.056  14.371  1.00  0.00     0.042 A 
ATOM     51  C   UNL     1      32.190  33.933  15.131  1.00  0.00     0.195 A 
ENDBRANCH  46  47
ENDBRANCH  44  46
ENDBRANCH  39  40
ENDBRANCH  38  39
ENDBRANCH  36  38
ENDBRANCH  32  33
ENDBRANCH   1  32
TORSDOF 19
BEGIN_RES LYS A 131
REMARK  4 active torsions:
REMARK  status: ('A' for Active; 'I' for Inactive)
REMARK    1  A    between atoms: CA   and  CB  
REMARK    2  A    between atoms: CB   and  CG  
REMARK    3  A    between atoms: CG   and  CD  
REMARK    4  A    between atoms: CD   and  CE  
ROOT
ATOM      1  CA  LYS A 131      29.867  25.555  16.977  1.00 20.52     0.186 C 
ENDROOT
BRANCH   1   2
ATOM      2  CB  LYS A 131      28.345  25.722  17.026  1.00 20.94     0.034 C 
BRANCH   2   3
ATOM      3  CG  LYS A 131      27.599  24.428  16.737  1.00 22.96     0.005 C 
BRANCH   3   4
ATOM      4  CD  LYS A 131      26.938  23.869  17.966  1.00 24.33     0.041 C 
BRANCH   4   5
ATOM      5  CE  LYS A 131      25.603  23.238  17.583  1.00 26.91     0.338 C 
ATOM      6  NZ  LYS A 131      24.699  24.254  16.994  1.00 27.40     0.618 N 
ENDBRANCH   4   5
ENDBRANCH   3   4
ENDBRANCH   2   3
ENDBRANCH   1   2
END_RES LYS A 131
BEGIN_RES LYS A 135
REMARK  4 active torsions:
REMARK  status: ('A' for Active; 'I' for Inactive)
REMARK    5  A    between atoms: CA   and  CB  
REMARK    6  A    between atoms: CB   and  CG  
REMARK    7  A    between atoms: CG   and  CD  
REMARK    8  A    between atoms: CD   and  CE  
ROOT
ATOM      7  CA  LYS A 135      33.193  34.663   9.290  1.00 25.02     0.186 C 
ENDROOT
BRANCH   7   8
ATOM      8  CB  LYS A 135      32.060  35.360  10.034  1.00 26.63     0.034 C 
BRANCH   8   9
ATOM      9  CG  LYS A 135      30.704  34.760   9.765  1.00 29.45     0.005 C 
BRANCH   9  10
ATOM     10  CD  LYS A 135      30.530  34.471   8.282  1.00 32.00     0.041 C 
BRANCH  10  11
ATOM     11  CE  LYS A 135      29.190  34.988   7.793  1.00 34.25     0.338 C 
ATOM     12  NZ  LYS A 135      28.072  34.429   8.602  1.00 35.99     0.618 N 
ENDBRANCH  10  11
ENDBRANCH   9  10
ENDBRANCH   8   9
ENDBRANCH   7   8
END_RES LYS A 135
