REMARK VINA RESULT:    -4.002      2.624      6.220
REMARK INTER + INTRA:         -17.027
REMARK INTER:                  -8.945
REMARK INTRA:                  -8.082
REMARK UNBOUND:                -9.983
REMARK SMILES CC(=O)N[C@@H]1[C@@H](O)C[C@](O)(C(=O)O)O[C@H]1C(O)[C@H](O)CNC(=O)OCc1cn(-c2nc(C)nc(N)n2)nn1
REMARK SMILES IDX 21 1 22 2 23 3 20 5 18 6 16 7 15 8 9 9 8 10 14 11 6 12 5 13
REMARK SMILES IDX 10 14 11 16 12 17 13 18 7 20 4 22 2 23 1 25 3 26 17 27 19 29
REMARK SMILES IDX 24 31 25 32 26 33 27 34 38 35 28 36 37 37 29 38 36 39 30 40
REMARK SMILES IDX 34 41 31 42 33 43 32 44 35 45
REMARK H PARENT 21 4 10 15 13 19 7 21 4 24 17 28 19 30 35 46 35 47
REMARK Flexibility Score: inf
ROOT
ATOM      1  N   UNL     1      32.669  33.769  14.700  1.00  0.00    -0.319 N 
ATOM      2  C   UNL     1      31.971  33.527  15.910  1.00  0.00     0.407 C 
ATOM      3  O   UNL     1      31.901  34.362  16.831  1.00  0.00    -0.225 OA
ATOM      4  H   UNL     1      32.656  32.965  14.005  1.00  0.00     0.167 HD
ENDROOT
BRANCH   1   5
ATOM      5  C   UNL     1      33.369  34.996  14.372  1.00  0.00     0.154 C 
BRANCH   5   6
ATOM      6  C   UNL     1      32.709  35.747  13.296  1.00  0.00     0.165 C 
BRANCH   6   7
ATOM      7  C   UNL     1      31.607  36.714  13.732  1.00  0.00     0.176 C 
BRANCH   7   8
ATOM      8  C   UNL     1      30.223  36.140  13.653  1.00  0.00     0.178 C 
ATOM      9  C   UNL     1      29.130  34.075  13.703  1.00  0.00     0.269 C 
ATOM     10  C   UNL     1      28.447  34.404  12.396  1.00  0.00     0.112 C 
ATOM     11  O   UNL     1      30.247  34.815  13.949  1.00  0.00    -0.332 OA
ATOM     12  C   UNL     1      28.153  35.873  12.351  1.00  0.00     0.145 C 
ATOM     13  C   UNL     1      29.495  36.610  12.462  1.00  0.00     0.142 C 
BRANCH   9  14
ATOM     14  O   UNL     1      29.582  32.738  13.537  1.00  0.00    -0.357 OA
ATOM     15  H   UNL     1      30.296  32.729  12.851  1.00  0.00     0.214 HD
ENDBRANCH   9  14
BRANCH   9  16
ATOM     16  C   UNL     1      28.136  34.080  14.774  1.00  0.00     0.364 C 
ATOM     17  O   UNL     1      27.071  33.387  14.624  1.00  0.00    -0.246 OA
BRANCH  16  18
ATOM     18  O   UNL     1      28.212  34.765  15.972  1.00  0.00    -0.477 OA
ATOM     19  H   UNL     1      28.005  34.266  16.852  1.00  0.00     0.296 HD
ENDBRANCH  16  18
ENDBRANCH   9  16
BRANCH  12  20
ATOM     20  O   UNL     1      27.539  36.220  11.145  1.00  0.00    -0.391 OA
ATOM     21  H   UNL     1      26.941  36.996  11.343  1.00  0.00     0.211 HD
ENDBRANCH  12  20
BRANCH  13  22
ATOM     22  N   UNL     1      29.105  38.014  12.693  1.00  0.00    -0.348 N 
ATOM     23  C   UNL     1      29.543  38.999  11.777  1.00  0.00     0.217 C 
ATOM     24  H   UNL     1      28.519  38.286  13.508  1.00  0.00     0.163 HD
ATOM     25  C   UNL     1      29.187  40.446  11.942  1.00  0.00     0.114 C 
ATOM     26  O   UNL     1      30.251  38.626  10.801  1.00  0.00    -0.275 OA
ENDBRANCH  13  22
ENDBRANCH   7   8
BRANCH   7  27
ATOM     27  O   UNL     1      31.945  36.929  15.113  1.00  0.00    -0.388 OA
ATOM     28  H   UNL     1      32.389  36.061  15.361  1.00  0.00     0.211 HD
ENDBRANCH   7  27
ENDBRANCH   6   7
BRANCH   6  29
ATOM     29  O   UNL     1      32.279  34.966  12.254  1.00  0.00    -0.388 OA
ATOM     30  H   UNL     1      32.267  35.432  11.381  1.00  0.00     0.211 HD
ENDBRANCH   6  29
ENDBRANCH   5   6
ENDBRANCH   1   5
BRANCH   2  31
ATOM     31  O   UNL     1      31.319  32.313  16.124  1.00  0.00    -0.443 OA
BRANCH  31  32
ATOM     32  C   UNL     1      30.343  32.135  17.103  1.00  0.00     0.294 C 
BRANCH  32  33
ATOM     33  C   UNL     1      29.341  31.100  16.737  1.00  0.00     0.121 A 
ATOM     34  C   UNL     1      28.536  30.406  17.615  1.00  0.00     0.148 A 
ATOM     35  N   UNL     1      29.005  30.622  15.514  1.00  0.00    -0.131 NA
ATOM     36  N   UNL     1      27.750  29.546  16.934  1.00  0.00    -0.185 N 
ATOM     37  N   UNL     1      28.063  29.707  15.673  1.00  0.00    -0.059 NA
BRANCH  36  38
ATOM     38  C   UNL     1      26.783  28.651  17.466  1.00  0.00     0.257 A 
ATOM     39  N   UNL     1      26.810  28.201  18.731  1.00  0.00    -0.175 NA
ATOM     40  N   UNL     1      25.784  28.221  16.676  1.00  0.00    -0.196 NA
ATOM     41  C   UNL     1      25.896  27.353  19.236  1.00  0.00     0.225 A 
ATOM     42  C   UNL     1      24.842  27.360  17.161  1.00  0.00     0.133 A 
ATOM     43  N   UNL     1      24.915  26.941  18.436  1.00  0.00    -0.198 NA
ATOM     44  C   UNL     1      23.750  26.898  16.282  1.00  0.00     0.090 C 
BRANCH  41  45
ATOM     45  N   UNL     1      25.923  26.879  20.566  1.00  0.00    -0.368 N 
ATOM     46  H   UNL     1      25.041  26.804  21.104  1.00  0.00     0.159 HD
ATOM     47  H   UNL     1      26.809  26.602  21.026  1.00  0.00     0.159 HD
ENDBRANCH  41  45
ENDBRANCH  36  38
ENDBRANCH  32  33
ENDBRANCH  31  32
ENDBRANCH   2  31
TORSDOF 16
BEGIN_RES LYS A 135
REMARK  4 active torsions:
REMARK  status: ('A' for Active; 'I' for Inactive)
REMARK    1  A    between atoms: CA   and  CB  
REMARK    2  A    between atoms: CB   and  CG  
REMARK    3  A    between atoms: CG   and  CD  
REMARK    4  A    between atoms: CD   and  CE  
ROOT
ATOM      1  CA  LYS A 135      33.193  34.663   9.290  1.00 25.02     0.186 C 
ENDROOT
BRANCH   1   2
ATOM      2  CB  LYS A 135      32.060  35.360  10.034  1.00 26.63     0.034 C 
BRANCH   2   3
ATOM      3  CG  LYS A 135      30.799  35.496   9.220  1.00 29.45     0.005 C 
BRANCH   3   4
ATOM      4  CD  LYS A 135      30.216  34.128   8.901  1.00 32.00     0.041 C 
BRANCH   4   5
ATOM      5  CE  LYS A 135      28.722  34.229   8.659  1.00 34.25     0.338 C 
ATOM      6  NZ  LYS A 135      28.422  35.159   7.536  1.00 35.99     0.618 N 
ENDBRANCH   4   5
ENDBRANCH   3   4
ENDBRANCH   2   3
ENDBRANCH   1   2
END_RES LYS A 135
BEGIN_RES ARG A 124
REMARK  4 active torsions:
REMARK  status: ('A' for Active; 'I' for Inactive)
REMARK    5  A    between atoms: CA   and  CB  
REMARK    6  A    between atoms: CB   and  CG  
REMARK    7  A    between atoms: CG   and  CD  
REMARK    8  A    between atoms: CD   and  NE  
REMARK       I    between atoms: NE   and  CZ  
ROOT
ATOM      7  CA  ARG A 124      31.045  26.515   9.594  1.00 17.84     0.186 C 
ENDROOT
BRANCH   7   8
ATOM      8  CB  ARG A 124      29.529  26.705   9.647  1.00 16.18     0.036 C 
BRANCH   8   9
ATOM      9  CG  ARG A 124      28.892  26.681  11.082  1.00 16.22     0.029 C 
BRANCH   9  10
ATOM     10  CD  ARG A 124      27.456  26.107  11.092  1.00 15.09     0.145 C 
BRANCH  10  11
ATOM     11  NE  ARG A 124      26.423  27.088  11.489  1.00 16.98    -0.083 NA
ATOM     12  CZ  ARG A 124      26.166  27.456  12.740  1.00 18.21     0.782 C 
ATOM     13  NH1 ARG A 124      26.854  26.961  13.761  1.00 21.11     0.063 N 
ATOM     14  NH2 ARG A 124      25.223  28.353  12.984  1.00 21.25     0.063 N 
ENDBRANCH  10  11
ENDBRANCH   9  10
ENDBRANCH   8   9
ENDBRANCH   7   8
END_RES ARG A 124
BEGIN_RES ASN A 133
REMARK  2 active torsions:
REMARK  status: ('A' for Active; 'I' for Inactive)
REMARK    9  A    between atoms: CA   and  CB  
REMARK   10  A    between atoms: CB   and  CG  
ROOT
ATOM     15  CA  ASN A 133      31.225  30.257  11.749  1.00 18.15     0.196 C 
ENDROOT
BRANCH  15  16
ATOM     16  CB  ASN A 133      30.092  31.240  11.460  1.00 18.27     0.126 C 
BRANCH  16  17
ATOM     17  CG  ASN A 133      28.741  30.595  11.438  1.00 18.94     0.276 C 
ATOM     18  OD1 ASN A 133      27.904  30.837  12.310  1.00 18.09    -0.269 OA
ATOM     19  ND2 ASN A 133      28.512  29.756  10.429  1.00 18.93    -0.107 N 
ENDBRANCH  16  17
ENDBRANCH  15  16
END_RES ASN A 133
BEGIN_RES LYS A 131
REMARK  4 active torsions:
REMARK  status: ('A' for Active; 'I' for Inactive)
REMARK   11  A    between atoms: CA   and  CB  
REMARK   12  A    between atoms: CB   and  CG  
REMARK   13  A    between atoms: CG   and  CD  
REMARK   14  A    between atoms: CD   and  CE  
ROOT
ATOM     20  CA  LYS A 131      29.867  25.555  16.977  1.00 20.52     0.186 C 
ENDROOT
BRANCH  20  21
ATOM     21  CB  LYS A 131      28.345  25.722  17.026  1.00 20.94     0.034 C 
BRANCH  21  22
ATOM     22  CG  LYS A 131      27.599  24.429  16.735  1.00 22.96     0.005 C 
BRANCH  22  23
ATOM     23  CD  LYS A 131      26.829  23.939  17.930  1.00 24.33     0.041 C 
BRANCH  23  24
ATOM     24  CE  LYS A 131      25.404  23.592  17.509  1.00 26.91     0.338 C 
ATOM     25  NZ  LYS A 131      25.203  22.124  17.518  1.00 27.40     0.618 N 
ENDBRANCH  23  24
ENDBRANCH  22  23
ENDBRANCH  21  22
ENDBRANCH  20  21
END_RES LYS A 131
