REMARK VINA RESULT:    -4.263      3.435      6.273
REMARK INTER + INTRA:         -14.168
REMARK INTER:                  -9.300
REMARK INTRA:                  -4.868
REMARK UNBOUND:                -6.292
REMARK SMILES CC(=O)N[C@@H]1[C@@H](O)C[C@](O)(C(=O)O)O[C@H]1C(O)[C@H](O)CNC(=O)OCc1cn(CCC2OCCO2)nn1
REMARK SMILES IDX 21 1 22 2 23 3 20 5 18 6 16 7 15 8 9 9 8 10 14 11 6 12 5 13
REMARK SMILES IDX 10 14 11 16 12 17 13 18 7 20 4 22 2 23 1 25 3 26 17 27 19 29
REMARK SMILES IDX 24 31 25 32 26 33 27 34 37 35 28 36 36 37 29 38 30 39 31 40
REMARK SMILES IDX 32 41 35 42 33 43 34 44
REMARK H PARENT 21 4 10 15 13 19 7 21 4 24 17 28 19 30
REMARK Flexibility Score: inf
ROOT
ATOM      1  N   UNL     1      27.818  30.808  15.811  1.00  0.00    -0.319 N 
ATOM      2  C   UNL     1      27.238  29.959  16.785  1.00  0.00     0.407 C 
ATOM      3  O   UNL     1      27.691  29.982  17.979  1.00  0.00    -0.225 OA
ATOM      4  H   UNL     1      27.458  30.797  14.843  1.00  0.00     0.167 HD
ENDROOT
BRANCH   1   5
ATOM      5  C   UNL     1      28.892  31.670  16.177  1.00  0.00     0.154 C 
BRANCH   5   6
ATOM      6  C   UNL     1      29.021  32.884  15.298  1.00  0.00     0.165 C 
BRANCH   6   7
ATOM      7  C   UNL     1      30.321  32.934  14.553  1.00  0.00     0.176 C 
BRANCH   7   8
ATOM      8  C   UNL     1      30.917  34.323  14.621  1.00  0.00     0.178 C 
ATOM      9  C   UNL     1      31.901  35.910  13.234  1.00  0.00     0.269 C 
ATOM     10  C   UNL     1      32.891  36.195  14.326  1.00  0.00     0.112 C 
ATOM     11  O   UNL     1      31.248  34.711  13.349  1.00  0.00    -0.332 OA
ATOM     12  C   UNL     1      33.331  34.865  14.902  1.00  0.00     0.145 C 
ATOM     13  C   UNL     1      32.107  34.249  15.566  1.00  0.00     0.142 C 
BRANCH   9  14
ATOM     14  O   UNL     1      32.628  35.859  12.021  1.00  0.00    -0.357 OA
ATOM     15  H   UNL     1      33.029  34.980  11.875  1.00  0.00     0.214 HD
ENDBRANCH   9  14
BRANCH   9  16
ATOM     16  C   UNL     1      30.964  37.067  13.075  1.00  0.00     0.364 C 
ATOM     17  O   UNL     1      30.246  37.252  12.068  1.00  0.00    -0.246 OA
BRANCH  16  18
ATOM     18  O   UNL     1      30.904  37.978  14.120  1.00  0.00    -0.477 OA
ATOM     19  H   UNL     1      30.419  37.807  14.995  1.00  0.00     0.296 HD
ENDBRANCH  16  18
ENDBRANCH   9  16
BRANCH  12  20
ATOM     20  O   UNL     1      33.723  34.035  13.842  1.00  0.00    -0.391 OA
ATOM     21  H   UNL     1      33.797  34.528  12.991  1.00  0.00     0.211 HD
ENDBRANCH  12  20
BRANCH  13  22
ATOM     22  N   UNL     1      31.851  34.973  16.802  1.00  0.00    -0.348 N 
ATOM     23  C   UNL     1      31.471  34.249  17.960  1.00  0.00     0.217 C 
ATOM     24  H   UNL     1      31.944  36.028  16.844  1.00  0.00     0.163 HD
ATOM     25  C   UNL     1      31.187  34.895  19.267  1.00  0.00     0.114 C 
ATOM     26  O   UNL     1      31.374  32.991  17.865  1.00  0.00    -0.275 OA
ENDBRANCH  13  22
ENDBRANCH   7   8
BRANCH   7  27
ATOM     27  O   UNL     1      31.201  31.952  15.006  1.00  0.00    -0.388 OA
ATOM     28  H   UNL     1      30.861  31.435  15.767  1.00  0.00     0.211 HD
ENDBRANCH   7  27
ENDBRANCH   6   7
BRANCH   6  29
ATOM     29  O   UNL     1      28.886  34.023  16.077  1.00  0.00    -0.388 OA
ATOM     30  H   UNL     1      28.938  33.855  17.037  1.00  0.00     0.211 HD
ENDBRANCH   6  29
ENDBRANCH   5   6
ENDBRANCH   1   5
BRANCH   2  31
ATOM     31  O   UNL     1      26.207  29.095  16.545  1.00  0.00    -0.443 OA
BRANCH  31  32
ATOM     32  C   UNL     1      24.830  29.418  16.549  1.00  0.00     0.294 C 
BRANCH  32  33
ATOM     33  C   UNL     1      24.357  29.894  15.227  1.00  0.00     0.120 A 
ATOM     34  C   UNL     1      23.105  29.710  14.689  1.00  0.00     0.138 A 
ATOM     35  N   UNL     1      25.055  30.585  14.312  1.00  0.00    -0.132 NA
ATOM     36  N   UNL     1      23.078  30.291  13.470  1.00  0.00    -0.252 N 
ATOM     37  N   UNL     1      24.274  30.813  13.268  1.00  0.00    -0.067 NA
BRANCH  36  38
ATOM     38  C   UNL     1      21.974  30.365  12.522  1.00  0.00     0.151 C 
BRANCH  38  39
ATOM     39  C   UNL     1      21.497  28.976  12.153  1.00  0.00     0.086 C 
BRANCH  39  40
ATOM     40  C   UNL     1      20.008  28.898  12.147  1.00  0.00     0.251 C 
ATOM     41  O   UNL     1      19.499  27.807  11.455  1.00  0.00    -0.350 OA
ATOM     42  O   UNL     1      19.380  30.024  11.634  1.00  0.00    -0.350 OA
ATOM     43  C   UNL     1      18.193  28.141  11.104  1.00  0.00     0.192 C 
ATOM     44  C   UNL     1      18.154  29.641  11.148  1.00  0.00     0.192 C 
ENDBRANCH  39  40
ENDBRANCH  38  39
ENDBRANCH  36  38
ENDBRANCH  32  33
ENDBRANCH  31  32
ENDBRANCH   2  31
TORSDOF 17
BEGIN_RES LYS A 131
REMARK  4 active torsions:
REMARK  status: ('A' for Active; 'I' for Inactive)
REMARK    1  A    between atoms: CA   and  CB  
REMARK    2  A    between atoms: CB   and  CG  
REMARK    3  A    between atoms: CG   and  CD  
REMARK    4  A    between atoms: CD   and  CE  
ROOT
ATOM      1  CA  LYS A 131      29.867  25.555  16.977  1.00 20.52     0.186 C 
ENDROOT
BRANCH   1   2
ATOM      2  CB  LYS A 131      28.345  25.722  17.026  1.00 20.94     0.034 C 
BRANCH   2   3
ATOM      3  CG  LYS A 131      27.599  24.440  16.691  1.00 22.96     0.005 C 
BRANCH   3   4
ATOM      4  CD  LYS A 131      27.009  23.792  17.913  1.00 24.33     0.041 C 
BRANCH   4   5
ATOM      5  CE  LYS A 131      25.624  23.246  17.582  1.00 26.91     0.338 C 
ATOM      6  NZ  LYS A 131      24.793  24.293  16.940  1.00 27.40     0.618 N 
ENDBRANCH   4   5
ENDBRANCH   3   4
ENDBRANCH   2   3
ENDBRANCH   1   2
END_RES LYS A 131
BEGIN_RES LYS A 135
REMARK  4 active torsions:
REMARK  status: ('A' for Active; 'I' for Inactive)
REMARK    5  A    between atoms: CA   and  CB  
REMARK    6  A    between atoms: CB   and  CG  
REMARK    7  A    between atoms: CG   and  CD  
REMARK    8  A    between atoms: CD   and  CE  
ROOT
ATOM      7  CA  LYS A 135      33.193  34.663   9.290  1.00 25.02     0.186 C 
ENDROOT
BRANCH   7   8
ATOM      8  CB  LYS A 135      32.060  35.360  10.034  1.00 26.63     0.034 C 
BRANCH   8   9
ATOM      9  CG  LYS A 135      30.790  35.471   9.231  1.00 29.45     0.005 C 
BRANCH   9  10
ATOM     10  CD  LYS A 135      29.987  34.182   9.316  1.00 32.00     0.041 C 
BRANCH  10  11
ATOM     11  CE  LYS A 135      28.728  34.392  10.135  1.00 34.25     0.338 C 
ATOM     12  NZ  LYS A 135      27.535  33.840   9.436  1.00 35.99     0.618 N 
ENDBRANCH  10  11
ENDBRANCH   9  10
ENDBRANCH   8   9
ENDBRANCH   7   8
END_RES LYS A 135
