REMARK VINA RESULT:    -4.497      2.498      5.831
REMARK INTER + INTRA:         -13.569
REMARK INTER:                  -9.793
REMARK INTRA:                  -3.776
REMARK UNBOUND:                -5.786
REMARK SMILES CC(=O)N[C@@H]1[C@@H](O)C[C@](O)(C(=O)O)O[C@H]1C(O)[C@H](O)CNC(=O)OCc1cn(C2CCN(C)CC2)nn1
REMARK SMILES IDX 20 1 18 2 16 3 15 4 9 5 8 6 14 7 6 8 5 9 10 10 11 12 12 13
REMARK SMILES IDX 13 14 7 16 4 18 2 19 1 21 3 22 17 23 19 25 21 27 22 28 23 30
REMARK SMILES IDX 24 31 25 32 26 33 27 34 37 35 28 36 36 37 29 38 30 39 35 40
REMARK SMILES IDX 31 41 34 42 32 43 33 44
REMARK H PARENT 10 11 13 15 7 17 4 20 17 24 19 26 21 29
REMARK Flexibility Score: inf
ROOT
ATOM      1  C   UNL     1      26.887  30.451  15.778  1.00  0.00     0.154 C 
ENDROOT
BRANCH   1   2
ATOM      2  C   UNL     1      26.946  29.972  17.190  1.00  0.00     0.165 C 
BRANCH   2   3
ATOM      3  C   UNL     1      27.666  30.941  18.104  1.00  0.00     0.176 C 
BRANCH   3   4
ATOM      4  C   UNL     1      28.572  30.176  19.044  1.00  0.00     0.178 C 
ATOM      5  C   UNL     1      28.624  28.927  21.017  1.00  0.00     0.269 C 
ATOM      6  C   UNL     1      29.840  29.668  21.483  1.00  0.00     0.112 C 
ATOM      7  O   UNL     1      27.898  29.528  20.031  1.00  0.00    -0.332 OA
ATOM      8  C   UNL     1      30.622  30.229  20.326  1.00  0.00     0.145 C 
ATOM      9  C   UNL     1      29.656  31.092  19.518  1.00  0.00     0.142 C 
BRANCH   5  10
ATOM     10  O   UNL     1      27.814  28.677  22.161  1.00  0.00    -0.357 OA
ATOM     11  H   UNL     1      27.569  29.520  22.614  1.00  0.00     0.214 HD
ENDBRANCH   5  10
BRANCH   5  12
ATOM     12  C   UNL     1      29.056  27.602  20.504  1.00  0.00     0.364 C 
ATOM     13  O   UNL     1      30.067  27.040  20.996  1.00  0.00    -0.246 OA
BRANCH  12  14
ATOM     14  O   UNL     1      28.414  26.909  19.489  1.00  0.00    -0.477 OA
ATOM     15  H   UNL     1      27.412  26.718  19.502  1.00  0.00     0.296 HD
ENDBRANCH  12  14
ENDBRANCH   5  12
BRANCH   8  16
ATOM     16  O   UNL     1      31.693  31.015  20.760  1.00  0.00    -0.391 OA
ATOM     17  H   UNL     1      31.406  31.748  21.347  1.00  0.00     0.211 HD
ENDBRANCH   8  16
BRANCH   9  18
ATOM     18  N   UNL     1      30.447  31.562  18.374  1.00  0.00    -0.348 N 
ATOM     19  C   UNL     1      30.581  32.930  18.064  1.00  0.00     0.217 C 
ATOM     20  H   UNL     1      30.906  30.838  17.804  1.00  0.00     0.163 HD
ATOM     21  C   UNL     1      31.396  33.394  16.887  1.00  0.00     0.114 C 
ATOM     22  O   UNL     1      29.998  33.769  18.798  1.00  0.00    -0.275 OA
ENDBRANCH   9  18
ENDBRANCH   3   4
BRANCH   3  23
ATOM     23  O   UNL     1      26.731  31.701  18.768  1.00  0.00    -0.388 OA
ATOM     24  H   UNL     1      26.720  32.629  18.420  1.00  0.00     0.211 HD
ENDBRANCH   3  23
ENDBRANCH   2   3
BRANCH   2  25
ATOM     25  O   UNL     1      27.668  28.755  17.209  1.00  0.00    -0.388 OA
ATOM     26  H   UNL     1      27.850  28.468  18.143  1.00  0.00     0.211 HD
ENDBRANCH   2  25
ENDBRANCH   1   2
BRANCH   1  27
ATOM     27  N   UNL     1      27.261  31.849  15.747  1.00  0.00    -0.319 N 
ATOM     28  C   UNL     1      26.502  32.870  15.114  1.00  0.00     0.407 C 
ATOM     29  H   UNL     1      28.153  32.199  16.211  1.00  0.00     0.167 HD
ATOM     30  O   UNL     1      25.442  32.571  14.544  1.00  0.00    -0.225 OA
BRANCH  28  31
ATOM     31  O   UNL     1      26.903  34.199  15.109  1.00  0.00    -0.443 OA
BRANCH  31  32
ATOM     32  C   UNL     1      26.565  35.050  14.032  1.00  0.00     0.294 C 
BRANCH  32  33
ATOM     33  C   UNL     1      27.478  34.830  12.881  1.00  0.00     0.120 A 
ATOM     34  C   UNL     1      27.161  34.475  11.602  1.00  0.00     0.138 A 
ATOM     35  N   UNL     1      28.819  34.946  12.906  1.00  0.00    -0.132 NA
ATOM     36  N   UNL     1      28.290  34.381  10.880  1.00  0.00    -0.249 N 
ATOM     37  N   UNL     1      29.289  34.679  11.715  1.00  0.00    -0.067 NA
BRANCH  36  38
ATOM     38  C   UNL     1      28.381  34.029   9.481  1.00  0.00     0.111 C 
ATOM     39  C   UNL     1      29.753  34.329   8.922  1.00  0.00     0.043 C 
ATOM     40  C   UNL     1      27.283  34.665   8.681  1.00  0.00     0.043 C 
ATOM     41  C   UNL     1      29.900  35.770   8.494  1.00  0.00     0.086 C 
ATOM     42  C   UNL     1      27.527  36.103   8.346  1.00  0.00     0.086 C 
ATOM     43  N   UNL     1      28.799  36.231   7.702  1.00  0.00    -0.306 NA
ATOM     44  C   UNL     1      28.748  35.634   6.399  1.00  0.00     0.105 C 
ENDBRANCH  36  38
ENDBRANCH  32  33
ENDBRANCH  31  32
ENDBRANCH  28  31
ENDBRANCH   1  27
TORSDOF 15
BEGIN_RES LYS A 131
REMARK  4 active torsions:
REMARK  status: ('A' for Active; 'I' for Inactive)
REMARK    1  A    between atoms: CA   and  CB  
REMARK    2  A    between atoms: CB   and  CG  
REMARK    3  A    between atoms: CG   and  CD  
REMARK    4  A    between atoms: CD   and  CE  
ROOT
ATOM      1  CA  LYS A 131      29.867  25.555  16.977  1.00 20.52     0.186 C 
ENDROOT
BRANCH   1   2
ATOM      2  CB  LYS A 131      28.345  25.722  17.026  1.00 20.94     0.034 C 
BRANCH   2   3
ATOM      3  CG  LYS A 131      27.599  24.420  16.777  1.00 22.96     0.005 C 
BRANCH   3   4
ATOM      4  CD  LYS A 131      26.832  23.966  17.988  1.00 24.33     0.041 C 
BRANCH   4   5
ATOM      5  CE  LYS A 131      25.682  24.932  18.254  1.00 26.91     0.338 C 
ATOM      6  NZ  LYS A 131      24.664  24.834  17.181  1.00 27.40     0.618 N 
ENDBRANCH   4   5
ENDBRANCH   3   4
ENDBRANCH   2   3
ENDBRANCH   1   2
END_RES LYS A 131
BEGIN_RES LYS A 135
REMARK  4 active torsions:
REMARK  status: ('A' for Active; 'I' for Inactive)
REMARK    5  A    between atoms: CA   and  CB  
REMARK    6  A    between atoms: CB   and  CG  
REMARK    7  A    between atoms: CG   and  CD  
REMARK    8  A    between atoms: CD   and  CE  
ROOT
ATOM      7  CA  LYS A 135      33.193  34.663   9.290  1.00 25.02     0.186 C 
ENDROOT
BRANCH   7   8
ATOM      8  CB  LYS A 135      32.060  35.360  10.034  1.00 26.63     0.034 C 
BRANCH   8   9
ATOM      9  CG  LYS A 135      32.506  36.062  11.290  1.00 29.45     0.005 C 
BRANCH   9  10
ATOM     10  CD  LYS A 135      31.903  37.456  11.370  1.00 32.00     0.041 C 
BRANCH  10  11
ATOM     11  CE  LYS A 135      31.334  37.712  12.752  1.00 34.25     0.338 C 
ATOM     12  NZ  LYS A 135      31.941  36.798  13.760  1.00 35.99     0.618 N 
ENDBRANCH  10  11
ENDBRANCH   9  10
ENDBRANCH   8   9
ENDBRANCH   7   8
END_RES LYS A 135
