REMARK VINA RESULT:    -3.952      3.327      6.921
REMARK INTER + INTRA:         -15.432
REMARK INTER:                  -8.331
REMARK INTRA:                  -7.102
REMARK UNBOUND:                -7.438
REMARK SMILES CC(=O)N[C@@H]1[C@@H](O)C[C@](O)(C(=O)O)O[C@H]1C(O)[C@H](O)CNC(=O)OCc1cn([C@@H](CCC(=O)O)C(=O)O)nn1
REMARK SMILES IDX 24 1 22 2 21 3 23 5 20 6 18 7 16 8 15 9 9 10 8 11 14 12 6 13
REMARK SMILES IDX 5 14 10 15 11 17 12 18 13 19 7 21 4 23 2 24 1 26 3 27 17 28
REMARK SMILES IDX 19 30 25 32 26 33 27 34 39 35 28 36 38 37 29 38 30 39 31 40
REMARK SMILES IDX 32 41 33 42 34 43 35 45 36 46 37 47
REMARK H PARENT 21 4 10 16 13 20 7 22 4 25 17 29 19 31 34 44 37 48
REMARK Flexibility Score: inf
ROOT
ATOM      1  O   UNL     1      25.896  35.680  12.823  1.00  0.00    -0.443 OA
ENDROOT
BRANCH   1   2
ATOM      2  C   UNL     1      25.336  35.565  11.545  1.00  0.00     0.407 C 
ATOM      3  N   UNL     1      25.907  36.162  10.412  1.00  0.00    -0.319 N 
ATOM      4  H   UNL     1      26.803  36.726  10.593  1.00  0.00     0.167 HD
ATOM      5  O   UNL     1      24.291  34.900  11.454  1.00  0.00    -0.225 OA
BRANCH   3   6
ATOM      6  C   UNL     1      25.425  36.098   9.062  1.00  0.00     0.154 C 
BRANCH   6   7
ATOM      7  C   UNL     1      26.149  37.035   8.176  1.00  0.00     0.165 C 
BRANCH   7   8
ATOM      8  C   UNL     1      26.697  38.248   8.903  1.00  0.00     0.176 C 
BRANCH   8   9
ATOM      9  C   UNL     1      28.229  38.227   8.890  1.00  0.00     0.178 C 
ATOM     10  C   UNL     1      28.948  38.163  11.117  1.00  0.00     0.269 C 
ATOM     11  C   UNL     1      28.642  39.634  11.117  1.00  0.00     0.112 C 
ATOM     12  O   UNL     1      28.769  37.535   9.923  1.00  0.00    -0.332 OA
ATOM     13  C   UNL     1      29.037  40.372   9.889  1.00  0.00     0.145 C 
ATOM     14  C   UNL     1      28.791  39.593   8.630  1.00  0.00     0.142 C 
BRANCH  10  15
ATOM     15  O   UNL     1      28.071  37.587  12.037  1.00  0.00    -0.357 OA
ATOM     16  H   UNL     1      27.139  37.642  11.741  1.00  0.00     0.214 HD
ENDBRANCH  10  15
BRANCH  10  17
ATOM     17  C   UNL     1      30.328  37.937  11.615  1.00  0.00     0.364 C 
ATOM     18  O   UNL     1      31.307  38.114  10.853  1.00  0.00    -0.246 OA
BRANCH  17  19
ATOM     19  O   UNL     1      30.584  37.528  12.921  1.00  0.00    -0.477 OA
ATOM     20  H   UNL     1      31.132  36.673  13.022  1.00  0.00     0.296 HD
ENDBRANCH  17  19
ENDBRANCH  10  17
BRANCH  13  21
ATOM     21  O   UNL     1      28.298  41.552   9.841  1.00  0.00    -0.391 OA
ATOM     22  H   UNL     1      28.583  42.125   9.081  1.00  0.00     0.211 HD
ENDBRANCH  13  21
BRANCH  14  23
ATOM     23  N   UNL     1      29.969  39.446   7.825  1.00  0.00    -0.348 N 
ATOM     24  C   UNL     1      29.989  39.972   6.509  1.00  0.00     0.217 C 
ATOM     25  H   UNL     1      30.821  38.946   8.212  1.00  0.00     0.163 HD
ATOM     26  C   UNL     1      31.201  39.822   5.677  1.00  0.00     0.114 C 
ATOM     27  O   UNL     1      29.001  40.573   6.007  1.00  0.00    -0.275 OA
ENDBRANCH  14  23
ENDBRANCH   8   9
BRANCH   8  28
ATOM     28  O   UNL     1      26.251  39.394   8.273  1.00  0.00    -0.388 OA
ATOM     29  H   UNL     1      26.886  39.622   7.548  1.00  0.00     0.211 HD
ENDBRANCH   8  28
ENDBRANCH   7   8
BRANCH   7  30
ATOM     30  O   UNL     1      25.461  37.346   7.049  1.00  0.00    -0.388 OA
ATOM     31  H   UNL     1      24.510  37.562   7.175  1.00  0.00     0.211 HD
ENDBRANCH   7  30
ENDBRANCH   6   7
ENDBRANCH   3   6
ENDBRANCH   1   2
BRANCH   1  32
ATOM     32  C   UNL     1      26.353  34.511  13.498  1.00  0.00     0.294 C 
BRANCH  32  33
ATOM     33  C   UNL     1      27.801  34.496  13.654  1.00  0.00     0.120 A 
ATOM     34  C   UNL     1      28.539  34.115  14.742  1.00  0.00     0.139 A 
ATOM     35  N   UNL     1      28.702  34.863  12.730  1.00  0.00    -0.132 NA
ATOM     36  N   UNL     1      29.846  34.249  14.477  1.00  0.00    -0.238 N 
ATOM     37  N   UNL     1      29.911  34.707  13.241  1.00  0.00    -0.066 NA
BRANCH  36  38
ATOM     38  C   UNL     1      31.020  33.985  15.289  1.00  0.00     0.219 C 
BRANCH  38  39
ATOM     39  C   UNL     1      31.232  32.522  15.435  1.00  0.00     0.051 C 
BRANCH  39  40
ATOM     40  C   UNL     1      30.764  31.913  16.703  1.00  0.00     0.125 C 
BRANCH  40  41
ATOM     41  C   UNL     1      29.617  31.021  16.543  1.00  0.00     0.303 C 
ATOM     42  O   UNL     1      28.933  30.627  17.551  1.00  0.00    -0.252 OA
BRANCH  41  43
ATOM     43  O   UNL     1      29.250  30.580  15.270  1.00  0.00    -0.481 OA
ATOM     44  H   UNL     1      28.327  30.828  14.942  1.00  0.00     0.296 HD
ENDBRANCH  41  43
ENDBRANCH  40  41
ENDBRANCH  39  40
ENDBRANCH  38  39
BRANCH  38  45
ATOM     45  C   UNL     1      32.170  34.799  14.938  1.00  0.00     0.328 C 
ATOM     46  O   UNL     1      33.272  34.383  14.582  1.00  0.00    -0.250 OA
BRANCH  45  47
ATOM     47  O   UNL     1      32.008  36.195  15.020  1.00  0.00    -0.480 OA
ATOM     48  H   UNL     1      31.161  36.558  15.420  1.00  0.00     0.296 HD
ENDBRANCH  45  47
ENDBRANCH  38  45
ENDBRANCH  36  38
ENDBRANCH  32  33
ENDBRANCH   1  32
TORSDOF 21
BEGIN_RES LYS A 131
REMARK  4 active torsions:
REMARK  status: ('A' for Active; 'I' for Inactive)
REMARK    1  A    between atoms: CA   and  CB  
REMARK    2  A    between atoms: CB   and  CG  
REMARK    3  A    between atoms: CG   and  CD  
REMARK    4  A    between atoms: CD   and  CE  
ROOT
ATOM      1  CA  LYS A 131      29.867  25.555  16.977  1.00 20.52     0.186 C 
ENDROOT
BRANCH   1   2
ATOM      2  CB  LYS A 131      28.345  25.722  17.026  1.00 20.94     0.034 C 
BRANCH   2   3
ATOM      3  CG  LYS A 131      27.601  24.402  16.895  1.00 22.96     0.005 C 
BRANCH   3   4
ATOM      4  CD  LYS A 131      26.547  24.238  17.954  1.00 24.33     0.041 C 
BRANCH   4   5
ATOM      5  CE  LYS A 131      25.221  23.866  17.299  1.00 26.91     0.338 C 
ATOM      6  NZ  LYS A 131      24.902  22.440  17.546  1.00 27.40     0.618 N 
ENDBRANCH   4   5
ENDBRANCH   3   4
ENDBRANCH   2   3
ENDBRANCH   1   2
END_RES LYS A 131
BEGIN_RES LYS A 135
REMARK  4 active torsions:
REMARK  status: ('A' for Active; 'I' for Inactive)
REMARK    5  A    between atoms: CA   and  CB  
REMARK    6  A    between atoms: CB   and  CG  
REMARK    7  A    between atoms: CG   and  CD  
REMARK    8  A    between atoms: CD   and  CE  
ROOT
ATOM      7  CA  LYS A 135      33.193  34.663   9.290  1.00 25.02     0.186 C 
ENDROOT
BRANCH   7   8
ATOM      8  CB  LYS A 135      32.060  35.360  10.034  1.00 26.63     0.034 C 
BRANCH   8   9
ATOM      9  CG  LYS A 135      30.719  34.699   9.846  1.00 29.45     0.005 C 
BRANCH   9  10
ATOM     10  CD  LYS A 135      30.327  34.688   8.376  1.00 32.00     0.041 C 
BRANCH  10  11
ATOM     11  CE  LYS A 135      28.830  34.498   8.226  1.00 34.25     0.338 C 
ATOM     12  NZ  LYS A 135      28.258  33.788   9.403  1.00 35.99     0.618 N 
ENDBRANCH  10  11
ENDBRANCH   9  10
ENDBRANCH   8   9
ENDBRANCH   7   8
END_RES LYS A 135
