REMARK VINA RESULT:    -4.474      3.121      6.568
REMARK INTER + INTRA:         -15.316
REMARK INTER:                  -8.820
REMARK INTRA:                  -6.496
REMARK UNBOUND:                -6.788
REMARK SMILES CC(=O)N[C@@H]1[C@@H](O)C[C@](O)(C(=O)O)O[C@H]1C(O)[C@H](O)CNC(=O)OCc1cn(CC(=O)NCc2cccs2)nn1
REMARK SMILES IDX 21 1 22 2 23 3 20 5 18 6 16 7 15 8 9 9 8 10 14 11 6 12 5 13
REMARK SMILES IDX 10 14 11 16 12 17 13 18 7 20 4 22 2 23 1 25 3 26 17 27 19 29
REMARK SMILES IDX 24 31 25 32 26 33 27 34 40 35 28 36 39 37 29 38 30 39 31 40
REMARK SMILES IDX 32 41 33 43 34 44 35 45 38 46 36 47 37 48
REMARK H PARENT 21 4 10 15 13 19 7 21 4 24 17 28 19 30 32 42
REMARK Flexibility Score: inf
ROOT
ATOM      1  N   UNL     1      26.599  39.665   5.004  1.00  0.00    -0.319 N 
ATOM      2  C   UNL     1      26.172  40.863   5.613  1.00  0.00     0.407 C 
ATOM      3  O   UNL     1      27.036  41.608   6.137  1.00  0.00    -0.225 OA
ATOM      4  H   UNL     1      25.864  39.060   4.575  1.00  0.00     0.167 HD
ENDROOT
BRANCH   1   5
ATOM      5  C   UNL     1      27.974  39.213   4.928  1.00  0.00     0.154 C 
BRANCH   5   6
ATOM      6  C   UNL     1      28.158  37.922   5.674  1.00  0.00     0.165 C 
BRANCH   6   7
ATOM      7  C   UNL     1      27.984  38.024   7.152  1.00  0.00     0.176 C 
BRANCH   7   8
ATOM      8  C   UNL     1      28.855  38.965   7.894  1.00  0.00     0.178 C 
ATOM      9  C   UNL     1      31.149  39.380   8.098  1.00  0.00     0.269 C 
ATOM     10  C   UNL     1      30.604  40.617   8.788  1.00  0.00     0.112 C 
ATOM     11  O   UNL     1      30.192  38.598   7.523  1.00  0.00    -0.332 OA
ATOM     12  C   UNL     1      29.648  40.174   9.839  1.00  0.00     0.145 C 
ATOM     13  C   UNL     1      28.853  38.939   9.369  1.00  0.00     0.142 C 
BRANCH   9  14
ATOM     14  O   UNL     1      31.881  38.696   9.088  1.00  0.00    -0.357 OA
ATOM     15  H   UNL     1      32.566  38.130   8.637  1.00  0.00     0.214 HD
ENDBRANCH   9  14
BRANCH   9  16
ATOM     16  C   UNL     1      32.109  39.764   7.030  1.00  0.00     0.364 C 
ATOM     17  O   UNL     1      33.149  40.380   7.344  1.00  0.00    -0.246 OA
BRANCH  16  18
ATOM     18  O   UNL     1      31.884  39.458   5.691  1.00  0.00    -0.477 OA
ATOM     19  H   UNL     1      31.978  38.474   5.435  1.00  0.00     0.296 HD
ENDBRANCH  16  18
ENDBRANCH   9  16
BRANCH  12  20
ATOM     20  O   UNL     1      30.231  39.943  11.066  1.00  0.00    -0.391 OA
ATOM     21  H   UNL     1      29.812  40.494  11.774  1.00  0.00     0.211 HD
ENDBRANCH  12  20
BRANCH  13  22
ATOM     22  N   UNL     1      27.619  38.999  10.057  1.00  0.00    -0.348 N 
ATOM     23  C   UNL     1      27.456  38.328  11.287  1.00  0.00     0.217 C 
ATOM     24  H   UNL     1      26.815  39.526   9.688  1.00  0.00     0.163 HD
ATOM     25  C   UNL     1      26.171  38.360  12.051  1.00  0.00     0.114 C 
ATOM     26  O   UNL     1      28.395  37.649  11.825  1.00  0.00    -0.275 OA
ENDBRANCH  13  22
ENDBRANCH   7   8
BRANCH   7  27
ATOM     27  O   UNL     1      26.678  37.910   7.604  1.00  0.00    -0.388 OA
ATOM     28  H   UNL     1      26.438  38.529   8.304  1.00  0.00     0.211 HD
ENDBRANCH   7  27
ENDBRANCH   6   7
BRANCH   6  29
ATOM     29  O   UNL     1      29.285  37.201   5.300  1.00  0.00    -0.388 OA
ATOM     30  H   UNL     1      29.357  36.330   5.754  1.00  0.00     0.211 HD
ENDBRANCH   6  29
ENDBRANCH   5   6
ENDBRANCH   1   5
BRANCH   2  31
ATOM     31  O   UNL     1      24.826  41.250   5.652  1.00  0.00    -0.443 OA
BRANCH  31  32
ATOM     32  C   UNL     1      24.184  41.505   6.888  1.00  0.00     0.294 C 
BRANCH  32  33
ATOM     33  C   UNL     1      24.119  40.225   7.646  1.00  0.00     0.120 A 
ATOM     34  C   UNL     1      23.416  39.081   7.331  1.00  0.00     0.138 A 
ATOM     35  N   UNL     1      24.740  39.932   8.800  1.00  0.00    -0.132 NA
ATOM     36  N   UNL     1      23.629  38.158   8.280  1.00  0.00    -0.243 N 
ATOM     37  N   UNL     1      24.438  38.701   9.163  1.00  0.00    -0.067 NA
BRANCH  36  38
ATOM     38  C   UNL     1      23.046  36.806   8.280  1.00  0.00     0.245 C 
BRANCH  38  39
ATOM     39  C   UNL     1      23.833  36.006   9.247  1.00  0.00     0.242 C 
ATOM     40  O   UNL     1      23.217  35.448  10.215  1.00  0.00    -0.273 OA
ATOM     41  N   UNL     1      25.232  35.804   9.191  1.00  0.00    -0.350 N 
ATOM     42  H   UNL     1      25.732  36.258   8.405  1.00  0.00     0.163 HD
BRANCH  41  43
ATOM     43  C   UNL     1      25.959  35.013  10.157  1.00  0.00     0.162 C 
BRANCH  43  44
ATOM     44  C   UNL     1      27.347  34.803   9.583  1.00  0.00     0.024 A 
ATOM     45  C   UNL     1      27.748  34.786   8.317  1.00  0.00     0.017 A 
ATOM     46  S   UNL     1      28.793  34.523  10.496  1.00  0.00    -0.147 S 
ATOM     47  C   UNL     1      29.046  34.579   8.009  1.00  0.00     0.012 A 
ATOM     48  C   UNL     1      29.907  34.390   9.099  1.00  0.00     0.065 A 
ENDBRANCH  43  44
ENDBRANCH  41  43
ENDBRANCH  38  39
ENDBRANCH  36  38
ENDBRANCH  32  33
ENDBRANCH  31  32
ENDBRANCH   2  31
TORSDOF 18
BEGIN_RES LYS A 131
REMARK  4 active torsions:
REMARK  status: ('A' for Active; 'I' for Inactive)
REMARK    1  A    between atoms: CA   and  CB  
REMARK    2  A    between atoms: CB   and  CG  
REMARK    3  A    between atoms: CG   and  CD  
REMARK    4  A    between atoms: CD   and  CE  
ROOT
ATOM      1  CA  LYS A 131      29.867  25.555  16.977  1.00 20.52     0.186 C 
ENDROOT
BRANCH   1   2
ATOM      2  CB  LYS A 131      28.345  25.722  17.026  1.00 20.94     0.034 C 
BRANCH   2   3
ATOM      3  CG  LYS A 131      27.602  24.399  16.917  1.00 22.96     0.005 C 
BRANCH   3   4
ATOM      4  CD  LYS A 131      26.228  24.471  17.524  1.00 24.33     0.041 C 
BRANCH   4   5
ATOM      5  CE  LYS A 131      26.058  25.804  18.244  1.00 26.91     0.338 C 
ATOM      6  NZ  LYS A 131      25.755  25.584  19.678  1.00 27.40     0.618 N 
ENDBRANCH   4   5
ENDBRANCH   3   4
ENDBRANCH   2   3
ENDBRANCH   1   2
END_RES LYS A 131
BEGIN_RES LYS A 135
REMARK  4 active torsions:
REMARK  status: ('A' for Active; 'I' for Inactive)
REMARK    5  A    between atoms: CA   and  CB  
REMARK    6  A    between atoms: CB   and  CG  
REMARK    7  A    between atoms: CG   and  CD  
REMARK    8  A    between atoms: CD   and  CE  
ROOT
ATOM      7  CA  LYS A 135      33.193  34.663   9.290  1.00 25.02     0.186 C 
ENDROOT
BRANCH   7   8
ATOM      8  CB  LYS A 135      32.060  35.360  10.034  1.00 26.63     0.034 C 
BRANCH   8   9
ATOM      9  CG  LYS A 135      32.497  36.019  11.316  1.00 29.45     0.005 C 
BRANCH   9  10
ATOM     10  CD  LYS A 135      31.904  35.301  12.519  1.00 32.00     0.041 C 
BRANCH  10  11
ATOM     11  CE  LYS A 135      31.706  36.267  13.672  1.00 34.25     0.338 C 
ATOM     12  NZ  LYS A 135      31.594  37.669  13.184  1.00 35.99     0.618 N 
ENDBRANCH  10  11
ENDBRANCH   9  10
ENDBRANCH   8   9
ENDBRANCH   7   8
END_RES LYS A 135
