REMARK VINA RESULT:    -3.845      4.050      8.261
REMARK INTER + INTRA:         -14.303
REMARK INTER:                  -7.710
REMARK INTRA:                  -6.593
REMARK UNBOUND:                -7.311
REMARK SMILES CC(=O)N[C@@H]1[C@@H](O)C[C@](O)(C(=O)O)O[C@H]1C(O)[C@H](O)CNC(=O)OCc1cn(-c2ccc(O)c([N+](=O)[O-])c2)nn1
REMARK SMILES IDX 21 1 22 2 23 3 20 5 18 6 16 7 15 8 9 9 8 10 14 11 6 12 5 13
REMARK SMILES IDX 10 14 11 16 12 17 13 18 7 20 4 22 2 23 1 25 3 26 17 27 19 29
REMARK SMILES IDX 24 31 25 32 26 33 27 34 40 35 28 36 39 37 29 38 30 39 38 40
REMARK SMILES IDX 31 41 34 42 32 43 35 44 36 45 37 46 33 47
REMARK H PARENT 21 4 10 15 13 19 7 21 4 24 17 28 19 30 33 48
REMARK Flexibility Score: inf
ROOT
ATOM      1  N   UNL     1      25.958  33.968  15.619  1.00  0.00    -0.319 N 
ATOM      2  C   UNL     1      24.631  34.475  15.633  1.00  0.00     0.407 C 
ATOM      3  O   UNL     1      24.340  35.578  16.205  1.00  0.00    -0.225 OA
ATOM      4  H   UNL     1      26.153  33.076  15.139  1.00  0.00     0.167 HD
ENDROOT
BRANCH   1   5
ATOM      5  C   UNL     1      26.999  34.713  16.265  1.00  0.00     0.154 C 
BRANCH   5   6
ATOM      6  C   UNL     1      28.193  35.038  15.442  1.00  0.00     0.165 C 
BRANCH   6   7
ATOM      7  C   UNL     1      28.016  36.163  14.455  1.00  0.00     0.176 C 
BRANCH   7   8
ATOM      8  C   UNL     1      29.290  36.670  13.853  1.00  0.00     0.178 C 
ATOM      9  C   UNL     1      31.582  36.553  13.915  1.00  0.00     0.269 C 
ATOM     10  C   UNL     1      31.379  37.218  12.573  1.00  0.00     0.112 C 
ATOM     11  O   UNL     1      30.400  36.245  14.564  1.00  0.00    -0.332 OA
ATOM     12  C   UNL     1      30.563  38.454  12.752  1.00  0.00     0.145 C 
ATOM     13  C   UNL     1      29.266  38.109  13.492  1.00  0.00     0.142 C 
BRANCH   9  14
ATOM     14  O   UNL     1      32.311  37.438  14.698  1.00  0.00    -0.357 OA
ATOM     15  H   UNL     1      32.207  38.340  14.288  1.00  0.00     0.214 HD
ENDBRANCH   9  14
BRANCH   9  16
ATOM     16  C   UNL     1      32.407  35.341  13.687  1.00  0.00     0.364 C 
ATOM     17  O   UNL     1      32.944  34.726  14.646  1.00  0.00    -0.246 OA
BRANCH  16  18
ATOM     18  O   UNL     1      32.603  34.859  12.407  1.00  0.00    -0.477 OA
ATOM     19  H   UNL     1      32.420  35.391  11.578  1.00  0.00     0.296 HD
ENDBRANCH  16  18
ENDBRANCH   9  16
BRANCH  12  20
ATOM     20  O   UNL     1      31.345  39.361  13.492  1.00  0.00    -0.391 OA
ATOM     21  H   UNL     1      31.135  39.176  14.458  1.00  0.00     0.211 HD
ENDBRANCH  12  20
BRANCH  13  22
ATOM     22  N   UNL     1      28.166  38.288  12.532  1.00  0.00    -0.348 N 
ATOM     23  C   UNL     1      27.304  39.404  12.558  1.00  0.00     0.217 C 
ATOM     24  H   UNL     1      28.021  37.553  11.800  1.00  0.00     0.163 HD
ATOM     25  C   UNL     1      26.205  39.546  11.572  1.00  0.00     0.114 C 
ATOM     26  O   UNL     1      27.463  40.281  13.416  1.00  0.00    -0.275 OA
ENDBRANCH  13  22
ENDBRANCH   7   8
BRANCH   7  27
ATOM     27  O   UNL     1      27.166  35.792  13.413  1.00  0.00    -0.388 OA
ATOM     28  H   UNL     1      26.421  35.236  13.694  1.00  0.00     0.211 HD
ENDBRANCH   7  27
ENDBRANCH   6   7
BRANCH   6  29
ATOM     29  O   UNL     1      28.543  33.862  14.762  1.00  0.00    -0.388 OA
ATOM     30  H   UNL     1      27.968  33.130  15.125  1.00  0.00     0.211 HD
ENDBRANCH   6  29
ENDBRANCH   5   6
ENDBRANCH   1   5
BRANCH   2  31
ATOM     31  O   UNL     1      23.650  33.742  15.008  1.00  0.00    -0.443 OA
BRANCH  31  32
ATOM     32  C   UNL     1      23.001  34.264  13.889  1.00  0.00     0.294 C 
BRANCH  32  33
ATOM     33  C   UNL     1      23.913  34.529  12.745  1.00  0.00     0.121 A 
ATOM     34  C   UNL     1      23.811  35.520  11.779  1.00  0.00     0.144 A 
ATOM     35  N   UNL     1      25.028  33.852  12.415  1.00  0.00    -0.131 NA
ATOM     36  N   UNL     1      24.834  35.425  10.915  1.00  0.00    -0.220 N 
ATOM     37  N   UNL     1      25.562  34.401  11.323  1.00  0.00    -0.062 NA
BRANCH  36  38
ATOM     38  C   UNL     1      25.122  36.232   9.778  1.00  0.00     0.073 A 
ATOM     39  C   UNL     1      24.252  37.234   9.402  1.00  0.00     0.033 A 
ATOM     40  C   UNL     1      26.255  36.062   9.010  1.00  0.00     0.118 A 
ATOM     41  C   UNL     1      24.513  38.031   8.299  1.00  0.00     0.056 A 
ATOM     42  C   UNL     1      26.558  36.833   7.899  1.00  0.00     0.312 A 
ATOM     43  C   UNL     1      25.653  37.833   7.556  1.00  0.00     0.194 A 
BRANCH  42  44
ATOM     44  N   UNL     1      27.721  36.646   7.125  1.00  0.00     0.066 N 
ATOM     45  O   UNL     1      27.849  35.617   6.460  1.00  0.00    -0.258 OA
ATOM     46  O   UNL     1      28.692  37.597   7.115  1.00  0.00    -0.258 OA
ENDBRANCH  42  44
BRANCH  43  47
ATOM     47  O   UNL     1      25.959  38.607   6.439  1.00  0.00    -0.502 OA
ATOM     48  H   UNL     1      26.074  39.622   6.572  1.00  0.00     0.293 HD
ENDBRANCH  43  47
ENDBRANCH  36  38
ENDBRANCH  32  33
ENDBRANCH  31  32
ENDBRANCH   2  31
TORSDOF 17
BEGIN_RES LYS A 131
REMARK  4 active torsions:
REMARK  status: ('A' for Active; 'I' for Inactive)
REMARK    1  A    between atoms: CA   and  CB  
REMARK    2  A    between atoms: CB   and  CG  
REMARK    3  A    between atoms: CG   and  CD  
REMARK    4  A    between atoms: CD   and  CE  
ROOT
ATOM      1  CA  LYS A 131      29.867  25.555  16.977  1.00 20.52     0.186 C 
ENDROOT
BRANCH   1   2
ATOM      2  CB  LYS A 131      28.345  25.722  17.026  1.00 20.94     0.034 C 
BRANCH   2   3
ATOM      3  CG  LYS A 131      27.601  24.402  16.889  1.00 22.96     0.005 C 
BRANCH   3   4
ATOM      4  CD  LYS A 131      26.161  24.518  17.307  1.00 24.33     0.041 C 
BRANCH   4   5
ATOM      5  CE  LYS A 131      25.892  23.572  18.473  1.00 26.91     0.338 C 
ATOM      6  NZ  LYS A 131      25.507  24.336  19.683  1.00 27.40     0.618 N 
ENDBRANCH   4   5
ENDBRANCH   3   4
ENDBRANCH   2   3
ENDBRANCH   1   2
END_RES LYS A 131
BEGIN_RES LYS A 135
REMARK  4 active torsions:
REMARK  status: ('A' for Active; 'I' for Inactive)
REMARK    5  A    between atoms: CA   and  CB  
REMARK    6  A    between atoms: CB   and  CG  
REMARK    7  A    between atoms: CG   and  CD  
REMARK    8  A    between atoms: CD   and  CE  
ROOT
ATOM      7  CA  LYS A 135      33.193  34.663   9.290  1.00 25.02     0.186 C 
ENDROOT
BRANCH   7   8
ATOM      8  CB  LYS A 135      32.060  35.360  10.034  1.00 26.63     0.034 C 
BRANCH   8   9
ATOM      9  CG  LYS A 135      30.818  35.548   9.201  1.00 29.45     0.005 C 
BRANCH   9  10
ATOM     10  CD  LYS A 135      30.265  34.204   8.752  1.00 32.00     0.041 C 
BRANCH  10  11
ATOM     11  CE  LYS A 135      28.930  33.928   9.416  1.00 34.25     0.338 C 
ATOM     12  NZ  LYS A 135      28.899  34.469  10.804  1.00 35.99     0.618 N 
ENDBRANCH  10  11
ENDBRANCH   9  10
ENDBRANCH   8   9
ENDBRANCH   7   8
END_RES LYS A 135
