REMARK VINA RESULT:    -5.153      3.407      7.472
REMARK INTER + INTRA:         -16.033
REMARK INTER:                  -7.395
REMARK INTRA:                  -8.638
REMARK UNBOUND:                -5.909
REMARK SMILES CC(=O)N[C@@H]1[C@@H](O)C[C@](O)(C(=O)O)O[C@H]1C(O)[C@H](O)CNC(=O)OCc1cn(CCNC(=O)NCc2ccco2)nn1
REMARK SMILES IDX 24 1 22 2 21 3 23 5 20 6 18 7 16 8 15 9 9 10 8 11 14 12 6 13
REMARK SMILES IDX 5 14 10 15 11 17 12 18 13 19 7 21 4 23 2 24 1 26 3 27 17 28
REMARK SMILES IDX 19 30 25 32 26 33 27 34 42 35 28 36 41 37 29 38 30 39 31 40
REMARK SMILES IDX 32 41 33 43 34 44 35 46 36 47 37 48 40 49 38 50 39 51
REMARK H PARENT 21 4 10 16 13 20 7 22 4 25 17 29 19 31 31 42 34 45
REMARK Flexibility Score: inf
ROOT
ATOM      1  O   UNL     1      29.246  30.851  20.092  1.00  0.00    -0.443 OA
ENDROOT
BRANCH   1   2
ATOM      2  C   UNL     1      29.274  30.731  18.707  1.00  0.00     0.407 C 
ATOM      3  N   UNL     1      30.328  31.169  17.893  1.00  0.00    -0.319 N 
ATOM      4  H   UNL     1      31.155  31.613  18.317  1.00  0.00     0.167 HD
ATOM      5  O   UNL     1      28.279  30.192  18.155  1.00  0.00    -0.225 OA
BRANCH   3   6
ATOM      6  C   UNL     1      30.253  30.992  16.439  1.00  0.00     0.154 C 
BRANCH   6   7
ATOM      7  C   UNL     1      30.965  32.140  15.773  1.00  0.00     0.165 C 
BRANCH   7   8
ATOM      8  C   UNL     1      30.898  33.405  16.582  1.00  0.00     0.176 C 
BRANCH   8   9
ATOM      9  C   UNL     1      31.709  34.519  15.986  1.00  0.00     0.178 C 
ATOM     10  C   UNL     1      33.241  34.839  14.251  1.00  0.00     0.269 C 
ATOM     11  C   UNL     1      33.829  36.029  14.937  1.00  0.00     0.112 C 
ATOM     12  O   UNL     1      32.599  33.953  15.056  1.00  0.00    -0.332 OA
ATOM     13  C   UNL     1      33.199  36.410  16.215  1.00  0.00     0.145 C 
ATOM     14  C   UNL     1      32.605  35.234  16.968  1.00  0.00     0.142 C 
BRANCH  10  15
ATOM     15  O   UNL     1      34.346  34.140  13.699  1.00  0.00    -0.357 OA
ATOM     16  H   UNL     1      35.040  34.772  13.387  1.00  0.00     0.214 HD
ENDBRANCH  10  15
BRANCH  10  17
ATOM     17  C   UNL     1      32.366  35.203  13.110  1.00  0.00     0.364 C 
ATOM     18  O   UNL     1      32.535  36.275  12.463  1.00  0.00    -0.246 OA
BRANCH  17  19
ATOM     19  O   UNL     1      31.314  34.400  12.685  1.00  0.00    -0.477 OA
ATOM     20  H   UNL     1      31.328  33.998  11.754  1.00  0.00     0.296 HD
ENDBRANCH  17  19
ENDBRANCH  10  17
BRANCH  13  21
ATOM     21  O   UNL     1      34.141  37.067  17.034  1.00  0.00    -0.391 OA
ATOM     22  H   UNL     1      34.825  37.525  16.506  1.00  0.00     0.211 HD
ENDBRANCH  13  21
BRANCH  14  23
ATOM     23  N   UNL     1      31.985  35.667  18.172  1.00  0.00    -0.348 N 
ATOM     24  C   UNL     1      32.739  35.633  19.386  1.00  0.00     0.217 C 
ATOM     25  H   UNL     1      31.008  36.023  18.241  1.00  0.00     0.163 HD
ATOM     26  C   UNL     1      32.186  36.062  20.689  1.00  0.00     0.114 C 
ATOM     27  O   UNL     1      33.936  35.221  19.368  1.00  0.00    -0.275 OA
ENDBRANCH  14  23
ENDBRANCH   8   9
BRANCH   8  28
ATOM     28  O   UNL     1      29.612  33.770  16.938  1.00  0.00    -0.388 OA
ATOM     29  H   UNL     1      29.514  34.015  17.893  1.00  0.00     0.211 HD
ENDBRANCH   8  28
ENDBRANCH   7   8
BRANCH   7  30
ATOM     30  O   UNL     1      30.220  32.413  14.593  1.00  0.00    -0.388 OA
ATOM     31  H   UNL     1      29.264  32.286  14.881  1.00  0.00     0.211 HD
ENDBRANCH   7  30
ENDBRANCH   6   7
ENDBRANCH   3   6
ENDBRANCH   1   2
BRANCH   1  32
ATOM     32  C   UNL     1      28.250  31.609  20.746  1.00  0.00     0.294 C 
BRANCH  32  33
ATOM     33  C   UNL     1      28.307  32.993  20.225  1.00  0.00     0.120 A 
ATOM     34  C   UNL     1      27.249  33.802  19.913  1.00  0.00     0.138 A 
ATOM     35  N   UNL     1      29.420  33.699  19.970  1.00  0.00    -0.132 NA
ATOM     36  N   UNL     1      27.746  34.974  19.478  1.00  0.00    -0.250 N 
ATOM     37  N   UNL     1      29.067  34.907  19.514  1.00  0.00    -0.067 NA
BRANCH  36  38
ATOM     38  C   UNL     1      26.985  36.144  19.032  1.00  0.00     0.167 C 
BRANCH  38  39
ATOM     39  C   UNL     1      26.315  35.780  17.733  1.00  0.00     0.141 C 
BRANCH  39  40
ATOM     40  N   UNL     1      27.317  35.410  16.766  1.00  0.00    -0.336 N 
ATOM     41  C   UNL     1      27.067  35.245  15.383  1.00  0.00     0.315 C 
ATOM     42  H   UNL     1      28.314  35.245  17.082  1.00  0.00     0.165 HD
ATOM     43  O   UNL     1      25.887  35.435  14.961  1.00  0.00    -0.249 OA
ATOM     44  N   UNL     1      28.123  34.875  14.510  1.00  0.00    -0.331 N 
ATOM     45  H   UNL     1      29.095  34.713  14.829  1.00  0.00     0.165 HD
BRANCH  44  46
ATOM     46  C   UNL     1      27.829  34.715  13.103  1.00  0.00     0.193 C 
BRANCH  46  47
ATOM     47  C   UNL     1      28.235  35.950  12.397  1.00  0.00     0.122 A 
ATOM     48  C   UNL     1      27.545  36.488  11.316  1.00  0.00     0.047 A 
ATOM     49  O   UNL     1      29.257  36.704  12.656  1.00  0.00    -0.467 OA
ATOM     50  C   UNL     1      28.245  37.620  10.961  1.00  0.00     0.042 A 
ATOM     51  C   UNL     1      29.309  37.707  11.835  1.00  0.00     0.195 A 
ENDBRANCH  46  47
ENDBRANCH  44  46
ENDBRANCH  39  40
ENDBRANCH  38  39
ENDBRANCH  36  38
ENDBRANCH  32  33
ENDBRANCH   1  32
TORSDOF 19
BEGIN_RES LYS A 131
REMARK  4 active torsions:
REMARK  status: ('A' for Active; 'I' for Inactive)
REMARK    1  A    between atoms: CA   and  CB  
REMARK    2  A    between atoms: CB   and  CG  
REMARK    3  A    between atoms: CG   and  CD  
REMARK    4  A    between atoms: CD   and  CE  
ROOT
ATOM      1  CA  LYS A 131      29.867  25.555  16.977  1.00 20.52     0.186 C 
ENDROOT
BRANCH   1   2
ATOM      2  CB  LYS A 131      28.345  25.722  17.026  1.00 20.94     0.034 C 
BRANCH   2   3
ATOM      3  CG  LYS A 131      27.599  24.441  16.685  1.00 22.96     0.005 C 
BRANCH   3   4
ATOM      4  CD  LYS A 131      27.021  23.780  17.906  1.00 24.33     0.041 C 
BRANCH   4   5
ATOM      5  CE  LYS A 131      25.553  23.451  17.660  1.00 26.91     0.338 C 
ATOM      6  NZ  LYS A 131      24.904  24.527  16.874  1.00 27.40     0.618 N 
ENDBRANCH   4   5
ENDBRANCH   3   4
ENDBRANCH   2   3
ENDBRANCH   1   2
END_RES LYS A 131
BEGIN_RES LYS A 135
REMARK  4 active torsions:
REMARK  status: ('A' for Active; 'I' for Inactive)
REMARK    5  A    between atoms: CA   and  CB  
REMARK    6  A    between atoms: CB   and  CG  
REMARK    7  A    between atoms: CG   and  CD  
REMARK    8  A    between atoms: CD   and  CE  
ROOT
ATOM      7  CA  LYS A 135      33.193  34.663   9.290  1.00 25.02     0.186 C 
ENDROOT
BRANCH   7   8
ATOM      8  CB  LYS A 135      32.060  35.360  10.034  1.00 26.63     0.034 C 
BRANCH   8   9
ATOM      9  CG  LYS A 135      30.806  35.515   9.213  1.00 29.45     0.005 C 
BRANCH   9  10
ATOM     10  CD  LYS A 135      29.943  34.267   9.311  1.00 32.00     0.041 C 
BRANCH  10  11
ATOM     11  CE  LYS A 135      28.694  34.415   8.463  1.00 34.25     0.338 C 
ATOM     12  NZ  LYS A 135      28.741  35.663   7.652  1.00 35.99     0.618 N 
ENDBRANCH  10  11
ENDBRANCH   9  10
ENDBRANCH   8   9
ENDBRANCH   7   8
END_RES LYS A 135
