REMARK VINA RESULT:    -4.913      3.189      6.031
REMARK INTER + INTRA:         -13.775
REMARK INTER:                  -7.509
REMARK INTRA:                  -6.266
REMARK UNBOUND:                -5.272
REMARK SMILES CC(=O)N[C@@H]1[C@@H](O)C[C@](O)(C(=O)O)O[C@H]1C(O)[C@H](O)CNC(=O)OCc1cn(-c2ccncc2)nn1
REMARK SMILES IDX 20 1 18 2 16 3 15 4 9 5 8 6 14 7 6 8 5 9 10 10 11 12 12 13
REMARK SMILES IDX 13 14 7 16 4 18 2 19 1 21 3 22 17 23 19 25 21 27 22 28 23 30
REMARK SMILES IDX 24 31 25 32 26 33 27 34 36 35 28 36 35 37 29 38 30 39 34 40
REMARK SMILES IDX 31 41 33 42 32 43
REMARK H PARENT 10 11 13 15 7 17 4 20 17 24 19 26 21 29
REMARK Flexibility Score: inf
ROOT
ATOM      1  C   UNL     1      30.402  33.146  18.666  1.00  0.00     0.154 C 
ENDROOT
BRANCH   1   2
ATOM      2  C   UNL     1      30.604  31.715  19.021  1.00  0.00     0.165 C 
BRANCH   2   3
ATOM      3  C   UNL     1      29.340  30.888  18.858  1.00  0.00     0.176 C 
BRANCH   3   4
ATOM      4  C   UNL     1      29.115  29.920  19.964  1.00  0.00     0.178 C 
ATOM      5  C   UNL     1      29.455  27.749  20.666  1.00  0.00     0.269 C 
ATOM      6  C   UNL     1      28.625  28.173  21.852  1.00  0.00     0.112 C 
ATOM      7  O   UNL     1      29.886  28.793  19.894  1.00  0.00    -0.332 OA
ATOM      8  C   UNL     1      27.434  29.004  21.461  1.00  0.00     0.145 C 
ATOM      9  C   UNL     1      27.661  29.485  20.041  1.00  0.00     0.142 C 
BRANCH   5  10
ATOM     10  O   UNL     1      28.810  26.777  19.901  1.00  0.00    -0.357 OA
ATOM     11  H   UNL     1      28.913  25.869  20.293  1.00  0.00     0.214 HD
ENDBRANCH   5  10
BRANCH   5  12
ATOM     12  C   UNL     1      30.683  27.084  21.230  1.00  0.00     0.364 C 
ATOM     13  O   UNL     1      30.745  26.631  22.382  1.00  0.00    -0.246 OA
BRANCH  12  14
ATOM     14  O   UNL     1      31.774  27.003  20.368  1.00  0.00    -0.477 OA
ATOM     15  H   UNL     1      32.572  27.622  20.491  1.00  0.00     0.296 HD
ENDBRANCH  12  14
ENDBRANCH   5  12
BRANCH   8  16
ATOM     16  O   UNL     1      26.244  28.283  21.543  1.00  0.00    -0.391 OA
ATOM     17  H   UNL     1      26.296  27.492  20.954  1.00  0.00     0.211 HD
ENDBRANCH   8  16
BRANCH   9  18
ATOM     18  N   UNL     1      26.754  30.551  19.685  1.00  0.00    -0.348 N 
ATOM     19  C   UNL     1      25.583  30.288  18.923  1.00  0.00     0.217 C 
ATOM     20  H   UNL     1      26.929  31.531  19.971  1.00  0.00     0.163 HD
ATOM     21  C   UNL     1      24.622  31.369  18.537  1.00  0.00     0.114 C 
ATOM     22  O   UNL     1      25.347  29.107  18.563  1.00  0.00    -0.275 OA
ENDBRANCH   9  18
ENDBRANCH   3   4
BRANCH   3  23
ATOM     23  O   UNL     1      29.231  30.391  17.585  1.00  0.00    -0.388 OA
ATOM     24  H   UNL     1      30.127  30.086  17.277  1.00  0.00     0.211 HD
ENDBRANCH   3  23
ENDBRANCH   2   3
BRANCH   2  25
ATOM     25  O   UNL     1      31.007  31.532  20.331  1.00  0.00    -0.388 OA
ATOM     26  H   UNL     1      30.338  31.083  20.895  1.00  0.00     0.211 HD
ENDBRANCH   2  25
ENDBRANCH   1   2
BRANCH   1  27
ATOM     27  N   UNL     1      29.198  33.331  17.907  1.00  0.00    -0.319 N 
ATOM     28  C   UNL     1      28.252  34.356  18.026  1.00  0.00     0.407 C 
ATOM     29  H   UNL     1      28.977  32.600  17.146  1.00  0.00     0.167 HD
ATOM     30  O   UNL     1      28.384  35.247  18.865  1.00  0.00    -0.225 OA
BRANCH  28  31
ATOM     31  O   UNL     1      27.108  34.430  17.208  1.00  0.00    -0.443 OA
BRANCH  31  32
ATOM     32  C   UNL     1      27.218  34.088  15.821  1.00  0.00     0.294 C 
BRANCH  32  33
ATOM     33  C   UNL     1      26.713  32.736  15.568  1.00  0.00     0.121 A 
ATOM     34  C   UNL     1      25.521  32.336  15.008  1.00  0.00     0.144 A 
ATOM     35  N   UNL     1      27.379  31.599  15.862  1.00  0.00    -0.131 NA
ATOM     36  N   UNL     1      25.524  30.983  14.991  1.00  0.00    -0.220 N 
ATOM     37  N   UNL     1      26.646  30.550  15.507  1.00  0.00    -0.062 NA
BRANCH  36  38
ATOM     38  C   UNL     1      24.486  30.135  14.495  1.00  0.00     0.069 A 
ATOM     39  C   UNL     1      24.226  30.130  13.146  1.00  0.00     0.048 A 
ATOM     40  C   UNL     1      23.757  29.334  15.366  1.00  0.00     0.048 A 
ATOM     41  C   UNL     1      23.221  29.306  12.685  1.00  0.00     0.113 A 
ATOM     42  C   UNL     1      22.773  28.535  14.861  1.00  0.00     0.113 A 
ATOM     43  N   UNL     1      22.526  28.538  13.534  1.00  0.00    -0.265 NA
ENDBRANCH  36  38
ENDBRANCH  32  33
ENDBRANCH  31  32
ENDBRANCH  28  31
ENDBRANCH   1  27
TORSDOF 15
BEGIN_RES LYS A 131
REMARK  4 active torsions:
REMARK  status: ('A' for Active; 'I' for Inactive)
REMARK    1  A    between atoms: CA   and  CB  
REMARK    2  A    between atoms: CB   and  CG  
REMARK    3  A    between atoms: CG   and  CD  
REMARK    4  A    between atoms: CD   and  CE  
ROOT
ATOM      1  CA  LYS A 131      29.867  25.555  16.977  1.00 20.52     0.186 C 
ENDROOT
BRANCH   1   2
ATOM      2  CB  LYS A 131      28.345  25.722  17.026  1.00 20.94     0.034 C 
BRANCH   2   3
ATOM      3  CG  LYS A 131      27.600  24.418  16.787  1.00 22.96     0.005 C 
BRANCH   3   4
ATOM      4  CD  LYS A 131      26.921  23.917  18.032  1.00 24.33     0.041 C 
BRANCH   4   5
ATOM      5  CE  LYS A 131      25.544  24.561  18.156  1.00 26.91     0.338 C 
ATOM      6  NZ  LYS A 131      24.776  24.388  16.900  1.00 27.40     0.618 N 
ENDBRANCH   4   5
ENDBRANCH   3   4
ENDBRANCH   2   3
ENDBRANCH   1   2
END_RES LYS A 131
BEGIN_RES LYS A 135
REMARK  4 active torsions:
REMARK  status: ('A' for Active; 'I' for Inactive)
REMARK    5  A    between atoms: CA   and  CB  
REMARK    6  A    between atoms: CB   and  CG  
REMARK    7  A    between atoms: CG   and  CD  
REMARK    8  A    between atoms: CD   and  CE  
ROOT
ATOM      7  CA  LYS A 135      33.193  34.663   9.290  1.00 25.02     0.186 C 
ENDROOT
BRANCH   7   8
ATOM      8  CB  LYS A 135      32.060  35.360  10.034  1.00 26.63     0.034 C 
BRANCH   8   9
ATOM      9  CG  LYS A 135      30.781  35.445   9.241  1.00 29.45     0.005 C 
BRANCH   9  10
ATOM     10  CD  LYS A 135      30.083  34.094   9.203  1.00 32.00     0.041 C 
BRANCH  10  11
ATOM     11  CE  LYS A 135      28.609  34.265   8.892  1.00 34.25     0.338 C 
ATOM     12  NZ  LYS A 135      28.356  35.546   8.177  1.00 35.99     0.618 N 
ENDBRANCH  10  11
ENDBRANCH   9  10
ENDBRANCH   8   9
ENDBRANCH   7   8
END_RES LYS A 135
