REMARK VINA RESULT:    -3.380      3.105      6.564
REMARK INTER + INTRA:         -15.185
REMARK INTER:                  -6.739
REMARK INTRA:                  -8.446
REMARK UNBOUND:                -8.446
REMARK SMILES CC(=O)N[C@@H]1[C@@H](O)C[C@](O)(C(=O)O)O[C@H]1C(O)[C@H](O)CNC(=O)OCc1cn(CC(O)Cn2ccnc2[N+](=O)[O-])nn1
REMARK SMILES IDX 24 1 22 2 21 3 23 5 20 6 18 7 16 8 15 9 9 10 8 11 14 12 6 13
REMARK SMILES IDX 5 14 10 15 11 17 12 18 13 19 7 21 4 23 2 24 1 26 3 27 17 28
REMARK SMILES IDX 19 30 25 32 26 33 27 34 42 35 28 36 41 37 29 38 30 39 31 40
REMARK SMILES IDX 32 42 33 43 34 44 37 45 35 46 36 47 38 48 39 49 40 50
REMARK H PARENT 21 4 10 16 13 20 7 22 4 25 17 29 19 31 31 41
REMARK Flexibility Score: inf
ROOT
ATOM      1  O   UNL     1      29.170  27.378  21.270  1.00  0.00    -0.443 OA
ENDROOT
BRANCH   1   2
ATOM      2  C   UNL     1      29.638  28.700  21.173  1.00  0.00     0.407 C 
ATOM      3  N   UNL     1      30.175  29.233  19.996  1.00  0.00    -0.319 N 
ATOM      4  H   UNL     1      30.226  28.590  19.149  1.00  0.00     0.167 HD
ATOM      5  O   UNL     1      29.549  29.387  22.199  1.00  0.00    -0.225 OA
BRANCH   3   6
ATOM      6  C   UNL     1      30.662  30.584  19.854  1.00  0.00     0.154 C 
BRANCH   6   7
ATOM      7  C   UNL     1      29.507  31.464  19.460  1.00  0.00     0.165 C 
BRANCH   7   8
ATOM      8  C   UNL     1      29.313  31.344  17.967  1.00  0.00     0.176 C 
BRANCH   8   9
ATOM      9  C   UNL     1      28.598  32.568  17.408  1.00  0.00     0.178 C 
ATOM     10  C   UNL     1      26.477  33.528  17.460  1.00  0.00     0.269 C 
ATOM     11  C   UNL     1      26.773  33.935  16.029  1.00  0.00     0.112 C 
ATOM     12  O   UNL     1      27.297  32.488  17.824  1.00  0.00    -0.332 OA
ATOM     13  C   UNL     1      27.384  32.766  15.290  1.00  0.00     0.145 C 
ATOM     14  C   UNL     1      28.765  32.551  15.900  1.00  0.00     0.142 C 
BRANCH  10  15
ATOM     15  O   UNL     1      25.153  33.059  17.569  1.00  0.00    -0.357 OA
ATOM     16  H   UNL     1      24.588  33.846  17.743  1.00  0.00     0.214 HD
ENDBRANCH  10  15
BRANCH  10  17
ATOM     17  C   UNL     1      26.651  34.638  18.405  1.00  0.00     0.364 C 
ATOM     18  O   UNL     1      27.044  34.427  19.563  1.00  0.00    -0.246 OA
BRANCH  17  19
ATOM     19  O   UNL     1      26.379  35.936  18.013  1.00  0.00    -0.477 OA
ATOM     20  H   UNL     1      26.518  36.704  18.643  1.00  0.00     0.296 HD
ENDBRANCH  17  19
ENDBRANCH  10  17
BRANCH  13  21
ATOM     21  O   UNL     1      26.688  31.581  15.469  1.00  0.00    -0.391 OA
ATOM     22  H   UNL     1      25.893  31.731  16.017  1.00  0.00     0.211 HD
ENDBRANCH  13  21
BRANCH  14  23
ATOM     23  N   UNL     1      29.642  33.590  15.442  1.00  0.00    -0.348 N 
ATOM     24  C   UNL     1      31.007  33.329  15.203  1.00  0.00     0.217 C 
ATOM     25  H   UNL     1      29.324  34.580  15.266  1.00  0.00     0.163 HD
ATOM     26  C   UNL     1      31.915  34.416  14.726  1.00  0.00     0.114 C 
ATOM     27  O   UNL     1      31.486  32.179  15.383  1.00  0.00    -0.275 OA
ENDBRANCH  14  23
ENDBRANCH   8   9
BRANCH   8  28
ATOM     28  O   UNL     1      28.494  30.260  17.721  1.00  0.00    -0.388 OA
ATOM     29  H   UNL     1      27.838  30.426  17.004  1.00  0.00     0.211 HD
ENDBRANCH   8  28
ENDBRANCH   7   8
BRANCH   7  30
ATOM     30  O   UNL     1      29.690  32.785  19.857  1.00  0.00    -0.388 OA
ATOM     31  H   UNL     1      29.351  33.352  19.120  1.00  0.00     0.211 HD
ENDBRANCH   7  30
ENDBRANCH   6   7
ENDBRANCH   3   6
ENDBRANCH   1   2
BRANCH   1  32
ATOM     32  C   UNL     1      27.756  27.133  21.322  1.00  0.00     0.294 C 
BRANCH  32  33
ATOM     33  C   UNL     1      27.115  27.412  20.041  1.00  0.00     0.120 A 
ATOM     34  C   UNL     1      25.776  27.639  19.840  1.00  0.00     0.138 A 
ATOM     35  N   UNL     1      27.736  27.489  18.855  1.00  0.00    -0.132 NA
ATOM     36  N   UNL     1      25.623  27.850  18.525  1.00  0.00    -0.249 N 
ATOM     37  N   UNL     1      26.801  27.756  17.957  1.00  0.00    -0.067 NA
BRANCH  36  38
ATOM     38  C   UNL     1      24.329  28.134  17.880  1.00  0.00     0.181 C 
BRANCH  38  39
ATOM     39  C   UNL     1      24.458  29.341  16.978  1.00  0.00     0.170 C 
BRANCH  39  40
ATOM     40  O   UNL     1      25.420  30.169  17.598  1.00  0.00    -0.388 OA
ATOM     41  H   UNL     1      26.228  29.681  17.844  1.00  0.00     0.211 HD
ENDBRANCH  39  40
BRANCH  39  42
ATOM     42  C   UNL     1      23.134  30.030  16.882  1.00  0.00     0.239 C 
BRANCH  42  43
ATOM     43  N   UNL     1      22.507  29.639  15.617  1.00  0.00    -0.227 N 
ATOM     44  C   UNL     1      21.515  28.732  15.462  1.00  0.00     0.204 A 
ATOM     45  C   UNL     1      22.829  30.144  14.438  1.00  0.00     0.434 A 
ATOM     46  C   UNL     1      21.217  28.677  14.139  1.00  0.00     0.245 A 
ATOM     47  N   UNL     1      22.022  29.541  13.521  1.00  0.00    -0.074 NA
BRANCH  45  48
ATOM     48  N   UNL     1      23.826  31.132  14.132  1.00  0.00    -0.047 N 
ATOM     49  O   UNL     1      24.717  30.958  13.285  1.00  0.00    -0.390 OA
ATOM     50  O   UNL     1      23.801  32.337  14.805  1.00  0.00    -0.390 OA
ENDBRANCH  45  48
ENDBRANCH  42  43
ENDBRANCH  39  42
ENDBRANCH  38  39
ENDBRANCH  36  38
ENDBRANCH  32  33
ENDBRANCH   1  32
TORSDOF 20
BEGIN_RES LYS A 131
REMARK  4 active torsions:
REMARK  status: ('A' for Active; 'I' for Inactive)
REMARK    1  A    between atoms: CA   and  CB  
REMARK    2  A    between atoms: CB   and  CG  
REMARK    3  A    between atoms: CG   and  CD  
REMARK    4  A    between atoms: CD   and  CE  
ROOT
ATOM      1  CA  LYS A 131      29.867  25.555  16.977  1.00 20.52     0.186 C 
ENDROOT
BRANCH   1   2
ATOM      2  CB  LYS A 131      28.345  25.722  17.026  1.00 20.94     0.034 C 
BRANCH   2   3
ATOM      3  CG  LYS A 131      27.601  24.403  16.887  1.00 22.96     0.005 C 
BRANCH   3   4
ATOM      4  CD  LYS A 131      26.614  24.189  18.000  1.00 24.33     0.041 C 
BRANCH   4   5
ATOM      5  CE  LYS A 131      25.197  24.384  17.469  1.00 26.91     0.338 C 
ATOM      6  NZ  LYS A 131      24.234  24.494  18.590  1.00 27.40     0.618 N 
ENDBRANCH   4   5
ENDBRANCH   3   4
ENDBRANCH   2   3
ENDBRANCH   1   2
END_RES LYS A 131
BEGIN_RES LYS A 135
REMARK  4 active torsions:
REMARK  status: ('A' for Active; 'I' for Inactive)
REMARK    5  A    between atoms: CA   and  CB  
REMARK    6  A    between atoms: CB   and  CG  
REMARK    7  A    between atoms: CG   and  CD  
REMARK    8  A    between atoms: CD   and  CE  
ROOT
ATOM      7  CA  LYS A 135      33.193  34.663   9.290  1.00 25.02     0.186 C 
ENDROOT
BRANCH   7   8
ATOM      8  CB  LYS A 135      32.060  35.360  10.034  1.00 26.63     0.034 C 
BRANCH   8   9
ATOM      9  CG  LYS A 135      30.709  34.736   9.795  1.00 29.45     0.005 C 
BRANCH   9  10
ATOM     10  CD  LYS A 135      30.478  34.508   8.310  1.00 32.00     0.041 C 
BRANCH  10  11
ATOM     11  CE  LYS A 135      29.057  34.877   7.928  1.00 34.25     0.338 C 
ATOM     12  NZ  LYS A 135      28.075  34.277   8.874  1.00 35.99     0.618 N 
ENDBRANCH  10  11
ENDBRANCH   9  10
ENDBRANCH   8   9
ENDBRANCH   7   8
END_RES LYS A 135
