REMARK VINA RESULT:    -3.845      2.532      4.874
REMARK INTER + INTRA:         -16.113
REMARK INTER:                  -8.880
REMARK INTRA:                  -7.232
REMARK UNBOUND:                -8.446
REMARK SMILES CC(=O)N[C@@H]1[C@@H](O)C[C@](O)(C(=O)O)O[C@H]1C(O)[C@H](O)CNC(=O)OCc1cn(CC(O)Cn2ccnc2[N+](=O)[O-])nn1
REMARK SMILES IDX 24 1 22 2 21 3 23 5 20 6 18 7 16 8 15 9 9 10 8 11 14 12 6 13
REMARK SMILES IDX 5 14 10 15 11 17 12 18 13 19 7 21 4 23 2 24 1 26 3 27 17 28
REMARK SMILES IDX 19 30 25 32 26 33 27 34 42 35 28 36 41 37 29 38 30 39 31 40
REMARK SMILES IDX 32 42 33 43 34 44 37 45 35 46 36 47 38 48 39 49 40 50
REMARK H PARENT 21 4 10 16 13 20 7 22 4 25 17 29 19 31 31 41
REMARK Flexibility Score: inf
ROOT
ATOM      1  O   UNL     1      27.666  31.049  16.256  1.00  0.00    -0.443 OA
ENDROOT
BRANCH   1   2
ATOM      2  C   UNL     1      27.122  29.921  16.894  1.00  0.00     0.407 C 
ATOM      3  N   UNL     1      27.887  29.034  17.657  1.00  0.00    -0.319 N 
ATOM      4  H   UNL     1      28.928  29.238  17.744  1.00  0.00     0.167 HD
ATOM      5  O   UNL     1      25.904  29.746  16.747  1.00  0.00    -0.225 OA
BRANCH   3   6
ATOM      6  C   UNL     1      27.367  27.867  18.330  1.00  0.00     0.154 C 
BRANCH   6   7
ATOM      7  C   UNL     1      26.996  28.258  19.735  1.00  0.00     0.165 C 
BRANCH   7   8
ATOM      8  C   UNL     1      28.147  27.894  20.643  1.00  0.00     0.176 C 
BRANCH   8   9
ATOM      9  C   UNL     1      28.919  29.135  21.071  1.00  0.00     0.178 C 
ATOM     10  C   UNL     1      28.855  31.438  20.730  1.00  0.00     0.269 C 
ATOM     11  C   UNL     1      30.368  31.353  20.783  1.00  0.00     0.112 C 
ATOM     12  O   UNL     1      28.332  30.200  20.445  1.00  0.00    -0.332 OA
ATOM     13  C   UNL     1      30.835  30.176  19.956  1.00  0.00     0.145 C 
ATOM     14  C   UNL     1      30.375  28.925  20.696  1.00  0.00     0.142 C 
BRANCH  10  15
ATOM     15  O   UNL     1      28.452  32.299  19.690  1.00  0.00    -0.357 OA
ATOM     16  H   UNL     1      27.859  32.972  20.096  1.00  0.00     0.214 HD
ENDBRANCH  10  15
BRANCH  10  17
ATOM     17  C   UNL     1      28.279  31.931  21.987  1.00  0.00     0.364 C 
ATOM     18  O   UNL     1      29.013  32.257  22.934  1.00  0.00    -0.246 OA
BRANCH  17  19
ATOM     19  O   UNL     1      26.908  32.039  22.130  1.00  0.00    -0.477 OA
ATOM     20  H   UNL     1      26.410  31.456  22.777  1.00  0.00     0.296 HD
ENDBRANCH  17  19
ENDBRANCH  10  17
BRANCH  13  21
ATOM     21  O   UNL     1      30.252  30.125  18.699  1.00  0.00    -0.391 OA
ATOM     22  H   UNL     1      29.835  29.253  18.551  1.00  0.00     0.211 HD
ENDBRANCH  13  21
BRANCH  14  23
ATOM     23  N   UNL     1      31.208  28.734  21.848  1.00  0.00    -0.348 N 
ATOM     24  C   UNL     1      31.885  27.515  22.055  1.00  0.00     0.217 C 
ATOM     25  H   UNL     1      31.354  29.474  22.586  1.00  0.00     0.163 HD
ATOM     26  C   UNL     1      32.751  27.322  23.258  1.00  0.00     0.114 C 
ATOM     27  O   UNL     1      31.776  26.568  21.234  1.00  0.00    -0.275 OA
ENDBRANCH  14  23
ENDBRANCH   8   9
BRANCH   8  28
ATOM     28  O   UNL     1      29.029  27.104  19.932  1.00  0.00    -0.388 OA
ATOM     29  H   UNL     1      28.582  26.536  19.261  1.00  0.00     0.211 HD
ENDBRANCH   8  28
ENDBRANCH   7   8
BRANCH   7  30
ATOM     30  O   UNL     1      25.802  27.676  20.148  1.00  0.00    -0.388 OA
ATOM     31  H   UNL     1      26.034  26.790  20.524  1.00  0.00     0.211 HD
ENDBRANCH   7  30
ENDBRANCH   6   7
ENDBRANCH   3   6
ENDBRANCH   1   2
BRANCH   1  32
ATOM     32  C   UNL     1      28.890  30.917  15.516  1.00  0.00     0.294 C 
BRANCH  32  33
ATOM     33  C   UNL     1      29.841  31.970  15.857  1.00  0.00     0.120 A 
ATOM     34  C   UNL     1      30.847  32.443  15.052  1.00  0.00     0.138 A 
ATOM     35  N   UNL     1      29.881  32.643  17.017  1.00  0.00    -0.132 NA
ATOM     36  N   UNL     1      31.474  33.398  15.753  1.00  0.00    -0.249 N 
ATOM     37  N   UNL     1      30.883  33.501  16.919  1.00  0.00    -0.067 NA
BRANCH  36  38
ATOM     38  C   UNL     1      32.624  34.169  15.251  1.00  0.00     0.181 C 
BRANCH  38  39
ATOM     39  C   UNL     1      32.233  34.922  13.999  1.00  0.00     0.170 C 
BRANCH  39  40
ATOM     40  O   UNL     1      33.316  34.753  13.108  1.00  0.00    -0.388 OA
ATOM     41  H   UNL     1      33.281  33.900  12.637  1.00  0.00     0.211 HD
ENDBRANCH  39  40
BRANCH  39  42
ATOM     42  C   UNL     1      32.029  36.365  14.333  1.00  0.00     0.239 C 
BRANCH  42  43
ATOM     43  N   UNL     1      31.100  36.933  13.352  1.00  0.00    -0.227 N 
ATOM     44  C   UNL     1      31.383  37.901  12.450  1.00  0.00     0.204 A 
ATOM     45  C   UNL     1      29.842  36.556  13.211  1.00  0.00     0.434 A 
ATOM     46  C   UNL     1      30.256  38.127  11.728  1.00  0.00     0.245 A 
ATOM     47  N   UNL     1      29.321  37.303  12.198  1.00  0.00    -0.074 NA
BRANCH  45  48
ATOM     48  N   UNL     1      29.118  35.562  13.957  1.00  0.00    -0.047 N 
ATOM     49  O   UNL     1      28.698  34.509  13.452  1.00  0.00    -0.390 OA
ATOM     50  O   UNL     1      28.876  35.779  15.297  1.00  0.00    -0.390 OA
ENDBRANCH  45  48
ENDBRANCH  42  43
ENDBRANCH  39  42
ENDBRANCH  38  39
ENDBRANCH  36  38
ENDBRANCH  32  33
ENDBRANCH   1  32
TORSDOF 20
BEGIN_RES LYS A 131
REMARK  4 active torsions:
REMARK  status: ('A' for Active; 'I' for Inactive)
REMARK    1  A    between atoms: CA   and  CB  
REMARK    2  A    between atoms: CB   and  CG  
REMARK    3  A    between atoms: CG   and  CD  
REMARK    4  A    between atoms: CD   and  CE  
ROOT
ATOM      1  CA  LYS A 131      29.867  25.555  16.977  1.00 20.52     0.186 C 
ENDROOT
BRANCH   1   2
ATOM      2  CB  LYS A 131      28.345  25.722  17.026  1.00 20.94     0.034 C 
BRANCH   2   3
ATOM      3  CG  LYS A 131      27.602  24.400  16.914  1.00 22.96     0.005 C 
BRANCH   3   4
ATOM      4  CD  LYS A 131      26.164  24.521  17.337  1.00 24.33     0.041 C 
BRANCH   4   5
ATOM      5  CE  LYS A 131      25.823  23.396  18.309  1.00 26.91     0.338 C 
ATOM      6  NZ  LYS A 131      25.015  22.353  17.633  1.00 27.40     0.618 N 
ENDBRANCH   4   5
ENDBRANCH   3   4
ENDBRANCH   2   3
ENDBRANCH   1   2
END_RES LYS A 131
BEGIN_RES LYS A 135
REMARK  4 active torsions:
REMARK  status: ('A' for Active; 'I' for Inactive)
REMARK    5  A    between atoms: CA   and  CB  
REMARK    6  A    between atoms: CB   and  CG  
REMARK    7  A    between atoms: CG   and  CD  
REMARK    8  A    between atoms: CD   and  CE  
ROOT
ATOM      7  CA  LYS A 135      33.193  34.663   9.290  1.00 25.02     0.186 C 
ENDROOT
BRANCH   7   8
ATOM      8  CB  LYS A 135      32.060  35.360  10.034  1.00 26.63     0.034 C 
BRANCH   8   9
ATOM      9  CG  LYS A 135      30.802  35.503   9.218  1.00 29.45     0.005 C 
BRANCH   9  10
ATOM     10  CD  LYS A 135      30.126  34.154   9.030  1.00 32.00     0.041 C 
BRANCH  10  11
ATOM     11  CE  LYS A 135      28.667  34.335   8.661  1.00 34.25     0.338 C 
ATOM     12  NZ  LYS A 135      27.775  33.693   9.667  1.00 35.99     0.618 N 
ENDBRANCH  10  11
ENDBRANCH   9  10
ENDBRANCH   8   9
ENDBRANCH   7   8
END_RES LYS A 135
