REMARK VINA RESULT:    -4.842      2.422      4.415
REMARK INTER + INTRA:         -14.221
REMARK INTER:                  -8.567
REMARK INTRA:                  -5.655
REMARK UNBOUND:                -5.276
REMARK SMILES COc1ccc(Cn2cc(COC(=O)NC[C@@H](O)C(O)[C@@H]3O[C@@](O)(C(=O)O)C[C@H](O)[C@H]3NC(C)=O)nn2)cc1
REMARK SMILES IDX 15 1 13 2 14 3 16 5 17 6 19 7 21 8 23 9 28 10 22 11 29 12
REMARK SMILES IDX 31 13 24 14 25 16 26 17 27 18 30 20 32 22 33 23 34 25 35 26
REMARK SMILES IDX 20 27 18 29 12 31 11 32 10 33 9 34 36 35 8 36 37 37 7 38
REMARK SMILES IDX 6 39 5 40 38 41 4 42 39 43 3 44 2 45 1 46
REMARK H PARENT 15 4 24 15 27 19 30 21 32 24 20 28 18 30
REMARK Flexibility Score: inf
ROOT
ATOM      1  N   UNL     1      29.233  27.683  19.955  1.00  0.00    -0.319 N 
ATOM      2  C   UNL     1      27.890  27.455  19.582  1.00  0.00     0.407 C 
ATOM      3  O   UNL     1      27.062  26.868  20.319  1.00  0.00    -0.225 OA
ATOM      4  H   UNL     1      29.838  28.177  19.258  1.00  0.00     0.167 HD
ENDROOT
BRANCH   1   5
ATOM      5  C   UNL     1      29.801  27.288  21.204  1.00  0.00     0.154 C 
BRANCH   5   6
ATOM      6  C   UNL     1      31.242  26.910  21.148  1.00  0.00     0.165 C 
BRANCH   6   7
ATOM      7  C   UNL     1      32.018  27.381  22.357  1.00  0.00     0.176 C 
BRANCH   7   8
ATOM      8  C   UNL     1      31.964  28.849  22.588  1.00  0.00     0.178 C 
ATOM      9  C   UNL     1      31.535  30.893  21.589  1.00  0.00     0.269 C 
ATOM     10  C   UNL     1      32.706  31.542  22.269  1.00  0.00     0.112 C 
ATOM     11  O   UNL     1      31.613  29.545  21.433  1.00  0.00    -0.332 OA
ATOM     12  C   UNL     1      33.253  30.712  23.412  1.00  0.00     0.145 C 
ATOM     13  C   UNL     1      33.388  29.314  22.911  1.00  0.00     0.142 C 
BRANCH   9  14
ATOM     14  O   UNL     1      31.524  31.440  20.279  1.00  0.00    -0.357 OA
ATOM     15  H   UNL     1      30.739  31.037  19.836  1.00  0.00     0.214 HD
ENDBRANCH   9  14
BRANCH   9  16
ATOM     16  C   UNL     1      30.301  31.381  22.248  1.00  0.00     0.364 C 
ATOM     17  O   UNL     1      29.174  30.830  22.072  1.00  0.00    -0.246 OA
BRANCH  16  18
ATOM     18  O   UNL     1      30.312  32.481  23.105  1.00  0.00    -0.477 OA
ATOM     19  H   UNL     1      29.962  33.370  22.804  1.00  0.00     0.296 HD
ENDBRANCH  16  18
ENDBRANCH   9  16
BRANCH  12  20
ATOM     20  O   UNL     1      34.441  31.258  23.860  1.00  0.00    -0.391 OA
ATOM     21  H   UNL     1      35.127  31.146  23.185  1.00  0.00     0.211 HD
ENDBRANCH  12  20
BRANCH  13  22
ATOM     22  N   UNL     1      34.094  28.431  23.783  1.00  0.00    -0.348 N 
ATOM     23  C   UNL     1      35.478  28.211  23.768  1.00  0.00     0.217 C 
ATOM     24  H   UNL     1      33.530  27.900  24.501  1.00  0.00     0.163 HD
ATOM     25  C   UNL     1      36.092  27.265  24.729  1.00  0.00     0.114 C 
ATOM     26  O   UNL     1      36.193  28.805  22.955  1.00  0.00    -0.275 OA
ENDBRANCH  13  22
ENDBRANCH   7   8
BRANCH   7  27
ATOM     27  O   UNL     1      31.593  26.689  23.470  1.00  0.00    -0.388 OA
ATOM     28  H   UNL     1      31.217  27.238  24.193  1.00  0.00     0.211 HD
ENDBRANCH   7  27
ENDBRANCH   6   7
BRANCH   6  29
ATOM     29  O   UNL     1      31.854  27.249  19.977  1.00  0.00    -0.388 OA
ATOM     30  H   UNL     1      31.310  27.973  19.544  1.00  0.00     0.211 HD
ENDBRANCH   6  29
ENDBRANCH   5   6
ENDBRANCH   1   5
BRANCH   2  31
ATOM     31  O   UNL     1      27.437  27.898  18.325  1.00  0.00    -0.443 OA
BRANCH  31  32
ATOM     32  C   UNL     1      27.133  29.265  18.169  1.00  0.00     0.294 C 
BRANCH  32  33
ATOM     33  C   UNL     1      28.313  30.064  17.794  1.00  0.00     0.120 A 
ATOM     34  C   UNL     1      28.758  30.358  16.502  1.00  0.00     0.138 A 
ATOM     35  N   UNL     1      29.198  30.664  18.609  1.00  0.00    -0.132 NA
ATOM     36  N   UNL     1      29.866  31.108  16.587  1.00  0.00    -0.248 N 
ATOM     37  N   UNL     1      30.111  31.279  17.872  1.00  0.00    -0.067 NA
BRANCH  36  38
ATOM     38  C   UNL     1      30.657  31.638  15.508  1.00  0.00     0.181 C 
BRANCH  38  39
ATOM     39  C   UNL     1      30.750  33.112  15.577  1.00  0.00    -0.026 A 
ATOM     40  C   UNL     1      31.934  33.722  15.922  1.00  0.00     0.009 A 
ATOM     41  C   UNL     1      29.647  33.876  15.295  1.00  0.00     0.009 A 
ATOM     42  C   UNL     1      32.011  35.112  15.983  1.00  0.00     0.047 A 
ATOM     43  C   UNL     1      29.711  35.267  15.352  1.00  0.00     0.047 A 
ATOM     44  C   UNL     1      30.892  35.875  15.695  1.00  0.00     0.118 A 
BRANCH  44  45
ATOM     45  O   UNL     1      30.989  37.266  15.762  1.00  0.00    -0.497 OA
ATOM     46  C   UNL     1      31.106  37.897  17.026  1.00  0.00     0.278 C 
ENDBRANCH  44  45
ENDBRANCH  38  39
ENDBRANCH  36  38
ENDBRANCH  32  33
ENDBRANCH  31  32
ENDBRANCH   2  31
TORSDOF 17
BEGIN_RES LYS A 131
REMARK  4 active torsions:
REMARK  status: ('A' for Active; 'I' for Inactive)
REMARK    1  A    between atoms: CA   and  CB  
REMARK    2  A    between atoms: CB   and  CG  
REMARK    3  A    between atoms: CG   and  CD  
REMARK    4  A    between atoms: CD   and  CE  
ROOT
ATOM      1  CA  LYS A 131      29.867  25.555  16.977  1.00 20.52     0.186 C 
ENDROOT
BRANCH   1   2
ATOM      2  CB  LYS A 131      28.345  25.722  17.026  1.00 20.94     0.034 C 
BRANCH   2   3
ATOM      3  CG  LYS A 131      27.601  24.404  16.878  1.00 22.96     0.005 C 
BRANCH   3   4
ATOM      4  CD  LYS A 131      26.567  24.213  17.953  1.00 24.33     0.041 C 
BRANCH   4   5
ATOM      5  CE  LYS A 131      25.188  24.554  17.399  1.00 26.91     0.338 C 
ATOM      6  NZ  LYS A 131      24.529  25.579  18.242  1.00 27.40     0.618 N 
ENDBRANCH   4   5
ENDBRANCH   3   4
ENDBRANCH   2   3
ENDBRANCH   1   2
END_RES LYS A 131
BEGIN_RES LYS A 135
REMARK  4 active torsions:
REMARK  status: ('A' for Active; 'I' for Inactive)
REMARK    5  A    between atoms: CA   and  CB  
REMARK    6  A    between atoms: CB   and  CG  
REMARK    7  A    between atoms: CG   and  CD  
REMARK    8  A    between atoms: CD   and  CE  
ROOT
ATOM      7  CA  LYS A 135      33.193  34.663   9.290  1.00 25.02     0.186 C 
ENDROOT
BRANCH   7   8
ATOM      8  CB  LYS A 135      32.060  35.360  10.034  1.00 26.63     0.034 C 
BRANCH   8   9
ATOM      9  CG  LYS A 135      30.713  34.721   9.815  1.00 29.45     0.005 C 
BRANCH   9  10
ATOM     10  CD  LYS A 135      30.452  34.513   8.331  1.00 32.00     0.041 C 
BRANCH  10  11
ATOM     11  CE  LYS A 135      29.002  34.807   7.999  1.00 34.25     0.338 C 
ATOM     12  NZ  LYS A 135      28.084  34.141   8.965  1.00 35.99     0.618 N 
ENDBRANCH  10  11
ENDBRANCH   9  10
ENDBRANCH   8   9
ENDBRANCH   7   8
END_RES LYS A 135
