REMARK VINA RESULT:    -5.048      2.925      5.643
REMARK INTER + INTRA:         -14.973
REMARK INTER:                  -7.641
REMARK INTRA:                  -7.333
REMARK UNBOUND:                -5.794
REMARK SMILES CC(=O)N[C@@H]1[C@@H](O)C[C@](O)(C(=O)O)O[C@H]1C(O)[C@H](O)CNC(=O)OCc1cn(Cc2cc(Br)cc(Br)c2O)nn1
REMARK SMILES IDX 21 1 22 2 23 3 20 5 18 6 16 7 15 8 9 9 8 10 14 11 6 12 5 13
REMARK SMILES IDX 10 14 11 16 12 17 13 18 7 20 4 22 2 23 1 25 3 26 17 27 19 29
REMARK SMILES IDX 24 31 25 32 26 33 27 34 40 35 28 36 39 37 29 38 30 39 31 40
REMARK SMILES IDX 37 41 32 42 35 43 33 44 34 45 36 46 38 47
REMARK H PARENT 21 4 10 15 13 19 7 21 4 24 17 28 19 30 38 48
REMARK Flexibility Score: inf
ROOT
ATOM      1  N   UNL     1      28.662  35.038  19.566  1.00  0.00    -0.319 N 
ATOM      2  C   UNL     1      29.711  35.918  19.174  1.00  0.00     0.407 C 
ATOM      3  O   UNL     1      29.420  36.982  18.582  1.00  0.00    -0.225 OA
ATOM      4  H   UNL     1      28.929  34.165  20.053  1.00  0.00     0.167 HD
ENDROOT
BRANCH   1   5
ATOM      5  C   UNL     1      27.280  35.331  19.302  1.00  0.00     0.154 C 
BRANCH   5   6
ATOM      6  C   UNL     1      26.797  34.608  18.077  1.00  0.00     0.165 C 
BRANCH   6   7
ATOM      7  C   UNL     1      27.867  33.722  17.479  1.00  0.00     0.176 C 
BRANCH   7   8
ATOM      8  C   UNL     1      27.310  32.296  17.307  1.00  0.00     0.178 C 
ATOM      9  C   UNL     1      28.416  30.332  17.984  1.00  0.00     0.269 C 
ATOM     10  C   UNL     1      27.705  29.662  16.797  1.00  0.00     0.112 C 
ATOM     11  O   UNL     1      27.865  31.538  18.259  1.00  0.00    -0.332 OA
ATOM     12  C   UNL     1      28.049  30.568  15.625  1.00  0.00     0.145 C 
ATOM     13  C   UNL     1      27.387  31.887  15.898  1.00  0.00     0.142 C 
BRANCH   9  14
ATOM     14  O   UNL     1      29.754  30.363  17.645  1.00  0.00    -0.357 OA
ATOM     15  H   UNL     1      30.058  29.568  17.144  1.00  0.00     0.214 HD
ENDBRANCH   9  14
BRANCH   9  16
ATOM     16  C   UNL     1      28.257  29.473  19.184  1.00  0.00     0.364 C 
ATOM     17  O   UNL     1      27.098  29.225  19.600  1.00  0.00    -0.246 OA
BRANCH  16  18
ATOM     18  O   UNL     1      29.345  28.935  19.864  1.00  0.00    -0.477 OA
ATOM     19  H   UNL     1      29.903  29.610  20.406  1.00  0.00     0.296 HD
ENDBRANCH  16  18
ENDBRANCH   9  16
BRANCH  12  20
ATOM     20  O   UNL     1      29.430  30.688  15.481  1.00  0.00    -0.391 OA
ATOM     21  H   UNL     1      29.835  29.858  15.810  1.00  0.00     0.211 HD
ENDBRANCH  12  20
BRANCH  13  22
ATOM     22  N   UNL     1      26.082  31.849  15.238  1.00  0.00    -0.348 N 
ATOM     23  C   UNL     1      25.517  32.962  14.569  1.00  0.00     0.217 C 
ATOM     24  H   UNL     1      25.500  30.965  15.237  1.00  0.00     0.163 HD
ATOM     25  C   UNL     1      24.179  32.877  13.908  1.00  0.00     0.114 C 
ATOM     26  O   UNL     1      26.151  34.048  14.528  1.00  0.00    -0.275 OA
ENDBRANCH  13  22
ENDBRANCH   7   8
BRANCH   7  27
ATOM     27  O   UNL     1      28.418  34.211  16.320  1.00  0.00    -0.388 OA
ATOM     28  H   UNL     1      29.133  34.860  16.485  1.00  0.00     0.211 HD
ENDBRANCH   7  27
ENDBRANCH   6   7
BRANCH   6  29
ATOM     29  O   UNL     1      26.238  35.497  17.186  1.00  0.00    -0.388 OA
ATOM     30  H   UNL     1      25.273  35.607  17.275  1.00  0.00     0.211 HD
ENDBRANCH   6  29
ENDBRANCH   5   6
ENDBRANCH   1   5
BRANCH   2  31
ATOM     31  O   UNL     1      31.022  35.610  19.439  1.00  0.00    -0.443 OA
BRANCH  31  32
ATOM     32  C   UNL     1      31.524  34.292  19.311  1.00  0.00     0.294 C 
BRANCH  32  33
ATOM     33  C   UNL     1      31.536  33.924  17.871  1.00  0.00     0.120 A 
ATOM     34  C   UNL     1      32.021  34.690  16.819  1.00  0.00     0.138 A 
ATOM     35  N   UNL     1      31.093  32.800  17.277  1.00  0.00    -0.132 NA
ATOM     36  N   UNL     1      31.856  34.020  15.669  1.00  0.00    -0.248 N 
ATOM     37  N   UNL     1      31.278  32.848  15.977  1.00  0.00    -0.067 NA
BRANCH  36  38
ATOM     38  C   UNL     1      32.217  34.438  14.343  1.00  0.00     0.185 C 
BRANCH  38  39
ATOM     39  C   UNL     1      31.217  35.347  13.727  1.00  0.00     0.018 A 
ATOM     40  C   UNL     1      30.162  34.784  13.038  1.00  0.00     0.025 A 
ATOM     41  C   UNL     1      31.291  36.718  13.809  1.00  0.00     0.134 A 
ATOM     42  C   UNL     1      29.179  35.532  12.427  1.00  0.00     0.019 A 
ATOM     43  C   UNL     1      30.307  37.500  13.198  1.00  0.00     0.061 A 
ATOM     44  Br  UNL     1      27.737  34.729  11.486  1.00  0.00    -0.051 Br
ATOM     45  C   UNL     1      29.267  36.915  12.517  1.00  0.00     0.035 A 
ATOM     46  Br  UNL     1      30.487  39.405  13.361  1.00  0.00    -0.047 Br
BRANCH  41  47
ATOM     47  O   UNL     1      32.335  37.313  14.493  1.00  0.00    -0.506 OA
ATOM     48  H   UNL     1      32.951  36.738  15.051  1.00  0.00     0.293 HD
ENDBRANCH  41  47
ENDBRANCH  38  39
ENDBRANCH  36  38
ENDBRANCH  32  33
ENDBRANCH  31  32
ENDBRANCH   2  31
TORSDOF 17
BEGIN_RES LYS A 131
REMARK  4 active torsions:
REMARK  status: ('A' for Active; 'I' for Inactive)
REMARK    1  A    between atoms: CA   and  CB  
REMARK    2  A    between atoms: CB   and  CG  
REMARK    3  A    between atoms: CG   and  CD  
REMARK    4  A    between atoms: CD   and  CE  
ROOT
ATOM      1  CA  LYS A 131      29.867  25.555  16.977  1.00 20.52     0.186 C 
ENDROOT
BRANCH   1   2
ATOM      2  CB  LYS A 131      28.345  25.722  17.026  1.00 20.94     0.034 C 
BRANCH   2   3
ATOM      3  CG  LYS A 131      27.602  24.399  16.923  1.00 22.96     0.005 C 
BRANCH   3   4
ATOM      4  CD  LYS A 131      26.361  24.379  17.772  1.00 24.33     0.041 C 
BRANCH   4   5
ATOM      5  CE  LYS A 131      26.409  25.531  18.771  1.00 26.91     0.338 C 
ATOM      6  NZ  LYS A 131      25.180  25.551  19.599  1.00 27.40     0.618 N 
ENDBRANCH   4   5
ENDBRANCH   3   4
ENDBRANCH   2   3
ENDBRANCH   1   2
END_RES LYS A 131
BEGIN_RES LYS A 135
REMARK  4 active torsions:
REMARK  status: ('A' for Active; 'I' for Inactive)
REMARK    5  A    between atoms: CA   and  CB  
REMARK    6  A    between atoms: CB   and  CG  
REMARK    7  A    between atoms: CG   and  CD  
REMARK    8  A    between atoms: CD   and  CE  
ROOT
ATOM      7  CA  LYS A 135      33.193  34.663   9.290  1.00 25.02     0.186 C 
ENDROOT
BRANCH   7   8
ATOM      8  CB  LYS A 135      32.060  35.360  10.034  1.00 26.63     0.034 C 
BRANCH   8   9
ATOM      9  CG  LYS A 135      30.885  35.706   9.156  1.00 29.45     0.005 C 
BRANCH   9  10
ATOM     10  CD  LYS A 135      30.197  34.444   8.658  1.00 32.00     0.041 C 
BRANCH  10  11
ATOM     11  CE  LYS A 135      28.961  34.794   7.852  1.00 34.25     0.338 C 
ATOM     12  NZ  LYS A 135      28.678  36.254   7.911  1.00 35.99     0.618 N 
ENDBRANCH  10  11
ENDBRANCH   9  10
ENDBRANCH   8   9
ENDBRANCH   7   8
END_RES LYS A 135
