REMARK VINA RESULT:    -5.473      2.060      3.095
REMARK INTER + INTRA:         -14.975
REMARK INTER:                  -8.618
REMARK INTRA:                  -6.357
REMARK UNBOUND:                -5.502
REMARK SMILES CC(=O)N[C@@H]1[C@@H](O)C[C@](O)(C(=O)O)O[C@H]1C(O)[C@H](O)CNC(=O)OCc1cn([C@@H]2C[C@H]3CC[C@@H](C2)N3C)nn1
REMARK SMILES IDX 20 1 18 2 16 3 15 4 9 5 8 6 14 7 6 8 5 9 10 10 11 12 12 13
REMARK SMILES IDX 13 14 7 16 4 18 2 19 1 21 3 22 17 23 19 25 21 27 22 28 23 30
REMARK SMILES IDX 24 31 25 32 26 33 27 34 39 35 28 36 38 37 29 38 35 39 30 40
REMARK SMILES IDX 34 41 31 42 36 43 33 44 32 45 37 46
REMARK H PARENT 10 11 13 15 7 17 4 20 17 24 19 26 21 29
REMARK Flexibility Score: inf
ROOT
ATOM      1  C   UNL     1      28.611  26.771  23.235  1.00  0.00     0.154 C 
ENDROOT
BRANCH   1   2
ATOM      2  C   UNL     1      29.155  27.933  24.013  1.00  0.00     0.165 C 
BRANCH   2   3
ATOM      3  C   UNL     1      30.674  27.856  24.107  1.00  0.00     0.176 C 
BRANCH   3   4
ATOM      4  C   UNL     1      31.251  28.855  23.104  1.00  0.00     0.178 C 
ATOM      5  C   UNL     1      30.397  30.296  21.472  1.00  0.00     0.269 C 
ATOM      6  C   UNL     1      31.155  29.654  20.352  1.00  0.00     0.112 C 
ATOM      7  O   UNL     1      30.227  29.541  22.585  1.00  0.00    -0.332 OA
ATOM      8  C   UNL     1      31.846  28.382  20.707  1.00  0.00     0.145 C 
ATOM      9  C   UNL     1      32.213  28.214  22.144  1.00  0.00     0.142 C 
BRANCH   5  10
ATOM     10  O   UNL     1      29.114  30.598  21.002  1.00  0.00    -0.357 OA
ATOM     11  H   UNL     1      29.080  30.684  20.019  1.00  0.00     0.214 HD
ENDBRANCH   5  10
BRANCH   5  12
ATOM     12  C   UNL     1      30.991  31.585  21.885  1.00  0.00     0.364 C 
ATOM     13  O   UNL     1      32.136  31.893  21.495  1.00  0.00    -0.246 OA
BRANCH  12  14
ATOM     14  O   UNL     1      30.348  32.508  22.704  1.00  0.00    -0.477 OA
ATOM     15  H   UNL     1      30.809  33.401  22.938  1.00  0.00     0.296 HD
ENDBRANCH  12  14
ENDBRANCH   5  12
BRANCH   8  16
ATOM     16  O   UNL     1      31.025  27.330  20.275  1.00  0.00    -0.391 OA
ATOM     17  H   UNL     1      31.373  26.469  20.607  1.00  0.00     0.211 HD
ENDBRANCH   8  16
BRANCH   9  18
ATOM     18  N   UNL     1      33.578  28.535  22.461  1.00  0.00    -0.348 N 
ATOM     19  C   UNL     1      34.428  27.708  23.231  1.00  0.00     0.217 C 
ATOM     20  H   UNL     1      33.997  29.439  22.112  1.00  0.00     0.163 HD
ATOM     21  C   UNL     1      35.833  28.019  23.570  1.00  0.00     0.114 C 
ATOM     22  O   UNL     1      33.913  26.638  23.635  1.00  0.00    -0.275 OA
ENDBRANCH   9  18
ENDBRANCH   3   4
BRANCH   3  23
ATOM     23  O   UNL     1      31.150  26.579  23.864  1.00  0.00    -0.388 OA
ATOM     24  H   UNL     1      30.893  26.329  22.939  1.00  0.00     0.211 HD
ENDBRANCH   3  23
ENDBRANCH   2   3
BRANCH   2  25
ATOM     25  O   UNL     1      28.658  28.011  25.283  1.00  0.00    -0.388 OA
ATOM     26  H   UNL     1      28.532  27.093  25.663  1.00  0.00     0.211 HD
ENDBRANCH   2  25
ENDBRANCH   1   2
BRANCH   1  27
ATOM     27  N   UNL     1      28.639  26.981  21.828  1.00  0.00    -0.319 N 
ATOM     28  C   UNL     1      27.674  27.690  21.093  1.00  0.00     0.407 C 
ATOM     29  H   UNL     1      29.452  26.574  21.267  1.00  0.00     0.167 HD
ATOM     30  O   UNL     1      26.672  28.208  21.620  1.00  0.00    -0.225 OA
BRANCH  28  31
ATOM     31  O   UNL     1      27.837  27.828  19.701  1.00  0.00    -0.443 OA
BRANCH  31  32
ATOM     32  C   UNL     1      26.904  28.615  18.988  1.00  0.00     0.294 C 
BRANCH  32  33
ATOM     33  C   UNL     1      27.518  29.186  17.790  1.00  0.00     0.120 A 
ATOM     34  C   UNL     1      28.294  30.339  17.752  1.00  0.00     0.138 A 
ATOM     35  N   UNL     1      27.452  28.723  16.543  1.00  0.00    -0.132 NA
ATOM     36  N   UNL     1      28.668  30.532  16.481  1.00  0.00    -0.249 N 
ATOM     37  N   UNL     1      28.148  29.547  15.780  1.00  0.00    -0.067 NA
BRANCH  36  38
ATOM     38  C   UNL     1      29.481  31.595  15.948  1.00  0.00     0.112 C 
ATOM     39  C   UNL     1      28.636  32.866  15.871  1.00  0.00     0.046 C 
ATOM     40  C   UNL     1      30.594  31.841  16.943  1.00  0.00     0.046 C 
ATOM     41  C   UNL     1      29.543  34.025  15.556  1.00  0.00     0.058 C 
ATOM     42  C   UNL     1      31.289  33.131  16.651  1.00  0.00     0.058 C 
ATOM     43  N   UNL     1      30.432  34.275  16.675  1.00  0.00    -0.300 NA
ATOM     44  C   UNL     1      30.523  33.638  14.464  1.00  0.00     0.021 C 
ATOM     45  C   UNL     1      31.718  33.084  15.179  1.00  0.00     0.021 C 
ATOM     46  C   UNL     1      29.736  34.458  17.916  1.00  0.00     0.105 C 
ENDBRANCH  36  38
ENDBRANCH  32  33
ENDBRANCH  31  32
ENDBRANCH  28  31
ENDBRANCH   1  27
TORSDOF 15
BEGIN_RES LYS A 131
REMARK  4 active torsions:
REMARK  status: ('A' for Active; 'I' for Inactive)
REMARK    1  A    between atoms: CA   and  CB  
REMARK    2  A    between atoms: CB   and  CG  
REMARK    3  A    between atoms: CG   and  CD  
REMARK    4  A    between atoms: CD   and  CE  
ROOT
ATOM      1  CA  LYS A 131      29.867  25.555  16.977  1.00 20.52     0.186 C 
ENDROOT
BRANCH   1   2
ATOM      2  CB  LYS A 131      28.345  25.722  17.026  1.00 20.94     0.034 C 
BRANCH   2   3
ATOM      3  CG  LYS A 131      27.600  24.409  16.838  1.00 22.96     0.005 C 
BRANCH   3   4
ATOM      4  CD  LYS A 131      26.828  24.015  18.066  1.00 24.33     0.041 C 
BRANCH   4   5
ATOM      5  CE  LYS A 131      25.812  25.103  18.400  1.00 26.91     0.338 C 
ATOM      6  NZ  LYS A 131      25.549  25.137  19.858  1.00 27.40     0.618 N 
ENDBRANCH   4   5
ENDBRANCH   3   4
ENDBRANCH   2   3
ENDBRANCH   1   2
END_RES LYS A 131
BEGIN_RES LYS A 135
REMARK  4 active torsions:
REMARK  status: ('A' for Active; 'I' for Inactive)
REMARK    5  A    between atoms: CA   and  CB  
REMARK    6  A    between atoms: CB   and  CG  
REMARK    7  A    between atoms: CG   and  CD  
REMARK    8  A    between atoms: CD   and  CE  
ROOT
ATOM      7  CA  LYS A 135      33.193  34.663   9.290  1.00 25.02     0.186 C 
ENDROOT
BRANCH   7   8
ATOM      8  CB  LYS A 135      32.060  35.360  10.034  1.00 26.63     0.034 C 
BRANCH   8   9
ATOM      9  CG  LYS A 135      30.723  34.686   9.864  1.00 29.45     0.005 C 
BRANCH   9  10
ATOM     10  CD  LYS A 135      30.390  34.519   8.389  1.00 32.00     0.041 C 
BRANCH  10  11
ATOM     11  CE  LYS A 135      29.400  35.577   7.943  1.00 34.25     0.338 C 
ATOM     12  NZ  LYS A 135      28.067  34.978   7.656  1.00 35.99     0.618 N 
ENDBRANCH  10  11
ENDBRANCH   9  10
ENDBRANCH   8   9
ENDBRANCH   7   8
END_RES LYS A 135
