REMARK VINA RESULT:    -4.797      4.851      8.833
REMARK INTER + INTRA:         -14.300
REMARK INTER:                  -7.957
REMARK INTRA:                  -6.343
REMARK UNBOUND:                -5.578
REMARK SMILES CC(=O)N[C@@H]1[C@@H](O)C[C@](O)(C(=O)O)O[C@H]1C(O)[C@H](O)CNC(=O)OCc1cn(C(C)(C)C(=O)O)nn1
REMARK SMILES IDX 21 1 22 2 23 3 20 5 18 6 16 7 15 8 9 9 8 10 14 11 6 12 5 13
REMARK SMILES IDX 10 14 11 16 12 17 13 18 7 20 4 22 2 23 1 25 3 26 17 27 19 29
REMARK SMILES IDX 24 31 25 32 26 33 27 34 36 35 28 36 35 37 29 38 30 39 31 40
REMARK SMILES IDX 32 41 33 42 34 43
REMARK H PARENT 21 4 10 15 13 19 7 21 4 24 17 28 19 30 34 44
REMARK Flexibility Score: inf
ROOT
ATOM      1  N   UNL     1      25.753  29.230  18.065  1.00  0.00    -0.319 N 
ATOM      2  C   UNL     1      25.441  30.578  17.770  1.00  0.00     0.407 C 
ATOM      3  O   UNL     1      25.369  31.450  18.704  1.00  0.00    -0.225 OA
ATOM      4  H   UNL     1      25.812  28.532  17.302  1.00  0.00     0.167 HD
ENDROOT
BRANCH   1   5
ATOM      5  C   UNL     1      25.986  28.876  19.443  1.00  0.00     0.154 C 
BRANCH   5   6
ATOM      6  C   UNL     1      27.414  28.708  19.824  1.00  0.00     0.165 C 
BRANCH   6   7
ATOM      7  C   UNL     1      28.035  29.955  20.402  1.00  0.00     0.176 C 
BRANCH   7   8
ATOM      8  C   UNL     1      29.238  29.529  21.252  1.00  0.00     0.178 C 
ATOM      9  C   UNL     1      31.438  28.848  20.926  1.00  0.00     0.269 C 
ATOM     10  C   UNL     1      31.253  27.692  21.884  1.00  0.00     0.112 C 
ATOM     11  O   UNL     1      30.267  29.279  20.351  1.00  0.00    -0.332 OA
ATOM     12  C   UNL     1      29.850  27.166  21.790  1.00  0.00     0.145 C 
ATOM     13  C   UNL     1      28.879  28.298  22.057  1.00  0.00     0.142 C 
BRANCH   9  14
ATOM     14  O   UNL     1      32.236  28.361  19.879  1.00  0.00    -0.357 OA
ATOM     15  H   UNL     1      32.966  27.825  20.238  1.00  0.00     0.214 HD
ENDBRANCH   9  14
BRANCH   9  16
ATOM     16  C   UNL     1      32.171  29.954  21.580  1.00  0.00     0.364 C 
ATOM     17  O   UNL     1      32.886  29.727  22.576  1.00  0.00    -0.246 OA
BRANCH  16  18
ATOM     18  O   UNL     1      32.095  31.260  21.121  1.00  0.00    -0.477 OA
ATOM     19  H   UNL     1      32.902  31.761  20.776  1.00  0.00     0.296 HD
ENDBRANCH  16  18
ENDBRANCH   9  16
BRANCH  12  20
ATOM     20  O   UNL     1      29.590  26.517  20.607  1.00  0.00    -0.391 OA
ATOM     21  H   UNL     1      29.974  26.942  19.810  1.00  0.00     0.211 HD
ENDBRANCH  12  20
BRANCH  13  22
ATOM     22  N   UNL     1      28.948  28.576  23.491  1.00  0.00    -0.348 N 
ATOM     23  C   UNL     1      27.770  28.703  24.277  1.00  0.00     0.217 C 
ATOM     24  H   UNL     1      29.872  28.685  23.957  1.00  0.00     0.163 HD
ATOM     25  C   UNL     1      27.822  28.986  25.742  1.00  0.00     0.114 C 
ATOM     26  O   UNL     1      26.667  28.561  23.660  1.00  0.00    -0.275 OA
ENDBRANCH  13  22
ENDBRANCH   7   8
BRANCH   7  27
ATOM     27  O   UNL     1      28.381  30.910  19.488  1.00  0.00    -0.388 OA
ATOM     28  H   UNL     1      28.075  31.793  19.771  1.00  0.00     0.211 HD
ENDBRANCH   7  27
ENDBRANCH   6   7
BRANCH   6  29
ATOM     29  O   UNL     1      28.099  28.373  18.628  1.00  0.00    -0.388 OA
ATOM     30  H   UNL     1      28.353  29.223  18.166  1.00  0.00     0.211 HD
ENDBRANCH   6  29
ENDBRANCH   5   6
ENDBRANCH   1   5
BRANCH   2  31
ATOM     31  O   UNL     1      25.196  31.048  16.497  1.00  0.00    -0.443 OA
BRANCH  31  32
ATOM     32  C   UNL     1      26.105  30.786  15.413  1.00  0.00     0.294 C 
BRANCH  32  33
ATOM     33  C   UNL     1      27.482  31.028  15.914  1.00  0.00     0.120 A 
ATOM     34  C   UNL     1      28.113  32.261  15.969  1.00  0.00     0.139 A 
ATOM     35  N   UNL     1      28.386  30.157  16.402  1.00  0.00    -0.132 NA
ATOM     36  N   UNL     1      29.357  32.109  16.478  1.00  0.00    -0.235 N 
ATOM     37  N   UNL     1      29.487  30.819  16.730  1.00  0.00    -0.066 NA
BRANCH  36  38
ATOM     38  C   UNL     1      30.320  33.169  16.691  1.00  0.00     0.155 C 
ATOM     39  C   UNL     1      29.673  34.518  16.458  1.00  0.00     0.049 C 
ATOM     40  C   UNL     1      30.847  33.093  18.109  1.00  0.00     0.049 C 
BRANCH  38  41
ATOM     41  C   UNL     1      31.455  33.061  15.727  1.00  0.00     0.331 C 
ATOM     42  O   UNL     1      32.331  33.962  15.763  1.00  0.00    -0.250 OA
BRANCH  41  43
ATOM     43  O   UNL     1      31.561  32.021  14.824  1.00  0.00    -0.479 OA
ATOM     44  H   UNL     1      30.937  31.229  14.950  1.00  0.00     0.296 HD
ENDBRANCH  41  43
ENDBRANCH  38  41
ENDBRANCH  36  38
ENDBRANCH  32  33
ENDBRANCH  31  32
ENDBRANCH   2  31
TORSDOF 17
BEGIN_RES LYS A 131
REMARK  4 active torsions:
REMARK  status: ('A' for Active; 'I' for Inactive)
REMARK    1  A    between atoms: CA   and  CB  
REMARK    2  A    between atoms: CB   and  CG  
REMARK    3  A    between atoms: CG   and  CD  
REMARK    4  A    between atoms: CD   and  CE  
ROOT
ATOM      1  CA  LYS A 131      29.867  25.555  16.977  1.00 20.52     0.186 C 
ENDROOT
BRANCH   1   2
ATOM      2  CB  LYS A 131      28.345  25.722  17.026  1.00 20.94     0.034 C 
BRANCH   2   3
ATOM      3  CG  LYS A 131      27.601  24.403  16.885  1.00 22.96     0.005 C 
BRANCH   3   4
ATOM      4  CD  LYS A 131      26.150  24.528  17.257  1.00 24.33     0.041 C 
BRANCH   4   5
ATOM      5  CE  LYS A 131      25.971  24.183  18.732  1.00 26.91     0.338 C 
ATOM      6  NZ  LYS A 131      24.596  24.506  19.178  1.00 27.40     0.618 N 
ENDBRANCH   4   5
ENDBRANCH   3   4
ENDBRANCH   2   3
ENDBRANCH   1   2
END_RES LYS A 131
BEGIN_RES LYS A 135
REMARK  4 active torsions:
REMARK  status: ('A' for Active; 'I' for Inactive)
REMARK    5  A    between atoms: CA   and  CB  
REMARK    6  A    between atoms: CB   and  CG  
REMARK    7  A    between atoms: CG   and  CD  
REMARK    8  A    between atoms: CD   and  CE  
ROOT
ATOM      7  CA  LYS A 135      33.193  34.663   9.290  1.00 25.02     0.186 C 
ENDROOT
BRANCH   7   8
ATOM      8  CB  LYS A 135      32.060  35.360  10.034  1.00 26.63     0.034 C 
BRANCH   8   9
ATOM      9  CG  LYS A 135      30.761  35.380   9.271  1.00 29.45     0.005 C 
BRANCH   9  10
ATOM     10  CD  LYS A 135      29.803  34.331   9.815  1.00 32.00     0.041 C 
BRANCH  10  11
ATOM     11  CE  LYS A 135      28.578  34.217   8.928  1.00 34.25     0.338 C 
ATOM     12  NZ  LYS A 135      28.749  35.002   7.674  1.00 35.99     0.618 N 
ENDBRANCH  10  11
ENDBRANCH   9  10
ENDBRANCH   8   9
ENDBRANCH   7   8
END_RES LYS A 135
