REMARK VINA RESULT:    -4.685      1.741      3.251
REMARK INTER + INTRA:         -14.678
REMARK INTER:                  -9.232
REMARK INTRA:                  -5.445
REMARK UNBOUND:                -6.295
REMARK SMILES CC(=O)N[C@@H]1[C@@H](O)C[C@](O)(C(=O)O)O[C@H]1C(O)[C@H](O)CNC(=O)OCc1cn(Cc2cccc(Br)c2)nn1
REMARK SMILES IDX 21 1 22 2 23 3 20 5 18 6 16 7 15 8 9 9 8 10 14 11 6 12 5 13
REMARK SMILES IDX 10 14 11 16 12 17 13 18 7 20 4 22 2 23 1 25 3 26 17 27 19 29
REMARK SMILES IDX 24 31 25 32 26 33 27 34 38 35 28 36 37 37 29 38 30 39 31 40
REMARK SMILES IDX 36 41 32 42 34 43 33 44 35 45
REMARK H PARENT 21 4 10 15 13 19 7 21 4 24 17 28 19 30
REMARK Flexibility Score: inf
ROOT
ATOM      1  N   UNL     1      28.022  31.052  17.334  1.00  0.00    -0.319 N 
ATOM      2  C   UNL     1      27.512  30.030  18.169  1.00  0.00     0.407 C 
ATOM      3  O   UNL     1      28.246  29.492  19.060  1.00  0.00    -0.225 OA
ATOM      4  H   UNL     1      27.386  31.464  16.619  1.00  0.00     0.167 HD
ENDROOT
BRANCH   1   5
ATOM      5  C   UNL     1      29.389  31.447  17.537  1.00  0.00     0.154 C 
BRANCH   5   6
ATOM      6  C   UNL     1      30.247  31.139  16.300  1.00  0.00     0.165 C 
BRANCH   6   7
ATOM      7  C   UNL     1      31.037  32.373  16.041  1.00  0.00     0.176 C 
BRANCH   7   8
ATOM      8  C   UNL     1      30.248  33.632  15.827  1.00  0.00     0.178 C 
ATOM      9  C   UNL     1      28.772  34.440  14.207  1.00  0.00     0.269 C 
ATOM     10  C   UNL     1      29.272  35.832  14.543  1.00  0.00     0.112 C 
ATOM     11  O   UNL     1      29.731  33.512  14.532  1.00  0.00    -0.332 OA
ATOM     12  C   UNL     1      30.760  35.814  14.853  1.00  0.00     0.145 C 
ATOM     13  C   UNL     1      30.957  34.906  16.082  1.00  0.00     0.142 C 
BRANCH   9  14
ATOM     14  O   UNL     1      28.684  34.409  12.798  1.00  0.00    -0.357 OA
ATOM     15  H   UNL     1      27.788  34.170  12.493  1.00  0.00     0.214 HD
ENDBRANCH   9  14
BRANCH   9  16
ATOM     16  C   UNL     1      27.433  34.177  14.739  1.00  0.00     0.364 C 
ATOM     17  O   UNL     1      26.625  35.119  14.910  1.00  0.00    -0.246 OA
BRANCH  16  18
ATOM     18  O   UNL     1      26.991  32.906  15.077  1.00  0.00    -0.477 OA
ATOM     19  H   UNL     1      26.543  32.761  15.960  1.00  0.00     0.296 HD
ENDBRANCH  16  18
ENDBRANCH   9  16
BRANCH  12  20
ATOM     20  O   UNL     1      31.496  35.395  13.775  1.00  0.00    -0.391 OA
ATOM     21  H   UNL     1      32.346  34.967  14.112  1.00  0.00     0.211 HD
ENDBRANCH  12  20
BRANCH  13  22
ATOM     22  N   UNL     1      30.336  35.661  17.178  1.00  0.00    -0.348 N 
ATOM     23  C   UNL     1      31.098  36.123  18.284  1.00  0.00     0.217 C 
ATOM     24  H   UNL     1      29.319  35.890  17.196  1.00  0.00     0.163 HD
ATOM     25  C   UNL     1      30.440  36.894  19.400  1.00  0.00     0.114 C 
ATOM     26  O   UNL     1      32.318  35.911  18.374  1.00  0.00    -0.275 OA
ENDBRANCH  13  22
ENDBRANCH   7   8
BRANCH   7  27
ATOM     27  O   UNL     1      31.704  32.151  14.807  1.00  0.00    -0.388 OA
ATOM     28  H   UNL     1      32.665  32.338  15.007  1.00  0.00     0.211 HD
ENDBRANCH   7  27
ENDBRANCH   6   7
BRANCH   6  29
ATOM     29  O   UNL     1      29.346  30.808  15.292  1.00  0.00    -0.388 OA
ATOM     30  H   UNL     1      29.137  29.852  15.364  1.00  0.00     0.211 HD
ENDBRANCH   6  29
ENDBRANCH   5   6
ENDBRANCH   1   5
BRANCH   2  31
ATOM     31  O   UNL     1      26.212  29.555  18.080  1.00  0.00    -0.443 OA
BRANCH  31  32
ATOM     32  C   UNL     1      25.118  30.340  17.639  1.00  0.00     0.294 C 
BRANCH  32  33
ATOM     33  C   UNL     1      24.468  29.740  16.444  1.00  0.00     0.120 A 
ATOM     34  C   UNL     1      24.585  30.193  15.125  1.00  0.00     0.138 A 
ATOM     35  N   UNL     1      23.657  28.670  16.368  1.00  0.00    -0.132 NA
ATOM     36  N   UNL     1      23.857  29.396  14.337  1.00  0.00    -0.248 N 
ATOM     37  N   UNL     1      23.305  28.482  15.112  1.00  0.00    -0.067 NA
BRANCH  36  38
ATOM     38  C   UNL     1      23.669  29.469  12.905  1.00  0.00     0.181 C 
BRANCH  38  39
ATOM     39  C   UNL     1      22.258  29.813  12.590  1.00  0.00    -0.025 A 
ATOM     40  C   UNL     1      21.811  31.115  12.652  1.00  0.00     0.006 A 
ATOM     41  C   UNL     1      21.377  28.831  12.231  1.00  0.00     0.021 A 
ATOM     42  C   UNL     1      20.484  31.440  12.357  1.00  0.00     0.002 A 
ATOM     43  C   UNL     1      20.051  29.144  11.934  1.00  0.00     0.018 A 
ATOM     44  C   UNL     1      19.606  30.454  11.998  1.00  0.00     0.016 A 
ATOM     45  Br  UNL     1      18.856  27.753  11.439  1.00  0.00    -0.051 Br
ENDBRANCH  38  39
ENDBRANCH  36  38
ENDBRANCH  32  33
ENDBRANCH  31  32
ENDBRANCH   2  31
TORSDOF 16
BEGIN_RES LYS A 131
REMARK  4 active torsions:
REMARK  status: ('A' for Active; 'I' for Inactive)
REMARK    1  A    between atoms: CA   and  CB  
REMARK    2  A    between atoms: CB   and  CG  
REMARK    3  A    between atoms: CG   and  CD  
REMARK    4  A    between atoms: CD   and  CE  
ROOT
ATOM      1  CA  LYS A 131      29.867  25.555  16.977  1.00 20.52     0.186 C 
ENDROOT
BRANCH   1   2
ATOM      2  CB  LYS A 131      28.345  25.722  17.026  1.00 20.94     0.034 C 
BRANCH   2   3
ATOM      3  CG  LYS A 131      27.599  24.455  16.637  1.00 22.96     0.005 C 
BRANCH   3   4
ATOM      4  CD  LYS A 131      27.000  23.762  17.829  1.00 24.33     0.041 C 
BRANCH   4   5
ATOM      5  CE  LYS A 131      26.066  24.721  18.560  1.00 26.91     0.338 C 
ATOM      6  NZ  LYS A 131      24.807  24.900  17.799  1.00 27.40     0.618 N 
ENDBRANCH   4   5
ENDBRANCH   3   4
ENDBRANCH   2   3
ENDBRANCH   1   2
END_RES LYS A 131
BEGIN_RES LYS A 135
REMARK  4 active torsions:
REMARK  status: ('A' for Active; 'I' for Inactive)
REMARK    5  A    between atoms: CA   and  CB  
REMARK    6  A    between atoms: CB   and  CG  
REMARK    7  A    between atoms: CG   and  CD  
REMARK    8  A    between atoms: CD   and  CE  
ROOT
ATOM      7  CA  LYS A 135      33.193  34.663   9.290  1.00 25.02     0.186 C 
ENDROOT
BRANCH   7   8
ATOM      8  CB  LYS A 135      32.060  35.360  10.034  1.00 26.63     0.034 C 
BRANCH   8   9
ATOM      9  CG  LYS A 135      30.721  34.691   9.856  1.00 29.45     0.005 C 
BRANCH   9  10
ATOM     10  CD  LYS A 135      30.290  34.734   8.399  1.00 32.00     0.041 C 
BRANCH  10  11
ATOM     11  CE  LYS A 135      28.789  34.545   8.282  1.00 34.25     0.338 C 
ATOM     12  NZ  LYS A 135      28.251  33.793   9.449  1.00 35.99     0.618 N 
ENDBRANCH  10  11
ENDBRANCH   9  10
ENDBRANCH   8   9
ENDBRANCH   7   8
END_RES LYS A 135
