REMARK VINA RESULT:    -4.213      1.739      1.989
REMARK INTER + INTRA:         -13.674
REMARK INTER:                  -9.964
REMARK INTRA:                  -3.710
REMARK UNBOUND:                -6.136
REMARK SMILES CC(=O)N[C@@H]1[C@@H](O)C[C@](O)(C(=O)O)O[C@H]1C(O)[C@H](O)CNC(=O)OCc1cn(Cc2ccsc2)nn1
REMARK SMILES IDX 21 1 22 2 23 3 20 5 18 6 16 7 15 8 9 9 8 10 14 11 6 12 5 13
REMARK SMILES IDX 10 14 11 16 12 17 13 18 7 20 4 22 2 23 1 25 3 26 17 27 19 29
REMARK SMILES IDX 24 31 25 32 26 33 27 34 36 35 28 36 35 37 29 38 30 39 31 40
REMARK SMILES IDX 34 41 32 42 33 43
REMARK H PARENT 21 4 10 15 13 19 7 21 4 24 17 28 19 30
REMARK Flexibility Score: inf
ROOT
ATOM      1  N   UNL     1      27.021  36.965  13.297  1.00  0.00    -0.319 N 
ATOM      2  C   UNL     1      26.899  37.166  14.691  1.00  0.00     0.407 C 
ATOM      3  O   UNL     1      25.774  37.047  15.228  1.00  0.00    -0.225 OA
ATOM      4  H   UNL     1      28.004  37.077  12.895  1.00  0.00     0.167 HD
ENDROOT
BRANCH   1   5
ATOM      5  C   UNL     1      25.924  36.629  12.415  1.00  0.00     0.154 C 
BRANCH   5   6
ATOM      6  C   UNL     1      26.475  36.052  11.152  1.00  0.00     0.165 C 
BRANCH   6   7
ATOM      7  C   UNL     1      26.240  36.910   9.927  1.00  0.00     0.176 C 
BRANCH   7   8
ATOM      8  C   UNL     1      27.011  36.346   8.782  1.00  0.00     0.178 C 
ATOM      9  C   UNL     1      29.135  35.873   8.000  1.00  0.00     0.269 C 
ATOM     10  C   UNL     1      28.381  35.482   6.752  1.00  0.00     0.112 C 
ATOM     11  O   UNL     1      28.312  36.010   9.101  1.00  0.00    -0.332 OA
ATOM     12  C   UNL     1      27.315  36.458   6.377  1.00  0.00     0.145 C 
ATOM     13  C   UNL     1      26.994  37.310   7.587  1.00  0.00     0.142 C 
BRANCH   9  14
ATOM     14  O   UNL     1      29.954  36.983   7.789  1.00  0.00    -0.357 OA
ATOM     15  H   UNL     1      29.428  37.809   7.890  1.00  0.00     0.214 HD
ENDBRANCH   9  14
BRANCH   9  16
ATOM     16  C   UNL     1      30.060  34.722   8.303  1.00  0.00     0.364 C 
ATOM     17  O   UNL     1      29.718  33.737   8.969  1.00  0.00    -0.246 OA
BRANCH  16  18
ATOM     18  O   UNL     1      31.365  34.763   7.814  1.00  0.00    -0.477 OA
ATOM     19  H   UNL     1      32.160  35.028   8.382  1.00  0.00     0.296 HD
ENDBRANCH  16  18
ENDBRANCH   9  16
BRANCH  12  20
ATOM     20  O   UNL     1      27.607  37.209   5.260  1.00  0.00    -0.391 OA
ATOM     21  H   UNL     1      27.194  38.127   5.309  1.00  0.00     0.211 HD
ENDBRANCH  12  20
BRANCH  13  22
ATOM     22  N   UNL     1      25.709  37.952   7.491  1.00  0.00    -0.348 N 
ATOM     23  C   UNL     1      25.599  39.311   7.054  1.00  0.00     0.217 C 
ATOM     24  H   UNL     1      24.821  37.461   7.734  1.00  0.00     0.163 HD
ATOM     25  C   UNL     1      24.330  40.033   6.931  1.00  0.00     0.114 C 
ATOM     26  O   UNL     1      26.671  39.932   6.751  1.00  0.00    -0.275 OA
ENDBRANCH  13  22
ENDBRANCH   7   8
BRANCH   7  27
ATOM     27  O   UNL     1      26.716  38.184  10.244  1.00  0.00    -0.388 OA
ATOM     28  H   UNL     1      26.553  38.795   9.484  1.00  0.00     0.211 HD
ENDBRANCH   7  27
ENDBRANCH   6   7
BRANCH   6  29
ATOM     29  O   UNL     1      25.804  34.840  10.917  1.00  0.00    -0.388 OA
ATOM     30  H   UNL     1      26.417  34.097  10.729  1.00  0.00     0.211 HD
ENDBRANCH   6  29
ENDBRANCH   5   6
ENDBRANCH   1   5
BRANCH   2  31
ATOM     31  O   UNL     1      28.041  37.493  15.449  1.00  0.00    -0.443 OA
BRANCH  31  32
ATOM     32  C   UNL     1      29.104  38.083  14.714  1.00  0.00     0.294 C 
BRANCH  32  33
ATOM     33  C   UNL     1      30.319  37.293  14.956  1.00  0.00     0.120 A 
ATOM     34  C   UNL     1      30.496  35.929  14.784  1.00  0.00     0.138 A 
ATOM     35  N   UNL     1      31.501  37.774  15.397  1.00  0.00    -0.132 NA
ATOM     36  N   UNL     1      31.764  35.665  15.129  1.00  0.00    -0.248 N 
ATOM     37  N   UNL     1      32.376  36.774  15.500  1.00  0.00    -0.067 NA
BRANCH  36  38
ATOM     38  C   UNL     1      32.373  34.364  15.101  1.00  0.00     0.182 C 
BRANCH  38  39
ATOM     39  C   UNL     1      31.596  33.390  15.986  1.00  0.00    -0.016 A 
ATOM     40  C   UNL     1      31.098  32.254  15.510  1.00  0.00     0.017 A 
ATOM     41  C   UNL     1      31.422  33.722  17.310  1.00  0.00     0.070 A 
ATOM     42  C   UNL     1      30.410  31.411  16.340  1.00  0.00     0.065 A 
ATOM     43  S   UNL     1      30.467  32.285  17.918  1.00  0.00    -0.152 S 
ENDBRANCH  38  39
ENDBRANCH  36  38
ENDBRANCH  32  33
ENDBRANCH  31  32
ENDBRANCH   2  31
TORSDOF 16
BEGIN_RES LYS A 131
REMARK  4 active torsions:
REMARK  status: ('A' for Active; 'I' for Inactive)
REMARK    1  A    between atoms: CA   and  CB  
REMARK    2  A    between atoms: CB   and  CG  
REMARK    3  A    between atoms: CG   and  CD  
REMARK    4  A    between atoms: CD   and  CE  
ROOT
ATOM      1  CA  LYS A 131      29.867  25.555  16.977  1.00 20.52     0.186 C 
ENDROOT
BRANCH   1   2
ATOM      2  CB  LYS A 131      28.345  25.722  17.026  1.00 20.94     0.034 C 
BRANCH   2   3
ATOM      3  CG  LYS A 131      27.600  24.417  16.794  1.00 22.96     0.005 C 
BRANCH   3   4
ATOM      4  CD  LYS A 131      26.924  23.921  18.042  1.00 24.33     0.041 C 
BRANCH   4   5
ATOM      5  CE  LYS A 131      25.419  24.144  17.929  1.00 26.91     0.338 C 
ATOM      6  NZ  LYS A 131      24.769  22.981  17.281  1.00 27.40     0.618 N 
ENDBRANCH   4   5
ENDBRANCH   3   4
ENDBRANCH   2   3
ENDBRANCH   1   2
END_RES LYS A 131
BEGIN_RES LYS A 135
REMARK  4 active torsions:
REMARK  status: ('A' for Active; 'I' for Inactive)
REMARK    5  A    between atoms: CA   and  CB  
REMARK    6  A    between atoms: CB   and  CG  
REMARK    7  A    between atoms: CG   and  CD  
REMARK    8  A    between atoms: CD   and  CE  
ROOT
ATOM      7  CA  LYS A 135      33.193  34.663   9.290  1.00 25.02     0.186 C 
ENDROOT
BRANCH   7   8
ATOM      8  CB  LYS A 135      32.060  35.360  10.034  1.00 26.63     0.034 C 
BRANCH   8   9
ATOM      9  CG  LYS A 135      32.365  35.624  11.486  1.00 29.45     0.005 C 
BRANCH   9  10
ATOM     10  CD  LYS A 135      32.251  37.108  11.797  1.00 32.00     0.041 C 
BRANCH  10  11
ATOM     11  CE  LYS A 135      31.865  37.885  10.553  1.00 34.25     0.338 C 
ATOM     12  NZ  LYS A 135      31.488  39.286  10.891  1.00 35.99     0.618 N 
ENDBRANCH  10  11
ENDBRANCH   9  10
ENDBRANCH   8   9
ENDBRANCH   7   8
END_RES LYS A 135
