REMARK VINA RESULT:    -5.253      1.844      3.461
REMARK INTER + INTRA:         -14.918
REMARK INTER:                  -9.178
REMARK INTRA:                  -5.739
REMARK UNBOUND:                -5.212
REMARK SMILES CC(=O)N[C@@H]1[C@@H](O)C[C@](O)(C(=O)O)O[C@H]1C(O)[C@H](O)CNC(=O)OCc1cn(Cc2cccc(C#N)c2)nn1
REMARK SMILES IDX 21 1 22 2 23 3 20 5 18 6 16 7 15 8 9 9 8 10 14 11 6 12 5 13
REMARK SMILES IDX 10 14 11 16 12 17 13 18 7 20 4 22 2 23 1 25 3 26 17 27 19 29
REMARK SMILES IDX 24 31 25 32 26 33 27 34 39 35 28 36 38 37 29 38 30 39 31 40
REMARK SMILES IDX 37 41 32 42 34 43 33 44 35 45 36 46
REMARK H PARENT 21 4 10 15 13 19 7 21 4 24 17 28 19 30
REMARK Flexibility Score: inf
ROOT
ATOM      1  N   UNL     1      26.292  29.714  19.176  1.00  0.00    -0.319 N 
ATOM      2  C   UNL     1      26.251  28.439  18.600  1.00  0.00     0.407 C 
ATOM      3  O   UNL     1      27.278  27.732  18.540  1.00  0.00    -0.225 OA
ATOM      4  H   UNL     1      25.375  30.255  19.195  1.00  0.00     0.167 HD
ENDROOT
BRANCH   1   5
ATOM      5  C   UNL     1      27.480  30.308  19.729  1.00  0.00     0.154 C 
BRANCH   5   6
ATOM      6  C   UNL     1      28.352  30.956  18.690  1.00  0.00     0.165 C 
BRANCH   6   7
ATOM      7  C   UNL     1      27.644  31.586  17.555  1.00  0.00     0.176 C 
BRANCH   7   8
ATOM      8  C   UNL     1      28.505  32.516  16.685  1.00  0.00     0.178 C 
ATOM      9  C   UNL     1      30.516  33.586  16.668  1.00  0.00     0.269 C 
ATOM     10  C   UNL     1      29.840  34.942  16.660  1.00  0.00     0.112 C 
ATOM     11  O   UNL     1      29.675  32.710  17.303  1.00  0.00    -0.332 OA
ATOM     12  C   UNL     1      28.547  34.902  15.891  1.00  0.00     0.145 C 
ATOM     13  C   UNL     1      27.732  33.677  16.187  1.00  0.00     0.142 C 
BRANCH   9  14
ATOM     14  O   UNL     1      31.712  33.711  17.420  1.00  0.00    -0.357 OA
ATOM     15  H   UNL     1      31.431  33.510  18.358  1.00  0.00     0.214 HD
ENDBRANCH   9  14
BRANCH   9  16
ATOM     16  C   UNL     1      30.922  33.233  15.304  1.00  0.00     0.364 C 
ATOM     17  O   UNL     1      31.061  34.096  14.406  1.00  0.00    -0.246 OA
BRANCH  16  18
ATOM     18  O   UNL     1      31.183  31.910  14.893  1.00  0.00    -0.477 OA
ATOM     19  H   UNL     1      30.382  31.419  14.489  1.00  0.00     0.296 HD
ENDBRANCH  16  18
ENDBRANCH   9  16
BRANCH  12  20
ATOM     20  O   UNL     1      27.828  36.051  16.217  1.00  0.00    -0.391 OA
ATOM     21  H   UNL     1      28.296  36.873  15.960  1.00  0.00     0.211 HD
ENDBRANCH  12  20
BRANCH  13  22
ATOM     22  N   UNL     1      26.971  33.326  15.004  1.00  0.00    -0.348 N 
ATOM     23  C   UNL     1      25.698  33.930  14.695  1.00  0.00     0.217 C 
ATOM     24  H   UNL     1      27.280  32.616  14.292  1.00  0.00     0.163 HD
ATOM     25  C   UNL     1      24.948  33.534  13.462  1.00  0.00     0.114 C 
ATOM     26  O   UNL     1      25.213  34.789  15.458  1.00  0.00    -0.275 OA
ENDBRANCH  13  22
ENDBRANCH   7   8
BRANCH   7  27
ATOM     27  O   UNL     1      26.532  32.335  17.945  1.00  0.00    -0.388 OA
ATOM     28  H   UNL     1      25.690  32.015  17.539  1.00  0.00     0.211 HD
ENDBRANCH   7  27
ENDBRANCH   6   7
BRANCH   6  29
ATOM     29  O   UNL     1      29.356  30.051  18.348  1.00  0.00    -0.388 OA
ATOM     30  H   UNL     1      30.187  30.564  18.198  1.00  0.00     0.211 HD
ENDBRANCH   6  29
ENDBRANCH   5   6
ENDBRANCH   1   5
BRANCH   2  31
ATOM     31  O   UNL     1      25.086  27.890  18.065  1.00  0.00    -0.443 OA
BRANCH  31  32
ATOM     32  C   UNL     1      24.032  28.754  17.724  1.00  0.00     0.294 C 
BRANCH  32  33
ATOM     33  C   UNL     1      24.289  29.317  16.383  1.00  0.00     0.120 A 
ATOM     34  C   UNL     1      23.674  28.997  15.193  1.00  0.00     0.138 A 
ATOM     35  N   UNL     1      25.193  30.268  16.087  1.00  0.00    -0.132 NA
ATOM     36  N   UNL     1      24.214  29.754  14.220  1.00  0.00    -0.248 N 
ATOM     37  N   UNL     1      25.132  30.511  14.808  1.00  0.00    -0.067 NA
BRANCH  36  38
ATOM     38  C   UNL     1      23.924  29.816  12.812  1.00  0.00     0.181 C 
BRANCH  38  39
ATOM     39  C   UNL     1      22.455  30.021  12.583  1.00  0.00    -0.025 A 
ATOM     40  C   UNL     1      21.915  31.283  12.686  1.00  0.00     0.006 A 
ATOM     41  C   UNL     1      21.623  28.981  12.264  1.00  0.00     0.025 A 
ATOM     42  C   UNL     1      20.547  31.482  12.466  1.00  0.00     0.002 A 
ATOM     43  C   UNL     1      20.272  29.140  12.040  1.00  0.00     0.052 A 
ATOM     44  C   UNL     1      19.733  30.402  12.143  1.00  0.00     0.019 A 
BRANCH  43  45
ATOM     45  C   UNL     1      19.382  28.068  11.705  1.00  0.00     0.099 C 
ATOM     46  N   UNL     1      18.651  27.205  11.416  1.00  0.00    -0.192 NA
ENDBRANCH  43  45
ENDBRANCH  38  39
ENDBRANCH  36  38
ENDBRANCH  32  33
ENDBRANCH  31  32
ENDBRANCH   2  31
TORSDOF 17
BEGIN_RES LYS A 131
REMARK  4 active torsions:
REMARK  status: ('A' for Active; 'I' for Inactive)
REMARK    1  A    between atoms: CA   and  CB  
REMARK    2  A    between atoms: CB   and  CG  
REMARK    3  A    between atoms: CG   and  CD  
REMARK    4  A    between atoms: CD   and  CE  
ROOT
ATOM      1  CA  LYS A 131      29.867  25.555  16.977  1.00 20.52     0.186 C 
ENDROOT
BRANCH   1   2
ATOM      2  CB  LYS A 131      28.345  25.722  17.026  1.00 20.94     0.034 C 
BRANCH   2   3
ATOM      3  CG  LYS A 131      27.599  24.437  16.700  1.00 22.96     0.005 C 
BRANCH   3   4
ATOM      4  CD  LYS A 131      27.036  23.781  17.930  1.00 24.33     0.041 C 
BRANCH   4   5
ATOM      5  CE  LYS A 131      25.663  24.371  18.239  1.00 26.91     0.338 C 
ATOM      6  NZ  LYS A 131      25.617  24.879  19.630  1.00 27.40     0.618 N 
ENDBRANCH   4   5
ENDBRANCH   3   4
ENDBRANCH   2   3
ENDBRANCH   1   2
END_RES LYS A 131
BEGIN_RES LYS A 135
REMARK  4 active torsions:
REMARK  status: ('A' for Active; 'I' for Inactive)
REMARK    5  A    between atoms: CA   and  CB  
REMARK    6  A    between atoms: CB   and  CG  
REMARK    7  A    between atoms: CG   and  CD  
REMARK    8  A    between atoms: CD   and  CE  
ROOT
ATOM      7  CA  LYS A 135      33.193  34.663   9.290  1.00 25.02     0.186 C 
ENDROOT
BRANCH   7   8
ATOM      8  CB  LYS A 135      32.060  35.360  10.034  1.00 26.63     0.034 C 
BRANCH   8   9
ATOM      9  CG  LYS A 135      30.779  35.439   9.244  1.00 29.45     0.005 C 
BRANCH   9  10
ATOM     10  CD  LYS A 135      30.227  34.047   8.977  1.00 32.00     0.041 C 
BRANCH  10  11
ATOM     11  CE  LYS A 135      28.728  34.015   9.210  1.00 34.25     0.338 C 
ATOM     12  NZ  LYS A 135      28.086  35.276   8.745  1.00 35.99     0.618 N 
ENDBRANCH  10  11
ENDBRANCH   9  10
ENDBRANCH   8   9
ENDBRANCH   7   8
END_RES LYS A 135
