REMARK VINA RESULT:    -3.189      5.264      9.837
REMARK INTER + INTRA:         -13.370
REMARK INTER:                  -7.169
REMARK INTRA:                  -6.201
REMARK UNBOUND:                -7.572
REMARK SMILES CC(=O)N[C@@H]1[C@@H](O)C[C@](O)(C(=O)O)O[C@H]1C(O)[C@H](O)CNC(=O)OCc1cn(CCO)nn1
REMARK SMILES IDX 21 1 22 2 23 3 20 5 18 6 16 7 15 8 9 9 8 10 14 11 6 12 5 13
REMARK SMILES IDX 10 14 11 16 12 17 13 18 7 20 4 22 2 23 1 25 3 26 17 27 19 29
REMARK SMILES IDX 24 31 25 32 26 33 27 34 33 35 28 36 32 37 29 38 30 39 31 40
REMARK H PARENT 21 4 10 15 13 19 7 21 4 24 17 28 19 30 31 41
REMARK Flexibility Score: inf
ROOT
ATOM      1  N   UNL     1      31.035  35.377  14.899  1.00  0.00    -0.319 N 
ATOM      2  C   UNL     1      30.368  35.360  13.669  1.00  0.00     0.407 C 
ATOM      3  O   UNL     1      30.639  34.502  12.832  1.00  0.00    -0.225 OA
ATOM      4  H   UNL     1      30.728  36.167  15.560  1.00  0.00     0.167 HD
ENDROOT
BRANCH   1   5
ATOM      5  C   UNL     1      32.041  34.519  15.394  1.00  0.00     0.154 C 
BRANCH   5   6
ATOM      6  C   UNL     1      31.697  33.637  16.553  1.00  0.00     0.165 C 
BRANCH   6   7
ATOM      7  C   UNL     1      31.121  32.323  16.120  1.00  0.00     0.176 C 
BRANCH   7   8
ATOM      8  C   UNL     1      29.689  32.067  16.330  1.00  0.00     0.178 C 
ATOM      9  C   UNL     1      27.544  32.896  16.177  1.00  0.00     0.269 C 
ATOM     10  C   UNL     1      27.201  31.421  16.196  1.00  0.00     0.112 C 
ATOM     11  O   UNL     1      28.905  33.146  16.006  1.00  0.00    -0.332 OA
ATOM     12  C   UNL     1      27.935  30.722  17.333  1.00  0.00     0.145 C 
ATOM     13  C   UNL     1      29.244  31.481  17.626  1.00  0.00     0.142 C 
BRANCH   9  14
ATOM     14  O   UNL     1      27.179  33.498  17.378  1.00  0.00    -0.357 OA
ATOM     15  H   UNL     1      26.890  32.849  18.059  1.00  0.00     0.214 HD
ENDBRANCH   9  14
BRANCH   9  16
ATOM     16  C   UNL     1      26.854  33.590  15.066  1.00  0.00     0.364 C 
ATOM     17  O   UNL     1      25.621  33.835  15.075  1.00  0.00    -0.246 OA
BRANCH  16  18
ATOM     18  O   UNL     1      27.588  33.991  13.965  1.00  0.00    -0.477 OA
ATOM     19  H   UNL     1      27.116  34.123  13.058  1.00  0.00     0.296 HD
ENDBRANCH  16  18
ENDBRANCH   9  16
BRANCH  12  20
ATOM     20  O   UNL     1      27.119  30.702  18.456  1.00  0.00    -0.391 OA
ATOM     21  H   UNL     1      26.577  31.534  18.433  1.00  0.00     0.211 HD
ENDBRANCH  12  20
BRANCH  13  22
ATOM     22  N   UNL     1      30.186  30.556  18.221  1.00  0.00    -0.348 N 
ATOM     23  C   UNL     1      30.332  30.547  19.632  1.00  0.00     0.217 C 
ATOM     24  H   UNL     1      30.760  29.896  17.640  1.00  0.00     0.163 HD
ATOM     25  C   UNL     1      31.275  29.633  20.332  1.00  0.00     0.114 C 
ATOM     26  O   UNL     1      29.648  31.333  20.326  1.00  0.00    -0.275 OA
ENDBRANCH  13  22
ENDBRANCH   7   8
BRANCH   7  27
ATOM     27  O   UNL     1      31.421  32.282  14.708  1.00  0.00    -0.388 OA
ATOM     28  H   UNL     1      32.237  32.789  14.556  1.00  0.00     0.211 HD
ENDBRANCH   7  27
ENDBRANCH   6   7
BRANCH   6  29
ATOM     29  O   UNL     1      30.949  34.284  17.479  1.00  0.00    -0.388 OA
ATOM     30  H   UNL     1      31.439  34.814  18.138  1.00  0.00     0.211 HD
ENDBRANCH   6  29
ENDBRANCH   5   6
ENDBRANCH   1   5
BRANCH   2  31
ATOM     31  O   UNL     1      29.389  36.300  13.356  1.00  0.00    -0.443 OA
BRANCH  31  32
ATOM     32  C   UNL     1      29.120  36.681  12.024  1.00  0.00     0.294 C 
BRANCH  32  33
ATOM     33  C   UNL     1      27.924  35.955  11.533  1.00  0.00     0.120 A 
ATOM     34  C   UNL     1      26.649  36.444  11.396  1.00  0.00     0.138 A 
ATOM     35  N   UNL     1      27.890  34.690  11.139  1.00  0.00    -0.132 NA
ATOM     36  N   UNL     1      25.910  35.427  10.918  1.00  0.00    -0.250 N 
ATOM     37  N   UNL     1      26.662  34.350  10.759  1.00  0.00    -0.067 NA
BRANCH  36  38
ATOM     38  C   UNL     1      24.494  35.516  10.627  1.00  0.00     0.174 C 
BRANCH  38  39
ATOM     39  C   UNL     1      23.714  35.088  11.868  1.00  0.00     0.179 C 
BRANCH  39  40
ATOM     40  O   UNL     1      24.354  33.967  12.435  1.00  0.00    -0.394 OA
ATOM     41  H   UNL     1      24.395  33.223  11.760  1.00  0.00     0.210 HD
ENDBRANCH  39  40
ENDBRANCH  38  39
ENDBRANCH  36  38
ENDBRANCH  32  33
ENDBRANCH  31  32
ENDBRANCH   2  31
TORSDOF 17
BEGIN_RES LYS A 131
REMARK  4 active torsions:
REMARK  status: ('A' for Active; 'I' for Inactive)
REMARK    1  A    between atoms: CA   and  CB  
REMARK    2  A    between atoms: CB   and  CG  
REMARK    3  A    between atoms: CG   and  CD  
REMARK    4  A    between atoms: CD   and  CE  
ROOT
ATOM      1  CA  LYS A 131      29.867  25.555  16.977  1.00 20.52     0.186 C 
ENDROOT
BRANCH   1   2
ATOM      2  CB  LYS A 131      28.345  25.722  17.026  1.00 20.94     0.034 C 
BRANCH   2   3
ATOM      3  CG  LYS A 131      27.601  24.400  16.908  1.00 22.96     0.005 C 
BRANCH   3   4
ATOM      4  CD  LYS A 131      26.152  24.530  17.288  1.00 24.33     0.041 C 
BRANCH   4   5
ATOM      5  CE  LYS A 131      25.637  23.186  17.793  1.00 26.91     0.338 C 
ATOM      6  NZ  LYS A 131      25.513  23.200  19.270  1.00 27.40     0.618 N 
ENDBRANCH   4   5
ENDBRANCH   3   4
ENDBRANCH   2   3
ENDBRANCH   1   2
END_RES LYS A 131
BEGIN_RES LYS A 135
REMARK  4 active torsions:
REMARK  status: ('A' for Active; 'I' for Inactive)
REMARK    5  A    between atoms: CA   and  CB  
REMARK    6  A    between atoms: CB   and  CG  
REMARK    7  A    between atoms: CG   and  CD  
REMARK    8  A    between atoms: CD   and  CE  
ROOT
ATOM      7  CA  LYS A 135      33.193  34.663   9.290  1.00 25.02     0.186 C 
ENDROOT
BRANCH   7   8
ATOM      8  CB  LYS A 135      32.060  35.360  10.034  1.00 26.63     0.034 C 
BRANCH   8   9
ATOM      9  CG  LYS A 135      30.908  35.753   9.146  1.00 29.45     0.005 C 
BRANCH   9  10
ATOM     10  CD  LYS A 135      30.361  34.540   8.409  1.00 32.00     0.041 C 
BRANCH  10  11
ATOM     11  CE  LYS A 135      29.016  34.859   7.783  1.00 34.25     0.338 C 
ATOM     12  NZ  LYS A 135      28.662  36.292   7.975  1.00 35.99     0.618 N 
ENDBRANCH  10  11
ENDBRANCH   9  10
ENDBRANCH   8   9
ENDBRANCH   7   8
END_RES LYS A 135
