REMARK VINA RESULT:    -4.163      4.957      7.435
REMARK INTER + INTRA:         -14.213
REMARK INTER:                  -8.249
REMARK INTRA:                  -5.963
REMARK UNBOUND:                -7.007
REMARK SMILES CC(=O)N[C@@H]1[C@@H](O)C[C@](O)(C(=O)O)O[C@H]1C(O)[C@H](O)CNC(=O)OCc1cn(-c2ccc(Cl)cc2)nn1
REMARK SMILES IDX 20 1 18 2 16 3 15 4 9 5 8 6 14 7 6 8 5 9 10 10 11 12 12 13
REMARK SMILES IDX 13 14 7 16 4 18 2 19 1 21 3 22 17 23 19 25 21 27 22 28 23 30
REMARK SMILES IDX 24 31 25 32 26 33 27 34 37 35 28 36 36 37 29 38 30 39 35 40
REMARK SMILES IDX 31 41 34 42 32 43 33 44
REMARK H PARENT 10 11 13 15 7 17 4 20 17 24 19 26 21 29
REMARK Flexibility Score: inf
ROOT
ATOM      1  C   UNL     1      30.189  33.883  14.834  1.00  0.00     0.154 C 
ENDROOT
BRANCH   1   2
ATOM      2  C   UNL     1      30.457  32.579  15.516  1.00  0.00     0.165 C 
BRANCH   2   3
ATOM      3  C   UNL     1      30.655  32.863  17.013  1.00  0.00     0.176 C 
BRANCH   3   4
ATOM      4  C   UNL     1      30.493  31.588  17.838  1.00  0.00     0.178 C 
ATOM      5  C   UNL     1      28.396  30.573  17.552  1.00  0.00     0.269 C 
ATOM      6  C   UNL     1      28.269  30.076  18.976  1.00  0.00     0.112 C 
ATOM      7  O   UNL     1      29.660  30.762  17.112  1.00  0.00    -0.332 OA
ATOM      8  C   UNL     1      29.457  30.521  19.752  1.00  0.00     0.145 C 
ATOM      9  C   UNL     1      29.941  31.840  19.181  1.00  0.00     0.142 C 
BRANCH   5  10
ATOM     10  O   UNL     1      27.573  31.693  17.456  1.00  0.00    -0.357 OA
ATOM     11  H   UNL     1      26.704  31.368  17.108  1.00  0.00     0.214 HD
ENDBRANCH   5  10
BRANCH   5  12
ATOM     12  C   UNL     1      27.785  29.517  16.704  1.00  0.00     0.364 C 
ATOM     13  O   UNL     1      27.540  29.792  15.508  1.00  0.00    -0.246 OA
BRANCH  12  14
ATOM     14  O   UNL     1      27.490  28.274  17.191  1.00  0.00    -0.477 OA
ATOM     15  H   UNL     1      27.384  28.138  18.200  1.00  0.00     0.296 HD
ENDBRANCH  12  14
ENDBRANCH   5  12
BRANCH   8  16
ATOM     16  O   UNL     1      29.230  30.595  21.120  1.00  0.00    -0.391 OA
ATOM     17  H   UNL     1      28.894  31.479  21.371  1.00  0.00     0.211 HD
ENDBRANCH   8  16
BRANCH   9  18
ATOM     18  N   UNL     1      30.793  32.438  20.150  1.00  0.00    -0.348 N 
ATOM     19  C   UNL     1      30.554  33.713  20.716  1.00  0.00     0.217 C 
ATOM     20  H   UNL     1      31.634  31.868  20.432  1.00  0.00     0.163 HD
ATOM     21  C   UNL     1      31.462  34.303  21.721  1.00  0.00     0.114 C 
ATOM     22  O   UNL     1      29.514  34.289  20.293  1.00  0.00    -0.275 OA
ENDBRANCH   9  18
ENDBRANCH   3   4
BRANCH   3  23
ATOM     23  O   UNL     1      29.730  33.824  17.436  1.00  0.00    -0.388 OA
ATOM     24  H   UNL     1      29.989  34.739  17.134  1.00  0.00     0.211 HD
ENDBRANCH   3  23
ENDBRANCH   2   3
BRANCH   2  25
ATOM     25  O   UNL     1      31.534  31.901  14.992  1.00  0.00    -0.388 OA
ATOM     26  H   UNL     1      32.416  32.264  15.186  1.00  0.00     0.211 HD
ENDBRANCH   2  25
ENDBRANCH   1   2
BRANCH   1  27
ATOM     27  N   UNL     1      28.824  34.189  14.564  1.00  0.00    -0.319 N 
ATOM     28  C   UNL     1      28.146  35.351  15.009  1.00  0.00     0.407 C 
ATOM     29  H   UNL     1      28.252  33.510  13.988  1.00  0.00     0.167 HD
ATOM     30  O   UNL     1      28.718  36.223  15.685  1.00  0.00    -0.225 OA
BRANCH  28  31
ATOM     31  O   UNL     1      26.788  35.543  14.688  1.00  0.00    -0.443 OA
BRANCH  31  32
ATOM     32  C   UNL     1      26.260  35.068  13.453  1.00  0.00     0.294 C 
BRANCH  32  33
ATOM     33  C   UNL     1      25.604  33.769  13.739  1.00  0.00     0.121 A 
ATOM     34  C   UNL     1      24.586  33.210  13.024  1.00  0.00     0.144 A 
ATOM     35  N   UNL     1      25.891  32.938  14.729  1.00  0.00    -0.131 NA
ATOM     36  N   UNL     1      24.285  32.036  13.617  1.00  0.00    -0.220 N 
ATOM     37  N   UNL     1      25.088  31.884  14.654  1.00  0.00    -0.062 NA
BRANCH  36  38
ATOM     38  C   UNL     1      23.257  31.161  13.142  1.00  0.00     0.066 A 
ATOM     39  C   UNL     1      22.004  31.664  12.893  1.00  0.00     0.030 A 
ATOM     40  C   UNL     1      23.576  29.840  12.956  1.00  0.00     0.030 A 
ATOM     41  C   UNL     1      21.041  30.785  12.436  1.00  0.00     0.023 A 
ATOM     42  C   UNL     1      22.591  28.987  12.498  1.00  0.00     0.023 A 
ATOM     43  C   UNL     1      21.323  29.442  12.234  1.00  0.00     0.041 A 
ATOM     44  Cl  UNL     1      20.125  28.315  11.659  1.00  0.00    -0.084 Cl
ENDBRANCH  36  38
ENDBRANCH  32  33
ENDBRANCH  31  32
ENDBRANCH  28  31
ENDBRANCH   1  27
TORSDOF 15
BEGIN_RES LYS A 131
REMARK  4 active torsions:
REMARK  status: ('A' for Active; 'I' for Inactive)
REMARK    1  A    between atoms: CA   and  CB  
REMARK    2  A    between atoms: CB   and  CG  
REMARK    3  A    between atoms: CG   and  CD  
REMARK    4  A    between atoms: CD   and  CE  
ROOT
ATOM      1  CA  LYS A 131      29.867  25.555  16.977  1.00 20.52     0.186 C 
ENDROOT
BRANCH   1   2
ATOM      2  CB  LYS A 131      28.345  25.722  17.026  1.00 20.94     0.034 C 
BRANCH   2   3
ATOM      3  CG  LYS A 131      27.602  24.400  16.917  1.00 22.96     0.005 C 
BRANCH   3   4
ATOM      4  CD  LYS A 131      26.154  24.530  17.300  1.00 24.33     0.041 C 
BRANCH   4   5
ATOM      5  CE  LYS A 131      25.977  24.132  18.762  1.00 26.91     0.338 C 
ATOM      6  NZ  LYS A 131      25.121  25.115  19.467  1.00 27.40     0.618 N 
ENDBRANCH   4   5
ENDBRANCH   3   4
ENDBRANCH   2   3
ENDBRANCH   1   2
END_RES LYS A 131
BEGIN_RES LYS A 135
REMARK  4 active torsions:
REMARK  status: ('A' for Active; 'I' for Inactive)
REMARK    5  A    between atoms: CA   and  CB  
REMARK    6  A    between atoms: CB   and  CG  
REMARK    7  A    between atoms: CG   and  CD  
REMARK    8  A    between atoms: CD   and  CE  
ROOT
ATOM      7  CA  LYS A 135      33.193  34.663   9.290  1.00 25.02     0.186 C 
ENDROOT
BRANCH   7   8
ATOM      8  CB  LYS A 135      32.060  35.360  10.034  1.00 26.63     0.034 C 
BRANCH   8   9
ATOM      9  CG  LYS A 135      30.713  34.719   9.818  1.00 29.45     0.005 C 
BRANCH   9  10
ATOM     10  CD  LYS A 135      30.447  34.518   8.334  1.00 32.00     0.041 C 
BRANCH  10  11
ATOM     11  CE  LYS A 135      28.998  34.825   8.007  1.00 34.25     0.338 C 
ATOM     12  NZ  LYS A 135      28.881  35.546   6.709  1.00 35.99     0.618 N 
ENDBRANCH  10  11
ENDBRANCH   9  10
ENDBRANCH   8   9
ENDBRANCH   7   8
END_RES LYS A 135
