REMARK VINA RESULT:    -5.496      7.697     13.489
REMARK INTER + INTRA:         -15.124
REMARK INTER:                  -9.759
REMARK INTRA:                  -5.364
REMARK UNBOUND:                -5.290
REMARK SMILES CC(=O)N[C@@H]1[C@@H](O)C[C@](O)(C(=O)O)O[C@H]1C(O)[C@H](O)CNC(=O)OCc1cn(Cc2ccccc2)nn1
REMARK SMILES IDX 21 1 22 2 23 3 20 5 18 6 16 7 15 8 9 9 8 10 14 11 6 12 5 13
REMARK SMILES IDX 10 14 11 16 12 17 13 18 7 20 4 22 2 23 1 25 3 26 17 27 19 29
REMARK SMILES IDX 24 31 25 32 26 33 27 34 37 35 28 36 36 37 29 38 30 39 31 40
REMARK SMILES IDX 35 41 32 42 34 43 33 44
REMARK H PARENT 21 4 10 15 13 19 7 21 4 24 17 28 19 30
REMARK Flexibility Score: inf
ROOT
ATOM      1  N   UNL     1      28.110  29.137  17.913  1.00  0.00    -0.319 N 
ATOM      2  C   UNL     1      28.146  30.485  17.503  1.00  0.00     0.407 C 
ATOM      3  O   UNL     1      27.135  31.206  17.499  1.00  0.00    -0.225 OA
ATOM      4  H   UNL     1      29.031  28.628  17.877  1.00  0.00     0.167 HD
ENDROOT
BRANCH   1   5
ATOM      5  C   UNL     1      26.915  28.483  18.351  1.00  0.00     0.154 C 
BRANCH   5   6
ATOM      6  C   UNL     1      26.832  28.529  19.860  1.00  0.00     0.165 C 
BRANCH   6   7
ATOM      7  C   UNL     1      27.815  27.588  20.495  1.00  0.00     0.176 C 
BRANCH   7   8
ATOM      8  C   UNL     1      28.993  28.286  21.132  1.00  0.00     0.178 C 
ATOM      9  C   UNL     1      30.295  30.120  20.497  1.00  0.00     0.269 C 
ATOM     10  C   UNL     1      31.262  29.651  21.596  1.00  0.00     0.112 C 
ATOM     11  O   UNL     1      29.073  29.607  20.814  1.00  0.00    -0.332 OA
ATOM     12  C   UNL     1      31.516  28.186  21.246  1.00  0.00     0.145 C 
ATOM     13  C   UNL     1      30.220  27.461  20.960  1.00  0.00     0.142 C 
BRANCH   9  14
ATOM     14  O   UNL     1      30.781  29.784  19.250  1.00  0.00    -0.357 OA
ATOM     15  H   UNL     1      31.756  29.698  19.308  1.00  0.00     0.214 HD
ENDBRANCH   9  14
BRANCH   9  16
ATOM     16  C   UNL     1      30.198  31.617  20.638  1.00  0.00     0.364 C 
ATOM     17  O   UNL     1      29.974  32.157  21.741  1.00  0.00    -0.246 OA
BRANCH  16  18
ATOM     18  O   UNL     1      30.355  32.428  19.531  1.00  0.00    -0.477 OA
ATOM     19  H   UNL     1      29.579  32.996  19.235  1.00  0.00     0.296 HD
ENDBRANCH  16  18
ENDBRANCH   9  16
BRANCH  12  20
ATOM     20  O   UNL     1      32.355  28.204  20.132  1.00  0.00    -0.391 OA
ATOM     21  H   UNL     1      31.811  28.113  19.318  1.00  0.00     0.211 HD
ENDBRANCH  12  20
BRANCH  13  22
ATOM     22  N   UNL     1      30.090  26.314  21.877  1.00  0.00    -0.348 N 
ATOM     23  C   UNL     1      29.879  26.470  23.269  1.00  0.00     0.217 C 
ATOM     24  H   UNL     1      30.159  25.331  21.487  1.00  0.00     0.163 HD
ATOM     25  C   UNL     1      29.742  25.349  24.230  1.00  0.00     0.114 C 
ATOM     26  O   UNL     1      29.799  27.638  23.725  1.00  0.00    -0.275 OA
ENDBRANCH  13  22
ENDBRANCH   7   8
BRANCH   7  27
ATOM     27  O   UNL     1      28.195  26.634  19.570  1.00  0.00    -0.388 OA
ATOM     28  H   UNL     1      28.604  25.877  20.055  1.00  0.00     0.211 HD
ENDBRANCH   7  27
ENDBRANCH   6   7
BRANCH   6  29
ATOM     29  O   UNL     1      25.511  28.211  20.175  1.00  0.00    -0.388 OA
ATOM     30  H   UNL     1      24.882  28.939  19.972  1.00  0.00     0.211 HD
ENDBRANCH   6  29
ENDBRANCH   5   6
ENDBRANCH   1   5
BRANCH   2  31
ATOM     31  O   UNL     1      29.342  31.064  17.082  1.00  0.00    -0.443 OA
BRANCH  31  32
ATOM     32  C   UNL     1      29.376  31.794  15.879  1.00  0.00     0.294 C 
BRANCH  32  33
ATOM     33  C   UNL     1      30.528  32.727  15.836  1.00  0.00     0.120 A 
ATOM     34  C   UNL     1      31.107  33.244  14.709  1.00  0.00     0.138 A 
ATOM     35  N   UNL     1      31.193  33.216  16.887  1.00  0.00    -0.132 NA
ATOM     36  N   UNL     1      32.115  34.038  15.106  1.00  0.00    -0.248 N 
ATOM     37  N   UNL     1      32.144  34.001  16.443  1.00  0.00    -0.067 NA
BRANCH  36  38
ATOM     38  C   UNL     1      33.029  34.809  14.302  1.00  0.00     0.181 C 
BRANCH  38  39
ATOM     39  C   UNL     1      32.376  36.040  13.780  1.00  0.00    -0.026 A 
ATOM     40  C   UNL     1      32.421  36.362  12.428  1.00  0.00     0.005 A 
ATOM     41  C   UNL     1      31.702  36.910  14.600  1.00  0.00     0.005 A 
ATOM     42  C   UNL     1      31.817  37.499  11.952  1.00  0.00     0.000 A 
ATOM     43  C   UNL     1      31.090  38.059  14.130  1.00  0.00     0.000 A 
ATOM     44  C   UNL     1      31.144  38.364  12.789  1.00  0.00     0.000 A 
ENDBRANCH  38  39
ENDBRANCH  36  38
ENDBRANCH  32  33
ENDBRANCH  31  32
ENDBRANCH   2  31
TORSDOF 16
BEGIN_RES LYS A 131
REMARK  4 active torsions:
REMARK  status: ('A' for Active; 'I' for Inactive)
REMARK    1  A    between atoms: CA   and  CB  
REMARK    2  A    between atoms: CB   and  CG  
REMARK    3  A    between atoms: CG   and  CD  
REMARK    4  A    between atoms: CD   and  CE  
ROOT
ATOM      1  CA  LYS A 131      29.867  25.555  16.977  1.00 20.52     0.186 C 
ENDROOT
BRANCH   1   2
ATOM      2  CB  LYS A 131      28.345  25.722  17.026  1.00 20.94     0.034 C 
BRANCH   2   3
ATOM      3  CG  LYS A 131      27.601  24.401  16.900  1.00 22.96     0.005 C 
BRANCH   3   4
ATOM      4  CD  LYS A 131      26.164  24.518  17.325  1.00 24.33     0.041 C 
BRANCH   4   5
ATOM      5  CE  LYS A 131      25.946  23.722  18.608  1.00 26.91     0.338 C 
ATOM      6  NZ  LYS A 131      25.474  24.611  19.696  1.00 27.40     0.618 N 
ENDBRANCH   4   5
ENDBRANCH   3   4
ENDBRANCH   2   3
ENDBRANCH   1   2
END_RES LYS A 131
BEGIN_RES LYS A 135
REMARK  4 active torsions:
REMARK  status: ('A' for Active; 'I' for Inactive)
REMARK    5  A    between atoms: CA   and  CB  
REMARK    6  A    between atoms: CB   and  CG  
REMARK    7  A    between atoms: CG   and  CD  
REMARK    8  A    between atoms: CD   and  CE  
ROOT
ATOM      7  CA  LYS A 135      33.193  34.663   9.290  1.00 25.02     0.186 C 
ENDROOT
BRANCH   7   8
ATOM      8  CB  LYS A 135      32.060  35.360  10.034  1.00 26.63     0.034 C 
BRANCH   8   9
ATOM      9  CG  LYS A 135      30.857  35.642   9.172  1.00 29.45     0.005 C 
BRANCH   9  10
ATOM     10  CD  LYS A 135      30.317  34.355   8.566  1.00 32.00     0.041 C 
BRANCH  10  11
ATOM     11  CE  LYS A 135      28.845  34.501   8.230  1.00 34.25     0.338 C 
ATOM     12  NZ  LYS A 135      28.653  35.353   7.024  1.00 35.99     0.618 N 
ENDBRANCH  10  11
ENDBRANCH   9  10
ENDBRANCH   8   9
ENDBRANCH   7   8
END_RES LYS A 135
