REMARK VINA RESULT:    -3.563      4.123      6.970
REMARK INTER + INTRA:         -15.551
REMARK INTER:                  -7.387
REMARK INTRA:                  -8.164
REMARK UNBOUND:                -8.446
REMARK SMILES CC(=O)N[C@@H]1[C@@H](O)C[C@](O)(C(=O)O)O[C@H]1C(O)[C@H](O)CNC(=O)OCc1cn(CC(O)Cn2ccnc2[N+](=O)[O-])nn1
REMARK SMILES IDX 24 1 22 2 21 3 23 5 20 6 18 7 16 8 15 9 9 10 8 11 14 12 6 13
REMARK SMILES IDX 5 14 10 15 11 17 12 18 13 19 7 21 4 23 2 24 1 26 3 27 17 28
REMARK SMILES IDX 19 30 25 32 26 33 27 34 42 35 28 36 41 37 29 38 30 39 31 40
REMARK SMILES IDX 32 42 33 43 34 44 37 45 35 46 36 47 38 48 39 49 40 50
REMARK H PARENT 21 4 10 16 13 20 7 22 4 25 17 29 19 31 31 41
REMARK Flexibility Score: inf
ROOT
ATOM      1  O   UNL     1      31.230  34.848  14.247  1.00  0.00    -0.443 OA
ENDROOT
BRANCH   1   2
ATOM      2  C   UNL     1      30.946  33.890  15.236  1.00  0.00     0.407 C 
ATOM      3  N   UNL     1      31.030  32.513  15.008  1.00  0.00    -0.319 N 
ATOM      4  H   UNL     1      31.320  32.197  14.034  1.00  0.00     0.167 HD
ATOM      5  O   UNL     1      30.612  34.332  16.344  1.00  0.00    -0.225 OA
BRANCH   3   6
ATOM      6  C   UNL     1      30.750  31.498  15.995  1.00  0.00     0.154 C 
BRANCH   6   7
ATOM      7  C   UNL     1      29.288  31.150  15.915  1.00  0.00     0.165 C 
BRANCH   7   8
ATOM      8  C   UNL     1      28.679  31.360  17.281  1.00  0.00     0.176 C 
BRANCH   8   9
ATOM      9  C   UNL     1      27.284  31.961  17.170  1.00  0.00     0.178 C 
ATOM     10  C   UNL     1      25.762  32.553  15.510  1.00  0.00     0.269 C 
ATOM     11  C   UNL     1      25.406  33.703  16.432  1.00  0.00     0.112 C 
ATOM     12  O   UNL     1      27.004  32.065  15.835  1.00  0.00    -0.332 OA
ATOM     13  C   UNL     1      26.675  34.326  16.971  1.00  0.00     0.145 C 
ATOM     14  C   UNL     1      27.295  33.291  17.903  1.00  0.00     0.142 C 
BRANCH  10  15
ATOM     15  O   UNL     1      25.838  33.003  14.177  1.00  0.00    -0.357 OA
ATOM     16  H   UNL     1      25.798  32.202  13.606  1.00  0.00     0.214 HD
ENDBRANCH  10  15
BRANCH  10  17
ATOM     17  C   UNL     1      24.780  31.463  15.573  1.00  0.00     0.364 C 
ATOM     18  O   UNL     1      23.731  31.593  16.223  1.00  0.00    -0.246 OA
BRANCH  17  19
ATOM     19  O   UNL     1      25.015  30.274  14.906  1.00  0.00    -0.477 OA
ATOM     20  H   UNL     1      25.771  29.672  15.176  1.00  0.00     0.296 HD
ENDBRANCH  17  19
ENDBRANCH  10  17
BRANCH  13  21
ATOM     21  O   UNL     1      27.618  34.584  15.989  1.00  0.00    -0.391 OA
ATOM     22  H   UNL     1      27.903  33.752  15.561  1.00  0.00     0.211 HD
ENDBRANCH  13  21
BRANCH  14  23
ATOM     23  N   UNL     1      26.534  33.244  19.119  1.00  0.00    -0.348 N 
ATOM     24  C   UNL     1      27.172  33.319  20.373  1.00  0.00     0.217 C 
ATOM     25  H   UNL     1      25.484  33.151  19.140  1.00  0.00     0.163 HD
ATOM     26  C   UNL     1      26.374  33.269  21.635  1.00  0.00     0.114 C 
ATOM     27  O   UNL     1      28.423  33.430  20.456  1.00  0.00    -0.275 OA
ENDBRANCH  14  23
ENDBRANCH   8   9
BRANCH   8  28
ATOM     28  O   UNL     1      29.453  32.276  17.966  1.00  0.00    -0.388 OA
ATOM     29  H   UNL     1      29.144  33.205  17.849  1.00  0.00     0.211 HD
ENDBRANCH   8  28
ENDBRANCH   7   8
BRANCH   7  30
ATOM     30  O   UNL     1      29.078  29.858  15.443  1.00  0.00    -0.388 OA
ATOM     31  H   UNL     1      29.903  29.595  14.962  1.00  0.00     0.211 HD
ENDBRANCH   7  30
ENDBRANCH   6   7
ENDBRANCH   3   6
ENDBRANCH   1   2
BRANCH   1  32
ATOM     32  C   UNL     1      30.749  34.644  12.909  1.00  0.00     0.294 C 
BRANCH  32  33
ATOM     33  C   UNL     1      29.357  35.061  12.770  1.00  0.00     0.120 A 
ATOM     34  C   UNL     1      28.912  36.179  12.108  1.00  0.00     0.138 A 
ATOM     35  N   UNL     1      28.292  34.416  13.268  1.00  0.00    -0.132 NA
ATOM     36  N   UNL     1      27.576  36.179  12.226  1.00  0.00    -0.249 N 
ATOM     37  N   UNL     1      27.228  35.122  12.919  1.00  0.00    -0.067 NA
BRANCH  36  38
ATOM     38  C   UNL     1      26.698  37.214  11.654  1.00  0.00     0.181 C 
BRANCH  38  39
ATOM     39  C   UNL     1      25.499  36.567  10.997  1.00  0.00     0.170 C 
BRANCH  39  40
ATOM     40  O   UNL     1      25.546  36.980   9.648  1.00  0.00    -0.388 OA
ATOM     41  H   UNL     1      26.140  37.741   9.511  1.00  0.00     0.211 HD
ENDBRANCH  39  40
BRANCH  39  42
ATOM     42  C   UNL     1      24.250  37.047  11.666  1.00  0.00     0.239 C 
BRANCH  42  43
ATOM     43  N   UNL     1      23.469  35.875  12.068  1.00  0.00    -0.227 N 
ATOM     44  C   UNL     1      23.488  35.279  13.283  1.00  0.00     0.204 A 
ATOM     45  C   UNL     1      22.616  35.242  11.282  1.00  0.00     0.434 A 
ATOM     46  C   UNL     1      22.614  34.241  13.240  1.00  0.00     0.245 A 
ATOM     47  N   UNL     1      22.086  34.225  12.017  1.00  0.00    -0.074 NA
BRANCH  45  48
ATOM     48  N   UNL     1      22.280  35.529   9.914  1.00  0.00    -0.047 N 
ATOM     49  O   UNL     1      23.027  35.257   8.960  1.00  0.00    -0.390 OA
ATOM     50  O   UNL     1      21.071  36.133   9.636  1.00  0.00    -0.390 OA
ENDBRANCH  45  48
ENDBRANCH  42  43
ENDBRANCH  39  42
ENDBRANCH  38  39
ENDBRANCH  36  38
ENDBRANCH  32  33
ENDBRANCH   1  32
TORSDOF 20
BEGIN_RES LYS A 131
REMARK  4 active torsions:
REMARK  status: ('A' for Active; 'I' for Inactive)
REMARK    1  A    between atoms: CA   and  CB  
REMARK    2  A    between atoms: CB   and  CG  
REMARK    3  A    between atoms: CG   and  CD  
REMARK    4  A    between atoms: CD   and  CE  
ROOT
ATOM      1  CA  LYS A 131      29.867  25.555  16.977  1.00 20.52     0.186 C 
ENDROOT
BRANCH   1   2
ATOM      2  CB  LYS A 131      28.345  25.722  17.026  1.00 20.94     0.034 C 
BRANCH   2   3
ATOM      3  CG  LYS A 131      27.602  24.399  16.922  1.00 22.96     0.005 C 
BRANCH   3   4
ATOM      4  CD  LYS A 131      26.612  24.216  18.039  1.00 24.33     0.041 C 
BRANCH   4   5
ATOM      5  CE  LYS A 131      26.438  25.535  18.786  1.00 26.91     0.338 C 
ATOM      6  NZ  LYS A 131      25.506  25.366  19.926  1.00 27.40     0.618 N 
ENDBRANCH   4   5
ENDBRANCH   3   4
ENDBRANCH   2   3
ENDBRANCH   1   2
END_RES LYS A 131
BEGIN_RES LYS A 135
REMARK  4 active torsions:
REMARK  status: ('A' for Active; 'I' for Inactive)
REMARK    5  A    between atoms: CA   and  CB  
REMARK    6  A    between atoms: CB   and  CG  
REMARK    7  A    between atoms: CG   and  CD  
REMARK    8  A    between atoms: CD   and  CE  
ROOT
ATOM      7  CA  LYS A 135      33.193  34.663   9.290  1.00 25.02     0.186 C 
ENDROOT
BRANCH   7   8
ATOM      8  CB  LYS A 135      32.060  35.360  10.034  1.00 26.63     0.034 C 
BRANCH   8   9
ATOM      9  CG  LYS A 135      30.808  35.521   9.211  1.00 29.45     0.005 C 
BRANCH   9  10
ATOM     10  CD  LYS A 135      30.078  34.194   9.078  1.00 32.00     0.041 C 
BRANCH  10  11
ATOM     11  CE  LYS A 135      28.613  34.421   8.758  1.00 34.25     0.338 C 
ATOM     12  NZ  LYS A 135      27.736  33.651   9.682  1.00 35.99     0.618 N 
ENDBRANCH  10  11
ENDBRANCH   9  10
ENDBRANCH   8   9
ENDBRANCH   7   8
END_RES LYS A 135
