REMARK VINA RESULT:    -4.608      3.039      7.351
REMARK INTER + INTRA:         -15.049
REMARK INTER:                  -7.955
REMARK INTRA:                  -7.094
REMARK UNBOUND:                -6.804
REMARK SMILES CC(=O)N[C@@H]1[C@@H](O)C[C@](O)(C(=O)O)O[C@H]1C(O)[C@H](O)CNC(=O)OCc1cn(-c2ccccc2C(C)=O)nn1
REMARK SMILES IDX 21 1 22 2 23 3 20 5 18 6 16 7 15 8 9 9 8 10 14 11 6 12 5 13
REMARK SMILES IDX 10 14 11 16 12 17 13 18 7 20 4 22 2 23 1 25 3 26 17 27 19 29
REMARK SMILES IDX 24 31 25 32 26 33 27 34 39 35 28 36 38 37 29 38 34 39 30 40
REMARK SMILES IDX 33 41 31 42 32 43 35 44 37 45 36 46
REMARK H PARENT 21 4 10 15 13 19 7 21 4 24 17 28 19 30
REMARK Flexibility Score: inf
ROOT
ATOM      1  N   UNL     1      27.777  28.536  17.828  1.00  0.00    -0.319 N 
ATOM      2  C   UNL     1      26.909  29.272  16.948  1.00  0.00     0.407 C 
ATOM      3  O   UNL     1      25.670  29.096  17.036  1.00  0.00    -0.225 OA
ATOM      4  H   UNL     1      28.796  28.715  17.730  1.00  0.00     0.167 HD
ENDROOT
BRANCH   1   5
ATOM      5  C   UNL     1      27.221  27.611  18.771  1.00  0.00     0.154 C 
BRANCH   5   6
ATOM      6  C   UNL     1      27.383  27.954  20.216  1.00  0.00     0.165 C 
BRANCH   6   7
ATOM      7  C   UNL     1      28.801  28.201  20.637  1.00  0.00     0.176 C 
BRANCH   7   8
ATOM      8  C   UNL     1      29.174  29.655  20.757  1.00  0.00     0.178 C 
ATOM      9  C   UNL     1      28.460  31.805  20.310  1.00  0.00     0.269 C 
ATOM     10  C   UNL     1      29.713  32.172  19.539  1.00  0.00     0.112 C 
ATOM     11  O   UNL     1      28.236  30.478  20.237  1.00  0.00    -0.332 OA
ATOM     12  C   UNL     1      30.480  30.966  19.108  1.00  0.00     0.145 C 
ATOM     13  C   UNL     1      30.530  29.892  20.129  1.00  0.00     0.142 C 
BRANCH   9  14
ATOM     14  O   UNL     1      27.418  32.500  19.607  1.00  0.00    -0.357 OA
ATOM     15  H   UNL     1      26.624  31.885  19.534  1.00  0.00     0.214 HD
ENDBRANCH   9  14
BRANCH   9  16
ATOM     16  C   UNL     1      28.502  32.430  21.637  1.00  0.00     0.364 C 
ATOM     17  O   UNL     1      29.445  33.152  22.031  1.00  0.00    -0.246 OA
BRANCH  16  18
ATOM     18  O   UNL     1      27.463  32.250  22.553  1.00  0.00    -0.477 OA
ATOM     19  H   UNL     1      27.022  33.049  22.993  1.00  0.00     0.296 HD
ENDBRANCH  16  18
ENDBRANCH   9  16
BRANCH  12  20
ATOM     20  O   UNL     1      29.871  30.454  17.950  1.00  0.00    -0.391 OA
ATOM     21  H   UNL     1      29.285  29.682  18.139  1.00  0.00     0.211 HD
ENDBRANCH  12  20
BRANCH  13  22
ATOM     22  N   UNL     1      31.582  30.103  21.073  1.00  0.00    -0.348 N 
ATOM     23  C   UNL     1      32.409  29.052  21.559  1.00  0.00     0.217 C 
ATOM     24  H   UNL     1      31.766  31.060  21.425  1.00  0.00     0.163 HD
ATOM     25  C   UNL     1      33.491  29.325  22.540  1.00  0.00     0.114 C 
ATOM     26  O   UNL     1      32.252  27.865  21.175  1.00  0.00    -0.275 OA
ENDBRANCH  13  22
ENDBRANCH   7   8
BRANCH   7  27
ATOM     27  O   UNL     1      29.727  27.405  20.013  1.00  0.00    -0.388 OA
ATOM     28  H   UNL     1      29.408  27.265  19.072  1.00  0.00     0.211 HD
ENDBRANCH   7  27
ENDBRANCH   6   7
BRANCH   6  29
ATOM     29  O   UNL     1      26.984  26.753  20.935  1.00  0.00    -0.388 OA
ATOM     30  H   UNL     1      27.009  26.054  20.229  1.00  0.00     0.211 HD
ENDBRANCH   6  29
ENDBRANCH   5   6
ENDBRANCH   1   5
BRANCH   2  31
ATOM     31  O   UNL     1      27.375  30.161  16.010  1.00  0.00    -0.443 OA
BRANCH  31  32
ATOM     32  C   UNL     1      26.742  31.419  15.788  1.00  0.00     0.294 C 
BRANCH  32  33
ATOM     33  C   UNL     1      27.644  32.548  16.127  1.00  0.00     0.121 A 
ATOM     34  C   UNL     1      28.924  32.771  15.695  1.00  0.00     0.144 A 
ATOM     35  N   UNL     1      27.353  33.591  16.952  1.00  0.00    -0.131 NA
ATOM     36  N   UNL     1      29.369  33.937  16.268  1.00  0.00    -0.220 N 
ATOM     37  N   UNL     1      28.384  34.393  17.017  1.00  0.00    -0.062 NA
BRANCH  36  38
ATOM     38  C   UNL     1      30.644  34.543  16.151  1.00  0.00     0.077 A 
ATOM     39  C   UNL     1      31.107  35.172  15.047  1.00  0.00     0.043 A 
ATOM     40  C   UNL     1      31.435  34.456  17.318  1.00  0.00     0.029 A 
ATOM     41  C   UNL     1      32.386  35.738  15.078  1.00  0.00     0.014 A 
ATOM     42  C   UNL     1      32.688  35.015  17.335  1.00  0.00     0.002 A 
ATOM     43  C   UNL     1      33.142  35.649  16.208  1.00  0.00     0.001 A 
BRANCH  39  44
ATOM     44  C   UNL     1      30.366  35.298  13.811  1.00  0.00     0.161 C 
ATOM     45  O   UNL     1      30.437  34.293  12.993  1.00  0.00    -0.294 OA
ATOM     46  C   UNL     1      29.542  36.421  13.366  1.00  0.00     0.093 C 
ENDBRANCH  39  44
ENDBRANCH  36  38
ENDBRANCH  32  33
ENDBRANCH  31  32
ENDBRANCH   2  31
TORSDOF 16
BEGIN_RES LYS A 131
REMARK  4 active torsions:
REMARK  status: ('A' for Active; 'I' for Inactive)
REMARK    1  A    between atoms: CA   and  CB  
REMARK    2  A    between atoms: CB   and  CG  
REMARK    3  A    between atoms: CG   and  CD  
REMARK    4  A    between atoms: CD   and  CE  
ROOT
ATOM      1  CA  LYS A 131      29.867  25.555  16.977  1.00 20.52     0.186 C 
ENDROOT
BRANCH   1   2
ATOM      2  CB  LYS A 131      28.345  25.722  17.026  1.00 20.94     0.034 C 
BRANCH   2   3
ATOM      3  CG  LYS A 131      27.601  24.406  16.861  1.00 22.96     0.005 C 
BRANCH   3   4
ATOM      4  CD  LYS A 131      26.154  24.520  17.254  1.00 24.33     0.041 C 
BRANCH   4   5
ATOM      5  CE  LYS A 131      25.599  23.134  17.564  1.00 26.91     0.338 C 
ATOM      6  NZ  LYS A 131      24.175  23.043  17.165  1.00 27.40     0.618 N 
ENDBRANCH   4   5
ENDBRANCH   3   4
ENDBRANCH   2   3
ENDBRANCH   1   2
END_RES LYS A 131
BEGIN_RES LYS A 135
REMARK  4 active torsions:
REMARK  status: ('A' for Active; 'I' for Inactive)
REMARK    5  A    between atoms: CA   and  CB  
REMARK    6  A    between atoms: CB   and  CG  
REMARK    7  A    between atoms: CG   and  CD  
REMARK    8  A    between atoms: CD   and  CE  
ROOT
ATOM      7  CA  LYS A 135      33.193  34.663   9.290  1.00 25.02     0.186 C 
ENDROOT
BRANCH   7   8
ATOM      8  CB  LYS A 135      32.060  35.360  10.034  1.00 26.63     0.034 C 
BRANCH   8   9
ATOM      9  CG  LYS A 135      30.698  34.793   9.725  1.00 29.45     0.005 C 
BRANCH   9  10
ATOM     10  CD  LYS A 135      30.485  34.697   8.222  1.00 32.00     0.041 C 
BRANCH  10  11
ATOM     11  CE  LYS A 135      29.043  35.005   7.868  1.00 34.25     0.338 C 
ATOM     12  NZ  LYS A 135      28.932  35.529   6.479  1.00 35.99     0.618 N 
ENDBRANCH  10  11
ENDBRANCH   9  10
ENDBRANCH   8   9
ENDBRANCH   7   8
END_RES LYS A 135
