REMARK VINA RESULT:    -4.754      4.531      9.199
REMARK INTER + INTRA:         -13.392
REMARK INTER:                  -7.976
REMARK INTRA:                  -5.416
REMARK UNBOUND:                -5.164
REMARK SMILES CC(=O)N[C@@H]1[C@@H](O)C[C@](O)(C(=O)O)O[C@H]1C(O)[C@H](O)CNC(=O)OCc1cn(-c2cccnc2)nn1
REMARK SMILES IDX 20 1 18 2 16 3 15 4 9 5 8 6 14 7 6 8 5 9 10 10 11 12 12 13
REMARK SMILES IDX 13 14 7 16 4 18 2 19 1 21 3 22 17 23 19 25 21 27 22 28 23 30
REMARK SMILES IDX 24 31 25 32 26 33 27 34 36 35 28 36 35 37 29 38 30 39 34 40
REMARK SMILES IDX 31 41 33 42 32 43
REMARK H PARENT 10 11 13 15 7 17 4 20 17 24 19 26 21 29
REMARK Flexibility Score: inf
ROOT
ATOM      1  C   UNL     1      31.172  37.392  12.969  1.00  0.00     0.154 C 
ENDROOT
BRANCH   1   2
ATOM      2  C   UNL     1      30.410  37.051  14.196  1.00  0.00     0.165 C 
BRANCH   2   3
ATOM      3  C   UNL     1      29.334  36.057  13.977  1.00  0.00     0.176 C 
BRANCH   3   4
ATOM      4  C   UNL     1      29.400  34.765  14.715  1.00  0.00     0.178 C 
ATOM      5  C   UNL     1      30.675  33.033  15.430  1.00  0.00     0.269 C 
ATOM      6  C   UNL     1      29.462  32.281  15.847  1.00  0.00     0.112 C 
ATOM      7  O   UNL     1      30.498  34.007  14.466  1.00  0.00    -0.332 OA
ATOM      8  C   UNL     1      28.168  33.016  15.817  1.00  0.00     0.145 C 
ATOM      9  C   UNL     1      28.144  33.952  14.575  1.00  0.00     0.142 C 
BRANCH   5  10
ATOM     10  O   UNL     1      31.528  32.058  14.819  1.00  0.00    -0.357 OA
ATOM     11  H   UNL     1      32.400  32.510  14.755  1.00  0.00     0.214 HD
ENDBRANCH   5  10
BRANCH   5  12
ATOM     12  C   UNL     1      31.448  33.567  16.574  1.00  0.00     0.364 C 
ATOM     13  O   UNL     1      31.214  33.144  17.734  1.00  0.00    -0.246 OA
BRANCH  12  14
ATOM     14  O   UNL     1      32.444  34.530  16.475  1.00  0.00    -0.477 OA
ATOM     15  H   UNL     1      32.145  35.499  16.633  1.00  0.00     0.296 HD
ENDBRANCH  12  14
ENDBRANCH   5  12
BRANCH   8  16
ATOM     16  O   UNL     1      27.100  32.138  15.625  1.00  0.00    -0.391 OA
ATOM     17  H   UNL     1      27.223  31.652  14.773  1.00  0.00     0.211 HD
ENDBRANCH   8  16
BRANCH   9  18
ATOM     18  N   UNL     1      27.009  34.812  14.776  1.00  0.00    -0.348 N 
ATOM     19  C   UNL     1      25.777  34.664  14.101  1.00  0.00     0.217 C 
ATOM     20  H   UNL     1      27.086  35.604  15.468  1.00  0.00     0.163 HD
ATOM     21  C   UNL     1      24.666  35.602  14.379  1.00  0.00     0.114 C 
ATOM     22  O   UNL     1      25.637  33.737  13.272  1.00  0.00    -0.275 OA
ENDBRANCH   9  18
ENDBRANCH   3   4
BRANCH   3  23
ATOM     23  O   UNL     1      28.893  35.963  12.671  1.00  0.00    -0.388 OA
ATOM     24  H   UNL     1      28.051  35.505  12.526  1.00  0.00     0.211 HD
ENDBRANCH   3  23
ENDBRANCH   2   3
BRANCH   2  25
ATOM     25  O   UNL     1      29.774  38.213  14.700  1.00  0.00    -0.388 OA
ATOM     26  H   UNL     1      30.393  38.958  14.563  1.00  0.00     0.211 HD
ENDBRANCH   2  25
ENDBRANCH   1   2
BRANCH   1  27
ATOM     27  N   UNL     1      30.484  38.154  11.970  1.00  0.00    -0.319 N 
ATOM     28  C   UNL     1      30.930  38.411  10.679  1.00  0.00     0.407 C 
ATOM     29  H   UNL     1      29.536  38.568  12.229  1.00  0.00     0.167 HD
ATOM     30  O   UNL     1      32.020  37.989  10.271  1.00  0.00    -0.225 OA
BRANCH  28  31
ATOM     31  O   UNL     1      30.188  39.162   9.750  1.00  0.00    -0.443 OA
BRANCH  31  32
ATOM     32  C   UNL     1      29.459  38.523   8.727  1.00  0.00     0.294 C 
BRANCH  32  33
ATOM     33  C   UNL     1      28.223  37.903   9.240  1.00  0.00     0.121 A 
ATOM     34  C   UNL     1      27.053  37.825   8.501  1.00  0.00     0.144 A 
ATOM     35  N   UNL     1      27.946  37.327  10.409  1.00  0.00    -0.131 NA
ATOM     36  N   UNL     1      26.117  37.210   9.243  1.00  0.00    -0.219 N 
ATOM     37  N   UNL     1      26.670  36.914  10.391  1.00  0.00    -0.062 NA
BRANCH  36  38
ATOM     38  C   UNL     1      24.766  36.922   8.865  1.00  0.00     0.085 A 
ATOM     39  C   UNL     1      24.067  35.872   9.434  1.00  0.00     0.031 A 
ATOM     40  C   UNL     1      24.137  37.699   7.915  1.00  0.00     0.139 A 
ATOM     41  C   UNL     1      22.751  35.630   9.033  1.00  0.00     0.022 A 
ATOM     42  N   UNL     1      22.852  37.441   7.542  1.00  0.00    -0.262 NA
ATOM     43  C   UNL     1      22.148  36.428   8.078  1.00  0.00     0.111 A 
ENDBRANCH  36  38
ENDBRANCH  32  33
ENDBRANCH  31  32
ENDBRANCH  28  31
ENDBRANCH   1  27
TORSDOF 15
BEGIN_RES LYS A 131
REMARK  4 active torsions:
REMARK  status: ('A' for Active; 'I' for Inactive)
REMARK    1  A    between atoms: CA   and  CB  
REMARK    2  A    between atoms: CB   and  CG  
REMARK    3  A    between atoms: CG   and  CD  
REMARK    4  A    between atoms: CD   and  CE  
ROOT
ATOM      1  CA  LYS A 131      29.867  25.555  16.977  1.00 20.52     0.186 C 
ENDROOT
BRANCH   1   2
ATOM      2  CB  LYS A 131      28.345  25.722  17.026  1.00 20.94     0.034 C 
BRANCH   2   3
ATOM      3  CG  LYS A 131      27.601  24.401  16.903  1.00 22.96     0.005 C 
BRANCH   3   4
ATOM      4  CD  LYS A 131      26.660  24.172  18.053  1.00 24.33     0.041 C 
BRANCH   4   5
ATOM      5  CE  LYS A 131      26.282  25.511  18.676  1.00 26.91     0.338 C 
ATOM      6  NZ  LYS A 131      24.912  25.905  18.268  1.00 27.40     0.618 N 
ENDBRANCH   4   5
ENDBRANCH   3   4
ENDBRANCH   2   3
ENDBRANCH   1   2
END_RES LYS A 131
BEGIN_RES LYS A 135
REMARK  4 active torsions:
REMARK  status: ('A' for Active; 'I' for Inactive)
REMARK    5  A    between atoms: CA   and  CB  
REMARK    6  A    between atoms: CB   and  CG  
REMARK    7  A    between atoms: CG   and  CD  
REMARK    8  A    between atoms: CD   and  CE  
ROOT
ATOM      7  CA  LYS A 135      33.193  34.663   9.290  1.00 25.02     0.186 C 
ENDROOT
BRANCH   7   8
ATOM      8  CB  LYS A 135      32.060  35.360  10.034  1.00 26.63     0.034 C 
BRANCH   8   9
ATOM      9  CG  LYS A 135      30.731  34.663   9.897  1.00 29.45     0.005 C 
BRANCH   9  10
ATOM     10  CD  LYS A 135      30.333  34.549   8.434  1.00 32.00     0.041 C 
BRANCH  10  11
ATOM     11  CE  LYS A 135      28.824  34.486   8.296  1.00 34.25     0.338 C 
ATOM     12  NZ  LYS A 135      28.204  33.828   9.480  1.00 35.99     0.618 N 
ENDBRANCH  10  11
ENDBRANCH   9  10
ENDBRANCH   8   9
ENDBRANCH   7   8
END_RES LYS A 135
