REMARK VINA RESULT:    -5.591      3.470      7.518
REMARK INTER + INTRA:         -18.211
REMARK INTER:                  -8.575
REMARK INTRA:                  -9.636
REMARK UNBOUND:                -7.717
REMARK SMILES CC(=O)N[C@@H]1[C@@H](O)C[C@](O)(C(=O)O)O[C@H]1C(O)[C@H](O)CNC(=O)OCc1cn(-c2ccc(-c3c4ccc(=O)cc-4oc4cc(O)ccc34)c(C(=O)[O-])c2)nn1
REMARK SMILES IDX 21 1 22 2 23 3 20 5 18 6 16 7 15 8 9 9 8 10 14 11 6 12 5 13
REMARK SMILES IDX 10 14 11 16 12 17 13 18 7 20 4 22 2 23 1 25 3 26 17 27 19 29
REMARK SMILES IDX 24 31 25 32 26 33 27 34 55 35 28 36 54 37 29 38 53 39 30 40
REMARK SMILES IDX 49 41 31 42 32 43 50 44 51 45 52 46 33 47 48 48 34 49 47 50
REMARK SMILES IDX 42 51 40 52 35 53 46 54 43 55 41 56 39 57 36 58 44 59 37 60
REMARK SMILES IDX 38 61 45 62
REMARK H PARENT 21 4 10 15 13 19 7 21 4 24 17 28 19 30 45 63
REMARK Flexibility Score: inf
ROOT
ATOM      1  N   UNL     1      32.291  29.249  22.902  1.00  0.00    -0.319 N 
ATOM      2  C   UNL     1      33.515  29.986  23.056  1.00  0.00     0.407 C 
ATOM      3  O   UNL     1      34.544  29.497  22.514  1.00  0.00    -0.225 OA
ATOM      4  H   UNL     1      31.415  29.604  23.327  1.00  0.00     0.167 HD
ENDROOT
BRANCH   1   5
ATOM      5  C   UNL     1      32.253  28.011  22.162  1.00  0.00     0.154 C 
BRANCH   5   6
ATOM      6  C   UNL     1      31.734  28.276  20.788  1.00  0.00     0.165 C 
BRANCH   6   7
ATOM      7  C   UNL     1      30.211  28.397  20.766  1.00  0.00     0.176 C 
BRANCH   7   8
ATOM      8  C   UNL     1      29.798  29.840  20.521  1.00  0.00     0.178 C 
ATOM      9  C   UNL     1      29.089  31.118  22.335  1.00  0.00     0.269 C 
ATOM     10  C   UNL     1      28.299  32.052  21.446  1.00  0.00     0.112 C 
ATOM     11  O   UNL     1      30.129  30.564  21.631  1.00  0.00    -0.332 OA
ATOM     12  C   UNL     1      27.821  31.349  20.228  1.00  0.00     0.145 C 
ATOM     13  C   UNL     1      28.385  29.959  20.067  1.00  0.00     0.142 C 
BRANCH   9  14
ATOM     14  O   UNL     1      28.213  30.209  22.870  1.00  0.00    -0.357 OA
ATOM     15  H   UNL     1      28.589  29.640  23.565  1.00  0.00     0.214 HD
ENDBRANCH   9  14
BRANCH   9  16
ATOM     16  C   UNL     1      29.668  31.946  23.421  1.00  0.00     0.364 C 
ATOM     17  O   UNL     1      30.387  31.412  24.302  1.00  0.00    -0.246 OA
BRANCH  16  18
ATOM     18  O   UNL     1      29.457  33.312  23.523  1.00  0.00    -0.477 OA
ATOM     19  H   UNL     1      29.249  33.889  22.694  1.00  0.00     0.296 HD
ENDBRANCH  16  18
ENDBRANCH   9  16
BRANCH  12  20
ATOM     20  O   UNL     1      26.432  31.254  20.191  1.00  0.00    -0.391 OA
ATOM     21  H   UNL     1      25.977  32.125  20.189  1.00  0.00     0.211 HD
ENDBRANCH  12  20
BRANCH  13  22
ATOM     22  N   UNL     1      28.288  29.651  18.633  1.00  0.00    -0.348 N 
ATOM     23  C   UNL     1      27.284  28.837  18.079  1.00  0.00     0.217 C 
ATOM     24  H   UNL     1      29.014  30.074  18.010  1.00  0.00     0.163 HD
ATOM     25  C   UNL     1      27.253  28.573  16.623  1.00  0.00     0.114 C 
ATOM     26  O   UNL     1      26.426  28.353  18.889  1.00  0.00    -0.275 OA
ENDBRANCH  13  22
ENDBRANCH   7   8
BRANCH   7  27
ATOM     27  O   UNL     1      29.775  27.958  22.021  1.00  0.00    -0.388 OA
ATOM     28  H   UNL     1      30.592  27.849  22.578  1.00  0.00     0.211 HD
ENDBRANCH   7  27
ENDBRANCH   6   7
BRANCH   6  29
ATOM     29  O   UNL     1      32.166  27.317  19.874  1.00  0.00    -0.388 OA
ATOM     30  H   UNL     1      32.586  27.718  19.076  1.00  0.00     0.211 HD
ENDBRANCH   6  29
ENDBRANCH   5   6
ENDBRANCH   1   5
BRANCH   2  31
ATOM     31  O   UNL     1      33.600  31.160  23.743  1.00  0.00    -0.443 OA
BRANCH  31  32
ATOM     32  C   UNL     1      34.169  32.313  23.170  1.00  0.00     0.294 C 
BRANCH  32  33
ATOM     33  C   UNL     1      33.117  33.057  22.450  1.00  0.00     0.121 A 
ATOM     34  C   UNL     1      32.619  32.786  21.173  1.00  0.00     0.144 A 
ATOM     35  N   UNL     1      32.441  34.136  22.869  1.00  0.00    -0.131 NA
ATOM     36  N   UNL     1      31.674  33.697  20.875  1.00  0.00    -0.220 N 
ATOM     37  N   UNL     1      31.591  34.496  21.917  1.00  0.00    -0.062 NA
BRANCH  36  38
ATOM     38  C   UNL     1      30.962  33.719  19.648  1.00  0.00     0.067 A 
ATOM     39  C   UNL     1      31.142  32.839  18.623  1.00  0.00     0.039 A 
ATOM     40  C   UNL     1      30.004  34.721  19.471  1.00  0.00     0.029 A 
ATOM     41  C   UNL     1      30.421  32.902  17.435  1.00  0.00     0.007 A 
ATOM     42  C   UNL     1      29.281  34.803  18.313  1.00  0.00     0.012 A 
ATOM     43  C   UNL     1      29.492  33.885  17.285  1.00  0.00    -0.008 A 
BRANCH  41  44
ATOM     44  C   UNL     1      30.641  31.940  16.358  1.00  0.00     0.072 C 
ATOM     45  O   UNL     1      31.491  32.163  15.439  1.00  0.00    -0.545 OA
ATOM     46  O   UNL     1      29.932  30.770  16.317  1.00  0.00    -0.545 OA
ENDBRANCH  41  44
BRANCH  43  47
ATOM     47  C   UNL     1      28.675  34.057  16.094  1.00  0.00     0.004 A 
ATOM     48  C   UNL     1      27.454  33.452  15.892  1.00  0.00     0.026 A 
ATOM     49  C   UNL     1      29.146  34.886  15.089  1.00  0.00     0.026 A 
ATOM     50  C   UNL     1      26.951  32.618  16.872  1.00  0.00     0.016 A 
ATOM     51  C   UNL     1      26.719  33.659  14.731  1.00  0.00     0.139 A 
ATOM     52  C   UNL     1      28.339  35.071  13.893  1.00  0.00     0.139 A 
ATOM     53  C   UNL     1      30.354  35.538  15.190  1.00  0.00     0.016 A 
ATOM     54  C   UNL     1      25.725  31.986  16.716  1.00  0.00     0.047 A 
ATOM     55  C   UNL     1      25.500  33.047  14.547  1.00  0.00     0.093 A 
ATOM     56  O   UNL     1      27.170  34.444  13.783  1.00  0.00    -0.456 OA
ATOM     57  C   UNL     1      28.794  35.885  12.898  1.00  0.00     0.099 A 
ATOM     58  C   UNL     1      30.767  36.343  14.166  1.00  0.00     0.053 A 
ATOM     59  C   UNL     1      25.018  32.211  15.552  1.00  0.00     0.119 A 
ATOM     60  C   UNL     1      30.007  36.528  13.021  1.00  0.00     0.182 A 
ATOM     61  O   UNL     1      30.431  37.282  12.105  1.00  0.00    -0.290 OA
BRANCH  59  62
ATOM     62  O   UNL     1      23.795  31.584  15.386  1.00  0.00    -0.508 OA
ATOM     63  H   UNL     1      23.495  30.785  15.912  1.00  0.00     0.293 HD
ENDBRANCH  59  62
ENDBRANCH  43  47
ENDBRANCH  36  38
ENDBRANCH  32  33
ENDBRANCH  31  32
ENDBRANCH   2  31
TORSDOF 18
BEGIN_RES LYS A 131
REMARK  4 active torsions:
REMARK  status: ('A' for Active; 'I' for Inactive)
REMARK    1  A    between atoms: CA   and  CB  
REMARK    2  A    between atoms: CB   and  CG  
REMARK    3  A    between atoms: CG   and  CD  
REMARK    4  A    between atoms: CD   and  CE  
ROOT
ATOM      1  CA  LYS A 131      29.867  25.555  16.977  1.00 20.52     0.186 C 
ENDROOT
BRANCH   1   2
ATOM      2  CB  LYS A 131      28.345  25.722  17.026  1.00 20.94     0.034 C 
BRANCH   2   3
ATOM      3  CG  LYS A 131      27.601  24.402  16.894  1.00 22.96     0.005 C 
BRANCH   3   4
ATOM      4  CD  LYS A 131      26.587  24.212  17.987  1.00 24.33     0.041 C 
BRANCH   4   5
ATOM      5  CE  LYS A 131      25.319  24.987  17.645  1.00 26.91     0.338 C 
ATOM      6  NZ  LYS A 131      24.410  24.158  16.818  1.00 27.40     0.618 N 
ENDBRANCH   4   5
ENDBRANCH   3   4
ENDBRANCH   2   3
ENDBRANCH   1   2
END_RES LYS A 131
BEGIN_RES LYS A 135
REMARK  4 active torsions:
REMARK  status: ('A' for Active; 'I' for Inactive)
REMARK    5  A    between atoms: CA   and  CB  
REMARK    6  A    between atoms: CB   and  CG  
REMARK    7  A    between atoms: CG   and  CD  
REMARK    8  A    between atoms: CD   and  CE  
ROOT
ATOM      7  CA  LYS A 135      33.193  34.663   9.290  1.00 25.02     0.186 C 
ENDROOT
BRANCH   7   8
ATOM      8  CB  LYS A 135      32.060  35.360  10.034  1.00 26.63     0.034 C 
BRANCH   8   9
ATOM      9  CG  LYS A 135      30.850  35.627   9.176  1.00 29.45     0.005 C 
BRANCH   9  10
ATOM     10  CD  LYS A 135      30.241  34.323   8.686  1.00 32.00     0.041 C 
BRANCH  10  11
ATOM     11  CE  LYS A 135      28.923  34.055   9.388  1.00 34.25     0.338 C 
ATOM     12  NZ  LYS A 135      27.769  34.423   8.521  1.00 35.99     0.618 N 
ENDBRANCH  10  11
ENDBRANCH   9  10
ENDBRANCH   8   9
ENDBRANCH   7   8
END_RES LYS A 135
