REMARK VINA RESULT:    -4.396      6.011     10.320
REMARK INTER + INTRA:         -14.099
REMARK INTER:                  -7.609
REMARK INTRA:                  -6.490
REMARK UNBOUND:                -6.490
REMARK SMILES CC(=O)N[C@@H]1[C@@H](O)C[C@](O)(C(=O)O)O[C@H]1C(O)[C@H](O)CNC(=O)OCc1cn(-c2ccc3[nH]ncc3c2)nn1
REMARK SMILES IDX 20 1 18 2 16 3 15 4 9 5 8 6 14 7 6 8 5 9 10 10 11 12 12 13
REMARK SMILES IDX 13 14 7 16 4 18 2 19 1 21 3 22 17 23 19 25 21 27 22 28 23 30
REMARK SMILES IDX 24 31 25 32 26 33 27 34 39 35 28 36 38 37 29 38 30 39 37 40
REMARK SMILES IDX 31 41 36 42 32 43 35 44 33 45 34 46
REMARK H PARENT 10 11 13 15 7 17 4 20 17 24 19 26 21 29 33 47
REMARK Flexibility Score: inf
ROOT
ATOM      1  C   UNL     1      26.944  42.362   7.278  1.00  0.00     0.154 C 
ENDROOT
BRANCH   1   2
ATOM      2  C   UNL     1      27.105  41.257   8.227  1.00  0.00     0.165 C 
BRANCH   2   3
ATOM      3  C   UNL     1      28.562  40.744   8.231  1.00  0.00     0.176 C 
BRANCH   3   4
ATOM      4  C   UNL     1      28.975  40.150   9.505  1.00  0.00     0.178 C 
ATOM      5  C   UNL     1      31.034  41.111  10.058  1.00  0.00     0.269 C 
ATOM      6  C   UNL     1      31.648  40.084   9.151  1.00  0.00     0.112 C 
ATOM      7  O   UNL     1      29.722  40.899  10.365  1.00  0.00    -0.332 OA
ATOM      8  C   UNL     1      31.048  38.728   9.281  1.00  0.00     0.145 C 
ATOM      9  C   UNL     1      29.553  38.741   9.319  1.00  0.00     0.142 C 
BRANCH   5  10
ATOM     10  O   UNL     1      31.188  42.375   9.491  1.00  0.00    -0.357 OA
ATOM     11  H   UNL     1      31.679  42.343   8.633  1.00  0.00     0.214 HD
ENDBRANCH   5  10
BRANCH   5  12
ATOM     12  C   UNL     1      31.802  41.083  11.324  1.00  0.00     0.364 C 
ATOM     13  O   UNL     1      32.662  41.950  11.550  1.00  0.00    -0.246 OA
BRANCH  12  14
ATOM     14  O   UNL     1      31.560  40.092  12.252  1.00  0.00    -0.477 OA
ATOM     15  H   UNL     1      32.064  40.023  13.147  1.00  0.00     0.296 HD
ENDBRANCH  12  14
ENDBRANCH   5  12
BRANCH   8  16
ATOM     16  O   UNL     1      31.526  37.939   8.218  1.00  0.00    -0.391 OA
ATOM     17  H   UNL     1      30.728  37.503   7.836  1.00  0.00     0.211 HD
ENDBRANCH   8  16
BRANCH   9  18
ATOM     18  N   UNL     1      29.002  37.803  10.262  1.00  0.00    -0.348 N 
ATOM     19  C   UNL     1      27.715  37.224  10.096  1.00  0.00     0.217 C 
ATOM     20  H   UNL     1      29.565  37.523  11.120  1.00  0.00     0.163 HD
ATOM     21  C   UNL     1      27.194  36.267  11.091  1.00  0.00     0.114 C 
ATOM     22  O   UNL     1      27.036  37.545   9.087  1.00  0.00    -0.275 OA
ENDBRANCH   9  18
ENDBRANCH   3   4
BRANCH   3  23
ATOM     23  O   UNL     1      28.452  39.647   7.303  1.00  0.00    -0.388 OA
ATOM     24  H   UNL     1      27.548  39.624   6.912  1.00  0.00     0.211 HD
ENDBRANCH   3  23
ENDBRANCH   2   3
BRANCH   2  25
ATOM     25  O   UNL     1      26.365  40.156   7.649  1.00  0.00    -0.388 OA
ATOM     26  H   UNL     1      26.941  39.343   7.660  1.00  0.00     0.211 HD
ENDBRANCH   2  25
ENDBRANCH   1   2
BRANCH   1  27
ATOM     27  N   UNL     1      27.892  42.430   6.201  1.00  0.00    -0.319 N 
ATOM     28  C   UNL     1      27.599  41.926   4.907  1.00  0.00     0.407 C 
ATOM     29  H   UNL     1      28.802  42.899   6.332  1.00  0.00     0.167 HD
ATOM     30  O   UNL     1      26.470  41.406   4.713  1.00  0.00    -0.225 OA
BRANCH  28  31
ATOM     31  O   UNL     1      28.481  41.972   3.852  1.00  0.00    -0.443 OA
BRANCH  31  32
ATOM     32  C   UNL     1      29.792  42.498   3.921  1.00  0.00     0.294 C 
BRANCH  32  33
ATOM     33  C   UNL     1      30.681  41.434   4.498  1.00  0.00     0.121 A 
ATOM     34  C   UNL     1      32.038  41.271   4.333  1.00  0.00     0.144 A 
ATOM     35  N   UNL     1      30.301  40.408   5.311  1.00  0.00    -0.131 NA
ATOM     36  N   UNL     1      32.399  40.166   5.048  1.00  0.00    -0.220 N 
ATOM     37  N   UNL     1      31.325  39.664   5.630  1.00  0.00    -0.062 NA
BRANCH  36  38
ATOM     38  C   UNL     1      33.721  39.660   5.134  1.00  0.00     0.067 A 
ATOM     39  C   UNL     1      34.343  39.593   6.367  1.00  0.00     0.030 A 
ATOM     40  C   UNL     1      34.438  39.222   4.041  1.00  0.00     0.040 A 
ATOM     41  C   UNL     1      35.627  39.111   6.512  1.00  0.00     0.030 A 
ATOM     42  C   UNL     1      35.710  38.741   4.162  1.00  0.00     0.022 A 
ATOM     43  C   UNL     1      36.335  38.673   5.406  1.00  0.00     0.065 A 
ATOM     44  C   UNL     1      36.633  38.251   3.269  1.00  0.00     0.143 A 
ATOM     45  N   UNL     1      37.566  38.167   5.235  1.00  0.00    -0.278 N 
ATOM     46  N   UNL     1      37.758  37.909   3.961  1.00  0.00    -0.183 NA
ATOM     47  H   UNL     1      38.252  38.007   5.996  1.00  0.00     0.190 HD
ENDBRANCH  36  38
ENDBRANCH  32  33
ENDBRANCH  31  32
ENDBRANCH  28  31
ENDBRANCH   1  27
TORSDOF 15
BEGIN_RES LYS A 131
REMARK  4 active torsions:
REMARK  status: ('A' for Active; 'I' for Inactive)
REMARK    1  A    between atoms: CA   and  CB  
REMARK    2  A    between atoms: CB   and  CG  
REMARK    3  A    between atoms: CG   and  CD  
REMARK    4  A    between atoms: CD   and  CE  
ROOT
ATOM      1  CA  LYS A 131      29.867  25.555  16.977  1.00 20.52     0.186 C 
ENDROOT
BRANCH   1   2
ATOM      2  CB  LYS A 131      28.345  25.722  17.026  1.00 20.94     0.034 C 
BRANCH   2   3
ATOM      3  CG  LYS A 131      27.601  24.403  16.886  1.00 22.96     0.005 C 
BRANCH   3   4
ATOM      4  CD  LYS A 131      26.168  24.511  17.328  1.00 24.33     0.041 C 
BRANCH   4   5
ATOM      5  CE  LYS A 131      25.993  23.797  18.665  1.00 26.91     0.338 C 
ATOM      6  NZ  LYS A 131      25.490  24.738  19.693  1.00 27.40     0.618 N 
ENDBRANCH   4   5
ENDBRANCH   3   4
ENDBRANCH   2   3
ENDBRANCH   1   2
END_RES LYS A 131
BEGIN_RES LYS A 135
REMARK  4 active torsions:
REMARK  status: ('A' for Active; 'I' for Inactive)
REMARK    5  A    between atoms: CA   and  CB  
REMARK    6  A    between atoms: CB   and  CG  
REMARK    7  A    between atoms: CG   and  CD  
REMARK    8  A    between atoms: CD   and  CE  
ROOT
ATOM      7  CA  LYS A 135      33.193  34.663   9.290  1.00 25.02     0.186 C 
ENDROOT
BRANCH   7   8
ATOM      8  CB  LYS A 135      32.060  35.360  10.034  1.00 26.63     0.034 C 
BRANCH   8   9
ATOM      9  CG  LYS A 135      30.705  34.753   9.774  1.00 29.45     0.005 C 
BRANCH   9  10
ATOM     10  CD  LYS A 135      30.477  34.570   8.281  1.00 32.00     0.041 C 
BRANCH  10  11
ATOM     11  CE  LYS A 135      29.025  34.829   7.929  1.00 34.25     0.338 C 
ATOM     12  NZ  LYS A 135      28.910  35.622   6.674  1.00 35.99     0.618 N 
ENDBRANCH  10  11
ENDBRANCH   9  10
ENDBRANCH   8   9
ENDBRANCH   7   8
END_RES LYS A 135
