REMARK VINA RESULT:    -3.999     10.452     15.752
REMARK INTER + INTRA:         -13.929
REMARK INTER:                  -8.167
REMARK INTRA:                  -5.762
REMARK UNBOUND:                -7.007
REMARK SMILES CC(=O)N[C@@H]1[C@@H](O)C[C@](O)(C(=O)O)O[C@H]1C(O)[C@H](O)CNC(=O)OCc1cn(-c2ccc(Cl)cc2)nn1
REMARK SMILES IDX 20 1 18 2 16 3 15 4 9 5 8 6 14 7 6 8 5 9 10 10 11 12 12 13
REMARK SMILES IDX 13 14 7 16 4 18 2 19 1 21 3 22 17 23 19 25 21 27 22 28 23 30
REMARK SMILES IDX 24 31 25 32 26 33 27 34 37 35 28 36 36 37 29 38 30 39 35 40
REMARK SMILES IDX 31 41 34 42 32 43 33 44
REMARK H PARENT 10 11 13 15 7 17 4 20 17 24 19 26 21 29
REMARK Flexibility Score: inf
ROOT
ATOM      1  C   UNL     1      17.113  34.859   8.560  1.00  0.00     0.154 C 
ENDROOT
BRANCH   1   2
ATOM      2  C   UNL     1      18.510  34.874   9.095  1.00  0.00     0.165 C 
BRANCH   2   3
ATOM      3  C   UNL     1      19.457  34.482   7.950  1.00  0.00     0.176 C 
BRANCH   3   4
ATOM      4  C   UNL     1      20.543  35.537   7.752  1.00  0.00     0.178 C 
ATOM      5  C   UNL     1      21.880  35.843   9.658  1.00  0.00     0.269 C 
ATOM      6  C   UNL     1      22.083  37.331   9.467  1.00  0.00     0.112 C 
ATOM      7  O   UNL     1      21.610  35.143   8.533  1.00  0.00    -0.332 OA
ATOM      8  C   UNL     1      21.325  37.773   8.267  1.00  0.00     0.145 C 
ATOM      9  C   UNL     1      20.098  36.894   8.119  1.00  0.00     0.142 C 
BRANCH   5  10
ATOM     10  O   UNL     1      20.931  35.706  10.669  1.00  0.00    -0.357 OA
ATOM     11  H   UNL     1      20.375  36.525  10.637  1.00  0.00     0.214 HD
ENDBRANCH   5  10
BRANCH   5  12
ATOM     12  C   UNL     1      23.164  35.330  10.200  1.00  0.00     0.364 C 
ATOM     13  O   UNL     1      24.171  35.361   9.457  1.00  0.00    -0.246 OA
BRANCH  12  14
ATOM     14  O   UNL     1      23.271  34.834  11.470  1.00  0.00    -0.477 OA
ATOM     15  H   UNL     1      23.159  35.463  12.270  1.00  0.00     0.296 HD
ENDBRANCH  12  14
ENDBRANCH   5  12
BRANCH   8  16
ATOM     16  O   UNL     1      21.001  39.124   8.282  1.00  0.00    -0.391 OA
ATOM     17  H   UNL     1      20.592  39.394   7.434  1.00  0.00     0.211 HD
ENDBRANCH   8  16
BRANCH   9  18
ATOM     18  N   UNL     1      19.198  37.559   7.241  1.00  0.00    -0.348 N 
ATOM     19  C   UNL     1      18.095  38.324   7.690  1.00  0.00     0.217 C 
ATOM     20  H   UNL     1      19.400  37.450   6.212  1.00  0.00     0.163 HD
ATOM     21  C   UNL     1      17.180  39.001   6.748  1.00  0.00     0.114 C 
ATOM     22  O   UNL     1      17.966  38.373   8.944  1.00  0.00    -0.275 OA
ENDBRANCH   9  18
ENDBRANCH   3   4
BRANCH   3  23
ATOM     23  O   UNL     1      18.725  34.326   6.767  1.00  0.00    -0.388 OA
ATOM     24  H   UNL     1      17.744  34.404   6.931  1.00  0.00     0.211 HD
ENDBRANCH   3  23
ENDBRANCH   2   3
BRANCH   2  25
ATOM     25  O   UNL     1      18.684  34.053  10.186  1.00  0.00    -0.388 OA
ATOM     26  H   UNL     1      19.453  34.234  10.752  1.00  0.00     0.211 HD
ENDBRANCH   2  25
ENDBRANCH   1   2
BRANCH   1  27
ATOM     27  N   UNL     1      16.246  33.855   9.077  1.00  0.00    -0.319 N 
ATOM     28  C   UNL     1      16.076  32.561   8.523  1.00  0.00     0.407 C 
ATOM     29  H   UNL     1      15.675  34.068   9.942  1.00  0.00     0.167 HD
ATOM     30  O   UNL     1      16.699  32.195   7.513  1.00  0.00    -0.225 OA
BRANCH  28  31
ATOM     31  O   UNL     1      15.180  31.651   9.117  1.00  0.00    -0.443 OA
BRANCH  31  32
ATOM     32  C   UNL     1      15.661  30.486   9.780  1.00  0.00     0.294 C 
BRANCH  32  33
ATOM     33  C   UNL     1      16.733  30.931  10.704  1.00  0.00     0.121 A 
ATOM     34  C   UNL     1      18.001  30.432  10.764  1.00  0.00     0.144 A 
ATOM     35  N   UNL     1      16.642  31.883  11.622  1.00  0.00    -0.131 NA
ATOM     36  N   UNL     1      18.647  31.110  11.734  1.00  0.00    -0.220 N 
ATOM     37  N   UNL     1      17.807  31.990  12.248  1.00  0.00    -0.062 NA
BRANCH  36  38
ATOM     38  C   UNL     1      20.011  30.859  12.088  1.00  0.00     0.066 A 
ATOM     39  C   UNL     1      20.823  31.911  12.436  1.00  0.00     0.030 A 
ATOM     40  C   UNL     1      20.450  29.560  12.063  1.00  0.00     0.030 A 
ATOM     41  C   UNL     1      22.132  31.625  12.771  1.00  0.00     0.023 A 
ATOM     42  C   UNL     1      21.765  29.307  12.403  1.00  0.00     0.023 A 
ATOM     43  C   UNL     1      22.616  30.325  12.758  1.00  0.00     0.041 A 
ATOM     44  Cl  UNL     1      24.263  29.940  13.175  1.00  0.00    -0.084 Cl
ENDBRANCH  36  38
ENDBRANCH  32  33
ENDBRANCH  31  32
ENDBRANCH  28  31
ENDBRANCH   1  27
TORSDOF 15
BEGIN_RES LYS A 131
REMARK  4 active torsions:
REMARK  status: ('A' for Active; 'I' for Inactive)
REMARK    1  A    between atoms: CA   and  CB  
REMARK    2  A    between atoms: CB   and  CG  
REMARK    3  A    between atoms: CG   and  CD  
REMARK    4  A    between atoms: CD   and  CE  
ROOT
ATOM      1  CA  LYS A 131      29.867  25.555  16.977  1.00 20.52     0.186 C 
ENDROOT
BRANCH   1   2
ATOM      2  CB  LYS A 131      28.345  25.722  17.026  1.00 20.94     0.034 C 
BRANCH   2   3
ATOM      3  CG  LYS A 131      27.600  24.411  16.825  1.00 22.96     0.005 C 
BRANCH   3   4
ATOM      4  CD  LYS A 131      26.835  24.000  18.052  1.00 24.33     0.041 C 
BRANCH   4   5
ATOM      5  CE  LYS A 131      25.992  25.173  18.542  1.00 26.91     0.338 C 
ATOM      6  NZ  LYS A 131      24.778  25.326  17.706  1.00 27.40     0.618 N 
ENDBRANCH   4   5
ENDBRANCH   3   4
ENDBRANCH   2   3
ENDBRANCH   1   2
END_RES LYS A 131
BEGIN_RES LYS A 135
REMARK  4 active torsions:
REMARK  status: ('A' for Active; 'I' for Inactive)
REMARK    5  A    between atoms: CA   and  CB  
REMARK    6  A    between atoms: CB   and  CG  
REMARK    7  A    between atoms: CG   and  CD  
REMARK    8  A    between atoms: CD   and  CE  
ROOT
ATOM      7  CA  LYS A 135      33.193  34.663   9.290  1.00 25.02     0.186 C 
ENDROOT
BRANCH   7   8
ATOM      8  CB  LYS A 135      32.060  35.360  10.034  1.00 26.63     0.034 C 
BRANCH   8   9
ATOM      9  CG  LYS A 135      30.709  34.738   9.794  1.00 29.45     0.005 C 
BRANCH   9  10
ATOM     10  CD  LYS A 135      30.481  34.507   8.308  1.00 32.00     0.041 C 
BRANCH  10  11
ATOM     11  CE  LYS A 135      29.077  34.925   7.914  1.00 34.25     0.338 C 
ATOM     12  NZ  LYS A 135      29.015  36.383   7.614  1.00 35.99     0.618 N 
ENDBRANCH  10  11
ENDBRANCH   9  10
ENDBRANCH   8   9
ENDBRANCH   7   8
END_RES LYS A 135
