REMARK VINA RESULT:    -4.902      6.750     12.145
REMARK INTER + INTRA:         -15.517
REMARK INTER:                  -9.854
REMARK INTRA:                  -5.663
REMARK UNBOUND:                -6.317
REMARK SMILES CC(=O)N[C@@H]1[C@@H](O)C[C@](O)(C(=O)O)O[C@H]1C(O)[C@H](O)CNC(=O)OCc1cn(-c2cccc(C=CC(=O)O)c2)nn1
REMARK SMILES IDX 21 1 22 2 23 3 20 5 18 6 16 7 15 8 9 9 8 10 14 11 6 12 5 13
REMARK SMILES IDX 10 14 11 16 12 17 13 18 7 20 4 22 2 23 1 25 3 26 17 27 19 29
REMARK SMILES IDX 24 31 25 32 26 33 27 34 41 35 28 36 40 37 29 38 39 39 30 40
REMARK SMILES IDX 33 41 31 42 32 43 34 44 35 45 36 46 37 47 38 48
REMARK H PARENT 21 4 10 15 13 19 7 21 4 24 17 28 19 30 38 49
REMARK Flexibility Score: inf
ROOT
ATOM      1  N   UNL     1      27.757  28.766  16.631  1.00  0.00    -0.319 N 
ATOM      2  C   UNL     1      27.850  30.103  16.180  1.00  0.00     0.407 C 
ATOM      3  O   UNL     1      26.957  30.949  16.387  1.00  0.00    -0.225 OA
ATOM      4  H   UNL     1      28.591  28.131  16.378  1.00  0.00     0.167 HD
ENDROOT
BRANCH   1   5
ATOM      5  C   UNL     1      26.673  28.197  17.379  1.00  0.00     0.154 C 
BRANCH   5   6
ATOM      6  C   UNL     1      27.039  28.034  18.820  1.00  0.00     0.165 C 
BRANCH   6   7
ATOM      7  C   UNL     1      27.296  29.342  19.542  1.00  0.00     0.176 C 
BRANCH   7   8
ATOM      8  C   UNL     1      28.726  29.471  19.920  1.00  0.00     0.178 C 
ATOM      9  C   UNL     1      30.463  28.997  21.366  1.00  0.00     0.269 C 
ATOM     10  C   UNL     1      31.259  29.715  20.313  1.00  0.00     0.112 C 
ATOM     11  O   UNL     1      29.152  28.762  20.998  1.00  0.00    -0.332 OA
ATOM     12  C   UNL     1      30.643  30.956  19.781  1.00  0.00     0.145 C 
ATOM     13  C   UNL     1      29.156  30.932  20.039  1.00  0.00     0.142 C 
BRANCH   9  14
ATOM     14  O   UNL     1      30.574  29.684  22.575  1.00  0.00    -0.357 OA
ATOM     15  H   UNL     1      31.462  30.081  22.703  1.00  0.00     0.214 HD
ENDBRANCH   9  14
BRANCH   9  16
ATOM     16  C   UNL     1      31.101  27.667  21.565  1.00  0.00     0.364 C 
ATOM     17  O   UNL     1      32.186  27.589  22.236  1.00  0.00    -0.246 OA
BRANCH  16  18
ATOM     18  O   UNL     1      30.560  26.499  21.047  1.00  0.00    -0.477 OA
ATOM     19  H   UNL     1      30.328  26.389  20.080  1.00  0.00     0.296 HD
ENDBRANCH  16  18
ENDBRANCH   9  16
BRANCH  12  20
ATOM     20  O   UNL     1      31.232  32.121  20.264  1.00  0.00    -0.391 OA
ATOM     21  H   UNL     1      32.160  31.950  20.490  1.00  0.00     0.211 HD
ENDBRANCH  12  20
BRANCH  13  22
ATOM     22  N   UNL     1      28.425  31.798  19.167  1.00  0.00    -0.348 N 
ATOM     23  C   UNL     1      28.160  33.155  19.484  1.00  0.00     0.217 C 
ATOM     24  H   UNL     1      28.048  31.453  18.235  1.00  0.00     0.163 HD
ATOM     25  C   UNL     1      27.401  34.011  18.551  1.00  0.00     0.114 C 
ATOM     26  O   UNL     1      28.565  33.654  20.563  1.00  0.00    -0.275 OA
ENDBRANCH  13  22
ENDBRANCH   7   8
BRANCH   7  27
ATOM     27  O   UNL     1      26.393  29.558  20.578  1.00  0.00    -0.388 OA
ATOM     28  H   UNL     1      25.630  28.954  20.444  1.00  0.00     0.211 HD
ENDBRANCH   7  27
ENDBRANCH   6   7
BRANCH   6  29
ATOM     29  O   UNL     1      28.156  27.212  18.982  1.00  0.00    -0.388 OA
ATOM     30  H   UNL     1      28.975  27.761  18.834  1.00  0.00     0.211 HD
ENDBRANCH   6  29
ENDBRANCH   5   6
ENDBRANCH   1   5
BRANCH   2  31
ATOM     31  O   UNL     1      28.980  30.547  15.460  1.00  0.00    -0.443 OA
BRANCH  31  32
ATOM     32  C   UNL     1      30.123  30.918  16.162  1.00  0.00     0.294 C 
BRANCH  32  33
ATOM     33  C   UNL     1      30.622  32.262  15.784  1.00  0.00     0.121 A 
ATOM     34  C   UNL     1      30.249  33.093  14.755  1.00  0.00     0.144 A 
ATOM     35  N   UNL     1      31.591  32.924  16.438  1.00  0.00    -0.131 NA
ATOM     36  N   UNL     1      30.986  34.231  14.800  1.00  0.00    -0.220 N 
ATOM     37  N   UNL     1      31.793  34.097  15.836  1.00  0.00    -0.062 NA
BRANCH  36  38
ATOM     38  C   UNL     1      30.872  35.323  13.887  1.00  0.00     0.067 A 
ATOM     39  C   UNL     1      29.665  35.666  13.336  1.00  0.00     0.036 A 
ATOM     40  C   UNL     1      31.984  36.054  13.540  1.00  0.00     0.028 A 
ATOM     41  C   UNL     1      29.542  36.752  12.425  1.00  0.00    -0.023 A 
ATOM     42  C   UNL     1      31.934  37.105  12.673  1.00  0.00     0.003 A 
ATOM     43  C   UNL     1      30.686  37.441  12.120  1.00  0.00     0.008 A 
BRANCH  41  44
ATOM     44  C   UNL     1      28.256  37.084  11.921  1.00  0.00     0.015 C 
ATOM     45  C   UNL     1      27.137  36.519  11.681  1.00  0.00     0.094 C 
BRANCH  45  46
ATOM     46  C   UNL     1      26.607  35.221  11.812  1.00  0.00     0.328 C 
ATOM     47  O   UNL     1      26.216  34.828  13.023  1.00  0.00    -0.247 OA
BRANCH  46  48
ATOM     48  O   UNL     1      26.398  34.213  10.905  1.00  0.00    -0.478 OA
ATOM     49  H   UNL     1      26.404  33.235  11.146  1.00  0.00     0.297 HD
ENDBRANCH  46  48
ENDBRANCH  45  46
ENDBRANCH  41  44
ENDBRANCH  36  38
ENDBRANCH  32  33
ENDBRANCH  31  32
ENDBRANCH   2  31
TORSDOF 18
BEGIN_RES LYS A 131
REMARK  4 active torsions:
REMARK  status: ('A' for Active; 'I' for Inactive)
REMARK    1  A    between atoms: CA   and  CB  
REMARK    2  A    between atoms: CB   and  CG  
REMARK    3  A    between atoms: CG   and  CD  
REMARK    4  A    between atoms: CD   and  CE  
ROOT
ATOM      1  CA  LYS A 131      29.867  25.555  16.977  1.00 20.52     0.186 C 
ENDROOT
BRANCH   1   2
ATOM      2  CB  LYS A 131      28.345  25.722  17.026  1.00 20.94     0.034 C 
BRANCH   2   3
ATOM      3  CG  LYS A 131      27.600  24.418  16.785  1.00 22.96     0.005 C 
BRANCH   3   4
ATOM      4  CD  LYS A 131      26.853  23.959  18.007  1.00 24.33     0.041 C 
BRANCH   4   5
ATOM      5  CE  LYS A 131      25.527  23.334  17.588  1.00 26.91     0.338 C 
ATOM      6  NZ  LYS A 131      24.683  24.330  16.886  1.00 27.40     0.618 N 
ENDBRANCH   4   5
ENDBRANCH   3   4
ENDBRANCH   2   3
ENDBRANCH   1   2
END_RES LYS A 131
BEGIN_RES LYS A 135
REMARK  4 active torsions:
REMARK  status: ('A' for Active; 'I' for Inactive)
REMARK    5  A    between atoms: CA   and  CB  
REMARK    6  A    between atoms: CB   and  CG  
REMARK    7  A    between atoms: CG   and  CD  
REMARK    8  A    between atoms: CD   and  CE  
ROOT
ATOM      7  CA  LYS A 135      33.193  34.663   9.290  1.00 25.02     0.186 C 
ENDROOT
BRANCH   7   8
ATOM      8  CB  LYS A 135      32.060  35.360  10.034  1.00 26.63     0.034 C 
BRANCH   8   9
ATOM      9  CG  LYS A 135      30.822  35.557   9.198  1.00 29.45     0.005 C 
BRANCH   9  10
ATOM     10  CD  LYS A 135      29.824  34.436   9.445  1.00 32.00     0.041 C 
BRANCH  10  11
ATOM     11  CE  LYS A 135      28.736  34.449   8.389  1.00 34.25     0.338 C 
ATOM     12  NZ  LYS A 135      28.135  35.805   8.255  1.00 35.99     0.618 N 
ENDBRANCH  10  11
ENDBRANCH   9  10
ENDBRANCH   8   9
ENDBRANCH   7   8
END_RES LYS A 135
