REMARK VINA RESULT:    -3.854      6.218     11.228
REMARK INTER + INTRA:         -15.235
REMARK INTER:                  -7.586
REMARK INTRA:                  -7.650
REMARK UNBOUND:                -7.438
REMARK SMILES CC(=O)N[C@@H]1[C@@H](O)C[C@](O)(C(=O)O)O[C@H]1C(O)[C@H](O)CNC(=O)OCc1cn([C@@H](CCC(=O)O)C(=O)O)nn1
REMARK SMILES IDX 24 1 22 2 21 3 23 5 20 6 18 7 16 8 15 9 9 10 8 11 14 12 6 13
REMARK SMILES IDX 5 14 10 15 11 17 12 18 13 19 7 21 4 23 2 24 1 26 3 27 17 28
REMARK SMILES IDX 19 30 25 32 26 33 27 34 39 35 28 36 38 37 29 38 30 39 31 40
REMARK SMILES IDX 32 41 33 42 34 43 35 45 36 46 37 47
REMARK H PARENT 21 4 10 16 13 20 7 22 4 25 17 29 19 31 34 44 37 48
REMARK Flexibility Score: inf
ROOT
ATOM      1  O   UNL     1      27.872  33.949  23.149  1.00  0.00    -0.443 OA
ENDROOT
BRANCH   1   2
ATOM      2  C   UNL     1      29.053  34.333  22.503  1.00  0.00     0.407 C 
ATOM      3  N   UNL     1      29.168  34.390  21.107  1.00  0.00    -0.319 N 
ATOM      4  H   UNL     1      28.287  34.107  20.561  1.00  0.00     0.167 HD
ATOM      5  O   UNL     1      30.014  34.628  23.232  1.00  0.00    -0.225 OA
BRANCH   3   6
ATOM      6  C   UNL     1      30.321  34.780  20.346  1.00  0.00     0.154 C 
BRANCH   6   7
ATOM      7  C   UNL     1      31.033  33.611  19.790  1.00  0.00     0.165 C 
BRANCH   7   8
ATOM      8  C   UNL     1      31.524  33.825  18.370  1.00  0.00     0.176 C 
BRANCH   8   9
ATOM      9  C   UNL     1      30.337  33.905  17.405  1.00  0.00     0.178 C 
ATOM     10  C   UNL     1      29.982  31.756  16.549  1.00  0.00     0.269 C 
ATOM     11  C   UNL     1      31.150  32.066  15.656  1.00  0.00     0.112 C 
ATOM     12  O   UNL     1      29.594  32.772  17.366  1.00  0.00    -0.332 OA
ATOM     13  C   UNL     1      31.185  33.444  15.100  1.00  0.00     0.145 C 
ATOM     14  C   UNL     1      30.745  34.487  16.085  1.00  0.00     0.142 C 
BRANCH  10  15
ATOM     15  O   UNL     1      30.387  30.691  17.355  1.00  0.00    -0.357 OA
ATOM     16  H   UNL     1      29.624  30.205  17.731  1.00  0.00     0.214 HD
ENDBRANCH  10  15
BRANCH  10  17
ATOM     17  C   UNL     1      28.836  31.286  15.732  1.00  0.00     0.364 C 
ATOM     18  O   UNL     1      27.909  32.077  15.436  1.00  0.00    -0.246 OA
BRANCH  17  19
ATOM     19  O   UNL     1      28.746  29.975  15.271  1.00  0.00    -0.477 OA
ATOM     20  H   UNL     1      27.809  29.648  15.033  1.00  0.00     0.296 HD
ENDBRANCH  17  19
ENDBRANCH  10  17
BRANCH  13  21
ATOM     21  O   UNL     1      32.495  33.716  14.709  1.00  0.00    -0.391 OA
ATOM     22  H   UNL     1      32.568  34.617  14.297  1.00  0.00     0.211 HD
ENDBRANCH  13  21
BRANCH  14  23
ATOM     23  N   UNL     1      29.665  35.294  15.598  1.00  0.00    -0.348 N 
ATOM     24  C   UNL     1      29.944  36.523  14.950  1.00  0.00     0.217 C 
ATOM     25  H   UNL     1      28.660  34.974  15.721  1.00  0.00     0.163 HD
ATOM     26  C   UNL     1      28.834  37.358  14.447  1.00  0.00     0.114 C 
ATOM     27  O   UNL     1      31.121  36.946  14.781  1.00  0.00    -0.275 OA
ENDBRANCH  14  23
ENDBRANCH   8   9
BRANCH   8  28
ATOM     28  O   UNL     1      32.240  35.005  18.311  1.00  0.00    -0.388 OA
ATOM     29  H   UNL     1      32.988  34.953  18.957  1.00  0.00     0.211 HD
ENDBRANCH   8  28
ENDBRANCH   7   8
BRANCH   7  30
ATOM     30  O   UNL     1      30.363  32.444  19.958  1.00  0.00    -0.388 OA
ATOM     31  H   UNL     1      30.718  31.672  19.463  1.00  0.00     0.211 HD
ENDBRANCH   7  30
ENDBRANCH   6   7
ENDBRANCH   3   6
ENDBRANCH   1   2
BRANCH   1  32
ATOM     32  C   UNL     1      27.778  32.650  23.729  1.00  0.00     0.294 C 
BRANCH  32  33
ATOM     33  C   UNL     1      27.955  31.593  22.742  1.00  0.00     0.120 A 
ATOM     34  C   UNL     1      28.404  30.315  22.932  1.00  0.00     0.139 A 
ATOM     35  N   UNL     1      27.698  31.684  21.428  1.00  0.00    -0.132 NA
ATOM     36  N   UNL     1      28.416  29.657  21.764  1.00  0.00    -0.238 N 
ATOM     37  N   UNL     1      27.980  30.521  20.867  1.00  0.00    -0.066 NA
BRANCH  36  38
ATOM     38  C   UNL     1      28.805  28.298  21.434  1.00  0.00     0.219 C 
BRANCH  38  39
ATOM     39  C   UNL     1      27.660  27.559  20.845  1.00  0.00     0.051 C 
BRANCH  39  40
ATOM     40  C   UNL     1      27.832  27.083  19.452  1.00  0.00     0.125 C 
BRANCH  40  41
ATOM     41  C   UNL     1      27.301  27.999  18.444  1.00  0.00     0.303 C 
ATOM     42  O   UNL     1      26.186  27.774  17.858  1.00  0.00    -0.252 OA
BRANCH  41  43
ATOM     43  O   UNL     1      28.018  29.148  18.102  1.00  0.00    -0.481 OA
ATOM     44  H   UNL     1      28.819  29.382  18.671  1.00  0.00     0.296 HD
ENDBRANCH  41  43
ENDBRANCH  40  41
ENDBRANCH  39  40
ENDBRANCH  38  39
BRANCH  38  45
ATOM     45  C   UNL     1      30.086  28.203  20.756  1.00  0.00     0.328 C 
ATOM     46  O   UNL     1      30.888  27.275  20.844  1.00  0.00    -0.250 OA
BRANCH  45  47
ATOM     47  O   UNL     1      30.444  29.281  19.924  1.00  0.00    -0.480 OA
ATOM     48  H   UNL     1      30.124  30.203  20.166  1.00  0.00     0.296 HD
ENDBRANCH  45  47
ENDBRANCH  38  45
ENDBRANCH  36  38
ENDBRANCH  32  33
ENDBRANCH   1  32
TORSDOF 21
BEGIN_RES LYS A 131
REMARK  4 active torsions:
REMARK  status: ('A' for Active; 'I' for Inactive)
REMARK    1  A    between atoms: CA   and  CB  
REMARK    2  A    between atoms: CB   and  CG  
REMARK    3  A    between atoms: CG   and  CD  
REMARK    4  A    between atoms: CD   and  CE  
ROOT
ATOM      1  CA  LYS A 131      29.867  25.555  16.977  1.00 20.52     0.186 C 
ENDROOT
BRANCH   1   2
ATOM      2  CB  LYS A 131      28.345  25.722  17.026  1.00 20.94     0.034 C 
BRANCH   2   3
ATOM      3  CG  LYS A 131      27.599  24.476  16.575  1.00 22.96     0.005 C 
BRANCH   3   4
ATOM      4  CD  LYS A 131      27.115  23.653  17.737  1.00 24.33     0.041 C 
BRANCH   4   5
ATOM      5  CE  LYS A 131      25.592  23.574  17.705  1.00 26.91     0.338 C 
ATOM      6  NZ  LYS A 131      24.999  24.656  18.525  1.00 27.40     0.618 N 
ENDBRANCH   4   5
ENDBRANCH   3   4
ENDBRANCH   2   3
ENDBRANCH   1   2
END_RES LYS A 131
BEGIN_RES LYS A 135
REMARK  4 active torsions:
REMARK  status: ('A' for Active; 'I' for Inactive)
REMARK    5  A    between atoms: CA   and  CB  
REMARK    6  A    between atoms: CB   and  CG  
REMARK    7  A    between atoms: CG   and  CD  
REMARK    8  A    between atoms: CD   and  CE  
ROOT
ATOM      7  CA  LYS A 135      33.193  34.663   9.290  1.00 25.02     0.186 C 
ENDROOT
BRANCH   7   8
ATOM      8  CB  LYS A 135      32.060  35.360  10.034  1.00 26.63     0.034 C 
BRANCH   8   9
ATOM      9  CG  LYS A 135      30.728  34.670   9.886  1.00 29.45     0.005 C 
BRANCH   9  10
ATOM     10  CD  LYS A 135      30.259  34.715   8.440  1.00 32.00     0.041 C 
BRANCH  10  11
ATOM     11  CE  LYS A 135      28.771  34.430   8.355  1.00 34.25     0.338 C 
ATOM     12  NZ  LYS A 135      28.185  34.227   9.708  1.00 35.99     0.618 N 
ENDBRANCH  10  11
ENDBRANCH   9  10
ENDBRANCH   8   9
ENDBRANCH   7   8
END_RES LYS A 135
