REMARK VINA RESULT:    -5.977      2.209      3.891
REMARK INTER + INTRA:         -16.533
REMARK INTER:                  -9.569
REMARK INTRA:                  -6.965
REMARK UNBOUND:                -5.490
REMARK SMILES CC(=O)N[C@@H]1[C@@H](O)C[C@](O)(C(=O)O)O[C@H]1C(O)[C@H](O)CNC(=O)OCc1cn(C(c2ccccc2)c2ccccc2)nn1
REMARK SMILES IDX 21 1 22 2 23 3 20 5 18 6 16 7 15 8 9 9 8 10 14 11 6 12 5 13
REMARK SMILES IDX 10 14 11 16 12 17 13 18 7 20 4 22 2 23 1 25 3 26 17 27 19 29
REMARK SMILES IDX 24 31 25 32 26 33 27 34 43 35 28 36 42 37 29 38 30 39 31 40
REMARK SMILES IDX 35 41 32 42 34 43 33 44 36 45 37 46 41 47 38 48 40 49 39 50
REMARK H PARENT 21 4 10 15 13 19 7 21 4 24 17 28 19 30
REMARK Flexibility Score: inf
ROOT
ATOM      1  N   UNL     1      32.627  36.358  14.468  1.00  0.00    -0.319 N 
ATOM      2  C   UNL     1      32.260  36.290  13.106  1.00  0.00     0.407 C 
ATOM      3  O   UNL     1      32.400  35.219  12.469  1.00  0.00    -0.225 OA
ATOM      4  H   UNL     1      32.502  37.261  14.968  1.00  0.00     0.167 HD
ENDROOT
BRANCH   1   5
ATOM      5  C   UNL     1      33.157  35.225  15.160  1.00  0.00     0.154 C 
BRANCH   5   6
ATOM      6  C   UNL     1      32.253  34.910  16.353  1.00  0.00     0.165 C 
BRANCH   6   7
ATOM      7  C   UNL     1      31.320  33.809  15.876  1.00  0.00     0.176 C 
BRANCH   7   8
ATOM      8  C   UNL     1      31.079  32.712  16.874  1.00  0.00     0.178 C 
ATOM      9  C   UNL     1      28.969  31.947  16.161  1.00  0.00     0.269 C 
ATOM     10  C   UNL     1      28.307  32.541  17.385  1.00  0.00     0.112 C 
ATOM     11  O   UNL     1      30.306  31.757  16.242  1.00  0.00    -0.332 OA
ATOM     12  C   UNL     1      29.090  33.670  17.983  1.00  0.00     0.145 C 
ATOM     13  C   UNL     1      30.504  33.200  18.145  1.00  0.00     0.142 C 
BRANCH   9  14
ATOM     14  O   UNL     1      28.711  32.847  15.124  1.00  0.00    -0.357 OA
ATOM     15  H   UNL     1      28.078  32.389  14.502  1.00  0.00     0.214 HD
ENDBRANCH   9  14
BRANCH   9  16
ATOM     16  C   UNL     1      28.245  30.672  15.807  1.00  0.00     0.364 C 
ATOM     17  O   UNL     1      27.012  30.605  15.814  1.00  0.00    -0.246 OA
BRANCH  16  18
ATOM     18  O   UNL     1      28.997  29.571  15.469  1.00  0.00    -0.477 OA
ATOM     19  H   UNL     1      28.566  28.640  15.515  1.00  0.00     0.296 HD
ENDBRANCH  16  18
ENDBRANCH   9  16
BRANCH  12  20
ATOM     20  O   UNL     1      28.942  34.771  17.188  1.00  0.00    -0.391 OA
ATOM     21  H   UNL     1      28.426  35.489  17.649  1.00  0.00     0.211 HD
ENDBRANCH  12  20
BRANCH  13  22
ATOM     22  N   UNL     1      30.483  32.130  19.163  1.00  0.00    -0.348 N 
ATOM     23  C   UNL     1      31.221  32.217  20.356  1.00  0.00     0.217 C 
ATOM     24  H   UNL     1      29.899  31.288  18.973  1.00  0.00     0.163 HD
ATOM     25  C   UNL     1      31.172  31.117  21.355  1.00  0.00     0.114 C 
ATOM     26  O   UNL     1      31.934  33.230  20.596  1.00  0.00    -0.275 OA
ENDBRANCH  13  22
ENDBRANCH   7   8
BRANCH   7  27
ATOM     27  O   UNL     1      32.012  33.223  14.753  1.00  0.00    -0.388 OA
ATOM     28  H   UNL     1      32.925  32.998  14.990  1.00  0.00     0.211 HD
ENDBRANCH   7  27
ENDBRANCH   6   7
BRANCH   6  29
ATOM     29  O   UNL     1      31.581  36.092  16.624  1.00  0.00    -0.388 OA
ATOM     30  H   UNL     1      30.795  36.229  16.061  1.00  0.00     0.211 HD
ENDBRANCH   6  29
ENDBRANCH   5   6
ENDBRANCH   1   5
BRANCH   2  31
ATOM     31  O   UNL     1      31.741  37.387  12.431  1.00  0.00    -0.443 OA
BRANCH  31  32
ATOM     32  C   UNL     1      30.592  38.012  12.936  1.00  0.00     0.294 C 
BRANCH  32  33
ATOM     33  C   UNL     1      29.600  36.970  13.307  1.00  0.00     0.120 A 
ATOM     34  C   UNL     1      28.719  36.345  12.420  1.00  0.00     0.139 A 
ATOM     35  N   UNL     1      29.321  36.415  14.499  1.00  0.00    -0.132 NA
ATOM     36  N   UNL     1      27.972  35.469  13.097  1.00  0.00    -0.240 N 
ATOM     37  N   UNL     1      28.347  35.524  14.347  1.00  0.00    -0.066 NA
BRANCH  36  38
ATOM     38  C   UNL     1      26.926  34.599  12.581  1.00  0.00     0.169 C 
BRANCH  38  39
ATOM     39  C   UNL     1      25.746  34.603  13.446  1.00  0.00    -0.019 A 
ATOM     40  C   UNL     1      25.151  35.791  13.887  1.00  0.00     0.006 A 
ATOM     41  C   UNL     1      25.173  33.410  13.838  1.00  0.00     0.006 A 
ATOM     42  C   UNL     1      24.030  35.766  14.687  1.00  0.00     0.000 A 
ATOM     43  C   UNL     1      24.049  33.411  14.640  1.00  0.00     0.000 A 
ATOM     44  C   UNL     1      23.454  34.575  15.081  1.00  0.00     0.000 A 
ENDBRANCH  38  39
BRANCH  38  45
ATOM     45  C   UNL     1      26.680  34.766  11.146  1.00  0.00    -0.019 A 
ATOM     46  C   UNL     1      25.819  35.776  10.684  1.00  0.00     0.006 A 
ATOM     47  C   UNL     1      27.292  33.945  10.230  1.00  0.00     0.006 A 
ATOM     48  C   UNL     1      25.593  35.942   9.342  1.00  0.00     0.000 A 
ATOM     49  C   UNL     1      27.052  34.122   8.863  1.00  0.00     0.000 A 
ATOM     50  C   UNL     1      26.208  35.116   8.427  1.00  0.00     0.000 A 
ENDBRANCH  38  45
ENDBRANCH  36  38
ENDBRANCH  32  33
ENDBRANCH  31  32
ENDBRANCH   2  31
TORSDOF 17
BEGIN_RES LYS A 131
REMARK  4 active torsions:
REMARK  status: ('A' for Active; 'I' for Inactive)
REMARK    1  A    between atoms: CA   and  CB  
REMARK    2  A    between atoms: CB   and  CG  
REMARK    3  A    between atoms: CG   and  CD  
REMARK    4  A    between atoms: CD   and  CE  
ROOT
ATOM      1  CA  LYS A 131      29.867  25.555  16.977  1.00 20.52     0.186 C 
ENDROOT
BRANCH   1   2
ATOM      2  CB  LYS A 131      28.345  25.722  17.026  1.00 20.94     0.034 C 
BRANCH   2   3
ATOM      3  CG  LYS A 131      27.601  24.403  16.886  1.00 22.96     0.005 C 
BRANCH   3   4
ATOM      4  CD  LYS A 131      26.164  24.515  17.313  1.00 24.33     0.041 C 
BRANCH   4   5
ATOM      5  CE  LYS A 131      25.979  23.830  18.664  1.00 26.91     0.338 C 
ATOM      6  NZ  LYS A 131      25.443  24.786  19.661  1.00 27.40     0.618 N 
ENDBRANCH   4   5
ENDBRANCH   3   4
ENDBRANCH   2   3
ENDBRANCH   1   2
END_RES LYS A 131
BEGIN_RES LYS A 135
REMARK  4 active torsions:
REMARK  status: ('A' for Active; 'I' for Inactive)
REMARK    5  A    between atoms: CA   and  CB  
REMARK    6  A    between atoms: CB   and  CG  
REMARK    7  A    between atoms: CG   and  CD  
REMARK    8  A    between atoms: CD   and  CE  
ROOT
ATOM      7  CA  LYS A 135      33.193  34.663   9.290  1.00 25.02     0.186 C 
ENDROOT
BRANCH   7   8
ATOM      8  CB  LYS A 135      32.060  35.360  10.034  1.00 26.63     0.034 C 
BRANCH   8   9
ATOM      9  CG  LYS A 135      30.689  34.971   9.544  1.00 29.45     0.005 C 
BRANCH   9  10
ATOM     10  CD  LYS A 135      30.749  34.495   8.101  1.00 32.00     0.041 C 
BRANCH  10  11
ATOM     11  CE  LYS A 135      29.751  35.253   7.248  1.00 34.25     0.338 C 
ATOM     12  NZ  LYS A 135      29.453  36.590   7.831  1.00 35.99     0.618 N 
ENDBRANCH  10  11
ENDBRANCH   9  10
ENDBRANCH   8   9
ENDBRANCH   7   8
END_RES LYS A 135
