REMARK VINA RESULT:    -4.501      2.119      4.946
REMARK INTER + INTRA:         -14.609
REMARK INTER:                  -7.900
REMARK INTRA:                  -6.709
REMARK UNBOUND:                -6.292
REMARK SMILES CC(=O)N[C@@H]1[C@@H](O)C[C@](O)(C(=O)O)O[C@H]1C(O)[C@H](O)CNC(=O)OCc1cn(CCC2OCCO2)nn1
REMARK SMILES IDX 21 1 22 2 23 3 20 5 18 6 16 7 15 8 9 9 8 10 14 11 6 12 5 13
REMARK SMILES IDX 10 14 11 16 12 17 13 18 7 20 4 22 2 23 1 25 3 26 17 27 19 29
REMARK SMILES IDX 24 31 25 32 26 33 27 34 37 35 28 36 36 37 29 38 30 39 31 40
REMARK SMILES IDX 32 41 35 42 33 43 34 44
REMARK H PARENT 21 4 10 15 13 19 7 21 4 24 17 28 19 30
REMARK Flexibility Score: inf
ROOT
ATOM      1  N   UNL     1      31.106  32.440  14.908  1.00  0.00    -0.319 N 
ATOM      2  C   UNL     1      31.792  33.620  15.282  1.00  0.00     0.407 C 
ATOM      3  O   UNL     1      31.925  33.895  16.523  1.00  0.00    -0.225 OA
ATOM      4  H   UNL     1      30.993  32.209  13.907  1.00  0.00     0.167 HD
ENDROOT
BRANCH   1   5
ATOM      5  C   UNL     1      30.578  31.581  15.915  1.00  0.00     0.154 C 
BRANCH   5   6
ATOM      6  C   UNL     1      29.149  31.176  15.678  1.00  0.00     0.165 C 
BRANCH   6   7
ATOM      7  C   UNL     1      28.161  32.176  16.199  1.00  0.00     0.176 C 
BRANCH   7   8
ATOM      8  C   UNL     1      27.663  33.063  15.080  1.00  0.00     0.178 C 
ATOM      9  C   UNL     1      27.894  35.240  14.293  1.00  0.00     0.269 C 
ATOM     10  C   UNL     1      26.419  35.255  14.014  1.00  0.00     0.112 C 
ATOM     11  O   UNL     1      28.303  34.272  15.171  1.00  0.00    -0.332 OA
ATOM     12  C   UNL     1      25.724  34.619  15.200  1.00  0.00     0.145 C 
ATOM     13  C   UNL     1      26.152  33.159  15.228  1.00  0.00     0.142 C 
BRANCH   9  14
ATOM     14  O   UNL     1      28.214  36.484  14.885  1.00  0.00    -0.357 OA
ATOM     15  H   UNL     1      28.337  37.184  14.216  1.00  0.00     0.214 HD
ENDBRANCH   9  14
BRANCH   9  16
ATOM     16  C   UNL     1      28.660  35.215  13.007  1.00  0.00     0.364 C 
ATOM     17  O   UNL     1      29.594  34.419  12.764  1.00  0.00    -0.246 OA
BRANCH  16  18
ATOM     18  O   UNL     1      28.297  36.140  12.038  1.00  0.00    -0.477 OA
ATOM     19  H   UNL     1      28.363  37.146  12.160  1.00  0.00     0.296 HD
ENDBRANCH  16  18
ENDBRANCH   9  16
BRANCH  12  20
ATOM     20  O   UNL     1      26.191  35.240  16.368  1.00  0.00    -0.391 OA
ATOM     21  H   UNL     1      25.847  36.159  16.463  1.00  0.00     0.211 HD
ENDBRANCH  12  20
BRANCH  13  22
ATOM     22  N   UNL     1      25.467  32.466  14.148  1.00  0.00    -0.348 N 
ATOM     23  C   UNL     1      24.767  31.266  14.432  1.00  0.00     0.217 C 
ATOM     24  H   UNL     1      25.485  32.846  13.159  1.00  0.00     0.163 HD
ATOM     25  C   UNL     1      24.038  30.485  13.400  1.00  0.00     0.114 C 
ATOM     26  O   UNL     1      24.769  30.849  15.627  1.00  0.00    -0.275 OA
ENDBRANCH  13  22
ENDBRANCH   7   8
BRANCH   7  27
ATOM     27  O   UNL     1      27.122  31.550  16.887  1.00  0.00    -0.388 OA
ATOM     28  H   UNL     1      27.242  31.538  17.860  1.00  0.00     0.211 HD
ENDBRANCH   7  27
ENDBRANCH   6   7
BRANCH   6  29
ATOM     29  O   UNL     1      28.924  29.944  16.275  1.00  0.00    -0.388 OA
ATOM     30  H   UNL     1      29.254  29.881  17.190  1.00  0.00     0.211 HD
ENDBRANCH   6  29
ENDBRANCH   5   6
ENDBRANCH   1   5
BRANCH   2  31
ATOM     31  O   UNL     1      32.336  34.512  14.402  1.00  0.00    -0.443 OA
BRANCH  31  32
ATOM     32  C   UNL     1      32.824  35.802  14.718  1.00  0.00     0.294 C 
BRANCH  32  33
ATOM     33  C   UNL     1      31.852  36.871  14.388  1.00  0.00     0.120 A 
ATOM     34  C   UNL     1      31.620  37.415  13.147  1.00  0.00     0.138 A 
ATOM     35  N   UNL     1      31.023  37.507  15.232  1.00  0.00    -0.132 NA
ATOM     36  N   UNL     1      30.663  38.360  13.271  1.00  0.00    -0.252 N 
ATOM     37  N   UNL     1      30.320  38.394  14.545  1.00  0.00    -0.067 NA
BRANCH  36  38
ATOM     38  C   UNL     1      30.079  39.204  12.237  1.00  0.00     0.151 C 
BRANCH  38  39
ATOM     39  C   UNL     1      30.604  38.812  10.872  1.00  0.00     0.086 C 
BRANCH  39  40
ATOM     40  C   UNL     1      29.551  38.951   9.826  1.00  0.00     0.251 C 
ATOM     41  O   UNL     1      28.489  38.067   9.966  1.00  0.00    -0.350 OA
ATOM     42  O   UNL     1      30.016  38.811   8.526  1.00  0.00    -0.350 OA
ATOM     43  C   UNL     1      27.901  37.958   8.708  1.00  0.00     0.192 C 
ATOM     44  C   UNL     1      28.970  38.382   7.745  1.00  0.00     0.192 C 
ENDBRANCH  39  40
ENDBRANCH  38  39
ENDBRANCH  36  38
ENDBRANCH  32  33
ENDBRANCH  31  32
ENDBRANCH   2  31
TORSDOF 17
BEGIN_RES LYS A 131
REMARK  4 active torsions:
REMARK  status: ('A' for Active; 'I' for Inactive)
REMARK    1  A    between atoms: CA   and  CB  
REMARK    2  A    between atoms: CB   and  CG  
REMARK    3  A    between atoms: CG   and  CD  
REMARK    4  A    between atoms: CD   and  CE  
ROOT
ATOM      1  CA  LYS A 131      29.867  25.555  16.977  1.00 20.52     0.186 C 
ENDROOT
BRANCH   1   2
ATOM      2  CB  LYS A 131      28.345  25.722  17.026  1.00 20.94     0.034 C 
BRANCH   2   3
ATOM      3  CG  LYS A 131      27.602  24.399  16.924  1.00 22.96     0.005 C 
BRANCH   3   4
ATOM      4  CD  LYS A 131      26.150  24.535  17.290  1.00 24.33     0.041 C 
BRANCH   4   5
ATOM      5  CE  LYS A 131      25.965  25.750  18.193  1.00 26.91     0.338 C 
ATOM      6  NZ  LYS A 131      24.756  26.512  17.796  1.00 27.40     0.618 N 
ENDBRANCH   4   5
ENDBRANCH   3   4
ENDBRANCH   2   3
ENDBRANCH   1   2
END_RES LYS A 131
BEGIN_RES LYS A 135
REMARK  4 active torsions:
REMARK  status: ('A' for Active; 'I' for Inactive)
REMARK    5  A    between atoms: CA   and  CB  
REMARK    6  A    between atoms: CB   and  CG  
REMARK    7  A    between atoms: CG   and  CD  
REMARK    8  A    between atoms: CD   and  CE  
ROOT
ATOM      7  CA  LYS A 135      33.193  34.663   9.290  1.00 25.02     0.186 C 
ENDROOT
BRANCH   7   8
ATOM      8  CB  LYS A 135      32.060  35.360  10.034  1.00 26.63     0.034 C 
BRANCH   8   9
ATOM      9  CG  LYS A 135      30.789  35.469   9.231  1.00 29.45     0.005 C 
BRANCH   9  10
ATOM     10  CD  LYS A 135      30.098  34.118   9.135  1.00 32.00     0.041 C 
BRANCH  10  11
ATOM     11  CE  LYS A 135      28.661  34.287   8.680  1.00 34.25     0.338 C 
ATOM     12  NZ  LYS A 135      27.714  33.691   9.663  1.00 35.99     0.618 N 
ENDBRANCH  10  11
ENDBRANCH   9  10
ENDBRANCH   8   9
ENDBRANCH   7   8
END_RES LYS A 135
