REMARK VINA RESULT:    -5.929      2.807      6.047
REMARK INTER + INTRA:         -16.345
REMARK INTER:                  -9.304
REMARK INTRA:                  -7.040
REMARK UNBOUND:                -5.216
REMARK SMILES CC(=O)N[C@@H]1[C@@H](O)C[C@](O)(C(=O)O)O[C@H]1C(O)[C@H](O)CNC(=O)OCc1cn(-c2cc(C(=O)O)nc(-c3ccccc3)c2)nn1
REMARK SMILES IDX 21 1 22 2 23 3 20 5 18 6 16 7 15 8 9 9 8 10 14 11 6 12 5 13
REMARK SMILES IDX 10 14 11 16 12 17 13 18 7 20 4 22 2 23 1 25 3 26 17 27 19 29
REMARK SMILES IDX 24 31 25 32 26 33 27 34 45 35 28 36 44 37 29 38 30 39 43 40
REMARK SMILES IDX 31 41 36 42 35 43 32 44 33 45 34 46 37 48 38 49 42 50 39 51
REMARK SMILES IDX 41 52 40 53
REMARK H PARENT 21 4 10 15 13 19 7 21 4 24 17 28 19 30 34 47
REMARK Flexibility Score: inf
ROOT
ATOM      1  N   UNL     1      30.614  31.929  15.209  1.00  0.00    -0.319 N 
ATOM      2  C   UNL     1      29.990  31.123  16.212  1.00  0.00     0.407 C 
ATOM      3  O   UNL     1      30.404  31.222  17.396  1.00  0.00    -0.225 OA
ATOM      4  H   UNL     1      30.219  31.798  14.232  1.00  0.00     0.167 HD
ENDROOT
BRANCH   1   5
ATOM      5  C   UNL     1      31.688  32.845  15.480  1.00  0.00     0.154 C 
BRANCH   5   6
ATOM      6  C   UNL     1      31.382  34.212  14.945  1.00  0.00     0.165 C 
BRANCH   6   7
ATOM      7  C   UNL     1      29.892  34.469  15.131  1.00  0.00     0.176 C 
BRANCH   7   8
ATOM      8  C   UNL     1      29.392  35.375  14.061  1.00  0.00     0.178 C 
ATOM      9  C   UNL     1      29.902  37.396  13.030  1.00  0.00     0.269 C 
ATOM     10  C   UNL     1      28.821  36.900  12.078  1.00  0.00     0.112 C 
ATOM     11  O   UNL     1      30.303  36.445  13.932  1.00  0.00    -0.332 OA
ATOM     12  C   UNL     1      27.626  36.550  12.893  1.00  0.00     0.145 C 
ATOM     13  C   UNL     1      28.057  36.002  14.272  1.00  0.00     0.142 C 
BRANCH   9  14
ATOM     14  O   UNL     1      29.321  38.515  13.674  1.00  0.00    -0.357 OA
ATOM     15  H   UNL     1      28.361  38.484  13.426  1.00  0.00     0.214 HD
ENDBRANCH   9  14
BRANCH   9  16
ATOM     16  C   UNL     1      31.093  37.858  12.293  1.00  0.00     0.364 C 
ATOM     17  O   UNL     1      32.074  37.105  12.155  1.00  0.00    -0.246 OA
BRANCH  16  18
ATOM     18  O   UNL     1      31.132  39.124  11.749  1.00  0.00    -0.477 OA
ATOM     19  H   UNL     1      30.426  39.830  11.940  1.00  0.00     0.296 HD
ENDBRANCH  16  18
ENDBRANCH   9  16
BRANCH  12  20
ATOM     20  O   UNL     1      26.719  37.578  13.035  1.00  0.00    -0.391 OA
ATOM     21  H   UNL     1      26.114  37.408  13.790  1.00  0.00     0.211 HD
ENDBRANCH  12  20
BRANCH  13  22
ATOM     22  N   UNL     1      27.018  35.135  14.756  1.00  0.00    -0.348 N 
ATOM     23  C   UNL     1      26.406  35.345  16.046  1.00  0.00     0.217 C 
ATOM     24  H   UNL     1      26.690  34.355  14.182  1.00  0.00     0.163 HD
ATOM     25  C   UNL     1      25.341  34.483  16.580  1.00  0.00     0.114 C 
ATOM     26  O   UNL     1      26.851  36.334  16.701  1.00  0.00    -0.275 OA
ENDBRANCH  13  22
ENDBRANCH   7   8
BRANCH   7  27
ATOM     27  O   UNL     1      29.553  34.861  16.397  1.00  0.00    -0.388 OA
ATOM     28  H   UNL     1      29.985  34.379  17.126  1.00  0.00     0.211 HD
ENDBRANCH   7  27
ENDBRANCH   6   7
BRANCH   6  29
ATOM     29  O   UNL     1      31.665  34.150  13.565  1.00  0.00    -0.388 OA
ATOM     30  H   UNL     1      32.304  34.874  13.397  1.00  0.00     0.211 HD
ENDBRANCH   6  29
ENDBRANCH   5   6
ENDBRANCH   1   5
BRANCH   2  31
ATOM     31  O   UNL     1      28.957  30.259  15.881  1.00  0.00    -0.443 OA
BRANCH  31  32
ATOM     32  C   UNL     1      28.062  29.875  16.906  1.00  0.00     0.294 C 
BRANCH  32  33
ATOM     33  C   UNL     1      26.692  29.935  16.333  1.00  0.00     0.121 A 
ATOM     34  C   UNL     1      26.202  30.876  15.419  1.00  0.00     0.144 A 
ATOM     35  N   UNL     1      25.630  29.124  16.549  1.00  0.00    -0.131 NA
ATOM     36  N   UNL     1      24.917  30.605  15.131  1.00  0.00    -0.220 N 
ATOM     37  N   UNL     1      24.596  29.542  15.829  1.00  0.00    -0.062 NA
BRANCH  36  38
ATOM     38  C   UNL     1      24.117  31.386  14.220  1.00  0.00     0.071 A 
ATOM     39  C   UNL     1      24.527  32.616  13.774  1.00  0.00     0.064 A 
ATOM     40  C   UNL     1      22.895  30.904  13.768  1.00  0.00     0.057 A 
ATOM     41  C   UNL     1      23.787  33.389  12.904  1.00  0.00     0.151 A 
ATOM     42  C   UNL     1      22.149  31.661  12.902  1.00  0.00     0.073 A 
ATOM     43  N   UNL     1      22.617  32.866  12.505  1.00  0.00    -0.241 NA
BRANCH  41  44
ATOM     44  C   UNL     1      24.242  34.691  12.443  1.00  0.00     0.354 C 
ATOM     45  O   UNL     1      24.309  35.631  13.259  1.00  0.00    -0.245 OA
BRANCH  44  46
ATOM     46  O   UNL     1      24.602  34.907  11.130  1.00  0.00    -0.477 OA
ATOM     47  H   UNL     1      25.175  34.246  10.594  1.00  0.00     0.297 HD
ENDBRANCH  44  46
ENDBRANCH  41  44
BRANCH  42  48
ATOM     48  C   UNL     1      20.848  31.175  12.407  1.00  0.00     0.000 A 
ATOM     49  C   UNL     1      20.691  29.819  12.217  1.00  0.00     0.010 A 
ATOM     50  C   UNL     1      19.834  32.052  12.148  1.00  0.00     0.010 A 
ATOM     51  C   UNL     1      19.479  29.362  11.756  1.00  0.00     0.001 A 
ATOM     52  C   UNL     1      18.632  31.551  11.686  1.00  0.00     0.001 A 
ATOM     53  C   UNL     1      18.424  30.205  11.480  1.00  0.00     0.000 A 
ENDBRANCH  42  48
ENDBRANCH  36  38
ENDBRANCH  32  33
ENDBRANCH  31  32
ENDBRANCH   2  31
TORSDOF 18
BEGIN_RES LYS A 131
REMARK  4 active torsions:
REMARK  status: ('A' for Active; 'I' for Inactive)
REMARK    1  A    between atoms: CA   and  CB  
REMARK    2  A    between atoms: CB   and  CG  
REMARK    3  A    between atoms: CG   and  CD  
REMARK    4  A    between atoms: CD   and  CE  
ROOT
ATOM      1  CA  LYS A 131      29.867  25.555  16.977  1.00 20.52     0.186 C 
ENDROOT
BRANCH   1   2
ATOM      2  CB  LYS A 131      28.345  25.722  17.026  1.00 20.94     0.034 C 
BRANCH   2   3
ATOM      3  CG  LYS A 131      27.601  24.403  16.887  1.00 22.96     0.005 C 
BRANCH   3   4
ATOM      4  CD  LYS A 131      26.568  24.219  17.964  1.00 24.33     0.041 C 
BRANCH   4   5
ATOM      5  CE  LYS A 131      25.617  23.093  17.570  1.00 26.91     0.338 C 
ATOM      6  NZ  LYS A 131      24.368  23.647  16.995  1.00 27.40     0.618 N 
ENDBRANCH   4   5
ENDBRANCH   3   4
ENDBRANCH   2   3
ENDBRANCH   1   2
END_RES LYS A 131
BEGIN_RES LYS A 135
REMARK  4 active torsions:
REMARK  status: ('A' for Active; 'I' for Inactive)
REMARK    5  A    between atoms: CA   and  CB  
REMARK    6  A    between atoms: CB   and  CG  
REMARK    7  A    between atoms: CG   and  CD  
REMARK    8  A    between atoms: CD   and  CE  
ROOT
ATOM      7  CA  LYS A 135      33.193  34.663   9.290  1.00 25.02     0.186 C 
ENDROOT
BRANCH   7   8
ATOM      8  CB  LYS A 135      32.060  35.360  10.034  1.00 26.63     0.034 C 
BRANCH   8   9
ATOM      9  CG  LYS A 135      30.794  35.482   9.226  1.00 29.45     0.005 C 
BRANCH   9  10
ATOM     10  CD  LYS A 135      30.174  34.114   8.989  1.00 32.00     0.041 C 
BRANCH  10  11
ATOM     11  CE  LYS A 135      28.739  34.087   9.479  1.00 34.25     0.338 C 
ATOM     12  NZ  LYS A 135      27.803  34.563   8.424  1.00 35.99     0.618 N 
ENDBRANCH  10  11
ENDBRANCH   9  10
ENDBRANCH   8   9
ENDBRANCH   7   8
END_RES LYS A 135
