REMARK VINA RESULT:    -4.538      6.463     11.324
REMARK INTER + INTRA:         -14.409
REMARK INTER:                 -10.241
REMARK INTRA:                  -4.168
REMARK UNBOUND:                -6.554
REMARK SMILES CC(=O)N[C@@H]1[C@@H](O)C[C@](O)(C(=O)O)O[C@H]1C(O)[C@H](O)CNC(=O)OCc1cn(C23CC4CC(CC(C4)C2)C3)nn1
REMARK SMILES IDX 20 1 18 2 16 3 15 4 9 5 8 6 14 7 6 8 5 9 10 10 11 12 12 13
REMARK SMILES IDX 13 14 7 16 4 18 2 19 1 21 3 22 17 23 19 25 21 27 22 28 23 30
REMARK SMILES IDX 24 31 25 32 26 33 27 34 40 35 28 36 39 37 29 38 38 39 37 40
REMARK SMILES IDX 30 41 33 42 35 43 31 44 32 45 34 46 36 47
REMARK H PARENT 10 11 13 15 7 17 4 20 17 24 19 26 21 29
REMARK Flexibility Score: inf
ROOT
ATOM      1  C   UNL     1      24.926  36.716  10.633  1.00  0.00     0.154 C 
ENDROOT
BRANCH   1   2
ATOM      2  C   UNL     1      24.874  35.791   9.445  1.00  0.00     0.165 C 
BRANCH   2   3
ATOM      3  C   UNL     1      26.240  35.266   9.054  1.00  0.00     0.176 C 
BRANCH   3   4
ATOM      4  C   UNL     1      27.245  36.420   8.972  1.00  0.00     0.178 C 
ATOM      5  C   UNL     1      27.887  36.923   6.773  1.00  0.00     0.269 C 
ATOM      6  C   UNL     1      28.786  35.717   6.861  1.00  0.00     0.112 C 
ATOM      7  O   UNL     1      27.106  37.170   7.848  1.00  0.00    -0.332 OA
ATOM      8  C   UNL     1      29.535  35.743   8.147  1.00  0.00     0.145 C 
ATOM      9  C   UNL     1      28.627  36.006   9.319  1.00  0.00     0.142 C 
BRANCH   5  10
ATOM     10  O   UNL     1      27.025  36.654   5.685  1.00  0.00    -0.357 OA
ATOM     11  H   UNL     1      26.147  36.400   6.073  1.00  0.00     0.214 HD
ENDBRANCH   5  10
BRANCH   5  12
ATOM     12  C   UNL     1      28.737  38.071   6.370  1.00  0.00     0.364 C 
ATOM     13  O   UNL     1      28.667  39.194   6.941  1.00  0.00    -0.246 OA
BRANCH  12  14
ATOM     14  O   UNL     1      29.641  37.927   5.340  1.00  0.00    -0.477 OA
ATOM     15  H   UNL     1      29.377  37.576   4.419  1.00  0.00     0.296 HD
ENDBRANCH  12  14
ENDBRANCH   5  12
BRANCH   8  16
ATOM     16  O   UNL     1      30.209  34.507   8.270  1.00  0.00    -0.391 OA
ATOM     17  H   UNL     1      29.857  33.868   7.615  1.00  0.00     0.211 HD
ENDBRANCH   8  16
BRANCH   9  18
ATOM     18  N   UNL     1      29.217  37.030  10.172  1.00  0.00    -0.348 N 
ATOM     19  C   UNL     1      28.970  37.091  11.568  1.00  0.00     0.217 C 
ATOM     20  H   UNL     1      29.857  37.761   9.745  1.00  0.00     0.163 HD
ATOM     21  C   UNL     1      29.607  38.158  12.354  1.00  0.00     0.114 C 
ATOM     22  O   UNL     1      28.205  36.218  12.080  1.00  0.00    -0.275 OA
ENDBRANCH   9  18
ENDBRANCH   3   4
BRANCH   3  23
ATOM     23  O   UNL     1      26.677  34.246   9.843  1.00  0.00    -0.388 OA
ATOM     24  H   UNL     1      26.710  33.362   9.446  1.00  0.00     0.211 HD
ENDBRANCH   3  23
ENDBRANCH   2   3
BRANCH   2  25
ATOM     25  O   UNL     1      24.261  36.477   8.400  1.00  0.00    -0.388 OA
ATOM     26  H   UNL     1      23.260  36.395   8.512  1.00  0.00     0.211 HD
ENDBRANCH   2  25
ENDBRANCH   1   2
BRANCH   1  27
ATOM     27  N   UNL     1      25.168  35.893  11.804  1.00  0.00    -0.319 N 
ATOM     28  C   UNL     1      24.115  35.539  12.715  1.00  0.00     0.407 C 
ATOM     29  H   UNL     1      26.111  35.513  12.053  1.00  0.00     0.167 HD
ATOM     30  O   UNL     1      22.962  35.969  12.461  1.00  0.00    -0.225 OA
BRANCH  28  31
ATOM     31  O   UNL     1      24.328  34.761  13.827  1.00  0.00    -0.443 OA
BRANCH  31  32
ATOM     32  C   UNL     1      23.964  33.399  13.795  1.00  0.00     0.294 C 
BRANCH  32  33
ATOM     33  C   UNL     1      25.046  32.634  14.492  1.00  0.00     0.120 A 
ATOM     34  C   UNL     1      26.259  33.177  14.870  1.00  0.00     0.138 A 
ATOM     35  N   UNL     1      25.092  31.360  14.874  1.00  0.00    -0.132 NA
ATOM     36  N   UNL     1      26.972  32.225  15.453  1.00  0.00    -0.246 N 
ATOM     37  N   UNL     1      26.251  31.123  15.450  1.00  0.00    -0.066 NA
BRANCH  36  38
ATOM     38  C   UNL     1      28.322  32.411  15.993  1.00  0.00     0.065 C 
ATOM     39  C   UNL     1      29.032  31.073  15.836  1.00  0.00     0.034 C 
ATOM     40  C   UNL     1      28.271  32.809  17.435  1.00  0.00     0.034 C 
ATOM     41  C   UNL     1      29.028  33.489  15.209  1.00  0.00     0.034 C 
ATOM     42  C   UNL     1      30.452  31.200  16.353  1.00  0.00    -0.008 C 
ATOM     43  C   UNL     1      29.688  32.878  17.958  1.00  0.00    -0.008 C 
ATOM     44  C   UNL     1      30.450  33.606  15.715  1.00  0.00    -0.008 C 
ATOM     45  C   UNL     1      31.150  32.267  15.561  1.00  0.00     0.007 C 
ATOM     46  C   UNL     1      30.375  31.553  17.818  1.00  0.00     0.007 C 
ATOM     47  C   UNL     1      30.402  33.961  17.181  1.00  0.00     0.007 C 
ENDBRANCH  36  38
ENDBRANCH  32  33
ENDBRANCH  31  32
ENDBRANCH  28  31
ENDBRANCH   1  27
TORSDOF 15
BEGIN_RES LYS A 131
REMARK  4 active torsions:
REMARK  status: ('A' for Active; 'I' for Inactive)
REMARK    1  A    between atoms: CA   and  CB  
REMARK    2  A    between atoms: CB   and  CG  
REMARK    3  A    between atoms: CG   and  CD  
REMARK    4  A    between atoms: CD   and  CE  
ROOT
ATOM      1  CA  LYS A 131      29.867  25.555  16.977  1.00 20.52     0.186 C 
ENDROOT
BRANCH   1   2
ATOM      2  CB  LYS A 131      28.345  25.722  17.026  1.00 20.94     0.034 C 
BRANCH   2   3
ATOM      3  CG  LYS A 131      27.602  24.400  16.910  1.00 22.96     0.005 C 
BRANCH   3   4
ATOM      4  CD  LYS A 131      26.154  24.528  17.298  1.00 24.33     0.041 C 
BRANCH   4   5
ATOM      5  CE  LYS A 131      25.706  23.259  18.015  1.00 26.91     0.338 C 
ATOM      6  NZ  LYS A 131      24.413  22.784  17.468  1.00 27.40     0.618 N 
ENDBRANCH   4   5
ENDBRANCH   3   4
ENDBRANCH   2   3
ENDBRANCH   1   2
END_RES LYS A 131
BEGIN_RES LYS A 135
REMARK  4 active torsions:
REMARK  status: ('A' for Active; 'I' for Inactive)
REMARK    5  A    between atoms: CA   and  CB  
REMARK    6  A    between atoms: CB   and  CG  
REMARK    7  A    between atoms: CG   and  CD  
REMARK    8  A    between atoms: CD   and  CE  
ROOT
ATOM      7  CA  LYS A 135      33.193  34.663   9.290  1.00 25.02     0.186 C 
ENDROOT
BRANCH   7   8
ATOM      8  CB  LYS A 135      32.060  35.360  10.034  1.00 26.63     0.034 C 
BRANCH   8   9
ATOM      9  CG  LYS A 135      32.510  36.082  11.277  1.00 29.45     0.005 C 
BRANCH   9  10
ATOM     10  CD  LYS A 135      32.109  35.308  12.523  1.00 32.00     0.041 C 
BRANCH  10  11
ATOM     11  CE  LYS A 135      32.516  36.063  13.774  1.00 34.25     0.338 C 
ATOM     12  NZ  LYS A 135      33.387  35.227  14.646  1.00 35.99     0.618 N 
ENDBRANCH  10  11
ENDBRANCH   9  10
ENDBRANCH   8   9
ENDBRANCH   7   8
END_RES LYS A 135
