REMARK VINA RESULT:    -4.280      6.465     12.758
REMARK INTER + INTRA:         -14.894
REMARK INTER:                  -9.068
REMARK INTRA:                  -5.826
REMARK UNBOUND:                -7.237
REMARK SMILES CC(=O)N[C@@H]1[C@@H](O)C[C@](O)(C(=O)O)O[C@H]1C(O)[C@H](O)CNC(=O)OCc1cn(-c2ccccc2C(C)C)nn1
REMARK SMILES IDX 21 1 22 2 23 3 20 5 18 6 16 7 15 8 9 9 8 10 14 11 6 12 5 13
REMARK SMILES IDX 10 14 11 16 12 17 13 18 7 20 4 22 2 23 1 25 3 26 17 27 19 29
REMARK SMILES IDX 24 31 25 32 26 33 27 34 39 35 28 36 38 37 29 38 34 39 30 40
REMARK SMILES IDX 33 41 31 42 32 43 35 44 36 45 37 46
REMARK H PARENT 21 4 10 15 13 19 7 21 4 24 17 28 19 30
REMARK Flexibility Score: inf
ROOT
ATOM      1  N   UNL     1      26.453  29.118  18.772  1.00  0.00    -0.319 N 
ATOM      2  C   UNL     1      27.130  29.612  17.640  1.00  0.00     0.407 C 
ATOM      3  O   UNL     1      27.519  28.849  16.733  1.00  0.00    -0.225 OA
ATOM      4  H   UNL     1      26.136  29.813  19.501  1.00  0.00     0.167 HD
ENDROOT
BRANCH   1   5
ATOM      5  C   UNL     1      26.184  27.735  18.956  1.00  0.00     0.154 C 
BRANCH   5   6
ATOM      6  C   UNL     1      26.393  27.234  20.385  1.00  0.00     0.165 C 
BRANCH   6   7
ATOM      7  C   UNL     1      27.905  27.011  20.459  1.00  0.00     0.176 C 
BRANCH   7   8
ATOM      8  C   UNL     1      28.625  28.112  21.170  1.00  0.00     0.178 C 
ATOM      9  C   UNL     1      30.578  29.217  20.587  1.00  0.00     0.269 C 
ATOM     10  C   UNL     1      30.970  29.377  22.013  1.00  0.00     0.112 C 
ATOM     11  O   UNL     1      29.280  28.916  20.300  1.00  0.00    -0.332 OA
ATOM     12  C   UNL     1      30.289  28.440  22.987  1.00  0.00     0.145 C 
ATOM     13  C   UNL     1      29.556  27.427  22.158  1.00  0.00     0.142 C 
BRANCH   9  14
ATOM     14  O   UNL     1      31.474  28.324  19.945  1.00  0.00    -0.357 OA
ATOM     15  H   UNL     1      31.752  27.580  20.510  1.00  0.00     0.214 HD
ENDBRANCH   9  14
BRANCH   9  16
ATOM     16  C   UNL     1      30.826  30.554  19.932  1.00  0.00     0.364 C 
ATOM     17  O   UNL     1      31.412  31.436  20.595  1.00  0.00    -0.246 OA
BRANCH  16  18
ATOM     18  O   UNL     1      30.439  30.842  18.630  1.00  0.00    -0.477 OA
ATOM     19  H   UNL     1      31.064  31.200  17.911  1.00  0.00     0.296 HD
ENDBRANCH  16  18
ENDBRANCH   9  16
BRANCH  12  20
ATOM     20  O   UNL     1      31.306  27.774  23.739  1.00  0.00    -0.391 OA
ATOM     21  H   UNL     1      32.036  28.396  23.969  1.00  0.00     0.211 HD
ENDBRANCH  12  20
BRANCH  13  22
ATOM     22  N   UNL     1      28.899  26.363  22.811  1.00  0.00    -0.348 N 
ATOM     23  C   UNL     1      27.961  26.504  23.863  1.00  0.00     0.217 C 
ATOM     24  H   UNL     1      29.111  25.353  22.505  1.00  0.00     0.163 HD
ATOM     25  C   UNL     1      27.288  25.383  24.529  1.00  0.00     0.114 C 
ATOM     26  O   UNL     1      27.719  27.732  24.231  1.00  0.00    -0.275 OA
ENDBRANCH  13  22
ENDBRANCH   7   8
BRANCH   7  27
ATOM     27  O   UNL     1      28.309  26.855  19.130  1.00  0.00    -0.388 OA
ATOM     28  H   UNL     1      29.076  26.223  19.130  1.00  0.00     0.211 HD
ENDBRANCH   7  27
ENDBRANCH   6   7
BRANCH   6  29
ATOM     29  O   UNL     1      25.738  26.081  20.673  1.00  0.00    -0.388 OA
ATOM     30  H   UNL     1      24.850  26.037  20.325  1.00  0.00     0.211 HD
ENDBRANCH   6  29
ENDBRANCH   5   6
ENDBRANCH   1   5
BRANCH   2  31
ATOM     31  O   UNL     1      27.385  30.978  17.500  1.00  0.00    -0.443 OA
BRANCH  31  32
ATOM     32  C   UNL     1      27.491  31.494  16.182  1.00  0.00     0.294 C 
BRANCH  32  33
ATOM     33  C   UNL     1      28.907  31.916  16.033  1.00  0.00     0.121 A 
ATOM     34  C   UNL     1      29.364  33.212  16.301  1.00  0.00     0.144 A 
ATOM     35  N   UNL     1      29.985  31.171  15.747  1.00  0.00    -0.131 NA
ATOM     36  N   UNL     1      30.702  33.155  16.163  1.00  0.00    -0.220 N 
ATOM     37  N   UNL     1      31.018  31.965  15.847  1.00  0.00    -0.062 NA
BRANCH  36  38
ATOM     38  C   UNL     1      31.569  34.228  16.477  1.00  0.00     0.070 A 
ATOM     39  C   UNL     1      32.212  34.892  15.503  1.00  0.00    -0.020 A 
ATOM     40  C   UNL     1      31.880  34.471  17.823  1.00  0.00     0.029 A 
ATOM     41  C   UNL     1      33.190  35.824  15.849  1.00  0.00     0.006 A 
ATOM     42  C   UNL     1      32.820  35.367  18.175  1.00  0.00     0.002 A 
ATOM     43  C   UNL     1      33.503  36.070  17.193  1.00  0.00     0.000 A 
BRANCH  39  44
ATOM     44  C   UNL     1      31.818  34.761  14.115  1.00  0.00     0.015 C 
ATOM     45  C   UNL     1      32.867  35.301  13.154  1.00  0.00     0.012 C 
ATOM     46  C   UNL     1      30.687  35.864  13.905  1.00  0.00     0.012 C 
ENDBRANCH  39  44
ENDBRANCH  36  38
ENDBRANCH  32  33
ENDBRANCH  31  32
ENDBRANCH   2  31
TORSDOF 16
BEGIN_RES LYS A 131
REMARK  4 active torsions:
REMARK  status: ('A' for Active; 'I' for Inactive)
REMARK    1  A    between atoms: CA   and  CB  
REMARK    2  A    between atoms: CB   and  CG  
REMARK    3  A    between atoms: CG   and  CD  
REMARK    4  A    between atoms: CD   and  CE  
ROOT
ATOM      1  CA  LYS A 131      29.867  25.555  16.977  1.00 20.52     0.186 C 
ENDROOT
BRANCH   1   2
ATOM      2  CB  LYS A 131      28.345  25.722  17.026  1.00 20.94     0.034 C 
BRANCH   2   3
ATOM      3  CG  LYS A 131      27.599  24.433  16.719  1.00 22.96     0.005 C 
BRANCH   3   4
ATOM      4  CD  LYS A 131      26.994  23.821  17.953  1.00 24.33     0.041 C 
BRANCH   4   5
ATOM      5  CE  LYS A 131      25.573  23.359  17.647  1.00 26.91     0.338 C 
ATOM      6  NZ  LYS A 131      24.822  24.423  16.939  1.00 27.40     0.618 N 
ENDBRANCH   4   5
ENDBRANCH   3   4
ENDBRANCH   2   3
ENDBRANCH   1   2
END_RES LYS A 131
BEGIN_RES LYS A 135
REMARK  4 active torsions:
REMARK  status: ('A' for Active; 'I' for Inactive)
REMARK    5  A    between atoms: CA   and  CB  
REMARK    6  A    between atoms: CB   and  CG  
REMARK    7  A    between atoms: CG   and  CD  
REMARK    8  A    between atoms: CD   and  CE  
ROOT
ATOM      7  CA  LYS A 135      33.193  34.663   9.290  1.00 25.02     0.186 C 
ENDROOT
BRANCH   7   8
ATOM      8  CB  LYS A 135      32.060  35.360  10.034  1.00 26.63     0.034 C 
BRANCH   8   9
ATOM      9  CG  LYS A 135      30.715  34.714   9.825  1.00 29.45     0.005 C 
BRANCH   9  10
ATOM     10  CD  LYS A 135      30.447  34.499   8.343  1.00 32.00     0.041 C 
BRANCH  10  11
ATOM     11  CE  LYS A 135      29.003  34.822   8.010  1.00 34.25     0.338 C 
ATOM     12  NZ  LYS A 135      28.901  35.543   6.711  1.00 35.99     0.618 N 
ENDBRANCH  10  11
ENDBRANCH   9  10
ENDBRANCH   8   9
ENDBRANCH   7   8
END_RES LYS A 135
