REMARK VINA RESULT:    -4.752      5.974     11.988
REMARK INTER + INTRA:         -15.612
REMARK INTER:                  -9.917
REMARK INTRA:                  -5.695
REMARK UNBOUND:                -7.109
REMARK SMILES CC(=O)N[C@@H]1[C@@H](O)C[C@](O)(C(=O)O)O[C@H]1C(O)[C@H](O)CNC(=O)OCc1cn(-c2ncn3c2c(=O)n(C(C)C)c2ccccc23)nn1
REMARK SMILES IDX 21 1 22 2 23 3 20 5 18 6 16 7 15 8 9 9 8 10 14 11 6 12 5 13
REMARK SMILES IDX 10 14 11 16 12 17 13 18 7 20 4 22 2 23 1 25 3 26 17 27 19 29
REMARK SMILES IDX 24 31 25 32 26 33 27 34 47 35 28 36 46 37 29 38 30 39 33 40
REMARK SMILES IDX 31 41 32 42 34 43 45 44 36 45 35 46 44 47 40 48 43 49 41 50
REMARK SMILES IDX 42 51 37 52 38 53 39 54
REMARK H PARENT 21 4 10 15 13 19 7 21 4 24 17 28 19 30
REMARK Flexibility Score: inf
ROOT
ATOM      1  N   UNL     1      27.197  40.073   8.660  1.00  0.00    -0.319 N 
ATOM      2  C   UNL     1      28.380  40.769   8.912  1.00  0.00     0.407 C 
ATOM      3  O   UNL     1      28.447  41.993   9.027  1.00  0.00    -0.225 OA
ATOM      4  H   UNL     1      27.292  38.982   8.616  1.00  0.00     0.167 HD
ENDROOT
BRANCH   1   5
ATOM      5  C   UNL     1      25.915  40.629   8.459  1.00  0.00     0.154 C 
BRANCH   5   6
ATOM      6  C   UNL     1      24.838  40.144   9.324  1.00  0.00     0.165 C 
BRANCH   6   7
ATOM      7  C   UNL     1      24.865  38.827   9.984  1.00  0.00     0.176 C 
BRANCH   7   8
ATOM      8  C   UNL     1      24.796  37.778   8.836  1.00  0.00     0.178 C 
ATOM      9  C   UNL     1      22.875  36.513   9.315  1.00  0.00     0.269 C 
ATOM     10  C   UNL     1      23.702  35.273   9.386  1.00  0.00     0.112 C 
ATOM     11  O   UNL     1      23.503  37.488   8.610  1.00  0.00    -0.332 OA
ATOM     12  C   UNL     1      25.129  35.501   9.816  1.00  0.00     0.145 C 
ATOM     13  C   UNL     1      25.748  36.667   9.079  1.00  0.00     0.142 C 
BRANCH   9  14
ATOM     14  O   UNL     1      22.625  37.002  10.622  1.00  0.00    -0.357 OA
ATOM     15  H   UNL     1      21.782  36.556  10.904  1.00  0.00     0.214 HD
ENDBRANCH   9  14
BRANCH   9  16
ATOM     16  C   UNL     1      21.568  36.114   8.693  1.00  0.00     0.364 C 
ATOM     17  O   UNL     1      21.084  36.805   7.787  1.00  0.00    -0.246 OA
BRANCH  16  18
ATOM     18  O   UNL     1      20.917  34.985   9.129  1.00  0.00    -0.477 OA
ATOM     19  H   UNL     1      20.709  34.219   8.482  1.00  0.00     0.296 HD
ENDBRANCH  16  18
ENDBRANCH   9  16
BRANCH  12  20
ATOM     20  O   UNL     1      25.250  35.679  11.195  1.00  0.00    -0.391 OA
ATOM     21  H   UNL     1      25.362  36.641  11.392  1.00  0.00     0.211 HD
ENDBRANCH  12  20
BRANCH  13  22
ATOM     22  N   UNL     1      26.295  36.132   7.825  1.00  0.00    -0.348 N 
ATOM     23  C   UNL     1      27.552  36.520   7.318  1.00  0.00     0.217 C 
ATOM     24  H   UNL     1      25.747  35.426   7.256  1.00  0.00     0.163 HD
ATOM     25  C   UNL     1      28.101  35.976   6.048  1.00  0.00     0.114 C 
ATOM     26  O   UNL     1      28.257  37.362   7.951  1.00  0.00    -0.275 OA
ENDBRANCH  13  22
ENDBRANCH   7   8
BRANCH   7  27
ATOM     27  O   UNL     1      26.008  38.564  10.743  1.00  0.00    -0.388 OA
ATOM     28  H   UNL     1      25.852  38.815  11.707  1.00  0.00     0.211 HD
ENDBRANCH   7  27
ENDBRANCH   6   7
BRANCH   6  29
ATOM     29  O   UNL     1      23.633  40.237   8.529  1.00  0.00    -0.388 OA
ATOM     30  H   UNL     1      23.450  41.162   8.292  1.00  0.00     0.211 HD
ENDBRANCH   6  29
ENDBRANCH   5   6
ENDBRANCH   1   5
BRANCH   2  31
ATOM     31  O   UNL     1      29.607  40.081   9.051  1.00  0.00    -0.443 OA
BRANCH  31  32
ATOM     32  C   UNL     1      30.432  40.269  10.164  1.00  0.00     0.294 C 
BRANCH  32  33
ATOM     33  C   UNL     1      29.818  39.631  11.356  1.00  0.00     0.121 A 
ATOM     34  C   UNL     1      29.631  38.269  11.572  1.00  0.00     0.146 A 
ATOM     35  N   UNL     1      29.325  40.216  12.462  1.00  0.00    -0.131 NA
ATOM     36  N   UNL     1      29.039  38.067  12.784  1.00  0.00    -0.200 N 
ATOM     37  N   UNL     1      28.881  39.272  13.269  1.00  0.00    -0.060 NA
BRANCH  36  38
ATOM     38  C   UNL     1      28.717  36.779  13.299  1.00  0.00     0.186 A 
ATOM     39  N   UNL     1      27.476  36.208  13.297  1.00  0.00    -0.216 NA
ATOM     40  C   UNL     1      29.541  35.855  13.886  1.00  0.00     0.158 A 
ATOM     41  C   UNL     1      27.560  34.996  13.860  1.00  0.00     0.207 A 
ATOM     42  N   UNL     1      28.826  34.742  14.239  1.00  0.00    -0.291 N 
ATOM     43  C   UNL     1      30.872  35.856  14.162  1.00  0.00     0.279 A 
ATOM     44  C   UNL     1      29.399  33.681  14.835  1.00  0.00     0.071 A 
ATOM     45  N   UNL     1      31.480  34.829  14.750  1.00  0.00    -0.302 N 
ATOM     46  O   UNL     1      31.593  36.843  13.868  1.00  0.00    -0.267 OA
ATOM     47  C   UNL     1      28.646  32.577  15.176  1.00  0.00     0.029 A 
ATOM     48  C   UNL     1      30.754  33.743  15.088  1.00  0.00     0.068 A 
ATOM     49  C   UNL     1      29.209  31.470  15.790  1.00  0.00     0.002 A 
ATOM     50  C   UNL     1      31.294  32.623  15.704  1.00  0.00     0.028 A 
ATOM     51  C   UNL     1      30.551  31.511  16.051  1.00  0.00     0.002 A 
BRANCH  45  52
ATOM     52  C   UNL     1      32.889  34.765  15.067  1.00  0.00     0.085 C 
ATOM     53  C   UNL     1      33.207  35.970  15.928  1.00  0.00     0.031 C 
ATOM     54  C   UNL     1      33.799  34.800  13.882  1.00  0.00     0.031 C 
ENDBRANCH  45  52
ENDBRANCH  36  38
ENDBRANCH  32  33
ENDBRANCH  31  32
ENDBRANCH   2  31
TORSDOF 16
BEGIN_RES LYS A 131
REMARK  4 active torsions:
REMARK  status: ('A' for Active; 'I' for Inactive)
REMARK    1  A    between atoms: CA   and  CB  
REMARK    2  A    between atoms: CB   and  CG  
REMARK    3  A    between atoms: CG   and  CD  
REMARK    4  A    between atoms: CD   and  CE  
ROOT
ATOM      1  CA  LYS A 131      29.867  25.555  16.977  1.00 20.52     0.186 C 
ENDROOT
BRANCH   1   2
ATOM      2  CB  LYS A 131      28.345  25.722  17.026  1.00 20.94     0.034 C 
BRANCH   2   3
ATOM      3  CG  LYS A 131      27.602  24.399  16.924  1.00 22.96     0.005 C 
BRANCH   3   4
ATOM      4  CD  LYS A 131      26.155  24.531  17.310  1.00 24.33     0.041 C 
BRANCH   4   5
ATOM      5  CE  LYS A 131      25.946  23.955  18.707  1.00 26.91     0.338 C 
ATOM      6  NZ  LYS A 131      25.070  22.762  18.651  1.00 27.40     0.618 N 
ENDBRANCH   4   5
ENDBRANCH   3   4
ENDBRANCH   2   3
ENDBRANCH   1   2
END_RES LYS A 131
BEGIN_RES LYS A 135
REMARK  4 active torsions:
REMARK  status: ('A' for Active; 'I' for Inactive)
REMARK    5  A    between atoms: CA   and  CB  
REMARK    6  A    between atoms: CB   and  CG  
REMARK    7  A    between atoms: CG   and  CD  
REMARK    8  A    between atoms: CD   and  CE  
ROOT
ATOM      7  CA  LYS A 135      33.193  34.663   9.290  1.00 25.02     0.186 C 
ENDROOT
BRANCH   7   8
ATOM      8  CB  LYS A 135      32.060  35.360  10.034  1.00 26.63     0.034 C 
BRANCH   8   9
ATOM      9  CG  LYS A 135      30.805  35.512   9.214  1.00 29.45     0.005 C 
BRANCH   9  10
ATOM     10  CD  LYS A 135      30.344  34.164   8.683  1.00 32.00     0.041 C 
BRANCH  10  11
ATOM     11  CE  LYS A 135      28.935  33.859   9.156  1.00 34.25     0.338 C 
ATOM     12  NZ  LYS A 135      28.611  34.613  10.398  1.00 35.99     0.618 N 
ENDBRANCH  10  11
ENDBRANCH   9  10
ENDBRANCH   8   9
ENDBRANCH   7   8
END_RES LYS A 135
