REMARK VINA RESULT:    -5.167      5.076      7.685
REMARK INTER + INTRA:         -16.271
REMARK INTER:                 -10.929
REMARK INTRA:                  -5.342
REMARK UNBOUND:                -6.121
REMARK SMILES CC(=O)N[C@@H]1[C@@H](O)C[C@](O)(C(=O)O)O[C@H]1C(O)[C@H](O)CNC(=O)OCc1cn(C[C@@H](C)CN2CCN(c3ccc(Cl)cc3)CC2)nn1
REMARK SMILES IDX 24 1 22 2 21 3 23 5 20 6 18 7 16 8 15 9 9 10 8 11 14 12 6 13
REMARK SMILES IDX 5 14 10 15 11 17 12 18 13 19 7 21 4 23 2 24 1 26 3 27 17 28
REMARK SMILES IDX 19 30 25 32 26 33 27 34 47 35 28 36 46 37 29 38 30 39 31 40
REMARK SMILES IDX 32 41 33 42 34 43 45 44 35 45 44 46 36 47 37 48 38 49 43 50
REMARK SMILES IDX 39 51 42 52 40 53 41 54
REMARK H PARENT 21 4 10 16 13 20 7 22 4 25 17 29 19 31
REMARK Flexibility Score: inf
ROOT
ATOM      1  O   UNL     1      18.033  33.362   7.957  1.00  0.00    -0.443 OA
ENDROOT
BRANCH   1   2
ATOM      2  C   UNL     1      18.588  34.630   7.877  1.00  0.00     0.407 C 
ATOM      3  N   UNL     1      19.920  34.893   7.452  1.00  0.00    -0.319 N 
ATOM      4  H   UNL     1      20.496  34.068   7.198  1.00  0.00     0.167 HD
ATOM      5  O   UNL     1      17.833  35.584   8.209  1.00  0.00    -0.225 OA
BRANCH   3   6
ATOM      6  C   UNL     1      20.331  36.258   7.414  1.00  0.00     0.154 C 
BRANCH   6   7
ATOM      7  C   UNL     1      21.747  36.534   7.725  1.00  0.00     0.165 C 
BRANCH   7   8
ATOM      8  C   UNL     1      22.003  37.757   8.588  1.00  0.00     0.176 C 
BRANCH   8   9
ATOM      9  C   UNL     1      23.163  37.337   9.493  1.00  0.00     0.178 C 
ATOM     10  C   UNL     1      25.326  36.490   9.267  1.00  0.00     0.269 C 
ATOM     11  C   UNL     1      25.096  35.593  10.450  1.00  0.00     0.112 C 
ATOM     12  O   UNL     1      24.177  36.935   8.669  1.00  0.00    -0.332 OA
ATOM     13  C   UNL     1      23.951  35.979  11.315  1.00  0.00     0.145 C 
ATOM     14  C   UNL     1      22.740  36.221  10.389  1.00  0.00     0.142 C 
BRANCH  10  15
ATOM     15  O   UNL     1      25.979  35.668   8.312  1.00  0.00    -0.357 OA
ATOM     16  H   UNL     1      25.591  35.780   7.425  1.00  0.00     0.214 HD
ENDBRANCH  10  15
BRANCH  10  17
ATOM     17  C   UNL     1      26.274  37.605   9.559  1.00  0.00     0.364 C 
ATOM     18  O   UNL     1      26.700  38.334   8.628  1.00  0.00    -0.246 OA
BRANCH  17  19
ATOM     19  O   UNL     1      26.726  37.894  10.838  1.00  0.00    -0.477 OA
ATOM     20  H   UNL     1      27.551  38.446  11.043  1.00  0.00     0.296 HD
ENDBRANCH  17  19
ENDBRANCH  10  17
BRANCH  13  21
ATOM     21  O   UNL     1      23.645  34.911  12.158  1.00  0.00    -0.391 OA
ATOM     22  H   UNL     1      23.220  35.234  12.995  1.00  0.00     0.211 HD
ENDBRANCH  13  21
BRANCH  14  23
ATOM     23  N   UNL     1      21.575  36.532  11.174  1.00  0.00    -0.348 N 
ATOM     24  C   UNL     1      20.462  35.663  11.215  1.00  0.00     0.217 C 
ATOM     25  H   UNL     1      21.556  37.411  11.719  1.00  0.00     0.163 HD
ATOM     26  C   UNL     1      19.307  36.084  12.062  1.00  0.00     0.114 C 
ATOM     27  O   UNL     1      20.411  34.584  10.589  1.00  0.00    -0.275 OA
ENDBRANCH  14  23
ENDBRANCH   8   9
BRANCH   8  28
ATOM     28  O   UNL     1      22.383  38.822   7.754  1.00  0.00    -0.388 OA
ATOM     29  H   UNL     1      23.100  39.305   8.238  1.00  0.00     0.211 HD
ENDBRANCH   8  28
ENDBRANCH   7   8
BRANCH   7  30
ATOM     30  O   UNL     1      22.375  36.861   6.491  1.00  0.00    -0.388 OA
ATOM     31  H   UNL     1      22.708  37.793   6.630  1.00  0.00     0.211 HD
ENDBRANCH   7  30
ENDBRANCH   6   7
ENDBRANCH   3   6
ENDBRANCH   1   2
BRANCH   1  32
ATOM     32  C   UNL     1      16.893  33.019   7.185  1.00  0.00     0.294 C 
BRANCH  32  33
ATOM     33  C   UNL     1      16.913  31.579   6.844  1.00  0.00     0.120 A 
ATOM     34  C   UNL     1      16.930  30.554   7.794  1.00  0.00     0.138 A 
ATOM     35  N   UNL     1      16.908  30.936   5.669  1.00  0.00    -0.132 NA
ATOM     36  N   UNL     1      16.933  29.358   7.189  1.00  0.00    -0.252 N 
ATOM     37  N   UNL     1      16.922  29.629   5.865  1.00  0.00    -0.067 NA
BRANCH  36  38
ATOM     38  C   UNL     1      16.926  28.026   7.767  1.00  0.00     0.150 C 
BRANCH  38  39
ATOM     39  C   UNL     1      15.673  27.859   8.635  1.00  0.00     0.022 C 
ATOM     40  C   UNL     1      14.584  27.161   7.910  1.00  0.00     0.011 C 
BRANCH  39  41
ATOM     41  C   UNL     1      16.007  27.450  10.008  1.00  0.00     0.089 C 
BRANCH  41  42
ATOM     42  N   UNL     1      17.189  28.068  10.523  1.00  0.00    -0.299 NA
ATOM     43  C   UNL     1      16.823  29.284  11.298  1.00  0.00     0.106 C 
ATOM     44  C   UNL     1      17.802  27.203  11.525  1.00  0.00     0.106 C 
ATOM     45  C   UNL     1      18.005  29.868  11.987  1.00  0.00     0.132 C 
ATOM     46  C   UNL     1      19.251  27.705  11.622  1.00  0.00     0.132 C 
ATOM     47  N   UNL     1      19.213  29.104  11.936  1.00  0.00    -0.369 N 
BRANCH  47  48
ATOM     48  C   UNL     1      20.450  29.748  12.217  1.00  0.00     0.037 A 
ATOM     49  C   UNL     1      21.607  29.003  12.256  1.00  0.00     0.027 A 
ATOM     50  C   UNL     1      20.505  31.113  12.460  1.00  0.00     0.027 A 
ATOM     51  C   UNL     1      22.799  29.630  12.536  1.00  0.00     0.022 A 
ATOM     52  C   UNL     1      21.698  31.727  12.739  1.00  0.00     0.022 A 
ATOM     53  C   UNL     1      22.858  30.969  12.775  1.00  0.00     0.041 A 
ATOM     54  Cl  UNL     1      24.366  31.764  13.139  1.00  0.00    -0.084 Cl
ENDBRANCH  47  48
ENDBRANCH  41  42
ENDBRANCH  39  41
ENDBRANCH  38  39
ENDBRANCH  36  38
ENDBRANCH  32  33
ENDBRANCH   1  32
TORSDOF 19
BEGIN_RES LYS A 131
REMARK  4 active torsions:
REMARK  status: ('A' for Active; 'I' for Inactive)
REMARK    1  A    between atoms: CA   and  CB  
REMARK    2  A    between atoms: CB   and  CG  
REMARK    3  A    between atoms: CG   and  CD  
REMARK    4  A    between atoms: CD   and  CE  
ROOT
ATOM      1  CA  LYS A 131      29.867  25.555  16.977  1.00 20.52     0.186 C 
ENDROOT
BRANCH   1   2
ATOM      2  CB  LYS A 131      28.345  25.722  17.026  1.00 20.94     0.034 C 
BRANCH   2   3
ATOM      3  CG  LYS A 131      27.601  24.403  16.884  1.00 22.96     0.005 C 
BRANCH   3   4
ATOM      4  CD  LYS A 131      26.150  24.528  17.260  1.00 24.33     0.041 C 
BRANCH   4   5
ATOM      5  CE  LYS A 131      26.015  24.511  18.779  1.00 26.91     0.338 C 
ATOM      6  NZ  LYS A 131      25.552  23.183  19.245  1.00 27.40     0.618 N 
ENDBRANCH   4   5
ENDBRANCH   3   4
ENDBRANCH   2   3
ENDBRANCH   1   2
END_RES LYS A 131
BEGIN_RES LYS A 135
REMARK  4 active torsions:
REMARK  status: ('A' for Active; 'I' for Inactive)
REMARK    5  A    between atoms: CA   and  CB  
REMARK    6  A    between atoms: CB   and  CG  
REMARK    7  A    between atoms: CG   and  CD  
REMARK    8  A    between atoms: CD   and  CE  
ROOT
ATOM      7  CA  LYS A 135      33.193  34.663   9.290  1.00 25.02     0.186 C 
ENDROOT
BRANCH   7   8
ATOM      8  CB  LYS A 135      32.060  35.360  10.034  1.00 26.63     0.034 C 
BRANCH   8   9
ATOM      9  CG  LYS A 135      30.709  35.160   9.398  1.00 29.45     0.005 C 
BRANCH   9  10
ATOM     10  CD  LYS A 135      29.729  36.221   9.874  1.00 32.00     0.041 C 
BRANCH  10  11
ATOM     11  CE  LYS A 135      29.448  36.060  11.356  1.00 34.25     0.338 C 
ATOM     12  NZ  LYS A 135      28.756  34.771  11.633  1.00 35.99     0.618 N 
ENDBRANCH  10  11
ENDBRANCH   9  10
ENDBRANCH   8   9
ENDBRANCH   7   8
END_RES LYS A 135
