REMARK VINA RESULT:    -4.158      6.172     10.939
REMARK INTER + INTRA:         -14.451
REMARK INTER:                  -8.533
REMARK INTRA:                  -5.918
REMARK UNBOUND:                -5.918
REMARK SMILES CC(=O)N[C@@H]1[C@@H](O)C[C@](O)(C(=O)O)O[C@H]1C(O)[C@H](O)CNC(=O)OCc1cn(CCCCCC(=O)O)nn1
REMARK SMILES IDX 25 1 24 2 22 3 21 4 23 6 20 7 18 8 16 9 15 10 9 11 8 12
REMARK SMILES IDX 14 13 6 14 5 15 10 16 11 18 12 19 13 20 7 22 4 24 2 25 1 27
REMARK SMILES IDX 3 28 17 29 19 31 26 33 27 34 38 35 28 36 37 37 29 38 30 39
REMARK SMILES IDX 31 40 32 41 33 42 34 43 35 44 36 45
REMARK H PARENT 21 5 10 17 13 21 7 23 4 26 17 30 19 32 36 46
REMARK Flexibility Score: inf
ROOT
ATOM      1  C   UNL     1      23.482  29.639  17.981  1.00  0.00     0.294 C 
ENDROOT
BRANCH   1   2
ATOM      2  O   UNL     1      24.585  29.724  18.876  1.00  0.00    -0.443 OA
BRANCH   2   3
ATOM      3  C   UNL     1      25.833  29.292  18.411  1.00  0.00     0.407 C 
ATOM      4  N   UNL     1      26.854  30.267  18.225  1.00  0.00    -0.319 N 
ATOM      5  H   UNL     1      26.620  31.269  18.453  1.00  0.00     0.167 HD
ATOM      6  O   UNL     1      25.988  28.068  18.179  1.00  0.00    -0.225 OA
BRANCH   4   7
ATOM      7  C   UNL     1      28.133  29.852  17.746  1.00  0.00     0.154 C 
BRANCH   7   8
ATOM      8  C   UNL     1      29.065  30.980  17.375  1.00  0.00     0.165 C 
BRANCH   8   9
ATOM      9  C   UNL     1      28.830  31.328  15.918  1.00  0.00     0.176 C 
BRANCH   9  10
ATOM     10  C   UNL     1      28.562  32.773  15.658  1.00  0.00     0.178 C 
ATOM     11  C   UNL     1      30.775  33.216  15.030  1.00  0.00     0.269 C 
ATOM     12  C   UNL     1      30.973  33.780  16.446  1.00  0.00     0.112 C 
ATOM     13  O   UNL     1      29.450  33.219  14.700  1.00  0.00    -0.332 OA
ATOM     14  C   UNL     1      29.760  34.641  16.700  1.00  0.00     0.145 C 
ATOM     15  C   UNL     1      28.562  33.682  16.833  1.00  0.00     0.142 C 
BRANCH  11  16
ATOM     16  O   UNL     1      31.413  31.983  14.916  1.00  0.00    -0.357 OA
ATOM     17  H   UNL     1      31.570  31.565  15.822  1.00  0.00     0.214 HD
ENDBRANCH  11  16
BRANCH  11  18
ATOM     18  C   UNL     1      31.465  34.163  14.117  1.00  0.00     0.364 C 
ATOM     19  O   UNL     1      32.505  34.772  14.509  1.00  0.00    -0.246 OA
BRANCH  18  20
ATOM     20  O   UNL     1      30.952  34.362  12.848  1.00  0.00    -0.477 OA
ATOM     21  H   UNL     1      29.957  34.129  12.724  1.00  0.00     0.296 HD
ENDBRANCH  18  20
ENDBRANCH  11  18
BRANCH  14  22
ATOM     22  O   UNL     1      29.895  35.409  17.856  1.00  0.00    -0.391 OA
ATOM     23  H   UNL     1      30.821  35.267  18.185  1.00  0.00     0.211 HD
ENDBRANCH  14  22
BRANCH  15  24
ATOM     24  N   UNL     1      27.337  34.465  16.925  1.00  0.00    -0.348 N 
ATOM     25  C   UNL     1      26.320  34.193  17.861  1.00  0.00     0.217 C 
ATOM     26  H   UNL     1      27.212  35.277  16.256  1.00  0.00     0.163 HD
ATOM     27  C   UNL     1      25.062  35.020  17.929  1.00  0.00     0.114 C 
ATOM     28  O   UNL     1      26.480  33.221  18.662  1.00  0.00    -0.275 OA
ENDBRANCH  15  24
ENDBRANCH   9  10
BRANCH   9  29
ATOM     29  O   UNL     1      27.609  30.661  15.606  1.00  0.00    -0.388 OA
ATOM     30  H   UNL     1      27.135  30.567  16.465  1.00  0.00     0.211 HD
ENDBRANCH   9  29
ENDBRANCH   8   9
BRANCH   8  31
ATOM     31  O   UNL     1      30.355  30.577  17.641  1.00  0.00    -0.388 OA
ATOM     32  H   UNL     1      30.775  30.160  16.849  1.00  0.00     0.211 HD
ENDBRANCH   8  31
ENDBRANCH   7   8
ENDBRANCH   4   7
ENDBRANCH   2   3
ENDBRANCH   1   2
BRANCH   1  33
ATOM     33  C   UNL     1      23.930  30.265  16.716  1.00  0.00     0.120 A 
ATOM     34  C   UNL     1      23.780  29.677  15.476  1.00  0.00     0.138 A 
ATOM     35  N   UNL     1      24.526  31.443  16.534  1.00  0.00    -0.132 NA
ATOM     36  N   UNL     1      24.308  30.555  14.595  1.00  0.00    -0.252 N 
ATOM     37  N   UNL     1      24.753  31.611  15.238  1.00  0.00    -0.067 NA
BRANCH  36  38
ATOM     38  C   UNL     1      24.336  30.277  13.157  1.00  0.00     0.146 C 
BRANCH  38  39
ATOM     39  C   UNL     1      22.988  29.728  12.769  1.00  0.00     0.024 C 
BRANCH  39  40
ATOM     40  C   UNL     1      21.980  30.811  12.450  1.00  0.00     0.002 C 
BRANCH  40  41
ATOM     41  C   UNL     1      20.575  30.318  12.481  1.00  0.00     0.012 C 
BRANCH  41  42
ATOM     42  C   UNL     1      20.413  28.902  11.997  1.00  0.00     0.122 C 
BRANCH  42  43
ATOM     43  C   UNL     1      19.730  28.019  12.955  1.00  0.00     0.303 C 
ATOM     44  O   UNL     1      18.636  27.499  12.685  1.00  0.00    -0.252 OA
BRANCH  43  45
ATOM     45  O   UNL     1      20.305  27.741  14.208  1.00  0.00    -0.481 OA
ATOM     46  H   UNL     1      19.903  28.148  15.059  1.00  0.00     0.296 HD
ENDBRANCH  43  45
ENDBRANCH  42  43
ENDBRANCH  41  42
ENDBRANCH  40  41
ENDBRANCH  39  40
ENDBRANCH  38  39
ENDBRANCH  36  38
ENDBRANCH   1  33
TORSDOF 21
BEGIN_RES LYS A 131
REMARK  4 active torsions:
REMARK  status: ('A' for Active; 'I' for Inactive)
REMARK    1  A    between atoms: CA   and  CB  
REMARK    2  A    between atoms: CB   and  CG  
REMARK    3  A    between atoms: CG   and  CD  
REMARK    4  A    between atoms: CD   and  CE  
ROOT
ATOM      1  CA  LYS A 131      29.867  25.555  16.977  1.00 20.52     0.186 C 
ENDROOT
BRANCH   1   2
ATOM      2  CB  LYS A 131      28.345  25.722  17.026  1.00 20.94     0.034 C 
BRANCH   2   3
ATOM      3  CG  LYS A 131      27.601  24.401  16.898  1.00 22.96     0.005 C 
BRANCH   3   4
ATOM      4  CD  LYS A 131      26.156  24.524  17.295  1.00 24.33     0.041 C 
BRANCH   4   5
ATOM      5  CE  LYS A 131      25.974  24.011  18.719  1.00 26.91     0.338 C 
ATOM      6  NZ  LYS A 131      25.089  24.918  19.488  1.00 27.40     0.618 N 
ENDBRANCH   4   5
ENDBRANCH   3   4
ENDBRANCH   2   3
ENDBRANCH   1   2
END_RES LYS A 131
BEGIN_RES LYS A 135
REMARK  4 active torsions:
REMARK  status: ('A' for Active; 'I' for Inactive)
REMARK    5  A    between atoms: CA   and  CB  
REMARK    6  A    between atoms: CB   and  CG  
REMARK    7  A    between atoms: CG   and  CD  
REMARK    8  A    between atoms: CD   and  CE  
ROOT
ATOM      7  CA  LYS A 135      33.193  34.663   9.290  1.00 25.02     0.186 C 
ENDROOT
BRANCH   7   8
ATOM      8  CB  LYS A 135      32.060  35.360  10.034  1.00 26.63     0.034 C 
BRANCH   8   9
ATOM      9  CG  LYS A 135      30.800  35.500   9.219  1.00 29.45     0.005 C 
BRANCH   9  10
ATOM     10  CD  LYS A 135      30.148  34.144   9.001  1.00 32.00     0.041 C 
BRANCH  10  11
ATOM     11  CE  LYS A 135      28.770  34.108   9.633  1.00 34.25     0.338 C 
ATOM     12  NZ  LYS A 135      27.711  34.400   8.627  1.00 35.99     0.618 N 
ENDBRANCH  10  11
ENDBRANCH   9  10
ENDBRANCH   8   9
ENDBRANCH   7   8
END_RES LYS A 135
