REMARK VINA RESULT:    -3.731      8.548     15.026
REMARK INTER + INTRA:         -15.885
REMARK INTER:                  -9.501
REMARK INTRA:                  -6.384
REMARK UNBOUND:                -8.446
REMARK SMILES CC(=O)N[C@@H]1[C@@H](O)C[C@](O)(C(=O)O)O[C@H]1C(O)[C@H](O)CNC(=O)OCc1cn(CC(O)Cn2ccnc2[N+](=O)[O-])nn1
REMARK SMILES IDX 24 1 22 2 21 3 23 5 20 6 18 7 16 8 15 9 9 10 8 11 14 12 6 13
REMARK SMILES IDX 5 14 10 15 11 17 12 18 13 19 7 21 4 23 2 24 1 26 3 27 17 28
REMARK SMILES IDX 19 30 25 32 26 33 27 34 42 35 28 36 41 37 29 38 30 39 31 40
REMARK SMILES IDX 32 42 33 43 34 44 37 45 35 46 36 47 38 48 39 49 40 50
REMARK H PARENT 21 4 10 16 13 20 7 22 4 25 17 29 19 31 31 41
REMARK Flexibility Score: inf
ROOT
ATOM      1  O   UNL     1      28.460  34.014   9.453  1.00  0.00    -0.443 OA
ENDROOT
BRANCH   1   2
ATOM      2  C   UNL     1      29.077  34.538   8.305  1.00  0.00     0.407 C 
ATOM      3  N   UNL     1      28.362  35.128   7.257  1.00  0.00    -0.319 N 
ATOM      4  H   UNL     1      27.303  35.169   7.353  1.00  0.00     0.167 HD
ATOM      5  O   UNL     1      30.312  34.453   8.262  1.00  0.00    -0.225 OA
BRANCH   3   6
ATOM      6  C   UNL     1      28.957  35.680   6.064  1.00  0.00     0.154 C 
BRANCH   6   7
ATOM      7  C   UNL     1      28.359  37.040   5.823  1.00  0.00     0.165 C 
BRANCH   7   8
ATOM      8  C   UNL     1      28.615  37.889   7.045  1.00  0.00     0.176 C 
BRANCH   8   9
ATOM      9  C   UNL     1      28.187  39.331   6.808  1.00  0.00     0.178 C 
ATOM     10  C   UNL     1      26.236  40.528   6.377  1.00  0.00     0.269 C 
ATOM     11  C   UNL     1      27.122  41.400   5.508  1.00  0.00     0.112 C 
ATOM     12  O   UNL     1      26.839  39.310   6.577  1.00  0.00    -0.332 OA
ATOM     13  C   UNL     1      28.028  40.522   4.673  1.00  0.00     0.145 C 
ATOM     14  C   UNL     1      29.003  39.869   5.646  1.00  0.00     0.142 C 
BRANCH  10  15
ATOM     15  O   UNL     1      25.013  40.275   5.725  1.00  0.00    -0.357 OA
ATOM     16  H   UNL     1      24.698  41.138   5.371  1.00  0.00     0.214 HD
ENDBRANCH  10  15
BRANCH  10  17
ATOM     17  C   UNL     1      25.947  41.146   7.677  1.00  0.00     0.364 C 
ATOM     18  O   UNL     1      26.251  42.330   7.896  1.00  0.00    -0.246 OA
BRANCH  17  19
ATOM     19  O   UNL     1      25.330  40.414   8.675  1.00  0.00    -0.477 OA
ATOM     20  H   UNL     1      25.187  40.806   9.587  1.00  0.00     0.296 HD
ENDBRANCH  17  19
ENDBRANCH  10  17
BRANCH  13  21
ATOM     21  O   UNL     1      27.356  39.490   4.039  1.00  0.00    -0.391 OA
ATOM     22  H   UNL     1      27.198  39.711   3.099  1.00  0.00     0.211 HD
ENDBRANCH  13  21
BRANCH  14  23
ATOM     23  N   UNL     1      29.965  40.847   6.068  1.00  0.00    -0.348 N 
ATOM     24  C   UNL     1      31.342  40.648   5.845  1.00  0.00     0.217 C 
ATOM     25  H   UNL     1      29.702  41.743   6.557  1.00  0.00     0.163 HD
ATOM     26  C   UNL     1      32.339  41.670   6.287  1.00  0.00     0.114 C 
ATOM     27  O   UNL     1      31.760  39.609   5.269  1.00  0.00    -0.275 OA
ENDBRANCH  14  23
ENDBRANCH   8   9
BRANCH   8  28
ATOM     28  O   UNL     1      29.975  37.912   7.282  1.00  0.00    -0.388 OA
ATOM     29  H   UNL     1      30.467  37.232   6.765  1.00  0.00     0.211 HD
ENDBRANCH   8  28
ENDBRANCH   7   8
BRANCH   7  30
ATOM     30  O   UNL     1      27.005  36.973   5.508  1.00  0.00    -0.388 OA
ATOM     31  H   UNL     1      26.948  36.702   4.557  1.00  0.00     0.211 HD
ENDBRANCH   7  30
ENDBRANCH   6   7
ENDBRANCH   3   6
ENDBRANCH   1   2
BRANCH   1  32
ATOM     32  C   UNL     1      28.279  34.857  10.602  1.00  0.00     0.294 C 
BRANCH  32  33
ATOM     33  C   UNL     1      27.331  35.934  10.335  1.00  0.00     0.120 A 
ATOM     34  C   UNL     1      25.994  35.784  10.064  1.00  0.00     0.138 A 
ATOM     35  N   UNL     1      27.620  37.244  10.311  1.00  0.00    -0.132 NA
ATOM     36  N   UNL     1      25.505  37.019   9.882  1.00  0.00    -0.249 N 
ATOM     37  N   UNL     1      26.489  37.873  10.033  1.00  0.00    -0.067 NA
BRANCH  36  38
ATOM     38  C   UNL     1      24.096  37.311   9.568  1.00  0.00     0.181 C 
BRANCH  38  39
ATOM     39  C   UNL     1      23.829  37.046   8.103  1.00  0.00     0.170 C 
BRANCH  39  40
ATOM     40  O   UNL     1      24.950  37.568   7.420  1.00  0.00    -0.388 OA
ATOM     41  H   UNL     1      25.249  38.419   7.791  1.00  0.00     0.211 HD
ENDBRANCH  39  40
BRANCH  39  42
ATOM     42  C   UNL     1      22.573  37.747   7.695  1.00  0.00     0.239 C 
BRANCH  42  43
ATOM     43  N   UNL     1      21.434  36.957   8.172  1.00  0.00    -0.227 N 
ATOM     44  C   UNL     1      21.274  35.621   8.034  1.00  0.00     0.204 A 
ATOM     45  C   UNL     1      20.400  37.459   8.824  1.00  0.00     0.434 A 
ATOM     46  C   UNL     1      20.097  35.290   8.623  1.00  0.00     0.245 A 
ATOM     47  N   UNL     1      19.570  36.415   9.103  1.00  0.00    -0.074 NA
BRANCH  45  48
ATOM     48  N   UNL     1      20.152  38.827   9.188  1.00  0.00    -0.047 N 
ATOM     49  O   UNL     1      19.440  39.590   8.516  1.00  0.00    -0.390 OA
ATOM     50  O   UNL     1      20.728  39.326  10.338  1.00  0.00    -0.390 OA
ENDBRANCH  45  48
ENDBRANCH  42  43
ENDBRANCH  39  42
ENDBRANCH  38  39
ENDBRANCH  36  38
ENDBRANCH  32  33
ENDBRANCH   1  32
TORSDOF 20
BEGIN_RES LYS A 131
REMARK  4 active torsions:
REMARK  status: ('A' for Active; 'I' for Inactive)
REMARK    1  A    between atoms: CA   and  CB  
REMARK    2  A    between atoms: CB   and  CG  
REMARK    3  A    between atoms: CG   and  CD  
REMARK    4  A    between atoms: CD   and  CE  
ROOT
ATOM      1  CA  LYS A 131      29.867  25.555  16.977  1.00 20.52     0.186 C 
ENDROOT
BRANCH   1   2
ATOM      2  CB  LYS A 131      28.345  25.722  17.026  1.00 20.94     0.034 C 
BRANCH   2   3
ATOM      3  CG  LYS A 131      27.604  24.394  16.996  1.00 22.96     0.005 C 
BRANCH   3   4
ATOM      4  CD  LYS A 131      26.399  24.398  17.896  1.00 24.33     0.041 C 
BRANCH   4   5
ATOM      5  CE  LYS A 131      25.381  23.382  17.387  1.00 26.91     0.338 C 
ATOM      6  NZ  LYS A 131      24.108  24.055  17.038  1.00 27.40     0.618 N 
ENDBRANCH   4   5
ENDBRANCH   3   4
ENDBRANCH   2   3
ENDBRANCH   1   2
END_RES LYS A 131
BEGIN_RES LYS A 135
REMARK  4 active torsions:
REMARK  status: ('A' for Active; 'I' for Inactive)
REMARK    5  A    between atoms: CA   and  CB  
REMARK    6  A    between atoms: CB   and  CG  
REMARK    7  A    between atoms: CG   and  CD  
REMARK    8  A    between atoms: CD   and  CE  
ROOT
ATOM      7  CA  LYS A 135      33.193  34.663   9.290  1.00 25.02     0.186 C 
ENDROOT
BRANCH   7   8
ATOM      8  CB  LYS A 135      32.060  35.360  10.034  1.00 26.63     0.034 C 
BRANCH   8   9
ATOM      9  CG  LYS A 135      32.383  35.666  11.474  1.00 29.45     0.005 C 
BRANCH   9  10
ATOM     10  CD  LYS A 135      32.213  37.151  11.758  1.00 32.00     0.041 C 
BRANCH  10  11
ATOM     11  CE  LYS A 135      31.693  37.872  10.529  1.00 34.25     0.338 C 
ATOM     12  NZ  LYS A 135      30.645  38.866  10.894  1.00 35.99     0.618 N 
ENDBRANCH  10  11
ENDBRANCH   9  10
ENDBRANCH   8   9
ENDBRANCH   7   8
END_RES LYS A 135
