REMARK VINA RESULT:    -5.165      2.932      4.617
REMARK INTER + INTRA:         -13.952
REMARK INTER:                  -7.964
REMARK INTRA:                  -5.988
REMARK UNBOUND:                -5.012
REMARK SMILES CC(=O)N[C@@H]1[C@@H](O)C[C@](O)(C(=O)O)O[C@H]1C(O)[C@H](O)CNC(=O)OCc1cn(-c2ccc(C)cc2)nn1
REMARK SMILES IDX 20 1 18 2 16 3 15 4 9 5 8 6 14 7 6 8 5 9 10 10 11 12 12 13
REMARK SMILES IDX 13 14 7 16 4 18 2 19 1 21 3 22 17 23 19 25 21 27 22 28 23 30
REMARK SMILES IDX 24 31 25 32 26 33 27 34 37 35 28 36 36 37 29 38 30 39 35 40
REMARK SMILES IDX 31 41 34 42 32 43 33 44
REMARK H PARENT 10 11 13 15 7 17 4 20 17 24 19 26 21 29
REMARK Flexibility Score: inf
ROOT
ATOM      1  C   UNL     1      30.747  30.257  20.262  1.00  0.00     0.154 C 
ENDROOT
BRANCH   1   2
ATOM      2  C   UNL     1      30.376  28.972  20.879  1.00  0.00     0.165 C 
BRANCH   2   3
ATOM      3  C   UNL     1      29.096  28.307  20.484  1.00  0.00     0.176 C 
BRANCH   3   4
ATOM      4  C   UNL     1      28.057  28.158  21.549  1.00  0.00     0.178 C 
ATOM      5  C   UNL     1      26.247  27.312  20.325  1.00  0.00     0.269 C 
ATOM      6  C   UNL     1      25.328  28.454  20.723  1.00  0.00     0.112 C 
ATOM      7  O   UNL     1      27.243  27.065  21.216  1.00  0.00    -0.332 OA
ATOM      8  C   UNL     1      26.175  29.667  21.077  1.00  0.00     0.145 C 
ATOM      9  C   UNL     1      27.287  29.325  22.014  1.00  0.00     0.142 C 
BRANCH   5  10
ATOM     10  O   UNL     1      26.657  27.561  19.038  1.00  0.00    -0.357 OA
ATOM     11  H   UNL     1      25.922  27.762  18.402  1.00  0.00     0.214 HD
ENDBRANCH   5  10
BRANCH   5  12
ATOM     12  C   UNL     1      25.372  26.097  20.305  1.00  0.00     0.364 C 
ATOM     13  O   UNL     1      24.206  26.119  19.810  1.00  0.00    -0.246 OA
BRANCH  12  14
ATOM     14  O   UNL     1      25.829  24.909  20.838  1.00  0.00    -0.477 OA
ATOM     15  H   UNL     1      25.155  24.249  21.233  1.00  0.00     0.296 HD
ENDBRANCH  12  14
ENDBRANCH   5  12
BRANCH   8  16
ATOM     16  O   UNL     1      26.746  30.052  19.863  1.00  0.00    -0.391 OA
ATOM     17  H   UNL     1      26.060  30.177  19.158  1.00  0.00     0.211 HD
ENDBRANCH   8  16
BRANCH   9  18
ATOM     18  N   UNL     1      26.843  29.023  23.361  1.00  0.00    -0.348 N 
ATOM     19  C   UNL     1      27.587  29.337  24.511  1.00  0.00     0.217 C 
ATOM     20  H   UNL     1      25.919  28.550  23.431  1.00  0.00     0.163 HD
ATOM     21  C   UNL     1      27.163  29.043  25.893  1.00  0.00     0.114 C 
ATOM     22  O   UNL     1      28.680  29.902  24.318  1.00  0.00    -0.275 OA
ENDBRANCH   9  18
ENDBRANCH   3   4
BRANCH   3  23
ATOM     23  O   UNL     1      29.483  26.898  20.311  1.00  0.00    -0.388 OA
ATOM     24  H   UNL     1      30.052  26.669  21.093  1.00  0.00     0.211 HD
ENDBRANCH   3  23
ENDBRANCH   2   3
BRANCH   2  25
ATOM     25  O   UNL     1      30.622  28.950  22.243  1.00  0.00    -0.388 OA
ATOM     26  H   UNL     1      31.593  28.775  22.442  1.00  0.00     0.211 HD
ENDBRANCH   2  25
ENDBRANCH   1   2
BRANCH   1  27
ATOM     27  N   UNL     1      30.440  30.368  18.835  1.00  0.00    -0.319 N 
ATOM     28  C   UNL     1      29.481  31.285  18.348  1.00  0.00     0.407 C 
ATOM     29  H   UNL     1      30.912  29.765  18.111  1.00  0.00     0.167 HD
ATOM     30  O   UNL     1      28.876  32.019  19.137  1.00  0.00    -0.225 OA
BRANCH  28  31
ATOM     31  O   UNL     1      29.173  31.409  16.992  1.00  0.00    -0.443 OA
BRANCH  31  32
ATOM     32  C   UNL     1      27.938  31.970  16.614  1.00  0.00     0.294 C 
BRANCH  32  33
ATOM     33  C   UNL     1      26.896  30.966  16.378  1.00  0.00     0.121 A 
ATOM     34  C   UNL     1      25.940  31.072  15.389  1.00  0.00     0.144 A 
ATOM     35  N   UNL     1      26.623  29.801  16.999  1.00  0.00    -0.131 NA
ATOM     36  N   UNL     1      25.124  29.998  15.424  1.00  0.00    -0.220 N 
ATOM     37  N   UNL     1      25.568  29.249  16.411  1.00  0.00    -0.062 NA
BRANCH  36  38
ATOM     38  C   UNL     1      24.006  29.688  14.594  1.00  0.00     0.066 A 
ATOM     39  C   UNL     1      22.891  29.059  15.109  1.00  0.00     0.029 A 
ATOM     40  C   UNL     1      23.983  29.997  13.250  1.00  0.00     0.029 A 
ATOM     41  C   UNL     1      21.801  28.752  14.318  1.00  0.00     0.005 A 
ATOM     42  C   UNL     1      22.898  29.693  12.454  1.00  0.00     0.005 A 
ATOM     43  C   UNL     1      21.787  29.066  12.975  1.00  0.00    -0.051 A 
ATOM     44  C   UNL     1      20.639  28.755  12.084  1.00  0.00     0.044 C 
ENDBRANCH  36  38
ENDBRANCH  32  33
ENDBRANCH  31  32
ENDBRANCH  28  31
ENDBRANCH   1  27
TORSDOF 15
BEGIN_RES LYS A 131
REMARK  4 active torsions:
REMARK  status: ('A' for Active; 'I' for Inactive)
REMARK    1  A    between atoms: CA   and  CB  
REMARK    2  A    between atoms: CB   and  CG  
REMARK    3  A    between atoms: CG   and  CD  
REMARK    4  A    between atoms: CD   and  CE  
ROOT
ATOM      1  CA  LYS A 131      29.867  25.555  16.977  1.00 20.52     0.186 C 
ENDROOT
BRANCH   1   2
ATOM      2  CB  LYS A 131      28.345  25.722  17.026  1.00 20.94     0.034 C 
BRANCH   2   3
ATOM      3  CG  LYS A 131      27.599  24.468  16.596  1.00 22.96     0.005 C 
BRANCH   3   4
ATOM      4  CD  LYS A 131      26.937  23.778  17.756  1.00 24.33     0.041 C 
BRANCH   4   5
ATOM      5  CE  LYS A 131      25.432  23.711  17.517  1.00 26.91     0.338 C 
ATOM      6  NZ  LYS A 131      24.964  22.305  17.544  1.00 27.40     0.618 N 
ENDBRANCH   4   5
ENDBRANCH   3   4
ENDBRANCH   2   3
ENDBRANCH   1   2
END_RES LYS A 131
BEGIN_RES LYS A 135
REMARK  4 active torsions:
REMARK  status: ('A' for Active; 'I' for Inactive)
REMARK    5  A    between atoms: CA   and  CB  
REMARK    6  A    between atoms: CB   and  CG  
REMARK    7  A    between atoms: CG   and  CD  
REMARK    8  A    between atoms: CD   and  CE  
ROOT
ATOM      7  CA  LYS A 135      33.193  34.663   9.290  1.00 25.02     0.186 C 
ENDROOT
BRANCH   7   8
ATOM      8  CB  LYS A 135      32.060  35.360  10.034  1.00 26.63     0.034 C 
BRANCH   8   9
ATOM      9  CG  LYS A 135      30.804  35.511   9.215  1.00 29.45     0.005 C 
BRANCH   9  10
ATOM     10  CD  LYS A 135      30.141  34.160   8.995  1.00 32.00     0.041 C 
BRANCH  10  11
ATOM     11  CE  LYS A 135      28.681  34.338   8.623  1.00 34.25     0.338 C 
ATOM     12  NZ  LYS A 135      27.788  33.772   9.672  1.00 35.99     0.618 N 
ENDBRANCH  10  11
ENDBRANCH   9  10
ENDBRANCH   8   9
ENDBRANCH   7   8
END_RES LYS A 135
