REMARK VINA RESULT:    -4.920      2.345      3.843
REMARK INTER + INTRA:         -13.678
REMARK INTER:                  -8.809
REMARK INTRA:                  -4.870
REMARK UNBOUND:                -5.164
REMARK SMILES CC(=O)N[C@@H]1[C@@H](O)C[C@](O)(C(=O)O)O[C@H]1C(O)[C@H](O)CNC(=O)OCc1cn(-c2cccnc2)nn1
REMARK SMILES IDX 20 1 18 2 16 3 15 4 9 5 8 6 14 7 6 8 5 9 10 10 11 12 12 13
REMARK SMILES IDX 13 14 7 16 4 18 2 19 1 21 3 22 17 23 19 25 21 27 22 28 23 30
REMARK SMILES IDX 24 31 25 32 26 33 27 34 36 35 28 36 35 37 29 38 30 39 34 40
REMARK SMILES IDX 31 41 33 42 32 43
REMARK H PARENT 10 11 13 15 7 17 4 20 17 24 19 26 21 29
REMARK Flexibility Score: inf
ROOT
ATOM      1  C   UNL     1      27.742  29.528  19.534  1.00  0.00     0.154 C 
ENDROOT
BRANCH   1   2
ATOM      2  C   UNL     1      27.344  28.106  19.691  1.00  0.00     0.165 C 
BRANCH   2   3
ATOM      3  C   UNL     1      27.605  27.556  21.041  1.00  0.00     0.176 C 
BRANCH   3   4
ATOM      4  C   UNL     1      28.991  27.626  21.581  1.00  0.00     0.178 C 
ATOM      5  C   UNL     1      31.214  27.677  21.143  1.00  0.00     0.269 C 
ATOM      6  C   UNL     1      31.526  27.497  22.586  1.00  0.00     0.112 C 
ATOM      7  O   UNL     1      29.971  27.246  20.721  1.00  0.00    -0.332 OA
ATOM      8  C   UNL     1      30.388  27.589  23.540  1.00  0.00     0.145 C 
ATOM      9  C   UNL     1      29.135  26.923  22.901  1.00  0.00     0.142 C 
BRANCH   5  10
ATOM     10  O   UNL     1      32.149  26.841  20.451  1.00  0.00    -0.357 OA
ATOM     11  H   UNL     1      31.587  26.149  20.033  1.00  0.00     0.214 HD
ENDBRANCH   5  10
BRANCH   5  12
ATOM     12  C   UNL     1      31.482  29.050  20.659  1.00  0.00     0.364 C 
ATOM     13  O   UNL     1      32.042  29.879  21.419  1.00  0.00    -0.246 OA
BRANCH  12  14
ATOM     14  O   UNL     1      31.157  29.519  19.393  1.00  0.00    -0.477 OA
ATOM     15  H   UNL     1      31.691  30.333  19.068  1.00  0.00     0.296 HD
ENDBRANCH  12  14
ENDBRANCH   5  12
BRANCH   8  16
ATOM     16  O   UNL     1      30.641  26.843  24.693  1.00  0.00    -0.391 OA
ATOM     17  H   UNL     1      29.784  26.544  25.086  1.00  0.00     0.211 HD
ENDBRANCH   8  16
BRANCH   9  18
ATOM     18  N   UNL     1      28.038  27.301  23.750  1.00  0.00    -0.348 N 
ATOM     19  C   UNL     1      27.201  26.378  24.416  1.00  0.00     0.217 C 
ATOM     20  H   UNL     1      27.834  28.325  23.896  1.00  0.00     0.163 HD
ATOM     21  C   UNL     1      26.095  26.867  25.271  1.00  0.00     0.114 C 
ATOM     22  O   UNL     1      27.404  25.150  24.277  1.00  0.00    -0.275 OA
ENDBRANCH   9  18
ENDBRANCH   3   4
BRANCH   3  23
ATOM     23  O   UNL     1      26.921  26.390  21.330  1.00  0.00    -0.388 OA
ATOM     24  H   UNL     1      27.341  25.783  21.960  1.00  0.00     0.211 HD
ENDBRANCH   3  23
ENDBRANCH   2   3
BRANCH   2  25
ATOM     25  O   UNL     1      28.085  27.302  18.789  1.00  0.00    -0.388 OA
ATOM     26  H   UNL     1      28.067  27.756  17.922  1.00  0.00     0.211 HD
ENDBRANCH   2  25
ENDBRANCH   1   2
BRANCH   1  27
ATOM     27  N   UNL     1      28.561  29.850  18.404  1.00  0.00    -0.319 N 
ATOM     28  C   UNL     1      28.128  30.394  17.201  1.00  0.00     0.407 C 
ATOM     29  H   UNL     1      29.608  29.659  18.481  1.00  0.00     0.167 HD
ATOM     30  O   UNL     1      26.934  30.649  16.995  1.00  0.00    -0.225 OA
BRANCH  28  31
ATOM     31  O   UNL     1      29.000  30.692  16.139  1.00  0.00    -0.443 OA
BRANCH  31  32
ATOM     32  C   UNL     1      30.318  31.124  16.390  1.00  0.00     0.294 C 
BRANCH  32  33
ATOM     33  C   UNL     1      30.648  32.346  15.633  1.00  0.00     0.121 A 
ATOM     34  C   UNL     1      29.717  33.043  14.880  1.00  0.00     0.144 A 
ATOM     35  N   UNL     1      31.792  33.015  15.495  1.00  0.00    -0.131 NA
ATOM     36  N   UNL     1      30.325  34.101  14.317  1.00  0.00    -0.219 N 
ATOM     37  N   UNL     1      31.576  34.072  14.697  1.00  0.00    -0.062 NA
BRANCH  36  38
ATOM     38  C   UNL     1      29.733  35.085  13.462  1.00  0.00     0.085 A 
ATOM     39  C   UNL     1      28.517  34.861  12.839  1.00  0.00     0.031 A 
ATOM     40  C   UNL     1      30.377  36.286  13.245  1.00  0.00     0.139 A 
ATOM     41  C   UNL     1      27.979  35.851  12.013  1.00  0.00     0.022 A 
ATOM     42  N   UNL     1      29.830  37.233  12.434  1.00  0.00    -0.262 NA
ATOM     43  C   UNL     1      28.650  37.044  11.816  1.00  0.00     0.111 A 
ENDBRANCH  36  38
ENDBRANCH  32  33
ENDBRANCH  31  32
ENDBRANCH  28  31
ENDBRANCH   1  27
TORSDOF 15
BEGIN_RES LYS A 131
REMARK  4 active torsions:
REMARK  status: ('A' for Active; 'I' for Inactive)
REMARK    1  A    between atoms: CA   and  CB  
REMARK    2  A    between atoms: CB   and  CG  
REMARK    3  A    between atoms: CG   and  CD  
REMARK    4  A    between atoms: CD   and  CE  
ROOT
ATOM      1  CA  LYS A 131      29.867  25.555  16.977  1.00 20.52     0.186 C 
ENDROOT
BRANCH   1   2
ATOM      2  CB  LYS A 131      28.345  25.722  17.026  1.00 20.94     0.034 C 
BRANCH   2   3
ATOM      3  CG  LYS A 131      27.602  24.399  16.922  1.00 22.96     0.005 C 
BRANCH   3   4
ATOM      4  CD  LYS A 131      26.162  24.524  17.337  1.00 24.33     0.041 C 
BRANCH   4   5
ATOM      5  CE  LYS A 131      25.911  23.661  18.569  1.00 26.91     0.338 C 
ATOM      6  NZ  LYS A 131      24.988  22.549  18.245  1.00 27.40     0.618 N 
ENDBRANCH   4   5
ENDBRANCH   3   4
ENDBRANCH   2   3
ENDBRANCH   1   2
END_RES LYS A 131
BEGIN_RES LYS A 135
REMARK  4 active torsions:
REMARK  status: ('A' for Active; 'I' for Inactive)
REMARK    5  A    between atoms: CA   and  CB  
REMARK    6  A    between atoms: CB   and  CG  
REMARK    7  A    between atoms: CG   and  CD  
REMARK    8  A    between atoms: CD   and  CE  
ROOT
ATOM      7  CA  LYS A 135      33.193  34.663   9.290  1.00 25.02     0.186 C 
ENDROOT
BRANCH   7   8
ATOM      8  CB  LYS A 135      32.060  35.360  10.034  1.00 26.63     0.034 C 
BRANCH   8   9
ATOM      9  CG  LYS A 135      30.709  34.736   9.795  1.00 29.45     0.005 C 
BRANCH   9  10
ATOM     10  CD  LYS A 135      30.477  34.512   8.309  1.00 32.00     0.041 C 
BRANCH  10  11
ATOM     11  CE  LYS A 135      29.056  34.884   7.930  1.00 34.25     0.338 C 
ATOM     12  NZ  LYS A 135      28.805  36.335   8.150  1.00 35.99     0.618 N 
ENDBRANCH  10  11
ENDBRANCH   9  10
ENDBRANCH   8   9
ENDBRANCH   7   8
END_RES LYS A 135
