REMARK VINA RESULT:    -4.406      0.000      0.000
REMARK INTER + INTRA:         -14.457
REMARK INTER:                  -8.298
REMARK INTRA:                  -6.159
REMARK UNBOUND:                -6.059
REMARK SMILES CC(=O)N[C@@H]1[C@@H](O)C[C@](O)(C(=O)O)O[C@H]1C(O)[C@H](O)CNC(=O)OCc1cn(CCOC(C)=O)nn1
REMARK SMILES IDX 21 1 22 2 23 3 20 5 18 6 16 7 15 8 9 9 8 10 14 11 6 12 5 13
REMARK SMILES IDX 10 14 11 16 12 17 13 18 7 20 4 22 2 23 1 25 3 26 17 27 19 29
REMARK SMILES IDX 24 31 25 32 26 33 27 34 36 35 28 36 35 37 29 38 30 39 31 40
REMARK SMILES IDX 32 41 34 42 33 43
REMARK H PARENT 21 4 10 15 13 19 7 21 4 24 17 28 19 30
REMARK Flexibility Score: inf
ROOT
ATOM      1  N   UNL     1      32.325  33.779  14.942  1.00  0.00    -0.319 N 
ATOM      2  C   UNL     1      32.839  35.049  14.599  1.00  0.00     0.407 C 
ATOM      3  O   UNL     1      32.873  35.962  15.436  1.00  0.00    -0.225 OA
ATOM      4  H   UNL     1      32.328  33.059  14.167  1.00  0.00     0.167 HD
ENDROOT
BRANCH   1   5
ATOM      5  C   UNL     1      31.815  33.416  16.247  1.00  0.00     0.154 C 
BRANCH   5   6
ATOM      6  C   UNL     1      30.355  33.644  16.356  1.00  0.00     0.165 C 
BRANCH   6   7
ATOM      7  C   UNL     1      29.468  32.462  16.037  1.00  0.00     0.176 C 
BRANCH   7   8
ATOM      8  C   UNL     1      29.721  31.237  16.863  1.00  0.00     0.178 C 
ATOM      9  C   UNL     1      27.507  30.544  16.687  1.00  0.00     0.269 C 
ATOM     10  C   UNL     1      27.154  31.397  17.844  1.00  0.00     0.112 C 
ATOM     11  O   UNL     1      28.829  30.211  16.554  1.00  0.00    -0.332 OA
ATOM     12  C   UNL     1      28.255  31.759  18.773  1.00  0.00     0.145 C 
ATOM     13  C   UNL     1      29.636  31.399  18.347  1.00  0.00     0.142 C 
BRANCH   9  14
ATOM     14  O   UNL     1      27.125  31.139  15.460  1.00  0.00    -0.357 OA
ATOM     15  H   UNL     1      27.837  31.723  15.106  1.00  0.00     0.214 HD
ENDBRANCH   9  14
BRANCH   9  16
ATOM     16  C   UNL     1      26.748  29.262  16.732  1.00  0.00     0.364 C 
ATOM     17  O   UNL     1      27.343  28.152  16.948  1.00  0.00    -0.246 OA
BRANCH  16  18
ATOM     18  O   UNL     1      25.377  29.172  16.550  1.00  0.00    -0.477 OA
ATOM     19  H   UNL     1      25.034  29.133  15.584  1.00  0.00     0.296 HD
ENDBRANCH  16  18
ENDBRANCH   9  16
BRANCH  12  20
ATOM     20  O   UNL     1      28.213  33.142  18.977  1.00  0.00    -0.391 OA
ATOM     21  H   UNL     1      29.098  33.479  19.318  1.00  0.00     0.211 HD
ENDBRANCH  12  20
BRANCH  13  22
ATOM     22  N   UNL     1      30.136  30.176  18.930  1.00  0.00    -0.348 N 
ATOM     23  C   UNL     1      30.962  30.145  20.058  1.00  0.00     0.217 C 
ATOM     24  H   UNL     1      29.856  29.289  18.471  1.00  0.00     0.163 HD
ATOM     25  C   UNL     1      31.489  28.903  20.679  1.00  0.00     0.114 C 
ATOM     26  O   UNL     1      31.271  31.240  20.566  1.00  0.00    -0.275 OA
ENDBRANCH  13  22
ENDBRANCH   7   8
BRANCH   7  27
ATOM     27  O   UNL     1      29.942  32.068  14.727  1.00  0.00    -0.388 OA
ATOM     28  H   UNL     1      29.844  32.921  14.204  1.00  0.00     0.211 HD
ENDBRANCH   7  27
ENDBRANCH   6   7
BRANCH   6  29
ATOM     29  O   UNL     1      29.854  34.835  15.924  1.00  0.00    -0.388 OA
ATOM     30  H   UNL     1      28.886  34.865  15.900  1.00  0.00     0.211 HD
ENDBRANCH   6  29
ENDBRANCH   5   6
ENDBRANCH   1   5
BRANCH   2  31
ATOM     31  O   UNL     1      33.322  35.293  13.293  1.00  0.00    -0.443 OA
BRANCH  31  32
ATOM     32  C   UNL     1      32.532  36.050  12.375  1.00  0.00     0.294 C 
BRANCH  32  33
ATOM     33  C   UNL     1      31.121  35.658  12.563  1.00  0.00     0.120 A 
ATOM     34  C   UNL     1      30.043  36.524  12.657  1.00  0.00     0.138 A 
ATOM     35  N   UNL     1      30.618  34.422  12.684  1.00  0.00    -0.132 NA
ATOM     36  N   UNL     1      28.940  35.781  12.829  1.00  0.00    -0.249 N 
ATOM     37  N   UNL     1      29.313  34.522  12.842  1.00  0.00    -0.067 NA
BRANCH  36  38
ATOM     38  C   UNL     1      27.603  36.312  12.970  1.00  0.00     0.187 C 
BRANCH  38  39
ATOM     39  C   UNL     1      26.890  35.532  14.049  1.00  0.00     0.256 C 
BRANCH  39  40
ATOM     40  O   UNL     1      26.223  34.441  13.481  1.00  0.00    -0.464 OA
BRANCH  40  41
ATOM     41  C   UNL     1      25.316  33.709  14.188  1.00  0.00     0.302 C 
ATOM     42  O   UNL     1      24.960  32.577  13.812  1.00  0.00    -0.253 OA
ATOM     43  C   UNL     1      24.716  34.257  15.454  1.00  0.00     0.139 C 
ENDBRANCH  40  41
ENDBRANCH  39  40
ENDBRANCH  38  39
ENDBRANCH  36  38
ENDBRANCH  32  33
ENDBRANCH  31  32
ENDBRANCH   2  31
TORSDOF 18
BEGIN_RES LYS A 131
REMARK  4 active torsions:
REMARK  status: ('A' for Active; 'I' for Inactive)
REMARK    1  A    between atoms: CA   and  CB  
REMARK    2  A    between atoms: CB   and  CG  
REMARK    3  A    between atoms: CG   and  CD  
REMARK    4  A    between atoms: CD   and  CE  
ROOT
ATOM      1  CA  LYS A 131      29.867  25.555  16.977  1.00 20.52     0.186 C 
ENDROOT
BRANCH   1   2
ATOM      2  CB  LYS A 131      28.345  25.722  17.026  1.00 20.94     0.034 C 
BRANCH   2   3
ATOM      3  CG  LYS A 131      27.601  24.400  16.908  1.00 22.96     0.005 C 
BRANCH   3   4
ATOM      4  CD  LYS A 131      26.153  24.529  17.291  1.00 24.33     0.041 C 
BRANCH   4   5
ATOM      5  CE  LYS A 131      26.046  25.166  18.673  1.00 26.91     0.338 C 
ATOM      6  NZ  LYS A 131      25.051  26.264  18.663  1.00 27.40     0.618 N 
ENDBRANCH   4   5
ENDBRANCH   3   4
ENDBRANCH   2   3
ENDBRANCH   1   2
END_RES LYS A 131
BEGIN_RES LYS A 135
REMARK  4 active torsions:
REMARK  status: ('A' for Active; 'I' for Inactive)
REMARK    5  A    between atoms: CA   and  CB  
REMARK    6  A    between atoms: CB   and  CG  
REMARK    7  A    between atoms: CG   and  CD  
REMARK    8  A    between atoms: CD   and  CE  
ROOT
ATOM      7  CA  LYS A 135      33.193  34.663   9.290  1.00 25.02     0.186 C 
ENDROOT
BRANCH   7   8
ATOM      8  CB  LYS A 135      32.060  35.360  10.034  1.00 26.63     0.034 C 
BRANCH   8   9
ATOM      9  CG  LYS A 135      30.803  35.508   9.216  1.00 29.45     0.005 C 
BRANCH   9  10
ATOM     10  CD  LYS A 135      30.115  34.163   9.042  1.00 32.00     0.041 C 
BRANCH  10  11
ATOM     11  CE  LYS A 135      28.648  34.355   8.709  1.00 34.25     0.338 C 
ATOM     12  NZ  LYS A 135      27.777  33.715   9.733  1.00 35.99     0.618 N 
ENDBRANCH  10  11
ENDBRANCH   9  10
ENDBRANCH   8   9
ENDBRANCH   7   8
END_RES LYS A 135
