REMARK VINA RESULT:    -4.186      5.784     10.616
REMARK INTER + INTRA:         -13.757
REMARK INTER:                  -7.613
REMARK INTRA:                  -6.145
REMARK UNBOUND:                -6.145
REMARK SMILES CC(=O)N[C@@H]1[C@@H](O)C[C@](O)(C(=O)O)O[C@H]1C(O)[C@H](O)CNC(=O)OCc1cn(C(C)(C)CO)nn1
REMARK SMILES IDX 21 1 22 2 23 3 20 5 18 6 16 7 15 8 9 9 8 10 14 11 6 12 5 13
REMARK SMILES IDX 10 14 11 16 12 17 13 18 7 20 4 22 2 23 1 25 3 26 17 27 19 29
REMARK SMILES IDX 24 31 25 32 26 33 27 34 35 35 28 36 34 37 29 38 30 39 31 40
REMARK SMILES IDX 32 41 33 42
REMARK H PARENT 21 4 10 15 13 19 7 21 4 24 17 28 19 30 33 43
REMARK Flexibility Score: inf
ROOT
ATOM      1  N   UNL     1      33.045  35.457  19.278  1.00  0.00    -0.319 N 
ATOM      2  C   UNL     1      34.363  35.476  19.836  1.00  0.00     0.407 C 
ATOM      3  O   UNL     1      34.794  34.514  20.557  1.00  0.00    -0.225 OA
ATOM      4  H   UNL     1      32.749  36.258  18.690  1.00  0.00     0.167 HD
ENDROOT
BRANCH   1   5
ATOM      5  C   UNL     1      32.179  34.325  19.533  1.00  0.00     0.154 C 
BRANCH   5   6
ATOM      6  C   UNL     1      31.459  33.860  18.328  1.00  0.00     0.165 C 
BRANCH   6   7
ATOM      7  C   UNL     1      31.329  34.792  17.183  1.00  0.00     0.176 C 
BRANCH   7   8
ATOM      8  C   UNL     1      31.204  34.051  15.875  1.00  0.00     0.178 C 
ATOM      9  C   UNL     1      32.098  35.576  14.303  1.00  0.00     0.269 C 
ATOM     10  C   UNL     1      30.689  35.761  13.709  1.00  0.00     0.112 C 
ATOM     11  O   UNL     1      32.217  34.428  15.018  1.00  0.00    -0.332 OA
ATOM     12  C   UNL     1      30.060  34.409  13.754  1.00  0.00     0.145 C 
ATOM     13  C   UNL     1      29.838  34.086  15.260  1.00  0.00     0.142 C 
BRANCH   9  14
ATOM     14  O   UNL     1      32.458  36.740  14.951  1.00  0.00    -0.357 OA
ATOM     15  H   UNL     1      31.752  37.002  15.589  1.00  0.00     0.214 HD
ENDBRANCH   9  14
BRANCH   9  16
ATOM     16  C   UNL     1      33.040  35.422  13.126  1.00  0.00     0.364 C 
ATOM     17  O   UNL     1      32.902  36.124  12.097  1.00  0.00    -0.246 OA
BRANCH  16  18
ATOM     18  O   UNL     1      34.049  34.489  13.224  1.00  0.00    -0.477 OA
ATOM     19  H   UNL     1      34.070  33.666  12.632  1.00  0.00     0.296 HD
ENDBRANCH  16  18
ENDBRANCH   9  16
BRANCH  12  20
ATOM     20  O   UNL     1      28.860  34.328  13.075  1.00  0.00    -0.391 OA
ATOM     21  H   UNL     1      29.032  33.806  12.248  1.00  0.00     0.211 HD
ENDBRANCH  12  20
BRANCH  13  22
ATOM     22  N   UNL     1      29.204  32.760  15.191  1.00  0.00    -0.348 N 
ATOM     23  C   UNL     1      28.209  32.336  16.079  1.00  0.00     0.217 C 
ATOM     24  H   UNL     1      29.530  32.125  14.433  1.00  0.00     0.163 HD
ATOM     25  C   UNL     1      27.559  31.001  16.031  1.00  0.00     0.114 C 
ATOM     26  O   UNL     1      27.832  33.131  16.984  1.00  0.00    -0.275 OA
ENDBRANCH  13  22
ENDBRANCH   7   8
BRANCH   7  27
ATOM     27  O   UNL     1      30.568  35.904  17.329  1.00  0.00    -0.388 OA
ATOM     28  H   UNL     1      29.964  35.899  18.117  1.00  0.00     0.211 HD
ENDBRANCH   7  27
ENDBRANCH   6   7
BRANCH   6  29
ATOM     29  O   UNL     1      30.164  33.430  18.695  1.00  0.00    -0.388 OA
ATOM     30  H   UNL     1      30.068  33.569  19.664  1.00  0.00     0.211 HD
ENDBRANCH   6  29
ENDBRANCH   5   6
ENDBRANCH   1   5
BRANCH   2  31
ATOM     31  O   UNL     1      35.161  36.560  19.578  1.00  0.00    -0.443 OA
BRANCH  31  32
ATOM     32  C   UNL     1      35.131  37.271  18.375  1.00  0.00     0.294 C 
BRANCH  32  33
ATOM     33  C   UNL     1      35.667  36.459  17.253  1.00  0.00     0.120 A 
ATOM     34  C   UNL     1      36.998  36.186  17.057  1.00  0.00     0.139 A 
ATOM     35  N   UNL     1      35.008  35.863  16.259  1.00  0.00    -0.132 NA
ATOM     36  N   UNL     1      37.118  35.434  15.958  1.00  0.00    -0.244 N 
ATOM     37  N   UNL     1      35.881  35.251  15.491  1.00  0.00    -0.066 NA
BRANCH  36  38
ATOM     38  C   UNL     1      38.355  34.936  15.414  1.00  0.00     0.082 C 
ATOM     39  C   UNL     1      39.051  34.026  16.404  1.00  0.00     0.039 C 
ATOM     40  C   UNL     1      39.248  36.123  15.073  1.00  0.00     0.039 C 
BRANCH  38  41
ATOM     41  C   UNL     1      38.086  34.208  14.122  1.00  0.00     0.186 C 
BRANCH  41  42
ATOM     42  O   UNL     1      37.878  32.849  14.373  1.00  0.00    -0.394 OA
ATOM     43  H   UNL     1      38.563  32.541  15.020  1.00  0.00     0.210 HD
ENDBRANCH  41  42
ENDBRANCH  38  41
ENDBRANCH  36  38
ENDBRANCH  32  33
ENDBRANCH  31  32
ENDBRANCH   2  31
TORSDOF 17
BEGIN_RES LYS A 131
REMARK  4 active torsions:
REMARK  status: ('A' for Active; 'I' for Inactive)
REMARK    1  A    between atoms: CA   and  CB  
REMARK    2  A    between atoms: CB   and  CG  
REMARK    3  A    between atoms: CG   and  CD  
REMARK    4  A    between atoms: CD   and  CE  
ROOT
ATOM      1  CA  LYS A 131      29.867  25.555  16.977  1.00 20.52     0.186 C 
ENDROOT
BRANCH   1   2
ATOM      2  CB  LYS A 131      28.345  25.722  17.026  1.00 20.94     0.034 C 
BRANCH   2   3
ATOM      3  CG  LYS A 131      27.601  24.404  16.875  1.00 22.96     0.005 C 
BRANCH   3   4
ATOM      4  CD  LYS A 131      26.163  24.514  17.300  1.00 24.33     0.041 C 
BRANCH   4   5
ATOM      5  CE  LYS A 131      25.606  23.121  17.575  1.00 26.91     0.338 C 
ATOM      6  NZ  LYS A 131      24.906  23.090  18.881  1.00 27.40     0.618 N 
ENDBRANCH   4   5
ENDBRANCH   3   4
ENDBRANCH   2   3
ENDBRANCH   1   2
END_RES LYS A 131
BEGIN_RES LYS A 135
REMARK  4 active torsions:
REMARK  status: ('A' for Active; 'I' for Inactive)
REMARK    5  A    between atoms: CA   and  CB  
REMARK    6  A    between atoms: CB   and  CG  
REMARK    7  A    between atoms: CG   and  CD  
REMARK    8  A    between atoms: CD   and  CE  
ROOT
ATOM      7  CA  LYS A 135      33.193  34.663   9.290  1.00 25.02     0.186 C 
ENDROOT
BRANCH   7   8
ATOM      8  CB  LYS A 135      32.060  35.360  10.034  1.00 26.63     0.034 C 
BRANCH   8   9
ATOM      9  CG  LYS A 135      30.886  35.706   9.155  1.00 29.45     0.005 C 
BRANCH   9  10
ATOM     10  CD  LYS A 135      30.372  34.470   8.434  1.00 32.00     0.041 C 
BRANCH  10  11
ATOM     11  CE  LYS A 135      28.978  34.115   8.913  1.00 34.25     0.338 C 
ATOM     12  NZ  LYS A 135      28.169  35.339   9.165  1.00 35.99     0.618 N 
ENDBRANCH  10  11
ENDBRANCH   9  10
ENDBRANCH   8   9
ENDBRANCH   7   8
END_RES LYS A 135
