REMARK VINA RESULT:    -3.922      2.510      7.405
REMARK INTER + INTRA:         -14.229
REMARK INTER:                  -7.746
REMARK INTRA:                  -6.483
REMARK UNBOUND:                -6.753
REMARK SMILES COCC(C(N)=O)n1cc(COC(=O)NC[C@@H](O)C(O)[C@@H]2O[C@@](O)(C(=O)O)C[C@H](O)[C@H]2NC(C)=O)nn1
REMARK SMILES IDX 15 1 13 2 14 3 16 5 17 6 19 7 21 8 23 9 28 10 22 11 29 12
REMARK SMILES IDX 31 13 24 14 25 16 26 17 27 18 30 20 32 22 33 23 34 25 35 26
REMARK SMILES IDX 20 27 18 29 12 31 11 32 10 33 9 34 36 35 8 36 37 37 4 38
REMARK SMILES IDX 3 39 2 40 1 41 5 42 7 43 6 44
REMARK H PARENT 15 4 24 15 27 19 30 21 32 24 20 28 18 30 6 45 6 46
REMARK Flexibility Score: inf
ROOT
ATOM      1  N   UNL     1      24.534  32.011  15.471  1.00  0.00    -0.319 N 
ATOM      2  C   UNL     1      24.460  30.747  14.853  1.00  0.00     0.407 C 
ATOM      3  O   UNL     1      24.769  30.574  13.652  1.00  0.00    -0.225 OA
ATOM      4  H   UNL     1      24.259  32.053  16.485  1.00  0.00     0.167 HD
ENDROOT
BRANCH   1   5
ATOM      5  C   UNL     1      24.943  33.225  14.854  1.00  0.00     0.154 C 
BRANCH   5   6
ATOM      6  C   UNL     1      26.400  33.458  14.690  1.00  0.00     0.165 C 
BRANCH   6   7
ATOM      7  C   UNL     1      27.121  33.665  16.004  1.00  0.00     0.176 C 
BRANCH   7   8
ATOM      8  C   UNL     1      28.550  34.087  15.879  1.00  0.00     0.178 C 
ATOM      9  C   UNL     1      30.352  33.814  14.453  1.00  0.00     0.269 C 
ATOM     10  C   UNL     1      30.855  34.891  15.376  1.00  0.00     0.112 C 
ATOM     11  O   UNL     1      29.047  33.442  14.726  1.00  0.00    -0.332 OA
ATOM     12  C   UNL     1      30.730  34.554  16.819  1.00  0.00     0.145 C 
ATOM     13  C   UNL     1      29.452  33.721  17.007  1.00  0.00     0.142 C 
BRANCH   9  14
ATOM     14  O   UNL     1      31.236  32.750  14.482  1.00  0.00    -0.357 OA
ATOM     15  H   UNL     1      31.399  32.348  13.593  1.00  0.00     0.214 HD
ENDBRANCH   9  14
BRANCH   9  16
ATOM     16  C   UNL     1      30.371  34.373  13.074  1.00  0.00     0.364 C 
ATOM     17  O   UNL     1      29.323  34.794  12.511  1.00  0.00    -0.246 OA
BRANCH  16  18
ATOM     18  O   UNL     1      31.550  34.462  12.326  1.00  0.00    -0.477 OA
ATOM     19  H   UNL     1      32.461  34.453  12.767  1.00  0.00     0.296 HD
ENDBRANCH  16  18
ENDBRANCH   9  16
BRANCH  12  20
ATOM     20  O   UNL     1      31.834  33.869  17.323  1.00  0.00    -0.391 OA
ATOM     21  H   UNL     1      31.582  33.558  18.236  1.00  0.00     0.211 HD
ENDBRANCH  12  20
BRANCH  13  22
ATOM     22  N   UNL     1      28.998  33.994  18.326  1.00  0.00    -0.348 N 
ATOM     23  C   UNL     1      29.375  33.187  19.465  1.00  0.00     0.217 C 
ATOM     24  H   UNL     1      28.377  34.798  18.559  1.00  0.00     0.163 HD
ATOM     25  C   UNL     1      28.877  33.510  20.822  1.00  0.00     0.114 C 
ATOM     26  O   UNL     1      30.121  32.214  19.306  1.00  0.00    -0.275 OA
ENDBRANCH  13  22
ENDBRANCH   7   8
BRANCH   7  27
ATOM     27  O   UNL     1      27.178  32.351  16.566  1.00  0.00    -0.388 OA
ATOM     28  H   UNL     1      26.351  32.132  17.024  1.00  0.00     0.211 HD
ENDBRANCH   7  27
ENDBRANCH   6   7
BRANCH   6  29
ATOM     29  O   UNL     1      26.620  34.615  13.946  1.00  0.00    -0.388 OA
ATOM     30  H   UNL     1      27.152  34.403  13.143  1.00  0.00     0.211 HD
ENDBRANCH   6  29
ENDBRANCH   5   6
ENDBRANCH   1   5
BRANCH   2  31
ATOM     31  O   UNL     1      24.036  29.625  15.560  1.00  0.00    -0.443 OA
BRANCH  31  32
ATOM     32  C   UNL     1      23.799  29.671  16.943  1.00  0.00     0.294 C 
BRANCH  32  33
ATOM     33  C   UNL     1      24.946  29.126  17.693  1.00  0.00     0.120 A 
ATOM     34  C   UNL     1      25.226  29.281  19.036  1.00  0.00     0.139 A 
ATOM     35  N   UNL     1      25.929  28.370  17.158  1.00  0.00    -0.132 NA
ATOM     36  N   UNL     1      26.354  28.620  19.268  1.00  0.00    -0.237 N 
ATOM     37  N   UNL     1      26.768  28.083  18.157  1.00  0.00    -0.066 NA
BRANCH  36  38
ATOM     38  C   UNL     1      27.034  28.506  20.556  1.00  0.00     0.223 C 
BRANCH  38  39
ATOM     39  C   UNL     1      26.481  27.314  21.283  1.00  0.00     0.197 C 
BRANCH  39  40
ATOM     40  O   UNL     1      27.041  27.197  22.535  1.00  0.00    -0.382 OA
ATOM     41  C   UNL     1      26.678  28.186  23.423  1.00  0.00     0.195 C 
ENDBRANCH  39  40
ENDBRANCH  38  39
BRANCH  38  42
ATOM     42  C   UNL     1      28.495  28.277  20.310  1.00  0.00     0.244 C 
ATOM     43  O   UNL     1      29.307  29.209  20.401  1.00  0.00    -0.273 OA
ATOM     44  N   UNL     1      28.908  26.962  19.970  1.00  0.00    -0.368 N 
ATOM     45  H   UNL     1      29.896  26.682  20.167  1.00  0.00     0.159 HD
ATOM     46  H   UNL     1      28.254  26.296  19.541  1.00  0.00     0.159 HD
ENDBRANCH  38  42
ENDBRANCH  36  38
ENDBRANCH  32  33
ENDBRANCH  31  32
ENDBRANCH   2  31
TORSDOF 18
BEGIN_RES LYS A 131
REMARK  4 active torsions:
REMARK  status: ('A' for Active; 'I' for Inactive)
REMARK    1  A    between atoms: CA   and  CB  
REMARK    2  A    between atoms: CB   and  CG  
REMARK    3  A    between atoms: CG   and  CD  
REMARK    4  A    between atoms: CD   and  CE  
ROOT
ATOM      1  CA  LYS A 131      29.867  25.555  16.977  1.00 20.52     0.186 C 
ENDROOT
BRANCH   1   2
ATOM      2  CB  LYS A 131      28.345  25.722  17.026  1.00 20.94     0.034 C 
BRANCH   2   3
ATOM      3  CG  LYS A 131      27.602  24.399  16.925  1.00 22.96     0.005 C 
BRANCH   3   4
ATOM      4  CD  LYS A 131      26.150  24.535  17.291  1.00 24.33     0.041 C 
BRANCH   4   5
ATOM      5  CE  LYS A 131      26.005  24.537  18.809  1.00 26.91     0.338 C 
ATOM      6  NZ  LYS A 131      25.489  23.230  19.282  1.00 27.40     0.618 N 
ENDBRANCH   4   5
ENDBRANCH   3   4
ENDBRANCH   2   3
ENDBRANCH   1   2
END_RES LYS A 131
BEGIN_RES LYS A 135
REMARK  4 active torsions:
REMARK  status: ('A' for Active; 'I' for Inactive)
REMARK    5  A    between atoms: CA   and  CB  
REMARK    6  A    between atoms: CB   and  CG  
REMARK    7  A    between atoms: CG   and  CD  
REMARK    8  A    between atoms: CD   and  CE  
ROOT
ATOM      7  CA  LYS A 135      33.193  34.663   9.290  1.00 25.02     0.186 C 
ENDROOT
BRANCH   7   8
ATOM      8  CB  LYS A 135      32.060  35.360  10.034  1.00 26.63     0.034 C 
BRANCH   8   9
ATOM      9  CG  LYS A 135      30.800  35.500   9.219  1.00 29.45     0.005 C 
BRANCH   9  10
ATOM     10  CD  LYS A 135      30.118  34.152   9.049  1.00 32.00     0.041 C 
BRANCH  10  11
ATOM     11  CE  LYS A 135      28.660  34.337   8.672  1.00 34.25     0.338 C 
ATOM     12  NZ  LYS A 135      27.764  33.654   9.645  1.00 35.99     0.618 N 
ENDBRANCH  10  11
ENDBRANCH   9  10
ENDBRANCH   8   9
ENDBRANCH   7   8
END_RES LYS A 135
