REMARK VINA RESULT:    -6.238      3.217      5.578
REMARK INTER + INTRA:         -16.303
REMARK INTER:                 -10.430
REMARK INTRA:                  -5.873
REMARK UNBOUND:                -4.777
REMARK SMILES CC(=O)N[C@@H]1[C@@H](O)C[C@](O)(C(=O)O)O[C@H]1C(O)[C@H](O)CNC(=O)OCc1cn(C(C)(C)C(=O)c2c[nH]c3ccccc23)nn1
REMARK SMILES IDX 21 1 22 2 23 3 20 5 18 6 16 7 15 8 9 9 8 10 14 11 6 12 5 13
REMARK SMILES IDX 10 14 11 16 12 17 13 18 7 20 4 22 2 23 1 25 3 26 17 27 19 29
REMARK SMILES IDX 24 31 25 32 26 33 27 34 44 35 28 36 43 37 29 38 30 39 31 40
REMARK SMILES IDX 32 41 33 42 34 43 35 44 42 45 36 46 37 47 41 48 38 50 40 51
REMARK SMILES IDX 39 52
REMARK H PARENT 21 4 10 15 13 19 7 21 4 24 17 28 19 30 36 49
REMARK Flexibility Score: inf
ROOT
ATOM      1  N   UNL     1      24.095  34.974  13.932  1.00  0.00    -0.319 N 
ATOM      2  C   UNL     1      24.600  33.662  13.771  1.00  0.00     0.407 C 
ATOM      3  O   UNL     1      25.011  33.266  12.678  1.00  0.00    -0.225 OA
ATOM      4  H   UNL     1      23.771  35.216  14.929  1.00  0.00     0.167 HD
ENDROOT
BRANCH   1   5
ATOM      5  C   UNL     1      23.987  35.971  12.903  1.00  0.00     0.154 C 
BRANCH   5   6
ATOM      6  C   UNL     1      22.617  36.461  12.615  1.00  0.00     0.165 C 
BRANCH   6   7
ATOM      7  C   UNL     1      21.939  35.733  11.464  1.00  0.00     0.176 C 
BRANCH   7   8
ATOM      8  C   UNL     1      21.617  36.669  10.327  1.00  0.00     0.178 C 
ATOM      9  C   UNL     1      20.095  35.874   8.771  1.00  0.00     0.269 C 
ATOM     10  C   UNL     1      20.835  36.440   7.579  1.00  0.00     0.112 C 
ATOM     11  O   UNL     1      20.314  36.621   9.922  1.00  0.00    -0.332 OA
ATOM     12  C   UNL     1      22.016  37.287   8.010  1.00  0.00     0.145 C 
ATOM     13  C   UNL     1      22.628  36.557   9.207  1.00  0.00     0.142 C 
BRANCH   9  14
ATOM     14  O   UNL     1      20.382  34.528   8.990  1.00  0.00    -0.357 OA
ATOM     15  H   UNL     1      19.601  34.060   9.403  1.00  0.00     0.214 HD
ENDBRANCH   9  14
BRANCH   9  16
ATOM     16  C   UNL     1      18.642  35.962   8.463  1.00  0.00     0.364 C 
ATOM     17  O   UNL     1      17.930  36.832   9.058  1.00  0.00    -0.246 OA
BRANCH  16  18
ATOM     18  O   UNL     1      18.009  35.145   7.556  1.00  0.00    -0.477 OA
ATOM     19  H   UNL     1      18.302  35.052   6.592  1.00  0.00     0.296 HD
ENDBRANCH  16  18
ENDBRANCH   9  16
BRANCH  12  20
ATOM     20  O   UNL     1      22.934  37.463   7.002  1.00  0.00    -0.391 OA
ATOM     21  H   UNL     1      23.109  38.454   6.914  1.00  0.00     0.211 HD
ENDBRANCH  12  20
BRANCH  13  22
ATOM     22  N   UNL     1      23.871  37.155   9.611  1.00  0.00    -0.348 N 
ATOM     23  C   UNL     1      25.122  36.446   9.528  1.00  0.00     0.217 C 
ATOM     24  H   UNL     1      23.947  38.132   9.987  1.00  0.00     0.163 HD
ATOM     25  C   UNL     1      26.407  37.019   9.928  1.00  0.00     0.114 C 
ATOM     26  O   UNL     1      25.060  35.259   9.075  1.00  0.00    -0.275 OA
ENDBRANCH  13  22
ENDBRANCH   7   8
BRANCH   7  27
ATOM     27  O   UNL     1      22.862  34.775  11.035  1.00  0.00    -0.388 OA
ATOM     28  H   UNL     1      23.612  35.161  10.545  1.00  0.00     0.211 HD
ENDBRANCH   7  27
ENDBRANCH   6   7
BRANCH   6  29
ATOM     29  O   UNL     1      22.632  37.800  12.277  1.00  0.00    -0.388 OA
ATOM     30  H   UNL     1      22.966  37.872  11.346  1.00  0.00     0.211 HD
ENDBRANCH   6  29
ENDBRANCH   5   6
ENDBRANCH   1   5
BRANCH   2  31
ATOM     31  O   UNL     1      24.657  32.756  14.833  1.00  0.00    -0.443 OA
BRANCH  31  32
ATOM     32  C   UNL     1      25.129  31.455  14.642  1.00  0.00     0.294 C 
BRANCH  32  33
ATOM     33  C   UNL     1      26.077  31.082  15.723  1.00  0.00     0.120 A 
ATOM     34  C   UNL     1      26.740  31.960  16.567  1.00  0.00     0.139 A 
ATOM     35  N   UNL     1      26.489  29.859  16.114  1.00  0.00    -0.132 NA
ATOM     36  N   UNL     1      27.513  31.260  17.420  1.00  0.00    -0.239 N 
ATOM     37  N   UNL     1      27.338  29.985  17.118  1.00  0.00    -0.066 NA
BRANCH  36  38
ATOM     38  C   UNL     1      28.376  31.826  18.474  1.00  0.00     0.122 C 
ATOM     39  C   UNL     1      28.031  33.262  18.670  1.00  0.00     0.046 C 
ATOM     40  C   UNL     1      28.007  31.001  19.722  1.00  0.00     0.046 C 
BRANCH  38  41
ATOM     41  C   UNL     1      29.760  31.526  18.114  1.00  0.00     0.192 C 
ATOM     42  O   UNL     1      30.482  30.767  18.850  1.00  0.00    -0.291 OA
BRANCH  41  43
ATOM     43  C   UNL     1      30.449  32.035  16.933  1.00  0.00     0.045 A 
ATOM     44  C   UNL     1      30.434  31.427  15.678  1.00  0.00     0.095 A 
ATOM     45  C   UNL     1      31.228  33.161  16.891  1.00  0.00     0.010 A 
ATOM     46  N   UNL     1      31.198  32.181  14.891  1.00  0.00    -0.360 N 
ATOM     47  C   UNL     1      31.696  33.233  15.575  1.00  0.00     0.046 A 
ATOM     48  C   UNL     1      31.591  34.141  17.811  1.00  0.00     0.011 A 
ATOM     49  H   UNL     1      31.392  32.002  13.895  1.00  0.00     0.166 HD
ATOM     50  C   UNL     1      32.515  34.290  15.233  1.00  0.00     0.027 A 
ATOM     51  C   UNL     1      32.403  35.171  17.437  1.00  0.00     0.001 A 
ATOM     52  C   UNL     1      32.863  35.246  16.156  1.00  0.00     0.002 A 
ENDBRANCH  41  43
ENDBRANCH  38  41
ENDBRANCH  36  38
ENDBRANCH  32  33
ENDBRANCH  31  32
ENDBRANCH   2  31
TORSDOF 17
BEGIN_RES LYS A 131
REMARK  4 active torsions:
REMARK  status: ('A' for Active; 'I' for Inactive)
REMARK    1  A    between atoms: CA   and  CB  
REMARK    2  A    between atoms: CB   and  CG  
REMARK    3  A    between atoms: CG   and  CD  
REMARK    4  A    between atoms: CD   and  CE  
ROOT
ATOM      1  CA  LYS A 131      29.867  25.555  16.977  1.00 20.52     0.186 C 
ENDROOT
BRANCH   1   2
ATOM      2  CB  LYS A 131      28.345  25.722  17.026  1.00 20.94     0.034 C 
BRANCH   2   3
ATOM      3  CG  LYS A 131      27.601  24.401  16.906  1.00 22.96     0.005 C 
BRANCH   3   4
ATOM      4  CD  LYS A 131      26.524  24.260  17.945  1.00 24.33     0.041 C 
BRANCH   4   5
ATOM      5  CE  LYS A 131      25.196  23.948  17.263  1.00 26.91     0.338 C 
ATOM      6  NZ  LYS A 131      24.134  24.857  17.753  1.00 27.40     0.618 N 
ENDBRANCH   4   5
ENDBRANCH   3   4
ENDBRANCH   2   3
ENDBRANCH   1   2
END_RES LYS A 131
BEGIN_RES LYS A 135
REMARK  4 active torsions:
REMARK  status: ('A' for Active; 'I' for Inactive)
REMARK    5  A    between atoms: CA   and  CB  
REMARK    6  A    between atoms: CB   and  CG  
REMARK    7  A    between atoms: CG   and  CD  
REMARK    8  A    between atoms: CD   and  CE  
ROOT
ATOM      7  CA  LYS A 135      33.193  34.663   9.290  1.00 25.02     0.186 C 
ENDROOT
BRANCH   7   8
ATOM      8  CB  LYS A 135      32.060  35.360  10.034  1.00 26.63     0.034 C 
BRANCH   8   9
ATOM      9  CG  LYS A 135      30.790  35.470   9.231  1.00 29.45     0.005 C 
BRANCH   9  10
ATOM     10  CD  LYS A 135      30.168  34.098   9.019  1.00 32.00     0.041 C 
BRANCH  10  11
ATOM     11  CE  LYS A 135      28.659  34.207   8.912  1.00 34.25     0.338 C 
ATOM     12  NZ  LYS A 135      28.262  34.967   7.695  1.00 35.99     0.618 N 
ENDBRANCH  10  11
ENDBRANCH   9  10
ENDBRANCH   8   9
ENDBRANCH   7   8
END_RES LYS A 135
