REMARK VINA RESULT:    -4.970      7.449     11.926
REMARK INTER + INTRA:         -13.615
REMARK INTER:                  -7.932
REMARK INTRA:                  -5.683
REMARK UNBOUND:                -5.012
REMARK SMILES CC(=O)N[C@@H]1[C@@H](O)C[C@](O)(C(=O)O)O[C@H]1C(O)[C@H](O)CNC(=O)OCc1cn(-c2ccc(C)cc2)nn1
REMARK SMILES IDX 20 1 18 2 16 3 15 4 9 5 8 6 14 7 6 8 5 9 10 10 11 12 12 13
REMARK SMILES IDX 13 14 7 16 4 18 2 19 1 21 3 22 17 23 19 25 21 27 22 28 23 30
REMARK SMILES IDX 24 31 25 32 26 33 27 34 37 35 28 36 36 37 29 38 30 39 35 40
REMARK SMILES IDX 31 41 34 42 32 43 33 44
REMARK H PARENT 10 11 13 15 7 17 4 20 17 24 19 26 21 29
REMARK Flexibility Score: inf
ROOT
ATOM      1  C   UNL     1      29.894  44.634   7.461  1.00  0.00     0.154 C 
ENDROOT
BRANCH   1   2
ATOM      2  C   UNL     1      30.713  43.701   8.253  1.00  0.00     0.165 C 
BRANCH   2   3
ATOM      3  C   UNL     1      31.696  42.813   7.560  1.00  0.00     0.176 C 
BRANCH   3   4
ATOM      4  C   UNL     1      31.514  41.339   7.736  1.00  0.00     0.178 C 
ATOM      5  C   UNL     1      33.002  40.488   6.139  1.00  0.00     0.269 C 
ATOM      6  C   UNL     1      31.918  39.715   5.409  1.00  0.00     0.112 C 
ATOM      7  O   UNL     1      32.737  40.711   7.452  1.00  0.00    -0.332 OA
ATOM      8  C   UNL     1      30.575  40.376   5.678  1.00  0.00     0.145 C 
ATOM      9  C   UNL     1      30.362  40.648   7.131  1.00  0.00     0.142 C 
BRANCH   5  10
ATOM     10  O   UNL     1      33.262  41.611   5.391  1.00  0.00    -0.357 OA
ATOM     11  H   UNL     1      34.184  41.663   5.031  1.00  0.00     0.214 HD
ENDBRANCH   5  10
BRANCH   5  12
ATOM     12  C   UNL     1      34.212  39.607   6.085  1.00  0.00     0.364 C 
ATOM     13  O   UNL     1      34.669  39.163   4.990  1.00  0.00    -0.246 OA
BRANCH  12  14
ATOM     14  O   UNL     1      34.862  39.255   7.250  1.00  0.00    -0.477 OA
ATOM     15  H   UNL     1      35.084  39.981   7.936  1.00  0.00     0.296 HD
ENDBRANCH  12  14
ENDBRANCH   5  12
BRANCH   8  16
ATOM     16  O   UNL     1      30.662  41.606   5.024  1.00  0.00    -0.391 OA
ATOM     17  H   UNL     1      29.813  41.839   4.566  1.00  0.00     0.211 HD
ENDBRANCH   8  16
BRANCH   9  18
ATOM     18  N   UNL     1      30.129  39.454   7.922  1.00  0.00    -0.348 N 
ATOM     19  C   UNL     1      29.208  39.392   8.980  1.00  0.00     0.217 C 
ATOM     20  H   UNL     1      30.697  38.624   7.653  1.00  0.00     0.163 HD
ATOM     21  C   UNL     1      28.949  38.194   9.800  1.00  0.00     0.114 C 
ATOM     22  O   UNL     1      28.579  40.441   9.220  1.00  0.00    -0.275 OA
ENDBRANCH   9  18
ENDBRANCH   3   4
BRANCH   3  23
ATOM     23  O   UNL     1      32.934  43.008   8.331  1.00  0.00    -0.388 OA
ATOM     24  H   UNL     1      32.872  42.397   9.113  1.00  0.00     0.211 HD
ENDBRANCH   3  23
ENDBRANCH   2   3
BRANCH   2  25
ATOM     25  O   UNL     1      29.979  43.063   9.241  1.00  0.00    -0.388 OA
ATOM     26  H   UNL     1      30.348  42.149   9.445  1.00  0.00     0.211 HD
ENDBRANCH   2  25
ENDBRANCH   1   2
BRANCH   1  27
ATOM     27  N   UNL     1      29.388  44.092   6.198  1.00  0.00    -0.319 N 
ATOM     28  C   UNL     1      28.187  43.349   6.134  1.00  0.00     0.407 C 
ATOM     29  H   UNL     1      29.899  44.223   5.286  1.00  0.00     0.167 HD
ATOM     30  O   UNL     1      27.537  43.142   7.164  1.00  0.00    -0.225 OA
BRANCH  28  31
ATOM     31  O   UNL     1      27.686  42.823   4.942  1.00  0.00    -0.443 OA
BRANCH  31  32
ATOM     32  C   UNL     1      26.580  41.951   4.983  1.00  0.00     0.294 C 
BRANCH  32  33
ATOM     33  C   UNL     1      26.962  40.536   5.000  1.00  0.00     0.121 A 
ATOM     34  C   UNL     1      26.793  39.710   6.092  1.00  0.00     0.144 A 
ATOM     35  N   UNL     1      27.520  39.751   4.056  1.00  0.00    -0.131 NA
ATOM     36  N   UNL     1      27.239  38.470   5.802  1.00  0.00    -0.220 N 
ATOM     37  N   UNL     1      27.672  38.532   4.561  1.00  0.00    -0.062 NA
BRANCH  36  38
ATOM     38  C   UNL     1      27.262  37.305   6.625  1.00  0.00     0.066 A 
ATOM     39  C   UNL     1      26.257  37.061   7.539  1.00  0.00     0.029 A 
ATOM     40  C   UNL     1      28.278  36.375   6.551  1.00  0.00     0.029 A 
ATOM     41  C   UNL     1      26.265  35.937   8.343  1.00  0.00     0.005 A 
ATOM     42  C   UNL     1      28.293  35.252   7.351  1.00  0.00     0.005 A 
ATOM     43  C   UNL     1      27.286  35.013   8.261  1.00  0.00    -0.051 A 
ATOM     44  C   UNL     1      27.339  33.790   9.105  1.00  0.00     0.044 C 
ENDBRANCH  36  38
ENDBRANCH  32  33
ENDBRANCH  31  32
ENDBRANCH  28  31
ENDBRANCH   1  27
TORSDOF 15
BEGIN_RES LYS A 131
REMARK  4 active torsions:
REMARK  status: ('A' for Active; 'I' for Inactive)
REMARK    1  A    between atoms: CA   and  CB  
REMARK    2  A    between atoms: CB   and  CG  
REMARK    3  A    between atoms: CG   and  CD  
REMARK    4  A    between atoms: CD   and  CE  
ROOT
ATOM      1  CA  LYS A 131      29.867  25.555  16.977  1.00 20.52     0.186 C 
ENDROOT
BRANCH   1   2
ATOM      2  CB  LYS A 131      28.345  25.722  17.026  1.00 20.94     0.034 C 
BRANCH   2   3
ATOM      3  CG  LYS A 131      27.601  24.401  16.905  1.00 22.96     0.005 C 
BRANCH   3   4
ATOM      4  CD  LYS A 131      26.194  24.493  17.426  1.00 24.33     0.041 C 
BRANCH   4   5
ATOM      5  CE  LYS A 131      26.080  25.680  18.377  1.00 26.91     0.338 C 
ATOM      6  NZ  LYS A 131      24.903  26.511  18.031  1.00 27.40     0.618 N 
ENDBRANCH   4   5
ENDBRANCH   3   4
ENDBRANCH   2   3
ENDBRANCH   1   2
END_RES LYS A 131
BEGIN_RES LYS A 135
REMARK  4 active torsions:
REMARK  status: ('A' for Active; 'I' for Inactive)
REMARK    5  A    between atoms: CA   and  CB  
REMARK    6  A    between atoms: CB   and  CG  
REMARK    7  A    between atoms: CG   and  CD  
REMARK    8  A    between atoms: CD   and  CE  
ROOT
ATOM      7  CA  LYS A 135      33.193  34.663   9.290  1.00 25.02     0.186 C 
ENDROOT
BRANCH   7   8
ATOM      8  CB  LYS A 135      32.060  35.360  10.034  1.00 26.63     0.034 C 
BRANCH   8   9
ATOM      9  CG  LYS A 135      30.755  34.607   9.987  1.00 29.45     0.005 C 
BRANCH   9  10
ATOM     10  CD  LYS A 135      30.009  34.744  11.305  1.00 32.00     0.041 C 
BRANCH  10  11
ATOM     11  CE  LYS A 135      30.884  35.418  12.345  1.00 34.25     0.338 C 
ATOM     12  NZ  LYS A 135      30.193  36.592  12.947  1.00 35.99     0.618 N 
ENDBRANCH  10  11
ENDBRANCH   9  10
ENDBRANCH   8   9
ENDBRANCH   7   8
END_RES LYS A 135
