REMARK VINA RESULT:    -4.639      4.194      7.284
REMARK INTER + INTRA:         -14.583
REMARK INTER:                  -7.678
REMARK INTRA:                  -6.905
REMARK UNBOUND:                -6.554
REMARK SMILES CC(=O)N[C@@H]1[C@@H](O)C[C@](O)(C(=O)O)O[C@H]1C(O)[C@H](O)CNC(=O)OCc1cn(C23CC4CC(CC(C4)C2)C3)nn1
REMARK SMILES IDX 20 1 18 2 16 3 15 4 9 5 8 6 14 7 6 8 5 9 10 10 11 12 12 13
REMARK SMILES IDX 13 14 7 16 4 18 2 19 1 21 3 22 17 23 19 25 21 27 22 28 23 30
REMARK SMILES IDX 24 31 25 32 26 33 27 34 40 35 28 36 39 37 29 38 38 39 37 40
REMARK SMILES IDX 30 41 33 42 35 43 31 44 32 45 34 46 36 47
REMARK H PARENT 10 11 13 15 7 17 4 20 17 24 19 26 21 29
REMARK Flexibility Score: inf
ROOT
ATOM      1  C   UNL     1      29.742  35.577  19.617  1.00  0.00     0.154 C 
ENDROOT
BRANCH   1   2
ATOM      2  C   UNL     1      30.693  34.429  19.837  1.00  0.00     0.165 C 
BRANCH   2   3
ATOM      3  C   UNL     1      31.121  33.769  18.542  1.00  0.00     0.176 C 
BRANCH   3   4
ATOM      4  C   UNL     1      29.898  33.502  17.657  1.00  0.00     0.178 C 
ATOM      5  C   UNL     1      29.377  31.222  17.480  1.00  0.00     0.269 C 
ATOM      6  C   UNL     1      30.515  31.136  16.494  1.00  0.00     0.112 C 
ATOM      7  O   UNL     1      29.174  32.426  18.060  1.00  0.00    -0.332 OA
ATOM      8  C   UNL     1      30.419  32.258  15.521  1.00  0.00     0.145 C 
ATOM      9  C   UNL     1      30.208  33.580  16.208  1.00  0.00     0.142 C 
BRANCH   5  10
ATOM     10  O   UNL     1      29.720  30.315  18.509  1.00  0.00    -0.357 OA
ATOM     11  H   UNL     1      29.105  30.500  19.267  1.00  0.00     0.214 HD
ENDBRANCH   5  10
BRANCH   5  12
ATOM     12  C   UNL     1      28.175  30.668  16.806  1.00  0.00     0.364 C 
ATOM     13  O   UNL     1      27.154  31.369  16.568  1.00  0.00    -0.246 OA
BRANCH  12  14
ATOM     14  O   UNL     1      28.155  29.346  16.420  1.00  0.00    -0.477 OA
ATOM     15  H   UNL     1      28.934  28.900  15.934  1.00  0.00     0.296 HD
ENDBRANCH  12  14
ENDBRANCH   5  12
BRANCH   8  16
ATOM     16  O   UNL     1      31.602  32.249  14.747  1.00  0.00    -0.391 OA
ATOM     17  H   UNL     1      31.459  31.734  13.924  1.00  0.00     0.211 HD
ENDBRANCH   8  16
BRANCH   9  18
ATOM     18  N   UNL     1      29.135  34.309  15.544  1.00  0.00    -0.348 N 
ATOM     19  C   UNL     1      29.308  34.934  14.281  1.00  0.00     0.217 C 
ATOM     20  H   UNL     1      28.184  34.381  16.012  1.00  0.00     0.163 HD
ATOM     21  C   UNL     1      28.170  35.648  13.684  1.00  0.00     0.114 C 
ATOM     22  O   UNL     1      30.442  34.849  13.721  1.00  0.00    -0.275 OA
ENDBRANCH   9  18
ENDBRANCH   3   4
BRANCH   3  23
ATOM     23  O   UNL     1      32.104  34.445  17.886  1.00  0.00    -0.388 OA
ATOM     24  H   UNL     1      32.524  33.999  17.136  1.00  0.00     0.211 HD
ENDBRANCH   3  23
ENDBRANCH   2   3
BRANCH   2  25
ATOM     25  O   UNL     1      30.076  33.528  20.701  1.00  0.00    -0.388 OA
ATOM     26  H   UNL     1      29.933  33.990  21.588  1.00  0.00     0.211 HD
ENDBRANCH   2  25
ENDBRANCH   1   2
BRANCH   1  27
ATOM     27  N   UNL     1      30.539  36.717  19.202  1.00  0.00    -0.319 N 
ATOM     28  C   UNL     1      30.300  37.401  17.962  1.00  0.00     0.407 C 
ATOM     29  H   UNL     1      31.327  37.105  19.774  1.00  0.00     0.167 HD
ATOM     30  O   UNL     1      29.365  36.976  17.239  1.00  0.00    -0.225 OA
BRANCH  28  31
ATOM     31  O   UNL     1      31.045  38.481  17.556  1.00  0.00    -0.443 OA
BRANCH  31  32
ATOM     32  C   UNL     1      31.565  38.506  16.246  1.00  0.00     0.294 C 
BRANCH  32  33
ATOM     33  C   UNL     1      32.644  37.470  16.176  1.00  0.00     0.120 A 
ATOM     34  C   UNL     1      33.895  37.615  16.744  1.00  0.00     0.138 A 
ATOM     35  N   UNL     1      32.652  36.272  15.597  1.00  0.00    -0.132 NA
ATOM     36  N   UNL     1      34.593  36.518  16.487  1.00  0.00    -0.246 N 
ATOM     37  N   UNL     1      33.825  35.708  15.789  1.00  0.00    -0.066 NA
BRANCH  36  38
ATOM     38  C   UNL     1      35.972  36.290  16.925  1.00  0.00     0.065 C 
ATOM     39  C   UNL     1      36.638  37.659  16.967  1.00  0.00     0.034 C 
ATOM     40  C   UNL     1      36.693  35.387  15.972  1.00  0.00     0.034 C 
ATOM     41  C   UNL     1      35.963  35.655  18.293  1.00  0.00     0.034 C 
ATOM     42  C   UNL     1      38.070  37.500  17.440  1.00  0.00    -0.008 C 
ATOM     43  C   UNL     1      38.134  35.280  16.419  1.00  0.00    -0.008 C 
ATOM     44  C   UNL     1      37.391  35.510  18.773  1.00  0.00    -0.008 C 
ATOM     45  C   UNL     1      38.051  36.877  18.806  1.00  0.00     0.007 C 
ATOM     46  C   UNL     1      38.788  36.629  16.440  1.00  0.00     0.007 C 
ATOM     47  C   UNL     1      38.134  34.640  17.788  1.00  0.00     0.007 C 
ENDBRANCH  36  38
ENDBRANCH  32  33
ENDBRANCH  31  32
ENDBRANCH  28  31
ENDBRANCH   1  27
TORSDOF 15
BEGIN_RES LYS A 131
REMARK  4 active torsions:
REMARK  status: ('A' for Active; 'I' for Inactive)
REMARK    1  A    between atoms: CA   and  CB  
REMARK    2  A    between atoms: CB   and  CG  
REMARK    3  A    between atoms: CG   and  CD  
REMARK    4  A    between atoms: CD   and  CE  
ROOT
ATOM      1  CA  LYS A 131      29.867  25.555  16.977  1.00 20.52     0.186 C 
ENDROOT
BRANCH   1   2
ATOM      2  CB  LYS A 131      28.345  25.722  17.026  1.00 20.94     0.034 C 
BRANCH   2   3
ATOM      3  CG  LYS A 131      27.601  24.401  16.906  1.00 22.96     0.005 C 
BRANCH   3   4
ATOM      4  CD  LYS A 131      26.533  24.255  17.954  1.00 24.33     0.041 C 
BRANCH   4   5
ATOM      5  CE  LYS A 131      25.201  23.935  17.282  1.00 26.91     0.338 C 
ATOM      6  NZ  LYS A 131      24.846  22.511  17.487  1.00 27.40     0.618 N 
ENDBRANCH   4   5
ENDBRANCH   3   4
ENDBRANCH   2   3
ENDBRANCH   1   2
END_RES LYS A 131
BEGIN_RES LYS A 135
REMARK  4 active torsions:
REMARK  status: ('A' for Active; 'I' for Inactive)
REMARK    5  A    between atoms: CA   and  CB  
REMARK    6  A    between atoms: CB   and  CG  
REMARK    7  A    between atoms: CG   and  CD  
REMARK    8  A    between atoms: CD   and  CE  
ROOT
ATOM      7  CA  LYS A 135      33.193  34.663   9.290  1.00 25.02     0.186 C 
ENDROOT
BRANCH   7   8
ATOM      8  CB  LYS A 135      32.060  35.360  10.034  1.00 26.63     0.034 C 
BRANCH   8   9
ATOM      9  CG  LYS A 135      30.803  35.508   9.216  1.00 29.45     0.005 C 
BRANCH   9  10
ATOM     10  CD  LYS A 135      30.130  34.159   9.017  1.00 32.00     0.041 C 
BRANCH  10  11
ATOM     11  CE  LYS A 135      28.659  34.341   8.693  1.00 34.25     0.338 C 
ATOM     12  NZ  LYS A 135      27.801  33.603   9.660  1.00 35.99     0.618 N 
ENDBRANCH  10  11
ENDBRANCH   9  10
ENDBRANCH   8   9
ENDBRANCH   7   8
END_RES LYS A 135
