REMARK VINA RESULT:    -5.136      3.114      6.336
REMARK INTER + INTRA:         -15.193
REMARK INTER:                  -7.991
REMARK INTRA:                  -7.202
REMARK UNBOUND:                -6.003
REMARK SMILES CC(=O)N[C@@H]1[C@@H](O)C[C@](O)(C(=O)O)O[C@H]1C(O)[C@H](O)CNC(=O)OCc1cn(Cc2ccc3c(c2)OCO3)nn1
REMARK SMILES IDX 21 1 22 2 23 3 20 5 18 6 16 7 15 8 9 9 8 10 14 11 6 12 5 13
REMARK SMILES IDX 10 14 11 16 12 17 13 18 7 20 4 22 2 23 1 25 3 26 17 27 19 29
REMARK SMILES IDX 24 31 25 32 26 33 27 34 40 35 28 36 39 37 29 38 30 39 31 40
REMARK SMILES IDX 35 41 32 42 34 43 33 44 36 45 38 46 37 47
REMARK H PARENT 21 4 10 15 13 19 7 21 4 24 17 28 19 30
REMARK Flexibility Score: inf
ROOT
ATOM      1  N   UNL     1      26.495  35.897  11.609  1.00  0.00    -0.319 N 
ATOM      2  C   UNL     1      27.226  37.117  11.630  1.00  0.00     0.407 C 
ATOM      3  O   UNL     1      26.636  38.198  11.958  1.00  0.00    -0.225 OA
ATOM      4  H   UNL     1      26.999  35.040  11.341  1.00  0.00     0.167 HD
ENDROOT
BRANCH   1   5
ATOM      5  C   UNL     1      25.100  35.955  11.968  1.00  0.00     0.154 C 
BRANCH   5   6
ATOM      6  C   UNL     1      24.820  35.486  13.361  1.00  0.00     0.165 C 
BRANCH   6   7
ATOM      7  C   UNL     1      24.344  34.051  13.409  1.00  0.00     0.176 C 
BRANCH   7   8
ATOM      8  C   UNL     1      24.590  33.450  14.790  1.00  0.00     0.178 C 
ATOM      9  C   UNL     1      26.733  33.382  15.679  1.00  0.00     0.269 C 
ATOM     10  C   UNL     1      26.520  32.048  16.355  1.00  0.00     0.112 C 
ATOM     11  O   UNL     1      25.586  34.091  15.466  1.00  0.00    -0.332 OA
ATOM     12  C   UNL     1      25.132  31.495  16.102  1.00  0.00     0.145 C 
ATOM     13  C   UNL     1      24.727  31.952  14.719  1.00  0.00     0.142 C 
BRANCH   9  14
ATOM     14  O   UNL     1      27.460  33.219  14.483  1.00  0.00    -0.357 OA
ATOM     15  H   UNL     1      28.044  32.440  14.504  1.00  0.00     0.214 HD
ENDBRANCH   9  14
BRANCH   9  16
ATOM     16  C   UNL     1      27.605  34.184  16.580  1.00  0.00     0.364 C 
ATOM     17  O   UNL     1      27.551  34.018  17.837  1.00  0.00    -0.246 OA
BRANCH  16  18
ATOM     18  O   UNL     1      28.506  35.132  16.128  1.00  0.00    -0.477 OA
ATOM     19  H   UNL     1      28.134  36.045  15.848  1.00  0.00     0.296 HD
ENDBRANCH  16  18
ENDBRANCH   9  16
BRANCH  12  20
ATOM     20  O   UNL     1      25.099  30.112  16.239  1.00  0.00    -0.391 OA
ATOM     21  H   UNL     1      24.160  29.853  16.402  1.00  0.00     0.211 HD
ENDBRANCH  12  20
BRANCH  13  22
ATOM     22  N   UNL     1      23.525  31.364  14.247  1.00  0.00    -0.348 N 
ATOM     23  C   UNL     1      23.502  30.429  13.180  1.00  0.00     0.217 C 
ATOM     24  H   UNL     1      22.621  31.652  14.727  1.00  0.00     0.163 HD
ATOM     25  C   UNL     1      22.215  29.825  12.706  1.00  0.00     0.114 C 
ATOM     26  O   UNL     1      24.610  30.137  12.662  1.00  0.00    -0.275 OA
ENDBRANCH  13  22
ENDBRANCH   7   8
BRANCH   7  27
ATOM     27  O   UNL     1      25.112  33.320  12.505  1.00  0.00    -0.388 OA
ATOM     28  H   UNL     1      25.861  33.876  12.177  1.00  0.00     0.211 HD
ENDBRANCH   7  27
ENDBRANCH   6   7
BRANCH   6  29
ATOM     29  O   UNL     1      23.848  36.325  13.902  1.00  0.00    -0.388 OA
ATOM     30  H   UNL     1      22.990  36.266  13.416  1.00  0.00     0.211 HD
ENDBRANCH   6  29
ENDBRANCH   5   6
ENDBRANCH   1   5
BRANCH   2  31
ATOM     31  O   UNL     1      28.576  37.190  11.305  1.00  0.00    -0.443 OA
BRANCH  31  32
ATOM     32  C   UNL     1      29.513  37.429  12.350  1.00  0.00     0.294 C 
BRANCH  32  33
ATOM     33  C   UNL     1      29.936  36.152  12.968  1.00  0.00     0.120 A 
ATOM     34  C   UNL     1      31.064  35.985  13.719  1.00  0.00     0.138 A 
ATOM     35  N   UNL     1      29.338  34.962  12.919  1.00  0.00    -0.132 NA
ATOM     36  N   UNL     1      31.116  34.702  14.103  1.00  0.00    -0.248 N 
ATOM     37  N   UNL     1      30.063  34.093  13.611  1.00  0.00    -0.067 NA
BRANCH  36  38
ATOM     38  C   UNL     1      32.159  34.115  14.917  1.00  0.00     0.181 C 
BRANCH  38  39
ATOM     39  C   UNL     1      31.488  33.248  15.926  1.00  0.00    -0.023 A 
ATOM     40  C   UNL     1      30.972  32.039  15.520  1.00  0.00     0.010 A 
ATOM     41  C   UNL     1      31.370  33.618  17.242  1.00  0.00     0.056 A 
ATOM     42  C   UNL     1      30.341  31.214  16.445  1.00  0.00     0.051 A 
ATOM     43  C   UNL     1      30.743  32.796  18.158  1.00  0.00     0.166 A 
ATOM     44  C   UNL     1      30.225  31.591  17.768  1.00  0.00     0.165 A 
ATOM     45  O   UNL     1      30.514  32.964  19.510  1.00  0.00    -0.454 OA
ATOM     46  O   UNL     1      29.657  30.965  18.858  1.00  0.00    -0.454 OA
ATOM     47  C   UNL     1      30.035  31.728  19.994  1.00  0.00     0.468 C 
ENDBRANCH  38  39
ENDBRANCH  36  38
ENDBRANCH  32  33
ENDBRANCH  31  32
ENDBRANCH   2  31
TORSDOF 16
BEGIN_RES LYS A 131
REMARK  4 active torsions:
REMARK  status: ('A' for Active; 'I' for Inactive)
REMARK    1  A    between atoms: CA   and  CB  
REMARK    2  A    between atoms: CB   and  CG  
REMARK    3  A    between atoms: CG   and  CD  
REMARK    4  A    between atoms: CD   and  CE  
ROOT
ATOM      1  CA  LYS A 131      29.867  25.555  16.977  1.00 20.52     0.186 C 
ENDROOT
BRANCH   1   2
ATOM      2  CB  LYS A 131      28.345  25.722  17.026  1.00 20.94     0.034 C 
BRANCH   2   3
ATOM      3  CG  LYS A 131      27.601  24.401  16.902  1.00 22.96     0.005 C 
BRANCH   3   4
ATOM      4  CD  LYS A 131      26.518  24.262  17.935  1.00 24.33     0.041 C 
BRANCH   4   5
ATOM      5  CE  LYS A 131      25.157  24.239  17.246  1.00 26.91     0.338 C 
ATOM      6  NZ  LYS A 131      24.305  25.344  17.743  1.00 27.40     0.618 N 
ENDBRANCH   4   5
ENDBRANCH   3   4
ENDBRANCH   2   3
ENDBRANCH   1   2
END_RES LYS A 131
BEGIN_RES LYS A 135
REMARK  4 active torsions:
REMARK  status: ('A' for Active; 'I' for Inactive)
REMARK    5  A    between atoms: CA   and  CB  
REMARK    6  A    between atoms: CB   and  CG  
REMARK    7  A    between atoms: CG   and  CD  
REMARK    8  A    between atoms: CD   and  CE  
ROOT
ATOM      7  CA  LYS A 135      33.193  34.663   9.290  1.00 25.02     0.186 C 
ENDROOT
BRANCH   7   8
ATOM      8  CB  LYS A 135      32.060  35.360  10.034  1.00 26.63     0.034 C 
BRANCH   8   9
ATOM      9  CG  LYS A 135      30.759  35.375   9.273  1.00 29.45     0.005 C 
BRANCH   9  10
ATOM     10  CD  LYS A 135      30.116  33.997   9.283  1.00 32.00     0.041 C 
BRANCH  10  11
ATOM     11  CE  LYS A 135      28.606  34.113   9.198  1.00 34.25     0.338 C 
ATOM     12  NZ  LYS A 135      28.195  34.902   8.004  1.00 35.99     0.618 N 
ENDBRANCH  10  11
ENDBRANCH   9  10
ENDBRANCH   8   9
ENDBRANCH   7   8
END_RES LYS A 135
