REMARK VINA RESULT:    -4.177      8.846     13.962
REMARK INTER + INTRA:         -13.483
REMARK INTER:                  -7.825
REMARK INTRA:                  -5.658
REMARK UNBOUND:                -5.644
REMARK SMILES CC(=O)N[C@@H]1[C@@H](O)C[C@](O)(C(=O)O)O[C@H]1C(O)[C@H](O)CNC(=O)OCc1cn(CCC(=O)O)nn1
REMARK SMILES IDX 21 1 22 2 23 3 20 5 18 6 16 7 15 8 9 9 8 10 14 11 6 12 5 13
REMARK SMILES IDX 10 14 11 16 12 17 13 18 7 20 4 22 2 23 1 25 3 26 17 27 19 29
REMARK SMILES IDX 24 31 25 32 26 33 27 34 35 35 28 36 34 37 29 38 30 39 31 40
REMARK SMILES IDX 32 41 33 42
REMARK H PARENT 21 4 10 15 13 19 7 21 4 24 17 28 19 30 33 43
REMARK Flexibility Score: inf
ROOT
ATOM      1  N   UNL     1      23.479  40.886   9.291  1.00  0.00    -0.319 N 
ATOM      2  C   UNL     1      22.164  40.915   8.761  1.00  0.00     0.407 C 
ATOM      3  O   UNL     1      21.961  40.947   7.510  1.00  0.00    -0.225 OA
ATOM      4  H   UNL     1      23.605  40.859  10.321  1.00  0.00     0.167 HD
ENDROOT
BRANCH   1   5
ATOM      5  C   UNL     1      24.643  40.896   8.438  1.00  0.00     0.154 C 
BRANCH   5   6
ATOM      6  C   UNL     1      25.384  39.587   8.407  1.00  0.00     0.165 C 
BRANCH   6   7
ATOM      7  C   UNL     1      24.978  38.758   7.188  1.00  0.00     0.176 C 
BRANCH   7   8
ATOM      8  C   UNL     1      25.775  37.466   7.154  1.00  0.00     0.178 C 
ATOM      9  C   UNL     1      26.786  36.100   8.756  1.00  0.00     0.269 C 
ATOM     10  C   UNL     1      27.645  35.486   7.687  1.00  0.00     0.112 C 
ATOM     11  O   UNL     1      25.651  36.719   8.280  1.00  0.00    -0.332 OA
ATOM     12  C   UNL     1      27.748  36.275   6.431  1.00  0.00     0.145 C 
ATOM     13  C   UNL     1      27.204  37.681   6.726  1.00  0.00     0.142 C 
BRANCH   9  14
ATOM     14  O   UNL     1      27.577  36.946   9.525  1.00  0.00    -0.357 OA
ATOM     15  H   UNL     1      27.084  37.811   9.570  1.00  0.00     0.214 HD
ENDBRANCH   9  14
BRANCH   9  16
ATOM     16  C   UNL     1      26.336  34.989   9.627  1.00  0.00     0.364 C 
ATOM     17  O   UNL     1      27.015  33.964   9.847  1.00  0.00    -0.246 OA
BRANCH  16  18
ATOM     18  O   UNL     1      25.098  35.072  10.239  1.00  0.00    -0.477 OA
ATOM     19  H   UNL     1      24.802  34.457  10.987  1.00  0.00     0.296 HD
ENDBRANCH  16  18
ENDBRANCH   9  16
BRANCH  12  20
ATOM     20  O   UNL     1      29.046  36.350   5.934  1.00  0.00    -0.391 OA
ATOM     21  H   UNL     1      29.076  36.247   4.943  1.00  0.00     0.211 HD
ENDBRANCH  12  20
BRANCH  13  22
ATOM     22  N   UNL     1      27.291  38.514   5.543  1.00  0.00    -0.348 N 
ATOM     23  C   UNL     1      28.065  39.708   5.558  1.00  0.00     0.217 C 
ATOM     24  H   UNL     1      26.797  38.274   4.652  1.00  0.00     0.163 HD
ATOM     25  C   UNL     1      28.185  40.602   4.356  1.00  0.00     0.114 C 
ATOM     26  O   UNL     1      28.687  40.052   6.613  1.00  0.00    -0.275 OA
ENDBRANCH  13  22
ENDBRANCH   7   8
BRANCH   7  27
ATOM     27  O   UNL     1      23.624  38.454   7.307  1.00  0.00    -0.388 OA
ATOM     28  H   UNL     1      23.148  39.076   7.921  1.00  0.00     0.211 HD
ENDBRANCH   7  27
ENDBRANCH   6   7
BRANCH   6  29
ATOM     29  O   UNL     1      25.066  38.906   9.585  1.00  0.00    -0.388 OA
ATOM     30  H   UNL     1      24.857  37.965   9.361  1.00  0.00     0.211 HD
ENDBRANCH   6  29
ENDBRANCH   5   6
ENDBRANCH   1   5
BRANCH   2  31
ATOM     31  O   UNL     1      21.093  40.907   9.624  1.00  0.00    -0.443 OA
BRANCH  31  32
ATOM     32  C   UNL     1      20.862  39.879  10.572  1.00  0.00     0.294 C 
BRANCH  32  33
ATOM     33  C   UNL     1      21.336  38.561  10.031  1.00  0.00     0.120 A 
ATOM     34  C   UNL     1      20.664  37.728   9.176  1.00  0.00     0.138 A 
ATOM     35  N   UNL     1      22.519  37.983  10.321  1.00  0.00    -0.132 NA
ATOM     36  N   UNL     1      21.459  36.652   8.961  1.00  0.00    -0.252 N 
ATOM     37  N   UNL     1      22.568  36.836   9.664  1.00  0.00    -0.067 NA
BRANCH  36  38
ATOM     38  C   UNL     1      21.105  35.540   8.104  1.00  0.00     0.158 C 
BRANCH  38  39
ATOM     39  C   UNL     1      19.705  35.803   7.557  1.00  0.00     0.146 C 
BRANCH  39  40
ATOM     40  C   UNL     1      18.889  34.593   7.876  1.00  0.00     0.305 C 
ATOM     41  O   UNL     1      18.740  34.160   9.026  1.00  0.00    -0.252 OA
BRANCH  40  42
ATOM     42  O   UNL     1      18.283  33.949   6.796  1.00  0.00    -0.481 OA
ATOM     43  H   UNL     1      18.686  33.087   6.434  1.00  0.00     0.296 HD
ENDBRANCH  40  42
ENDBRANCH  39  40
ENDBRANCH  38  39
ENDBRANCH  36  38
ENDBRANCH  32  33
ENDBRANCH  31  32
ENDBRANCH   2  31
TORSDOF 18
BEGIN_RES LYS A 131
REMARK  4 active torsions:
REMARK  status: ('A' for Active; 'I' for Inactive)
REMARK    1  A    between atoms: CA   and  CB  
REMARK    2  A    between atoms: CB   and  CG  
REMARK    3  A    between atoms: CG   and  CD  
REMARK    4  A    between atoms: CD   and  CE  
ROOT
ATOM      1  CA  LYS A 131      29.867  25.555  16.977  1.00 20.52     0.186 C 
ENDROOT
BRANCH   1   2
ATOM      2  CB  LYS A 131      28.345  25.722  17.026  1.00 20.94     0.034 C 
BRANCH   2   3
ATOM      3  CG  LYS A 131      27.601  24.402  16.890  1.00 22.96     0.005 C 
BRANCH   3   4
ATOM      4  CD  LYS A 131      26.166  24.513  17.326  1.00 24.33     0.041 C 
BRANCH   4   5
ATOM      5  CE  LYS A 131      25.868  23.445  18.373  1.00 26.91     0.338 C 
ATOM      6  NZ  LYS A 131      25.415  24.070  19.638  1.00 27.40     0.618 N 
ENDBRANCH   4   5
ENDBRANCH   3   4
ENDBRANCH   2   3
ENDBRANCH   1   2
END_RES LYS A 131
BEGIN_RES LYS A 135
REMARK  4 active torsions:
REMARK  status: ('A' for Active; 'I' for Inactive)
REMARK    5  A    between atoms: CA   and  CB  
REMARK    6  A    between atoms: CB   and  CG  
REMARK    7  A    between atoms: CG   and  CD  
REMARK    8  A    between atoms: CD   and  CE  
ROOT
ATOM      7  CA  LYS A 135      33.193  34.663   9.290  1.00 25.02     0.186 C 
ENDROOT
BRANCH   7   8
ATOM      8  CB  LYS A 135      32.060  35.360  10.034  1.00 26.63     0.034 C 
BRANCH   8   9
ATOM      9  CG  LYS A 135      30.878  35.689   9.160  1.00 29.45     0.005 C 
BRANCH   9  10
ATOM     10  CD  LYS A 135      30.747  37.193   8.976  1.00 32.00     0.041 C 
BRANCH  10  11
ATOM     11  CE  LYS A 135      31.364  37.928  10.151  1.00 34.25     0.338 C 
ATOM     12  NZ  LYS A 135      30.452  38.990  10.658  1.00 35.99     0.618 N 
ENDBRANCH  10  11
ENDBRANCH   9  10
ENDBRANCH   8   9
ENDBRANCH   7   8
END_RES LYS A 135
