REMARK VINA RESULT:    -5.023      2.286      3.773
REMARK INTER + INTRA:         -13.966
REMARK INTER:                  -8.346
REMARK INTRA:                  -5.620
REMARK UNBOUND:                -5.272
REMARK SMILES CC(=O)N[C@@H]1[C@@H](O)C[C@](O)(C(=O)O)O[C@H]1C(O)[C@H](O)CNC(=O)OCc1cn(-c2ccncc2)nn1
REMARK SMILES IDX 20 1 18 2 16 3 15 4 9 5 8 6 14 7 6 8 5 9 10 10 11 12 12 13
REMARK SMILES IDX 13 14 7 16 4 18 2 19 1 21 3 22 17 23 19 25 21 27 22 28 23 30
REMARK SMILES IDX 24 31 25 32 26 33 27 34 36 35 28 36 35 37 29 38 30 39 34 40
REMARK SMILES IDX 31 41 33 42 32 43
REMARK H PARENT 10 11 13 15 7 17 4 20 17 24 19 26 21 29
REMARK Flexibility Score: inf
ROOT
ATOM      1  C   UNL     1      27.884  28.859  20.285  1.00  0.00     0.154 C 
ENDROOT
BRANCH   1   2
ATOM      2  C   UNL     1      28.554  27.604  20.722  1.00  0.00     0.165 C 
BRANCH   2   3
ATOM      3  C   UNL     1      30.013  27.817  21.091  1.00  0.00     0.176 C 
BRANCH   3   4
ATOM      4  C   UNL     1      30.294  29.163  21.655  1.00  0.00     0.178 C 
ATOM      5  C   UNL     1      31.547  31.085  21.412  1.00  0.00     0.269 C 
ATOM      6  C   UNL     1      30.883  31.489  22.705  1.00  0.00     0.112 C 
ATOM      7  O   UNL     1      30.966  30.001  20.811  1.00  0.00    -0.332 OA
ATOM      8  C   UNL     1      30.820  30.364  23.701  1.00  0.00     0.145 C 
ATOM      9  C   UNL     1      31.085  29.074  22.950  1.00  0.00     0.142 C 
BRANCH   5  10
ATOM     10  O   UNL     1      32.922  30.912  21.565  1.00  0.00    -0.357 OA
ATOM     11  H   UNL     1      33.169  29.951  21.626  1.00  0.00     0.214 HD
ENDBRANCH   5  10
BRANCH   5  12
ATOM     12  C   UNL     1      31.378  32.250  20.472  1.00  0.00     0.364 C 
ATOM     13  O   UNL     1      31.782  33.395  20.726  1.00  0.00    -0.246 OA
BRANCH  12  14
ATOM     14  O   UNL     1      30.729  31.969  19.273  1.00  0.00    -0.477 OA
ATOM     15  H   UNL     1      29.762  31.657  19.274  1.00  0.00     0.296 HD
ENDBRANCH  12  14
ENDBRANCH   5  12
BRANCH   8  16
ATOM     16  O   UNL     1      31.747  30.524  24.730  1.00  0.00    -0.391 OA
ATOM     17  H   UNL     1      32.661  30.431  24.367  1.00  0.00     0.211 HD
ENDBRANCH   8  16
BRANCH   9  18
ATOM     18  N   UNL     1      30.722  27.915  23.731  1.00  0.00    -0.348 N 
ATOM     19  C   UNL     1      31.703  27.195  24.465  1.00  0.00     0.217 C 
ATOM     20  H   UNL     1      29.744  27.576  23.779  1.00  0.00     0.163 HD
ATOM     21  C   UNL     1      31.361  25.989  25.285  1.00  0.00     0.114 C 
ATOM     22  O   UNL     1      32.897  27.585  24.425  1.00  0.00    -0.275 OA
ENDBRANCH   9  18
ENDBRANCH   3   4
BRANCH   3  23
ATOM     23  O   UNL     1      30.846  27.393  20.088  1.00  0.00    -0.388 OA
ATOM     24  H   UNL     1      31.213  28.187  19.612  1.00  0.00     0.211 HD
ENDBRANCH   3  23
ENDBRANCH   2   3
BRANCH   2  25
ATOM     25  O   UNL     1      28.552  26.619  19.751  1.00  0.00    -0.388 OA
ATOM     26  H   UNL     1      27.967  26.816  18.985  1.00  0.00     0.211 HD
ENDBRANCH   2  25
ENDBRANCH   1   2
BRANCH   1  27
ATOM     27  N   UNL     1      28.128  29.124  18.897  1.00  0.00    -0.319 N 
ATOM     28  C   UNL     1      27.391  28.683  17.791  1.00  0.00     0.407 C 
ATOM     29  H   UNL     1      28.979  29.739  18.653  1.00  0.00     0.167 HD
ATOM     30  O   UNL     1      26.400  27.966  17.935  1.00  0.00    -0.225 OA
BRANCH  28  31
ATOM     31  O   UNL     1      27.731  29.025  16.468  1.00  0.00    -0.443 OA
BRANCH  31  32
ATOM     32  C   UNL     1      27.492  30.360  16.009  1.00  0.00     0.294 C 
BRANCH  32  33
ATOM     33  C   UNL     1      28.746  31.112  15.897  1.00  0.00     0.121 A 
ATOM     34  C   UNL     1      29.044  32.207  15.118  1.00  0.00     0.144 A 
ATOM     35  N   UNL     1      29.874  30.832  16.582  1.00  0.00    -0.131 NA
ATOM     36  N   UNL     1      30.332  32.535  15.369  1.00  0.00    -0.220 N 
ATOM     37  N   UNL     1      30.822  31.701  16.251  1.00  0.00    -0.062 NA
BRANCH  36  38
ATOM     38  C   UNL     1      31.068  33.611  14.783  1.00  0.00     0.069 A 
ATOM     39  C   UNL     1      30.523  34.276  13.712  1.00  0.00     0.048 A 
ATOM     40  C   UNL     1      32.310  33.971  15.291  1.00  0.00     0.048 A 
ATOM     41  C   UNL     1      31.246  35.311  13.159  1.00  0.00     0.113 A 
ATOM     42  C   UNL     1      32.987  35.004  14.709  1.00  0.00     0.113 A 
ATOM     43  N   UNL     1      32.442  35.650  13.658  1.00  0.00    -0.265 NA
ENDBRANCH  36  38
ENDBRANCH  32  33
ENDBRANCH  31  32
ENDBRANCH  28  31
ENDBRANCH   1  27
TORSDOF 15
BEGIN_RES LYS A 131
REMARK  4 active torsions:
REMARK  status: ('A' for Active; 'I' for Inactive)
REMARK    1  A    between atoms: CA   and  CB  
REMARK    2  A    between atoms: CB   and  CG  
REMARK    3  A    between atoms: CG   and  CD  
REMARK    4  A    between atoms: CD   and  CE  
ROOT
ATOM      1  CA  LYS A 131      29.867  25.555  16.977  1.00 20.52     0.186 C 
ENDROOT
BRANCH   1   2
ATOM      2  CB  LYS A 131      28.345  25.722  17.026  1.00 20.94     0.034 C 
BRANCH   2   3
ATOM      3  CG  LYS A 131      27.599  24.433  16.719  1.00 22.96     0.005 C 
BRANCH   3   4
ATOM      4  CD  LYS A 131      26.973  23.835  17.948  1.00 24.33     0.041 C 
BRANCH   4   5
ATOM      5  CE  LYS A 131      25.589  23.294  17.603  1.00 26.91     0.338 C 
ATOM      6  NZ  LYS A 131      24.789  24.326  16.902  1.00 27.40     0.618 N 
ENDBRANCH   4   5
ENDBRANCH   3   4
ENDBRANCH   2   3
ENDBRANCH   1   2
END_RES LYS A 131
BEGIN_RES LYS A 135
REMARK  4 active torsions:
REMARK  status: ('A' for Active; 'I' for Inactive)
REMARK    5  A    between atoms: CA   and  CB  
REMARK    6  A    between atoms: CB   and  CG  
REMARK    7  A    between atoms: CG   and  CD  
REMARK    8  A    between atoms: CD   and  CE  
ROOT
ATOM      7  CA  LYS A 135      33.193  34.663   9.290  1.00 25.02     0.186 C 
ENDROOT
BRANCH   7   8
ATOM      8  CB  LYS A 135      32.060  35.360  10.034  1.00 26.63     0.034 C 
BRANCH   8   9
ATOM      9  CG  LYS A 135      30.801  35.502   9.218  1.00 29.45     0.005 C 
BRANCH   9  10
ATOM     10  CD  LYS A 135      30.131  34.150   9.026  1.00 32.00     0.041 C 
BRANCH  10  11
ATOM     11  CE  LYS A 135      28.677  34.327   8.634  1.00 34.25     0.338 C 
ATOM     12  NZ  LYS A 135      27.770  33.734   9.656  1.00 35.99     0.618 N 
ENDBRANCH  10  11
ENDBRANCH   9  10
ENDBRANCH   8   9
ENDBRANCH   7   8
END_RES LYS A 135
