REMARK VINA RESULT:    -5.149      6.002     13.471
REMARK INTER + INTRA:         -16.191
REMARK INTER:                 -10.345
REMARK INTRA:                  -5.846
REMARK UNBOUND:                -6.527
REMARK SMILES CC(=O)N[C@@H]1[C@@H](O)C[C@](O)(C(=O)O)O[C@H]1C(O)[C@H](O)CNC(=O)OCc1cn(-c2ccc(S(=O)(=O)c3ccc(N)cc3)cc2)nn1
REMARK SMILES IDX 21 1 22 2 23 3 20 5 18 6 16 7 15 8 9 9 8 10 14 11 6 12 5 13
REMARK SMILES IDX 10 14 11 16 12 17 13 18 7 20 4 22 2 23 1 25 3 26 17 27 19 29
REMARK SMILES IDX 24 31 25 32 26 33 27 34 46 35 28 36 45 37 29 38 30 39 44 40
REMARK SMILES IDX 31 41 43 42 32 43 33 44 34 45 35 46 36 47 37 48 42 49 38 50
REMARK SMILES IDX 41 51 39 52 40 53
REMARK H PARENT 21 4 10 15 13 19 7 21 4 24 17 28 19 30 40 54 40 55
REMARK Flexibility Score: inf
ROOT
ATOM      1  N   UNL     1      29.469  39.814   5.984  1.00  0.00    -0.319 N 
ATOM      2  C   UNL     1      28.152  39.723   6.492  1.00  0.00     0.407 C 
ATOM      3  O   UNL     1      27.323  40.600   6.224  1.00  0.00    -0.225 OA
ATOM      4  H   UNL     1      30.115  39.011   6.264  1.00  0.00     0.167 HD
ENDROOT
BRANCH   1   5
ATOM      5  C   UNL     1      29.970  40.880   5.147  1.00  0.00     0.154 C 
BRANCH   5   6
ATOM      6  C   UNL     1      31.218  41.431   5.744  1.00  0.00     0.165 C 
BRANCH   6   7
ATOM      7  C   UNL     1      32.165  40.354   6.232  1.00  0.00     0.176 C 
BRANCH   7   8
ATOM      8  C   UNL     1      33.576  40.515   5.779  1.00  0.00     0.178 C 
ATOM      9  C   UNL     1      35.469  39.203   5.527  1.00  0.00     0.269 C 
ATOM     10  C   UNL     1      36.283  40.447   5.351  1.00  0.00     0.112 C 
ATOM     11  O   UNL     1      34.127  39.376   5.238  1.00  0.00    -0.332 OA
ATOM     12  C   UNL     1      35.694  41.667   5.963  1.00  0.00     0.145 C 
ATOM     13  C   UNL     1      34.458  41.233   6.770  1.00  0.00     0.142 C 
BRANCH   9  14
ATOM     14  O   UNL     1      35.654  38.643   6.811  1.00  0.00    -0.357 OA
ATOM     15  H   UNL     1      36.579  38.351   6.889  1.00  0.00     0.214 HD
ENDBRANCH   9  14
BRANCH   9  16
ATOM     16  C   UNL     1      35.992  38.185   4.568  1.00  0.00     0.364 C 
ATOM     17  O   UNL     1      35.642  38.264   3.350  1.00  0.00    -0.246 OA
BRANCH  16  18
ATOM     18  O   UNL     1      36.834  37.161   4.919  1.00  0.00    -0.477 OA
ATOM     19  H   UNL     1      37.027  36.404   4.267  1.00  0.00     0.296 HD
ENDBRANCH  16  18
ENDBRANCH   9  16
BRANCH  12  20
ATOM     20  O   UNL     1      36.577  42.373   6.764  1.00  0.00    -0.391 OA
ATOM     21  H   UNL     1      37.496  41.962   6.686  1.00  0.00     0.211 HD
ENDBRANCH  12  20
BRANCH  13  22
ATOM     22  N   UNL     1      33.752  42.433   7.201  1.00  0.00    -0.348 N 
ATOM     23  C   UNL     1      33.972  42.959   8.499  1.00  0.00     0.217 C 
ATOM     24  H   UNL     1      33.078  42.933   6.585  1.00  0.00     0.163 HD
ATOM     25  C   UNL     1      33.256  44.195   8.975  1.00  0.00     0.114 C 
ATOM     26  O   UNL     1      34.760  42.436   9.315  1.00  0.00    -0.275 OA
ENDBRANCH  13  22
ENDBRANCH   7   8
BRANCH   7  27
ATOM     27  O   UNL     1      32.054  40.359   7.628  1.00  0.00    -0.388 OA
ATOM     28  H   UNL     1      31.161  40.691   7.857  1.00  0.00     0.211 HD
ENDBRANCH   7  27
ENDBRANCH   6   7
BRANCH   6  29
ATOM     29  O   UNL     1      30.934  42.384   6.711  1.00  0.00    -0.388 OA
ATOM     30  H   UNL     1      30.742  41.920   7.564  1.00  0.00     0.211 HD
ENDBRANCH   6  29
ENDBRANCH   5   6
ENDBRANCH   1   5
BRANCH   2  31
ATOM     31  O   UNL     1      27.725  38.673   7.298  1.00  0.00    -0.443 OA
BRANCH  31  32
ATOM     32  C   UNL     1      27.641  38.795   8.710  1.00  0.00     0.294 C 
BRANCH  32  33
ATOM     33  C   UNL     1      28.950  38.522   9.368  1.00  0.00     0.121 A 
ATOM     34  C   UNL     1      29.084  38.042  10.642  1.00  0.00     0.144 A 
ATOM     35  N   UNL     1      30.184  38.685   8.873  1.00  0.00    -0.131 NA
ATOM     36  N   UNL     1      30.407  37.920  10.899  1.00  0.00    -0.220 N 
ATOM     37  N   UNL     1      31.023  38.313   9.819  1.00  0.00    -0.062 NA
BRANCH  36  38
ATOM     38  C   UNL     1      30.921  37.447  12.133  1.00  0.00     0.066 A 
ATOM     39  C   UNL     1      32.097  36.729  12.165  1.00  0.00     0.030 A 
ATOM     40  C   UNL     1      30.285  37.676  13.334  1.00  0.00     0.030 A 
ATOM     41  C   UNL     1      32.634  36.249  13.348  1.00  0.00     0.023 A 
ATOM     42  C   UNL     1      30.819  37.196  14.534  1.00  0.00     0.023 A 
ATOM     43  C   UNL     1      31.993  36.482  14.540  1.00  0.00     0.072 A 
BRANCH  43  44
ATOM     44  S   UNL     1      32.665  35.883  16.016  1.00  0.00     0.206 S 
ATOM     45  O   UNL     1      32.434  36.863  17.115  1.00  0.00    -0.219 OA
ATOM     46  O   UNL     1      34.142  35.637  15.920  1.00  0.00    -0.219 OA
BRANCH  44  47
ATOM     47  C   UNL     1      31.896  34.338  16.364  1.00  0.00     0.072 A 
ATOM     48  C   UNL     1      31.421  34.107  17.627  1.00  0.00     0.023 A 
ATOM     49  C   UNL     1      31.761  33.356  15.387  1.00  0.00     0.023 A 
ATOM     50  C   UNL     1      30.807  32.902  17.946  1.00  0.00     0.027 A 
ATOM     51  C   UNL     1      31.154  32.143  15.671  1.00  0.00     0.027 A 
ATOM     52  C   UNL     1      30.692  31.950  16.952  1.00  0.00     0.031 A 
BRANCH  52  53
ATOM     53  N   UNL     1      30.069  30.721  17.263  1.00  0.00    -0.399 N 
ATOM     54  H   UNL     1      29.994  30.405  18.244  1.00  0.00     0.156 HD
ATOM     55  H   UNL     1      29.688  30.136  16.499  1.00  0.00     0.156 HD
ENDBRANCH  52  53
ENDBRANCH  44  47
ENDBRANCH  43  44
ENDBRANCH  36  38
ENDBRANCH  32  33
ENDBRANCH  31  32
ENDBRANCH   2  31
TORSDOF 18
BEGIN_RES LYS A 131
REMARK  4 active torsions:
REMARK  status: ('A' for Active; 'I' for Inactive)
REMARK    1  A    between atoms: CA   and  CB  
REMARK    2  A    between atoms: CB   and  CG  
REMARK    3  A    between atoms: CG   and  CD  
REMARK    4  A    between atoms: CD   and  CE  
ROOT
ATOM      1  CA  LYS A 131      29.867  25.555  16.977  1.00 20.52     0.186 C 
ENDROOT
BRANCH   1   2
ATOM      2  CB  LYS A 131      28.345  25.722  17.026  1.00 20.94     0.034 C 
BRANCH   2   3
ATOM      3  CG  LYS A 131      27.601  24.403  16.887  1.00 22.96     0.005 C 
BRANCH   3   4
ATOM      4  CD  LYS A 131      26.170  24.509  17.336  1.00 24.33     0.041 C 
BRANCH   4   5
ATOM      5  CE  LYS A 131      26.117  25.153  18.718  1.00 26.91     0.338 C 
ATOM      6  NZ  LYS A 131      25.414  24.268  19.676  1.00 27.40     0.618 N 
ENDBRANCH   4   5
ENDBRANCH   3   4
ENDBRANCH   2   3
ENDBRANCH   1   2
END_RES LYS A 131
BEGIN_RES LYS A 135
REMARK  4 active torsions:
REMARK  status: ('A' for Active; 'I' for Inactive)
REMARK    5  A    between atoms: CA   and  CB  
REMARK    6  A    between atoms: CB   and  CG  
REMARK    7  A    between atoms: CG   and  CD  
REMARK    8  A    between atoms: CD   and  CE  
ROOT
ATOM      7  CA  LYS A 135      33.193  34.663   9.290  1.00 25.02     0.186 C 
ENDROOT
BRANCH   7   8
ATOM      8  CB  LYS A 135      32.060  35.360  10.034  1.00 26.63     0.034 C 
BRANCH   8   9
ATOM      9  CG  LYS A 135      30.707  34.744   9.786  1.00 29.45     0.005 C 
BRANCH   9  10
ATOM     10  CD  LYS A 135      30.459  34.577   8.295  1.00 32.00     0.041 C 
BRANCH  10  11
ATOM     11  CE  LYS A 135      29.014  34.893   7.957  1.00 34.25     0.338 C 
ATOM     12  NZ  LYS A 135      28.905  35.542   6.621  1.00 35.99     0.618 N 
ENDBRANCH  10  11
ENDBRANCH   9  10
ENDBRANCH   8   9
ENDBRANCH   7   8
END_RES LYS A 135
