REMARK VINA RESULT:    -4.523      4.494      8.682
REMARK INTER + INTRA:         -14.490
REMARK INTER:                  -8.089
REMARK INTRA:                  -6.401
REMARK UNBOUND:                -6.398
REMARK SMILES CC(=O)N[C@@H]1[C@@H](O)C[C@](O)(C(=O)O)O[C@H]1C(O)[C@H](O)CNC(=O)OCc1cn(Cc2ccc(Br)cc2)nn1
REMARK SMILES IDX 21 1 22 2 23 3 20 5 18 6 16 7 15 8 9 9 8 10 14 11 6 12 5 13
REMARK SMILES IDX 10 14 11 16 12 17 13 18 7 20 4 22 2 23 1 25 3 26 17 27 19 29
REMARK SMILES IDX 24 31 25 32 26 33 27 34 38 35 28 36 37 37 29 38 30 39 31 40
REMARK SMILES IDX 36 41 32 42 35 43 33 44 34 45
REMARK H PARENT 21 4 10 15 13 19 7 21 4 24 17 28 19 30
REMARK Flexibility Score: inf
ROOT
ATOM      1  N   UNL     1      27.895  32.654  18.117  1.00  0.00    -0.319 N 
ATOM      2  C   UNL     1      27.675  33.852  17.393  1.00  0.00     0.407 C 
ATOM      3  O   UNL     1      27.950  35.002  17.783  1.00  0.00    -0.225 OA
ATOM      4  H   UNL     1      27.624  31.718  17.681  1.00  0.00     0.167 HD
ENDROOT
BRANCH   1   5
ATOM      5  C   UNL     1      28.475  32.701  19.422  1.00  0.00     0.154 C 
BRANCH   5   6
ATOM      6  C   UNL     1      29.976  32.564  19.457  1.00  0.00     0.165 C 
BRANCH   6   7
ATOM      7  C   UNL     1      30.444  31.154  19.449  1.00  0.00     0.176 C 
BRANCH   7   8
ATOM      8  C   UNL     1      30.088  30.277  20.583  1.00  0.00     0.178 C 
ATOM      9  C   UNL     1      31.894  29.004  21.246  1.00  0.00     0.269 C 
ATOM     10  C   UNL     1      31.069  28.036  22.063  1.00  0.00     0.112 C 
ATOM     11  O   UNL     1      31.246  30.222  21.377  1.00  0.00    -0.332 OA
ATOM     12  C   UNL     1      29.749  27.922  21.381  1.00  0.00     0.145 C 
ATOM     13  C   UNL     1      29.468  28.977  20.329  1.00  0.00     0.142 C 
BRANCH   9  14
ATOM     14  O   UNL     1      31.957  28.517  19.959  1.00  0.00    -0.357 OA
ATOM     15  H   UNL     1      31.197  28.753  19.395  1.00  0.00     0.214 HD
ENDBRANCH   9  14
BRANCH   9  16
ATOM     16  C   UNL     1      33.228  29.106  21.885  1.00  0.00     0.364 C 
ATOM     17  O   UNL     1      33.950  30.124  21.804  1.00  0.00    -0.246 OA
BRANCH  16  18
ATOM     18  O   UNL     1      33.672  27.999  22.602  1.00  0.00    -0.477 OA
ATOM     19  H   UNL     1      33.972  27.143  22.164  1.00  0.00     0.296 HD
ENDBRANCH  16  18
ENDBRANCH   9  16
BRANCH  12  20
ATOM     20  O   UNL     1      29.742  26.678  20.707  1.00  0.00    -0.391 OA
ATOM     21  H   UNL     1      28.833  26.369  20.522  1.00  0.00     0.211 HD
ENDBRANCH  12  20
BRANCH  13  22
ATOM     22  N   UNL     1      27.991  29.063  20.368  1.00  0.00    -0.348 N 
ATOM     23  C   UNL     1      27.203  29.256  19.228  1.00  0.00     0.217 C 
ATOM     24  H   UNL     1      27.582  28.969  21.329  1.00  0.00     0.163 HD
ATOM     25  C   UNL     1      25.719  29.337  19.375  1.00  0.00     0.114 C 
ATOM     26  O   UNL     1      27.723  29.358  18.107  1.00  0.00    -0.275 OA
ENDBRANCH  13  22
ENDBRANCH   7   8
BRANCH   7  27
ATOM     27  O   UNL     1      30.283  30.623  18.178  1.00  0.00    -0.388 OA
ATOM     28  H   UNL     1      30.506  31.319  17.495  1.00  0.00     0.211 HD
ENDBRANCH   7  27
ENDBRANCH   6   7
BRANCH   6  29
ATOM     29  O   UNL     1      30.610  33.374  20.384  1.00  0.00    -0.388 OA
ATOM     30  H   UNL     1      31.537  33.583  20.153  1.00  0.00     0.211 HD
ENDBRANCH   6  29
ENDBRANCH   5   6
ENDBRANCH   1   5
BRANCH   2  31
ATOM     31  O   UNL     1      27.102  33.753  16.126  1.00  0.00    -0.443 OA
BRANCH  31  32
ATOM     32  C   UNL     1      27.690  32.972  15.114  1.00  0.00     0.294 C 
BRANCH  32  33
ATOM     33  C   UNL     1      29.161  32.971  15.203  1.00  0.00     0.120 A 
ATOM     34  C   UNL     1      30.084  33.942  14.894  1.00  0.00     0.138 A 
ATOM     35  N   UNL     1      29.851  31.894  15.644  1.00  0.00    -0.132 NA
ATOM     36  N   UNL     1      31.306  33.425  15.158  1.00  0.00    -0.248 N 
ATOM     37  N   UNL     1      31.121  32.197  15.605  1.00  0.00    -0.067 NA
BRANCH  36  38
ATOM     38  C   UNL     1      32.560  34.125  14.969  1.00  0.00     0.181 C 
BRANCH  38  39
ATOM     39  C   UNL     1      32.606  35.238  15.974  1.00  0.00    -0.026 A 
ATOM     40  C   UNL     1      32.479  34.937  17.322  1.00  0.00     0.007 A 
ATOM     41  C   UNL     1      32.776  36.537  15.546  1.00  0.00     0.007 A 
ATOM     42  C   UNL     1      32.524  35.969  18.222  1.00  0.00     0.016 A 
ATOM     43  C   UNL     1      32.823  37.589  16.461  1.00  0.00     0.016 A 
ATOM     44  C   UNL     1      32.694  37.264  17.788  1.00  0.00     0.017 A 
ATOM     45  Br  UNL     1      32.754  38.684  19.067  1.00  0.00    -0.051 Br
ENDBRANCH  38  39
ENDBRANCH  36  38
ENDBRANCH  32  33
ENDBRANCH  31  32
ENDBRANCH   2  31
TORSDOF 16
BEGIN_RES LYS A 131
REMARK  4 active torsions:
REMARK  status: ('A' for Active; 'I' for Inactive)
REMARK    1  A    between atoms: CA   and  CB  
REMARK    2  A    between atoms: CB   and  CG  
REMARK    3  A    between atoms: CG   and  CD  
REMARK    4  A    between atoms: CD   and  CE  
ROOT
ATOM      1  CA  LYS A 131      29.867  25.555  16.977  1.00 20.52     0.186 C 
ENDROOT
BRANCH   1   2
ATOM      2  CB  LYS A 131      28.345  25.722  17.026  1.00 20.94     0.034 C 
BRANCH   2   3
ATOM      3  CG  LYS A 131      27.601  24.401  16.903  1.00 22.96     0.005 C 
BRANCH   3   4
ATOM      4  CD  LYS A 131      26.173  24.510  17.359  1.00 24.33     0.041 C 
BRANCH   4   5
ATOM      5  CE  LYS A 131      25.980  25.819  18.118  1.00 26.91     0.338 C 
ATOM      6  NZ  LYS A 131      25.809  25.558  19.567  1.00 27.40     0.618 N 
ENDBRANCH   4   5
ENDBRANCH   3   4
ENDBRANCH   2   3
ENDBRANCH   1   2
END_RES LYS A 131
BEGIN_RES LYS A 135
REMARK  4 active torsions:
REMARK  status: ('A' for Active; 'I' for Inactive)
REMARK    5  A    between atoms: CA   and  CB  
REMARK    6  A    between atoms: CB   and  CG  
REMARK    7  A    between atoms: CG   and  CD  
REMARK    8  A    between atoms: CD   and  CE  
ROOT
ATOM      7  CA  LYS A 135      33.193  34.663   9.290  1.00 25.02     0.186 C 
ENDROOT
BRANCH   7   8
ATOM      8  CB  LYS A 135      32.060  35.360  10.034  1.00 26.63     0.034 C 
BRANCH   8   9
ATOM      9  CG  LYS A 135      30.880  35.694   9.158  1.00 29.45     0.005 C 
BRANCH   9  10
ATOM     10  CD  LYS A 135      30.377  34.451   8.439  1.00 32.00     0.041 C 
BRANCH  10  11
ATOM     11  CE  LYS A 135      28.863  34.458   8.360  1.00 34.25     0.338 C 
ATOM     12  NZ  LYS A 135      28.261  33.768   9.535  1.00 35.99     0.618 N 
ENDBRANCH  10  11
ENDBRANCH   9  10
ENDBRANCH   8   9
ENDBRANCH   7   8
END_RES LYS A 135
