REMARK VINA RESULT:    -3.926      4.094      6.801
REMARK INTER + INTRA:         -16.892
REMARK INTER:                  -8.977
REMARK INTRA:                  -7.916
REMARK UNBOUND:                -9.983
REMARK SMILES CC(=O)N[C@@H]1[C@@H](O)C[C@](O)(C(=O)O)O[C@H]1C(O)[C@H](O)CNC(=O)OCc1cn(-c2nc(C)nc(N)n2)nn1
REMARK SMILES IDX 21 1 22 2 23 3 20 5 18 6 16 7 15 8 9 9 8 10 14 11 6 12 5 13
REMARK SMILES IDX 10 14 11 16 12 17 13 18 7 20 4 22 2 23 1 25 3 26 17 27 19 29
REMARK SMILES IDX 24 31 25 32 26 33 27 34 38 35 28 36 37 37 29 38 36 39 30 40
REMARK SMILES IDX 34 41 31 42 33 43 32 44 35 45
REMARK H PARENT 21 4 10 15 13 19 7 21 4 24 17 28 19 30 35 46 35 47
REMARK Flexibility Score: inf
ROOT
ATOM      1  N   UNL     1      30.194  40.154   9.606  1.00  0.00    -0.319 N 
ATOM      2  C   UNL     1      30.909  39.875   8.414  1.00  0.00     0.407 C 
ATOM      3  O   UNL     1      31.975  39.232   8.396  1.00  0.00    -0.225 OA
ATOM      4  H   UNL     1      29.305  40.721   9.476  1.00  0.00     0.167 HD
ENDROOT
BRANCH   1   5
ATOM      5  C   UNL     1      30.590  39.726  10.935  1.00  0.00     0.154 C 
BRANCH   5   6
ATOM      6  C   UNL     1      29.739  38.648  11.454  1.00  0.00     0.165 C 
BRANCH   6   7
ATOM      7  C   UNL     1      28.747  38.040  10.461  1.00  0.00     0.176 C 
BRANCH   7   8
ATOM      8  C   UNL     1      28.891  36.558  10.284  1.00  0.00     0.178 C 
ATOM      9  C   UNL     1      29.092  34.962   8.589  1.00  0.00     0.269 C 
ATOM     10  C   UNL     1      27.922  34.200   9.164  1.00  0.00     0.112 C 
ATOM     11  O   UNL     1      29.160  36.263   8.986  1.00  0.00    -0.332 OA
ATOM     12  C   UNL     1      27.947  34.317  10.659  1.00  0.00     0.145 C 
ATOM     13  C   UNL     1      27.844  35.810  11.001  1.00  0.00     0.142 C 
BRANCH   9  14
ATOM     14  O   UNL     1      28.835  34.999   7.191  1.00  0.00    -0.357 OA
ATOM     15  H   UNL     1      28.795  35.946   6.903  1.00  0.00     0.214 HD
ENDBRANCH   9  14
BRANCH   9  16
ATOM     16  C   UNL     1      30.314  34.187   8.796  1.00  0.00     0.364 C 
ATOM     17  O   UNL     1      31.282  34.338   7.974  1.00  0.00    -0.246 OA
BRANCH  16  18
ATOM     18  O   UNL     1      30.557  33.280   9.811  1.00  0.00    -0.477 OA
ATOM     19  H   UNL     1      29.933  32.465   9.919  1.00  0.00     0.296 HD
ENDBRANCH  16  18
ENDBRANCH   9  16
BRANCH  12  20
ATOM     20  O   UNL     1      26.865  33.641  11.228  1.00  0.00    -0.391 OA
ATOM     21  H   UNL     1      26.344  34.320  11.744  1.00  0.00     0.211 HD
ENDBRANCH  12  20
BRANCH  13  22
ATOM     22  N   UNL     1      28.156  35.860  12.442  1.00  0.00    -0.348 N 
ATOM     23  C   UNL     1      27.100  36.078  13.358  1.00  0.00     0.217 C 
ATOM     24  H   UNL     1      29.129  35.737  12.790  1.00  0.00     0.163 HD
ATOM     25  C   UNL     1      27.337  36.141  14.837  1.00  0.00     0.114 C 
ATOM     26  O   UNL     1      25.935  36.221  12.894  1.00  0.00    -0.275 OA
ENDBRANCH  13  22
ENDBRANCH   7   8
BRANCH   7  27
ATOM     27  O   UNL     1      27.492  38.313  11.109  1.00  0.00    -0.388 OA
ATOM     28  H   UNL     1      27.735  39.059  11.739  1.00  0.00     0.211 HD
ENDBRANCH   7  27
ENDBRANCH   6   7
BRANCH   6  29
ATOM     29  O   UNL     1      29.112  38.954  12.635  1.00  0.00    -0.388 OA
ATOM     30  H   UNL     1      28.182  39.276  12.524  1.00  0.00     0.211 HD
ENDBRANCH   6  29
ENDBRANCH   5   6
ENDBRANCH   1   5
BRANCH   2  31
ATOM     31  O   UNL     1      30.435  40.323   7.181  1.00  0.00    -0.443 OA
BRANCH  31  32
ATOM     32  C   UNL     1      30.277  39.487   6.077  1.00  0.00     0.294 C 
BRANCH  32  33
ATOM     33  C   UNL     1      29.052  38.649   6.160  1.00  0.00     0.121 A 
ATOM     34  C   UNL     1      27.965  38.884   6.976  1.00  0.00     0.148 A 
ATOM     35  N   UNL     1      28.736  37.517   5.487  1.00  0.00    -0.131 NA
ATOM     36  N   UNL     1      27.038  37.921   6.791  1.00  0.00    -0.185 N 
ATOM     37  N   UNL     1      27.539  37.118   5.887  1.00  0.00    -0.059 NA
BRANCH  36  38
ATOM     38  C   UNL     1      25.778  37.797   7.437  1.00  0.00     0.257 A 
ATOM     39  N   UNL     1      24.763  38.658   7.249  1.00  0.00    -0.175 NA
ATOM     40  N   UNL     1      25.573  36.775   8.284  1.00  0.00    -0.196 NA
ATOM     41  C   UNL     1      23.572  38.543   7.859  1.00  0.00     0.225 A 
ATOM     42  C   UNL     1      24.373  36.633   8.919  1.00  0.00     0.133 A 
ATOM     43  N   UNL     1      23.391  37.522   8.694  1.00  0.00    -0.198 NA
ATOM     44  C   UNL     1      24.163  35.504   9.846  1.00  0.00     0.090 C 
BRANCH  41  45
ATOM     45  N   UNL     1      22.505  39.447   7.662  1.00  0.00    -0.368 N 
ATOM     46  H   UNL     1      21.616  39.114   7.246  1.00  0.00     0.159 HD
ATOM     47  H   UNL     1      22.584  40.447   7.923  1.00  0.00     0.159 HD
ENDBRANCH  41  45
ENDBRANCH  36  38
ENDBRANCH  32  33
ENDBRANCH  31  32
ENDBRANCH   2  31
TORSDOF 16
BEGIN_RES LYS A 135
REMARK  4 active torsions:
REMARK  status: ('A' for Active; 'I' for Inactive)
REMARK    1  A    between atoms: CA   and  CB  
REMARK    2  A    between atoms: CB   and  CG  
REMARK    3  A    between atoms: CG   and  CD  
REMARK    4  A    between atoms: CD   and  CE  
ROOT
ATOM      1  CA  LYS A 135      33.193  34.663   9.290  1.00 25.02     0.186 C 
ENDROOT
BRANCH   1   2
ATOM      2  CB  LYS A 135      32.060  35.360  10.034  1.00 26.63     0.034 C 
BRANCH   2   3
ATOM      3  CG  LYS A 135      32.496  36.015  11.319  1.00 29.45     0.005 C 
BRANCH   3   4
ATOM      4  CD  LYS A 135      31.716  35.456  12.499  1.00 32.00     0.041 C 
BRANCH   4   5
ATOM      5  CE  LYS A 135      32.372  35.853  13.807  1.00 34.25     0.338 C 
ATOM      6  NZ  LYS A 135      33.494  34.935  14.145  1.00 35.99     0.618 N 
ENDBRANCH   4   5
ENDBRANCH   3   4
ENDBRANCH   2   3
ENDBRANCH   1   2
END_RES LYS A 135
BEGIN_RES ARG A 124
REMARK  4 active torsions:
REMARK  status: ('A' for Active; 'I' for Inactive)
REMARK    5  A    between atoms: CA   and  CB  
REMARK    6  A    between atoms: CB   and  CG  
REMARK    7  A    between atoms: CG   and  CD  
REMARK    8  A    between atoms: CD   and  NE  
REMARK       I    between atoms: NE   and  CZ  
ROOT
ATOM      7  CA  ARG A 124      31.045  26.515   9.594  1.00 17.84     0.186 C 
ENDROOT
BRANCH   7   8
ATOM      8  CB  ARG A 124      29.529  26.705   9.647  1.00 16.18     0.036 C 
BRANCH   8   9
ATOM      9  CG  ARG A 124      28.918  26.890  11.082  1.00 16.22     0.029 C 
BRANCH   9  10
ATOM     10  CD  ARG A 124      27.580  26.137  11.266  1.00 15.09     0.145 C 
BRANCH  10  11
ATOM     11  NE  ARG A 124      26.418  27.027  11.480  1.00 16.98    -0.083 NA
ATOM     12  CZ  ARG A 124      26.025  27.493  12.661  1.00 18.21     0.782 C 
ATOM     13  NH1 ARG A 124      26.681  27.191  13.775  1.00 21.11     0.063 N 
ATOM     14  NH2 ARG A 124      24.973  28.294  12.738  1.00 21.25     0.063 N 
ENDBRANCH  10  11
ENDBRANCH   9  10
ENDBRANCH   8   9
ENDBRANCH   7   8
END_RES ARG A 124
BEGIN_RES ASN A 133
REMARK  2 active torsions:
REMARK  status: ('A' for Active; 'I' for Inactive)
REMARK    9  A    between atoms: CA   and  CB  
REMARK   10  A    between atoms: CB   and  CG  
ROOT
ATOM     15  CA  ASN A 133      31.225  30.257  11.749  1.00 18.15     0.196 C 
ENDROOT
BRANCH  15  16
ATOM     16  CB  ASN A 133      30.092  31.240  11.460  1.00 18.27     0.126 C 
BRANCH  16  17
ATOM     17  CG  ASN A 133      28.731  30.635  11.612  1.00 18.94     0.276 C 
ATOM     18  OD1 ASN A 133      28.236  29.944  10.719  1.00 18.09    -0.269 OA
ATOM     19  ND2 ASN A 133      28.103  30.893  12.758  1.00 18.93    -0.107 N 
ENDBRANCH  16  17
ENDBRANCH  15  16
END_RES ASN A 133
BEGIN_RES LYS A 131
REMARK  4 active torsions:
REMARK  status: ('A' for Active; 'I' for Inactive)
REMARK   11  A    between atoms: CA   and  CB  
REMARK   12  A    between atoms: CB   and  CG  
REMARK   13  A    between atoms: CG   and  CD  
REMARK   14  A    between atoms: CD   and  CE  
ROOT
ATOM     20  CA  LYS A 131      29.867  25.555  16.977  1.00 20.52     0.186 C 
ENDROOT
BRANCH  20  21
ATOM     21  CB  LYS A 131      28.345  25.722  17.026  1.00 20.94     0.034 C 
BRANCH  21  22
ATOM     22  CG  LYS A 131      27.599  24.420  16.778  1.00 22.96     0.005 C 
BRANCH  22  23
ATOM     23  CD  LYS A 131      26.150  24.514  17.167  1.00 24.33     0.041 C 
BRANCH  23  24
ATOM     24  CE  LYS A 131      25.785  23.333  18.060  1.00 26.91     0.338 C 
ATOM     25  NZ  LYS A 131      25.613  23.777  19.463  1.00 27.40     0.618 N 
ENDBRANCH  23  24
ENDBRANCH  22  23
ENDBRANCH  21  22
ENDBRANCH  20  21
END_RES LYS A 131
