REMARK VINA RESULT:    -5.645      4.514      8.078
REMARK INTER + INTRA:         -14.588
REMARK INTER:                  -9.742
REMARK INTRA:                  -4.846
REMARK UNBOUND:                -3.993
REMARK SMILES CC(=O)N[C@@H]1[C@@H](O)C[C@](O)(C(=O)O)O[C@H]1C(O)[C@H](O)CNC(=O)OCc1cn(Cc2ccc(C(=O)O)cc2)nn1
REMARK SMILES IDX 21 1 22 2 23 3 20 5 18 6 16 7 15 8 9 9 8 10 14 11 6 12 5 13
REMARK SMILES IDX 10 14 11 16 12 17 13 18 7 20 4 22 2 23 1 25 3 26 17 27 19 29
REMARK SMILES IDX 24 31 25 32 26 33 27 34 40 35 28 36 39 37 29 38 30 39 31 40
REMARK SMILES IDX 38 41 32 42 37 43 33 44 34 45 35 46 36 47
REMARK H PARENT 21 4 10 15 13 19 7 21 4 24 17 28 19 30 36 48
REMARK Flexibility Score: inf
ROOT
ATOM      1  N   UNL     1      29.458  36.625  13.882  1.00  0.00    -0.319 N 
ATOM      2  C   UNL     1      28.740  37.553  14.654  1.00  0.00     0.407 C 
ATOM      3  O   UNL     1      29.104  37.807  15.814  1.00  0.00    -0.225 OA
ATOM      4  H   UNL     1      29.078  36.461  12.900  1.00  0.00     0.167 HD
ENDROOT
BRANCH   1   5
ATOM      5  C   UNL     1      30.627  35.925  14.346  1.00  0.00     0.154 C 
BRANCH   5   6
ATOM      6  C   UNL     1      30.503  34.463  14.014  1.00  0.00     0.165 C 
BRANCH   6   7
ATOM      7  C   UNL     1      30.930  33.547  15.117  1.00  0.00     0.176 C 
BRANCH   7   8
ATOM      8  C   UNL     1      29.738  33.233  16.040  1.00  0.00     0.178 C 
ATOM      9  C   UNL     1      27.435  33.075  15.922  1.00  0.00     0.269 C 
ATOM     10  C   UNL     1      27.194  34.337  16.736  1.00  0.00     0.112 C 
ATOM     11  O   UNL     1      28.614  33.259  15.242  1.00  0.00    -0.332 OA
ATOM     12  C   UNL     1      28.341  34.585  17.661  1.00  0.00     0.145 C 
ATOM     13  C   UNL     1      29.689  34.324  17.047  1.00  0.00     0.142 C 
BRANCH   9  14
ATOM     14  O   UNL     1      26.390  33.090  14.954  1.00  0.00    -0.357 OA
ATOM     15  H   UNL     1      25.802  33.884  15.155  1.00  0.00     0.214 HD
ENDBRANCH   9  14
BRANCH   9  16
ATOM     16  C   UNL     1      27.336  31.864  16.742  1.00  0.00     0.364 C 
ATOM     17  O   UNL     1      27.472  30.725  16.178  1.00  0.00    -0.246 OA
BRANCH  16  18
ATOM     18  O   UNL     1      27.103  31.806  18.101  1.00  0.00    -0.477 OA
ATOM     19  H   UNL     1      26.463  32.487  18.488  1.00  0.00     0.296 HD
ENDBRANCH  16  18
ENDBRANCH   9  16
BRANCH  12  20
ATOM     20  O   UNL     1      28.303  35.960  17.995  1.00  0.00    -0.391 OA
ATOM     21  H   UNL     1      27.468  36.088  18.508  1.00  0.00     0.211 HD
ENDBRANCH  12  20
BRANCH  13  22
ATOM     22  N   UNL     1      30.675  34.181  18.099  1.00  0.00    -0.348 N 
ATOM     23  C   UNL     1      31.561  35.231  18.447  1.00  0.00     0.217 C 
ATOM     24  H   UNL     1      30.761  33.292  18.636  1.00  0.00     0.163 HD
ATOM     25  C   UNL     1      32.579  35.061  19.545  1.00  0.00     0.114 C 
ATOM     26  O   UNL     1      31.484  36.308  17.826  1.00  0.00    -0.275 OA
ENDBRANCH  13  22
ENDBRANCH   7   8
BRANCH   7  27
ATOM     27  O   UNL     1      31.568  32.402  14.706  1.00  0.00    -0.388 OA
ATOM     28  H   UNL     1      31.599  32.369  13.715  1.00  0.00     0.211 HD
ENDBRANCH   7  27
ENDBRANCH   6   7
BRANCH   6  29
ATOM     29  O   UNL     1      31.179  34.128  12.832  1.00  0.00    -0.388 OA
ATOM     30  H   UNL     1      32.055  34.608  12.813  1.00  0.00     0.211 HD
ENDBRANCH   6  29
ENDBRANCH   5   6
ENDBRANCH   1   5
BRANCH   2  31
ATOM     31  O   UNL     1      27.617  38.226  14.190  1.00  0.00    -0.443 OA
BRANCH  31  32
ATOM     32  C   UNL     1      26.297  37.777  14.382  1.00  0.00     0.294 C 
BRANCH  32  33
ATOM     33  C   UNL     1      25.989  36.698  13.421  1.00  0.00     0.120 A 
ATOM     34  C   UNL     1      25.150  36.818  12.312  1.00  0.00     0.138 A 
ATOM     35  N   UNL     1      26.409  35.418  13.387  1.00  0.00    -0.132 NA
ATOM     36  N   UNL     1      25.102  35.641  11.676  1.00  0.00    -0.248 N 
ATOM     37  N   UNL     1      25.869  34.813  12.344  1.00  0.00    -0.067 NA
BRANCH  36  38
ATOM     38  C   UNL     1      24.326  35.333  10.466  1.00  0.00     0.181 C 
BRANCH  38  39
ATOM     39  C   UNL     1      25.259  35.589   9.322  1.00  0.00    -0.026 A 
ATOM     40  C   UNL     1      25.131  36.741   8.596  1.00  0.00     0.006 A 
ATOM     41  C   UNL     1      26.240  34.694   8.977  1.00  0.00     0.006 A 
ATOM     42  C   UNL     1      25.982  37.007   7.520  1.00  0.00     0.016 A 
ATOM     43  C   UNL     1      27.087  34.957   7.906  1.00  0.00     0.016 A 
ATOM     44  C   UNL     1      26.968  36.117   7.166  1.00  0.00     0.059 A 
BRANCH  44  45
ATOM     45  C   UNL     1      27.863  36.384   6.049  1.00  0.00     0.335 C 
ATOM     46  O   UNL     1      29.010  35.894   5.962  1.00  0.00    -0.246 OA
BRANCH  45  47
ATOM     47  O   UNL     1      27.437  37.219   5.022  1.00  0.00    -0.478 OA
ATOM     48  H   UNL     1      26.907  36.865   4.244  1.00  0.00     0.297 HD
ENDBRANCH  45  47
ENDBRANCH  44  45
ENDBRANCH  38  39
ENDBRANCH  36  38
ENDBRANCH  32  33
ENDBRANCH  31  32
ENDBRANCH   2  31
TORSDOF 18
BEGIN_RES LYS A 131
REMARK  4 active torsions:
REMARK  status: ('A' for Active; 'I' for Inactive)
REMARK    1  A    between atoms: CA   and  CB  
REMARK    2  A    between atoms: CB   and  CG  
REMARK    3  A    between atoms: CG   and  CD  
REMARK    4  A    between atoms: CD   and  CE  
ROOT
ATOM      1  CA  LYS A 131      29.867  25.555  16.977  1.00 20.52     0.186 C 
ENDROOT
BRANCH   1   2
ATOM      2  CB  LYS A 131      28.345  25.722  17.026  1.00 20.94     0.034 C 
BRANCH   2   3
ATOM      3  CG  LYS A 131      27.603  24.395  16.970  1.00 22.96     0.005 C 
BRANCH   3   4
ATOM      4  CD  LYS A 131      26.638  24.238  18.113  1.00 24.33     0.041 C 
BRANCH   4   5
ATOM      5  CE  LYS A 131      25.257  23.890  17.568  1.00 26.91     0.338 C 
ATOM      6  NZ  LYS A 131      25.097  22.421  17.457  1.00 27.40     0.618 N 
ENDBRANCH   4   5
ENDBRANCH   3   4
ENDBRANCH   2   3
ENDBRANCH   1   2
END_RES LYS A 131
BEGIN_RES LYS A 135
REMARK  4 active torsions:
REMARK  status: ('A' for Active; 'I' for Inactive)
REMARK    5  A    between atoms: CA   and  CB  
REMARK    6  A    between atoms: CB   and  CG  
REMARK    7  A    between atoms: CG   and  CD  
REMARK    8  A    between atoms: CD   and  CE  
ROOT
ATOM      7  CA  LYS A 135      33.193  34.663   9.290  1.00 25.02     0.186 C 
ENDROOT
BRANCH   7   8
ATOM      8  CB  LYS A 135      32.060  35.360  10.034  1.00 26.63     0.034 C 
BRANCH   8   9
ATOM      9  CG  LYS A 135      30.770  35.411   9.256  1.00 29.45     0.005 C 
BRANCH   9  10
ATOM     10  CD  LYS A 135      29.951  36.629   9.656  1.00 32.00     0.041 C 
BRANCH  10  11
ATOM     11  CE  LYS A 135      30.197  37.775   8.694  1.00 34.25     0.338 C 
ATOM     12  NZ  LYS A 135      29.046  38.720   8.679  1.00 35.99     0.618 N 
ENDBRANCH  10  11
ENDBRANCH   9  10
ENDBRANCH   8   9
ENDBRANCH   7   8
END_RES LYS A 135
