REMARK VINA RESULT:    -4.976      2.297      3.166
REMARK INTER + INTRA:         -15.167
REMARK INTER:                  -8.734
REMARK INTRA:                  -6.433
REMARK UNBOUND:                -6.554
REMARK SMILES CC(=O)N[C@@H]1[C@@H](O)C[C@](O)(C(=O)O)O[C@H]1C(O)[C@H](O)CNC(=O)OCc1cn(C23CC4CC(CC(C4)C2)C3)nn1
REMARK SMILES IDX 20 1 18 2 16 3 15 4 9 5 8 6 14 7 6 8 5 9 10 10 11 12 12 13
REMARK SMILES IDX 13 14 7 16 4 18 2 19 1 21 3 22 17 23 19 25 21 27 22 28 23 30
REMARK SMILES IDX 24 31 25 32 26 33 27 34 40 35 28 36 39 37 29 38 38 39 37 40
REMARK SMILES IDX 30 41 33 42 35 43 31 44 32 45 34 46 36 47
REMARK H PARENT 10 11 13 15 7 17 4 20 17 24 19 26 21 29
REMARK Flexibility Score: inf
ROOT
ATOM      1  C   UNL     1      25.780  29.072  17.488  1.00  0.00     0.154 C 
ENDROOT
BRANCH   1   2
ATOM      2  C   UNL     1      27.104  28.356  17.575  1.00  0.00     0.165 C 
BRANCH   2   3
ATOM      3  C   UNL     1      27.724  28.440  18.954  1.00  0.00     0.176 C 
BRANCH   3   4
ATOM      4  C   UNL     1      27.784  29.900  19.417  1.00  0.00     0.178 C 
ATOM      5  C   UNL     1      29.706  31.019  18.673  1.00  0.00     0.269 C 
ATOM      6  C   UNL     1      30.437  30.299  19.777  1.00  0.00     0.112 C 
ATOM      7  O   UNL     1      28.397  30.718  18.523  1.00  0.00    -0.332 OA
ATOM      8  C   UNL     1      29.655  30.395  21.040  1.00  0.00     0.145 C 
ATOM      9  C   UNL     1      28.208  30.039  20.832  1.00  0.00     0.142 C 
BRANCH   5  10
ATOM     10  O   UNL     1      30.364  30.624  17.485  1.00  0.00    -0.357 OA
ATOM     11  H   UNL     1      30.647  31.458  17.026  1.00  0.00     0.214 HD
ENDBRANCH   5  10
BRANCH   5  12
ATOM     12  C   UNL     1      29.974  32.469  18.847  1.00  0.00     0.364 C 
ATOM     13  O   UNL     1      29.084  33.344  18.669  1.00  0.00    -0.246 OA
BRANCH  12  14
ATOM     14  O   UNL     1      31.232  32.894  19.214  1.00  0.00    -0.477 OA
ATOM     15  H   UNL     1      31.395  33.523  20.002  1.00  0.00     0.296 HD
ENDBRANCH  12  14
ENDBRANCH   5  12
BRANCH   8  16
ATOM     16  O   UNL     1      30.275  29.549  21.988  1.00  0.00    -0.391 OA
ATOM     17  H   UNL     1      30.791  30.085  22.627  1.00  0.00     0.211 HD
ENDBRANCH   8  16
BRANCH   9  18
ATOM     18  N   UNL     1      27.363  31.038  21.473  1.00  0.00    -0.348 N 
ATOM     19  C   UNL     1      26.124  30.708  22.084  1.00  0.00     0.217 C 
ATOM     20  H   UNL     1      27.674  32.053  21.491  1.00  0.00     0.163 HD
ATOM     21  C   UNL     1      25.336  31.780  22.708  1.00  0.00     0.114 C 
ATOM     22  O   UNL     1      25.750  29.496  22.063  1.00  0.00    -0.275 OA
ENDBRANCH   9  18
ENDBRANCH   3   4
BRANCH   3  23
ATOM     23  O   UNL     1      27.130  27.625  19.868  1.00  0.00    -0.388 OA
ATOM     24  H   UNL     1      27.230  27.859  20.803  1.00  0.00     0.211 HD
ENDBRANCH   3  23
ENDBRANCH   2   3
BRANCH   2  25
ATOM     25  O   UNL     1      27.937  28.889  16.595  1.00  0.00    -0.388 OA
ATOM     26  H   UNL     1      27.499  28.747  15.696  1.00  0.00     0.211 HD
ENDBRANCH   2  25
ENDBRANCH   1   2
BRANCH   1  27
ATOM     27  N   UNL     1      26.020  30.330  16.804  1.00  0.00    -0.319 N 
ATOM     28  C   UNL     1      25.420  30.631  15.534  1.00  0.00     0.407 C 
ATOM     29  H   UNL     1      26.637  31.084  17.189  1.00  0.00     0.167 HD
ATOM     30  O   UNL     1      24.670  29.760  15.029  1.00  0.00    -0.225 OA
BRANCH  28  31
ATOM     31  O   UNL     1      25.637  31.816  14.876  1.00  0.00    -0.443 OA
BRANCH  31  32
ATOM     32  C   UNL     1      26.168  32.913  15.587  1.00  0.00     0.294 C 
BRANCH  32  33
ATOM     33  C   UNL     1      27.654  32.888  15.395  1.00  0.00     0.120 A 
ATOM     34  C   UNL     1      28.422  34.011  15.153  1.00  0.00     0.138 A 
ATOM     35  N   UNL     1      28.508  31.869  15.409  1.00  0.00    -0.132 NA
ATOM     36  N   UNL     1      29.684  33.627  15.032  1.00  0.00    -0.246 N 
ATOM     37  N   UNL     1      29.724  32.321  15.190  1.00  0.00    -0.066 NA
BRANCH  36  38
ATOM     38  C   UNL     1      30.806  34.532  14.770  1.00  0.00     0.065 C 
ATOM     39  C   UNL     1      30.761  34.847  13.280  1.00  0.00     0.034 C 
ATOM     40  C   UNL     1      32.109  33.887  15.128  1.00  0.00     0.034 C 
ATOM     41  C   UNL     1      30.637  35.787  15.590  1.00  0.00     0.034 C 
ATOM     42  C   UNL     1      31.885  35.806  12.941  1.00  0.00    -0.008 C 
ATOM     43  C   UNL     1      33.227  34.825  14.733  1.00  0.00    -0.008 C 
ATOM     44  C   UNL     1      31.750  36.751  15.240  1.00  0.00    -0.008 C 
ATOM     45  C   UNL     1      31.703  37.055  13.753  1.00  0.00     0.007 C 
ATOM     46  C   UNL     1      33.187  35.116  13.263  1.00  0.00     0.007 C 
ATOM     47  C   UNL     1      33.067  36.084  15.555  1.00  0.00     0.007 C 
ENDBRANCH  36  38
ENDBRANCH  32  33
ENDBRANCH  31  32
ENDBRANCH  28  31
ENDBRANCH   1  27
TORSDOF 15
BEGIN_RES LYS A 131
REMARK  4 active torsions:
REMARK  status: ('A' for Active; 'I' for Inactive)
REMARK    1  A    between atoms: CA   and  CB  
REMARK    2  A    between atoms: CB   and  CG  
REMARK    3  A    between atoms: CG   and  CD  
REMARK    4  A    between atoms: CD   and  CE  
ROOT
ATOM      1  CA  LYS A 131      29.867  25.555  16.977  1.00 20.52     0.186 C 
ENDROOT
BRANCH   1   2
ATOM      2  CB  LYS A 131      28.345  25.722  17.026  1.00 20.94     0.034 C 
BRANCH   2   3
ATOM      3  CG  LYS A 131      27.599  24.475  16.576  1.00 22.96     0.005 C 
BRANCH   3   4
ATOM      4  CD  LYS A 131      26.961  23.750  17.728  1.00 24.33     0.041 C 
BRANCH   4   5
ATOM      5  CE  LYS A 131      25.454  23.984  17.705  1.00 26.91     0.338 C 
ATOM      6  NZ  LYS A 131      25.088  25.100  18.609  1.00 27.40     0.618 N 
ENDBRANCH   4   5
ENDBRANCH   3   4
ENDBRANCH   2   3
ENDBRANCH   1   2
END_RES LYS A 131
BEGIN_RES LYS A 135
REMARK  4 active torsions:
REMARK  status: ('A' for Active; 'I' for Inactive)
REMARK    5  A    between atoms: CA   and  CB  
REMARK    6  A    between atoms: CB   and  CG  
REMARK    7  A    between atoms: CG   and  CD  
REMARK    8  A    between atoms: CD   and  CE  
ROOT
ATOM      7  CA  LYS A 135      33.193  34.663   9.290  1.00 25.02     0.186 C 
ENDROOT
BRANCH   7   8
ATOM      8  CB  LYS A 135      32.060  35.360  10.034  1.00 26.63     0.034 C 
BRANCH   8   9
ATOM      9  CG  LYS A 135      30.807  35.518   9.212  1.00 29.45     0.005 C 
BRANCH   9  10
ATOM     10  CD  LYS A 135      30.172  34.164   8.936  1.00 32.00     0.041 C 
BRANCH  10  11
ATOM     11  CE  LYS A 135      28.704  34.325   8.591  1.00 34.25     0.338 C 
ATOM     12  NZ  LYS A 135      27.837  33.715   9.638  1.00 35.99     0.618 N 
ENDBRANCH  10  11
ENDBRANCH   9  10
ENDBRANCH   8   9
ENDBRANCH   7   8
END_RES LYS A 135
