REMARK VINA RESULT:    -4.177      2.622      8.295
REMARK INTER + INTRA:         -14.749
REMARK INTER:                  -9.442
REMARK INTRA:                  -5.307
REMARK UNBOUND:                -6.788
REMARK SMILES CC(=O)N[C@@H]1[C@@H](O)C[C@](O)(C(=O)O)O[C@H]1C(O)[C@H](O)CNC(=O)OCc1cn(CC(=O)NCc2cccs2)nn1
REMARK SMILES IDX 21 1 22 2 23 3 20 5 18 6 16 7 15 8 9 9 8 10 14 11 6 12 5 13
REMARK SMILES IDX 10 14 11 16 12 17 13 18 7 20 4 22 2 23 1 25 3 26 17 27 19 29
REMARK SMILES IDX 24 31 25 32 26 33 27 34 40 35 28 36 39 37 29 38 30 39 31 40
REMARK SMILES IDX 32 41 33 43 34 44 35 45 38 46 36 47 37 48
REMARK H PARENT 21 4 10 15 13 19 7 21 4 24 17 28 19 30 32 42
REMARK Flexibility Score: inf
ROOT
ATOM      1  N   UNL     1      26.746  37.405  12.606  1.00  0.00    -0.319 N 
ATOM      2  C   UNL     1      25.985  36.766  11.606  1.00  0.00     0.407 C 
ATOM      3  O   UNL     1      25.583  35.596  11.816  1.00  0.00    -0.225 OA
ATOM      4  H   UNL     1      27.071  38.377  12.409  1.00  0.00     0.167 HD
ENDROOT
BRANCH   1   5
ATOM      5  C   UNL     1      27.107  36.817  13.881  1.00  0.00     0.154 C 
BRANCH   5   6
ATOM      6  C   UNL     1      28.399  36.056  13.775  1.00  0.00     0.165 C 
BRANCH   6   7
ATOM      7  C   UNL     1      28.301  34.608  14.118  1.00  0.00     0.176 C 
BRANCH   7   8
ATOM      8  C   UNL     1      29.238  34.064  15.128  1.00  0.00     0.178 C 
ATOM      9  C   UNL     1      31.537  33.660  15.291  1.00  0.00     0.269 C 
ATOM     10  C   UNL     1      31.141  33.463  16.743  1.00  0.00     0.112 C 
ATOM     11  O   UNL     1      30.525  34.107  14.495  1.00  0.00    -0.332 OA
ATOM     12  C   UNL     1      30.024  32.479  16.784  1.00  0.00     0.145 C 
ATOM     13  C   UNL     1      29.085  32.667  15.575  1.00  0.00     0.142 C 
BRANCH   9  14
ATOM     14  O   UNL     1      32.042  32.414  14.872  1.00  0.00    -0.357 OA
ATOM     15  H   UNL     1      31.398  31.705  15.149  1.00  0.00     0.214 HD
ENDBRANCH   9  14
BRANCH   9  16
ATOM     16  C   UNL     1      32.649  34.641  15.188  1.00  0.00     0.364 C 
ATOM     17  O   UNL     1      33.119  34.907  14.062  1.00  0.00    -0.246 OA
BRANCH  16  18
ATOM     18  O   UNL     1      33.183  35.272  16.307  1.00  0.00    -0.477 OA
ATOM     19  H   UNL     1      33.033  36.280  16.367  1.00  0.00     0.296 HD
ENDBRANCH  16  18
ENDBRANCH   9  16
BRANCH  12  20
ATOM     20  O   UNL     1      30.435  31.168  16.886  1.00  0.00    -0.391 OA
ATOM     21  H   UNL     1      30.852  30.987  17.765  1.00  0.00     0.211 HD
ENDBRANCH  12  20
BRANCH  13  22
ATOM     22  N   UNL     1      27.816  32.218  16.009  1.00  0.00    -0.348 N 
ATOM     23  C   UNL     1      27.469  30.854  15.904  1.00  0.00     0.217 C 
ATOM     24  H   UNL     1      27.118  32.861  16.408  1.00  0.00     0.163 HD
ATOM     25  C   UNL     1      26.140  30.331  16.347  1.00  0.00     0.114 C 
ATOM     26  O   UNL     1      28.268  29.981  15.423  1.00  0.00    -0.275 OA
ENDBRANCH  13  22
ENDBRANCH   7   8
BRANCH   7  27
ATOM     27  O   UNL     1      27.015  34.088  14.131  1.00  0.00    -0.388 OA
ATOM     28  H   UNL     1      26.763  33.654  14.956  1.00  0.00     0.211 HD
ENDBRANCH   7  27
ENDBRANCH   6   7
BRANCH   6  29
ATOM     29  O   UNL     1      29.486  36.689  14.364  1.00  0.00    -0.388 OA
ATOM     30  H   UNL     1      30.057  36.078  14.884  1.00  0.00     0.211 HD
ENDBRANCH   6  29
ENDBRANCH   5   6
ENDBRANCH   1   5
BRANCH   2  31
ATOM     31  O   UNL     1      25.664  37.388  10.391  1.00  0.00    -0.443 OA
BRANCH  31  32
ATOM     32  C   UNL     1      25.033  36.661   9.353  1.00  0.00     0.294 C 
BRANCH  32  33
ATOM     33  C   UNL     1      26.014  36.496   8.244  1.00  0.00     0.120 A 
ATOM     34  C   UNL     1      26.460  37.449   7.352  1.00  0.00     0.138 A 
ATOM     35  N   UNL     1      26.662  35.374   7.893  1.00  0.00    -0.132 NA
ATOM     36  N   UNL     1      27.341  36.886   6.511  1.00  0.00    -0.243 N 
ATOM     37  N   UNL     1      27.445  35.622   6.862  1.00  0.00    -0.067 NA
BRANCH  36  38
ATOM     38  C   UNL     1      28.033  37.596   5.424  1.00  0.00     0.245 C 
BRANCH  38  39
ATOM     39  C   UNL     1      28.895  38.616   6.066  1.00  0.00     0.242 C 
ATOM     40  O   UNL     1      28.601  39.847   5.903  1.00  0.00    -0.273 OA
ATOM     41  N   UNL     1      30.034  38.339   6.858  1.00  0.00    -0.350 N 
ATOM     42  H   UNL     1      30.272  37.340   6.989  1.00  0.00     0.163 HD
BRANCH  41  43
ATOM     43  C   UNL     1      30.846  39.367   7.467  1.00  0.00     0.162 C 
BRANCH  43  44
ATOM     44  C   UNL     1      30.787  39.130   8.963  1.00  0.00     0.024 A 
ATOM     45  C   UNL     1      31.774  39.009   9.843  1.00  0.00     0.017 A 
ATOM     46  S   UNL     1      29.345  38.952   9.908  1.00  0.00    -0.147 S 
ATOM     47  C   UNL     1      31.510  38.797  11.150  1.00  0.00     0.012 A 
ATOM     48  C   UNL     1      30.152  38.717  11.490  1.00  0.00     0.065 A 
ENDBRANCH  43  44
ENDBRANCH  41  43
ENDBRANCH  38  39
ENDBRANCH  36  38
ENDBRANCH  32  33
ENDBRANCH  31  32
ENDBRANCH   2  31
TORSDOF 18
BEGIN_RES LYS A 131
REMARK  4 active torsions:
REMARK  status: ('A' for Active; 'I' for Inactive)
REMARK    1  A    between atoms: CA   and  CB  
REMARK    2  A    between atoms: CB   and  CG  
REMARK    3  A    between atoms: CG   and  CD  
REMARK    4  A    between atoms: CD   and  CE  
ROOT
ATOM      1  CA  LYS A 131      29.867  25.555  16.977  1.00 20.52     0.186 C 
ENDROOT
BRANCH   1   2
ATOM      2  CB  LYS A 131      28.345  25.722  17.026  1.00 20.94     0.034 C 
BRANCH   2   3
ATOM      3  CG  LYS A 131      27.599  24.477  16.571  1.00 22.96     0.005 C 
BRANCH   3   4
ATOM      4  CD  LYS A 131      27.010  23.715  17.726  1.00 24.33     0.041 C 
BRANCH   4   5
ATOM      5  CE  LYS A 131      25.676  24.340  18.120  1.00 26.91     0.338 C 
ATOM      6  NZ  LYS A 131      24.751  24.362  16.962  1.00 27.40     0.618 N 
ENDBRANCH   4   5
ENDBRANCH   3   4
ENDBRANCH   2   3
ENDBRANCH   1   2
END_RES LYS A 131
BEGIN_RES LYS A 135
REMARK  4 active torsions:
REMARK  status: ('A' for Active; 'I' for Inactive)
REMARK    5  A    between atoms: CA   and  CB  
REMARK    6  A    between atoms: CB   and  CG  
REMARK    7  A    between atoms: CG   and  CD  
REMARK    8  A    between atoms: CD   and  CE  
ROOT
ATOM      7  CA  LYS A 135      33.193  34.663   9.290  1.00 25.02     0.186 C 
ENDROOT
BRANCH   7   8
ATOM      8  CB  LYS A 135      32.060  35.360  10.034  1.00 26.63     0.034 C 
BRANCH   8   9
ATOM      9  CG  LYS A 135      30.791  35.473   9.230  1.00 29.45     0.005 C 
BRANCH   9  10
ATOM     10  CD  LYS A 135      30.321  34.100   8.773  1.00 32.00     0.041 C 
BRANCH  10  11
ATOM     11  CE  LYS A 135      29.034  33.716   9.477  1.00 34.25     0.338 C 
ATOM     12  NZ  LYS A 135      28.699  34.690  10.552  1.00 35.99     0.618 N 
ENDBRANCH  10  11
ENDBRANCH   9  10
ENDBRANCH   8   9
ENDBRANCH   7   8
END_RES LYS A 135
