REMARK VINA RESULT:    -5.221      7.298     12.000
REMARK INTER + INTRA:         -14.538
REMARK INTER:                  -7.998
REMARK INTRA:                  -6.540
REMARK UNBOUND:                -5.502
REMARK SMILES CC(=O)N[C@@H]1[C@@H](O)C[C@](O)(C(=O)O)O[C@H]1C(O)[C@H](O)CNC(=O)OCc1cn([C@@H]2C[C@H]3CC[C@@H](C2)N3C)nn1
REMARK SMILES IDX 20 1 18 2 16 3 15 4 9 5 8 6 14 7 6 8 5 9 10 10 11 12 12 13
REMARK SMILES IDX 13 14 7 16 4 18 2 19 1 21 3 22 17 23 19 25 21 27 22 28 23 30
REMARK SMILES IDX 24 31 25 32 26 33 27 34 39 35 28 36 38 37 29 38 35 39 30 40
REMARK SMILES IDX 34 41 31 42 36 43 33 44 32 45 37 46
REMARK H PARENT 10 11 13 15 7 17 4 20 17 24 19 26 21 29
REMARK Flexibility Score: inf
ROOT
ATOM      1  C   UNL     1      23.595  39.562   9.172  1.00  0.00     0.154 C 
ENDROOT
BRANCH   1   2
ATOM      2  C   UNL     1      24.493  39.337   7.992  1.00  0.00     0.165 C 
BRANCH   2   3
ATOM      3  C   UNL     1      25.521  40.456   7.875  1.00  0.00     0.176 C 
BRANCH   3   4
ATOM      4  C   UNL     1      26.885  39.809   7.640  1.00  0.00     0.178 C 
ATOM      5  C   UNL     1      27.820  38.365   6.054  1.00  0.00     0.269 C 
ATOM      6  C   UNL     1      28.167  37.311   7.058  1.00  0.00     0.112 C 
ATOM      7  O   UNL     1      26.860  39.247   6.426  1.00  0.00    -0.332 OA
ATOM      8  C   UNL     1      27.607  37.531   8.423  1.00  0.00     0.145 C 
ATOM      9  C   UNL     1      27.320  38.948   8.792  1.00  0.00     0.142 C 
BRANCH   5  10
ATOM     10  O   UNL     1      27.341  37.723   4.908  1.00  0.00    -0.357 OA
ATOM     11  H   UNL     1      28.067  37.372   4.338  1.00  0.00     0.214 HD
ENDBRANCH   5  10
BRANCH   5  12
ATOM     12  C   UNL     1      29.002  39.139   5.621  1.00  0.00     0.364 C 
ATOM     13  O   UNL     1      28.856  40.132   4.878  1.00  0.00    -0.246 OA
BRANCH  12  14
ATOM     14  O   UNL     1      30.308  38.832   5.992  1.00  0.00    -0.477 OA
ATOM     15  H   UNL     1      31.020  39.578   6.044  1.00  0.00     0.296 HD
ENDBRANCH  12  14
ENDBRANCH   5  12
BRANCH   8  16
ATOM     16  O   UNL     1      26.452  36.742   8.528  1.00  0.00    -0.391 OA
ATOM     17  H   UNL     1      26.371  36.154   7.740  1.00  0.00     0.211 HD
ENDBRANCH   8  16
BRANCH   9  18
ATOM     18  N   UNL     1      28.338  39.586   9.581  1.00  0.00    -0.348 N 
ATOM     19  C   UNL     1      28.124  40.108  10.878  1.00  0.00     0.217 C 
ATOM     20  H   UNL     1      29.314  39.685   9.194  1.00  0.00     0.163 HD
ATOM     21  C   UNL     1      29.155  40.769  11.707  1.00  0.00     0.114 C 
ATOM     22  O   UNL     1      26.958  39.979  11.323  1.00  0.00    -0.275 OA
ENDBRANCH   9  18
ENDBRANCH   3   4
BRANCH   3  23
ATOM     23  O   UNL     1      25.544  41.266   8.998  1.00  0.00    -0.388 OA
ATOM     24  H   UNL     1      24.621  41.312   9.359  1.00  0.00     0.211 HD
ENDBRANCH   3  23
ENDBRANCH   2   3
BRANCH   2  25
ATOM     25  O   UNL     1      23.818  39.260   6.807  1.00  0.00    -0.388 OA
ATOM     26  H   UNL     1      23.806  38.315   6.476  1.00  0.00     0.211 HD
ENDBRANCH   2  25
ENDBRANCH   1   2
BRANCH   1  27
ATOM     27  N   UNL     1      24.119  39.025  10.381  1.00  0.00    -0.319 N 
ATOM     28  C   UNL     1      24.163  37.660  10.712  1.00  0.00     0.407 C 
ATOM     29  H   UNL     1      24.515  39.698  11.110  1.00  0.00     0.167 HD
ATOM     30  O   UNL     1      23.727  36.769   9.959  1.00  0.00    -0.225 OA
BRANCH  28  31
ATOM     31  O   UNL     1      24.721  37.270  11.945  1.00  0.00    -0.443 OA
BRANCH  31  32
ATOM     32  C   UNL     1      24.828  35.890  12.230  1.00  0.00     0.294 C 
BRANCH  32  33
ATOM     33  C   UNL     1      26.200  35.544  12.601  1.00  0.00     0.120 A 
ATOM     34  C   UNL     1      27.340  36.240  12.218  1.00  0.00     0.138 A 
ATOM     35  N   UNL     1      26.605  34.523  13.355  1.00  0.00    -0.132 NA
ATOM     36  N   UNL     1      28.394  35.613  12.754  1.00  0.00    -0.249 N 
ATOM     37  N   UNL     1      27.922  34.588  13.430  1.00  0.00    -0.067 NA
BRANCH  36  38
ATOM     38  C   UNL     1      29.787  35.965  12.638  1.00  0.00     0.112 C 
ATOM     39  C   UNL     1      29.958  37.429  13.042  1.00  0.00     0.046 C 
ATOM     40  C   UNL     1      30.542  35.119  13.641  1.00  0.00     0.046 C 
ATOM     41  C   UNL     1      31.428  37.723  13.163  1.00  0.00     0.058 C 
ATOM     42  C   UNL     1      31.929  35.639  13.833  1.00  0.00     0.058 C 
ATOM     43  N   UNL     1      31.988  36.993  14.284  1.00  0.00    -0.300 NA
ATOM     44  C   UNL     1      32.180  37.115  11.993  1.00  0.00     0.021 C 
ATOM     45  C   UNL     1      32.566  35.738  12.441  1.00  0.00     0.021 C 
ATOM     46  C   UNL     1      31.290  37.232  15.514  1.00  0.00     0.105 C 
ENDBRANCH  36  38
ENDBRANCH  32  33
ENDBRANCH  31  32
ENDBRANCH  28  31
ENDBRANCH   1  27
TORSDOF 15
BEGIN_RES LYS A 131
REMARK  4 active torsions:
REMARK  status: ('A' for Active; 'I' for Inactive)
REMARK    1  A    between atoms: CA   and  CB  
REMARK    2  A    between atoms: CB   and  CG  
REMARK    3  A    between atoms: CG   and  CD  
REMARK    4  A    between atoms: CD   and  CE  
ROOT
ATOM      1  CA  LYS A 131      29.867  25.555  16.977  1.00 20.52     0.186 C 
ENDROOT
BRANCH   1   2
ATOM      2  CB  LYS A 131      28.345  25.722  17.026  1.00 20.94     0.034 C 
BRANCH   2   3
ATOM      3  CG  LYS A 131      27.600  24.410  16.833  1.00 22.96     0.005 C 
BRANCH   3   4
ATOM      4  CD  LYS A 131      26.652  24.125  17.964  1.00 24.33     0.041 C 
BRANCH   4   5
ATOM      5  CE  LYS A 131      25.733  22.970  17.580  1.00 26.91     0.338 C 
ATOM      6  NZ  LYS A 131      24.427  23.483  17.103  1.00 27.40     0.618 N 
ENDBRANCH   4   5
ENDBRANCH   3   4
ENDBRANCH   2   3
ENDBRANCH   1   2
END_RES LYS A 131
BEGIN_RES LYS A 135
REMARK  4 active torsions:
REMARK  status: ('A' for Active; 'I' for Inactive)
REMARK    5  A    between atoms: CA   and  CB  
REMARK    6  A    between atoms: CB   and  CG  
REMARK    7  A    between atoms: CG   and  CD  
REMARK    8  A    between atoms: CD   and  CE  
ROOT
ATOM      7  CA  LYS A 135      33.193  34.663   9.290  1.00 25.02     0.186 C 
ENDROOT
BRANCH   7   8
ATOM      8  CB  LYS A 135      32.060  35.360  10.034  1.00 26.63     0.034 C 
BRANCH   8   9
ATOM      9  CG  LYS A 135      30.759  35.376   9.273  1.00 29.45     0.005 C 
BRANCH   9  10
ATOM     10  CD  LYS A 135      30.042  34.042   9.408  1.00 32.00     0.041 C 
BRANCH  10  11
ATOM     11  CE  LYS A 135      28.671  34.106   8.763  1.00 34.25     0.338 C 
ATOM     12  NZ  LYS A 135      27.608  33.689   9.720  1.00 35.99     0.618 N 
ENDBRANCH  10  11
ENDBRANCH   9  10
ENDBRANCH   8   9
ENDBRANCH   7   8
END_RES LYS A 135
