REMARK VINA RESULT:    -4.997      4.220      7.636
REMARK INTER + INTRA:         -15.197
REMARK INTER:                 -10.348
REMARK INTRA:                  -4.849
REMARK UNBOUND:                -5.671
REMARK SMILES CCOC(=O)c1cccc(-n2cc(COC(=O)NC[C@@H](O)C(O)[C@@H]3O[C@@](O)(C(=O)O)C[C@H](O)[C@H]3NC(C)=O)nn2)c1
REMARK SMILES IDX 18 1 16 2 17 3 19 5 20 6 22 7 24 8 26 9 31 10 25 11 32 12
REMARK SMILES IDX 34 13 27 14 28 16 29 17 30 18 33 20 35 22 36 23 37 25 38 26
REMARK SMILES IDX 23 27 21 29 15 31 14 32 13 33 12 34 39 35 11 36 40 37 10 38
REMARK SMILES IDX 41 39 9 40 6 41 8 42 7 43 4 44 5 45 3 46 2 47 1 48
REMARK H PARENT 18 4 27 15 30 19 33 21 35 24 23 28 21 30
REMARK Flexibility Score: inf
ROOT
ATOM      1  N   UNL     1      28.692  32.376  15.881  1.00  0.00    -0.319 N 
ATOM      2  C   UNL     1      27.790  33.448  15.644  1.00  0.00     0.407 C 
ATOM      3  O   UNL     1      27.911  34.494  16.328  1.00  0.00    -0.225 OA
ATOM      4  H   UNL     1      28.574  31.520  15.304  1.00  0.00     0.167 HD
ENDROOT
BRANCH   1   5
ATOM      5  C   UNL     1      29.731  32.470  16.886  1.00  0.00     0.154 C 
BRANCH   5   6
ATOM      6  C   UNL     1      31.106  32.397  16.311  1.00  0.00     0.165 C 
BRANCH   6   7
ATOM      7  C   UNL     1      31.871  33.677  16.415  1.00  0.00     0.176 C 
BRANCH   7   8
ATOM      8  C   UNL     1      31.346  34.707  15.381  1.00  0.00     0.178 C 
ATOM      9  C   UNL     1      31.669  35.439  13.265  1.00  0.00     0.269 C 
ATOM     10  C   UNL     1      32.085  36.827  13.697  1.00  0.00     0.112 C 
ATOM     11  O   UNL     1      32.046  34.542  14.215  1.00  0.00    -0.332 OA
ATOM     12  C   UNL     1      31.512  37.212  15.027  1.00  0.00     0.145 C 
ATOM     13  C   UNL     1      31.371  36.063  15.983  1.00  0.00     0.142 C 
BRANCH   9  14
ATOM     14  O   UNL     1      32.462  35.164  12.115  1.00  0.00    -0.357 OA
ATOM     15  H   UNL     1      33.063  34.412  12.256  1.00  0.00     0.214 HD
ENDBRANCH   9  14
BRANCH   9  16
ATOM     16  C   UNL     1      30.260  35.415  12.852  1.00  0.00     0.364 C 
ATOM     17  O   UNL     1      29.527  36.460  12.801  1.00  0.00    -0.246 OA
BRANCH  16  18
ATOM     18  O   UNL     1      29.693  34.176  12.493  1.00  0.00    -0.477 OA
ATOM     19  H   UNL     1      30.232  33.584  11.848  1.00  0.00     0.296 HD
ENDBRANCH  16  18
ENDBRANCH   9  16
BRANCH  12  20
ATOM     20  O   UNL     1      32.288  38.236  15.567  1.00  0.00    -0.391 OA
ATOM     21  H   UNL     1      31.816  38.738  16.279  1.00  0.00     0.211 HD
ENDBRANCH  12  20
BRANCH  13  22
ATOM     22  N   UNL     1      30.221  36.230  16.853  1.00  0.00    -0.348 N 
ATOM     23  C   UNL     1      30.314  36.898  18.102  1.00  0.00     0.217 C 
ATOM     24  H   UNL     1      29.289  35.833  16.528  1.00  0.00     0.163 HD
ATOM     25  C   UNL     1      29.093  37.029  18.939  1.00  0.00     0.114 C 
ATOM     26  O   UNL     1      31.424  37.385  18.509  1.00  0.00    -0.275 OA
ENDBRANCH  13  22
ENDBRANCH   7   8
BRANCH   7  27
ATOM     27  O   UNL     1      31.844  34.275  17.650  1.00  0.00    -0.388 OA
ATOM     28  H   UNL     1      31.071  34.840  17.827  1.00  0.00     0.211 HD
ENDBRANCH   7  27
ENDBRANCH   6   7
BRANCH   6  29
ATOM     29  O   UNL     1      31.079  31.874  15.021  1.00  0.00    -0.388 OA
ATOM     30  H   UNL     1      30.601  31.002  15.068  1.00  0.00     0.211 HD
ENDBRANCH   6  29
ENDBRANCH   5   6
ENDBRANCH   1   5
BRANCH   2  31
ATOM     31  O   UNL     1      26.780  33.408  14.698  1.00  0.00    -0.443 OA
BRANCH  31  32
ATOM     32  C   UNL     1      25.763  34.390  14.644  1.00  0.00     0.294 C 
BRANCH  32  33
ATOM     33  C   UNL     1      25.755  35.059  13.330  1.00  0.00     0.121 A 
ATOM     34  C   UNL     1      26.403  34.687  12.164  1.00  0.00     0.144 A 
ATOM     35  N   UNL     1      25.098  36.194  13.005  1.00  0.00    -0.131 NA
ATOM     36  N   UNL     1      26.125  35.584  11.195  1.00  0.00    -0.220 N 
ATOM     37  N   UNL     1      25.321  36.493  11.754  1.00  0.00    -0.062 NA
BRANCH  36  38
ATOM     38  C   UNL     1      26.565  35.609   9.854  1.00  0.00     0.067 A 
ATOM     39  C   UNL     1      26.480  36.756   9.087  1.00  0.00     0.044 A 
ATOM     40  C   UNL     1      27.097  34.488   9.256  1.00  0.00     0.028 A 
ATOM     41  C   UNL     1      26.899  36.824   7.773  1.00  0.00     0.062 A 
ATOM     42  C   UNL     1      27.529  34.525   7.933  1.00  0.00     0.003 A 
ATOM     43  C   UNL     1      27.426  35.685   7.208  1.00  0.00     0.016 A 
BRANCH  41  44
ATOM     44  C   UNL     1      26.799  38.049   6.988  1.00  0.00     0.338 C 
ATOM     45  O   UNL     1      26.066  38.983   7.396  1.00  0.00    -0.246 OA
BRANCH  44  46
ATOM     46  O   UNL     1      27.485  38.231   5.799  1.00  0.00    -0.462 OA
BRANCH  46  47
ATOM     47  C   UNL     1      27.383  39.415   5.033  1.00  0.00     0.230 C 
ATOM     48  C   UNL     1      28.648  40.206   5.202  1.00  0.00     0.049 C 
ENDBRANCH  46  47
ENDBRANCH  44  46
ENDBRANCH  41  44
ENDBRANCH  36  38
ENDBRANCH  32  33
ENDBRANCH  31  32
ENDBRANCH   2  31
TORSDOF 18
BEGIN_RES LYS A 131
REMARK  4 active torsions:
REMARK  status: ('A' for Active; 'I' for Inactive)
REMARK    1  A    between atoms: CA   and  CB  
REMARK    2  A    between atoms: CB   and  CG  
REMARK    3  A    between atoms: CG   and  CD  
REMARK    4  A    between atoms: CD   and  CE  
ROOT
ATOM      1  CA  LYS A 131      29.867  25.555  16.977  1.00 20.52     0.186 C 
ENDROOT
BRANCH   1   2
ATOM      2  CB  LYS A 131      28.345  25.722  17.026  1.00 20.94     0.034 C 
BRANCH   2   3
ATOM      3  CG  LYS A 131      27.601  24.404  16.872  1.00 22.96     0.005 C 
BRANCH   3   4
ATOM      4  CD  LYS A 131      26.627  24.170  17.994  1.00 24.33     0.041 C 
BRANCH   4   5
ATOM      5  CE  LYS A 131      25.468  23.315  17.491  1.00 26.91     0.338 C 
ATOM      6  NZ  LYS A 131      24.451  24.160  16.823  1.00 27.40     0.618 N 
ENDBRANCH   4   5
ENDBRANCH   3   4
ENDBRANCH   2   3
ENDBRANCH   1   2
END_RES LYS A 131
BEGIN_RES LYS A 135
REMARK  4 active torsions:
REMARK  status: ('A' for Active; 'I' for Inactive)
REMARK    5  A    between atoms: CA   and  CB  
REMARK    6  A    between atoms: CB   and  CG  
REMARK    7  A    between atoms: CG   and  CD  
REMARK    8  A    between atoms: CD   and  CE  
ROOT
ATOM      7  CA  LYS A 135      33.193  34.663   9.290  1.00 25.02     0.186 C 
ENDROOT
BRANCH   7   8
ATOM      8  CB  LYS A 135      32.060  35.360  10.034  1.00 26.63     0.034 C 
BRANCH   8   9
ATOM      9  CG  LYS A 135      30.826  35.569   9.194  1.00 29.45     0.005 C 
BRANCH   9  10
ATOM     10  CD  LYS A 135      30.195  36.919   9.495  1.00 32.00     0.041 C 
BRANCH  10  11
ATOM     11  CE  LYS A 135      30.411  37.877   8.339  1.00 34.25     0.338 C 
ATOM     12  NZ  LYS A 135      30.840  39.218   8.826  1.00 35.99     0.618 N 
ENDBRANCH  10  11
ENDBRANCH   9  10
ENDBRANCH   8   9
ENDBRANCH   7   8
END_RES LYS A 135
