REMARK VINA RESULT:    -4.994      3.988      7.759
REMARK INTER + INTRA:         -15.719
REMARK INTER:                  -7.659
REMARK INTRA:                  -8.060
REMARK UNBOUND:                -5.909
REMARK SMILES CC(=O)N[C@@H]1[C@@H](O)C[C@](O)(C(=O)O)O[C@H]1C(O)[C@H](O)CNC(=O)OCc1cn(CCNC(=O)NCc2ccco2)nn1
REMARK SMILES IDX 24 1 22 2 21 3 23 5 20 6 18 7 16 8 15 9 9 10 8 11 14 12 6 13
REMARK SMILES IDX 5 14 10 15 11 17 12 18 13 19 7 21 4 23 2 24 1 26 3 27 17 28
REMARK SMILES IDX 19 30 25 32 26 33 27 34 42 35 28 36 41 37 29 38 30 39 31 40
REMARK SMILES IDX 32 41 33 43 34 44 35 46 36 47 37 48 40 49 38 50 39 51
REMARK H PARENT 21 4 10 16 13 20 7 22 4 25 17 29 19 31 31 42 34 45
REMARK Flexibility Score: inf
ROOT
ATOM      1  O   UNL     1      26.657  30.990  16.963  1.00  0.00    -0.443 OA
ENDROOT
BRANCH   1   2
ATOM      2  C   UNL     1      28.037  31.039  17.132  1.00  0.00     0.407 C 
ATOM      3  N   UNL     1      28.969  30.930  16.091  1.00  0.00    -0.319 N 
ATOM      4  H   UNL     1      28.645  30.805  15.121  1.00  0.00     0.167 HD
ATOM      5  O   UNL     1      28.469  31.192  18.305  1.00  0.00    -0.225 OA
BRANCH   3   6
ATOM      6  C   UNL     1      30.405  30.996  16.382  1.00  0.00     0.154 C 
BRANCH   6   7
ATOM      7  C   UNL     1      31.005  32.140  15.610  1.00  0.00     0.165 C 
BRANCH   7   8
ATOM      8  C   UNL     1      31.261  33.345  16.472  1.00  0.00     0.176 C 
BRANCH   8   9
ATOM      9  C   UNL     1      31.390  34.612  15.677  1.00  0.00     0.178 C 
ATOM     10  C   UNL     1      32.076  35.282  13.547  1.00  0.00     0.269 C 
ATOM     11  C   UNL     1      32.386  36.659  14.037  1.00  0.00     0.112 C 
ATOM     12  O   UNL     1      32.080  34.306  14.491  1.00  0.00    -0.332 OA
ATOM     13  C   UNL     1      32.100  36.913  15.461  1.00  0.00     0.145 C 
ATOM     14  C   UNL     1      32.234  35.678  16.332  1.00  0.00     0.142 C 
BRANCH  10  15
ATOM     15  O   UNL     1      33.122  34.961  12.643  1.00  0.00    -0.357 OA
ATOM     16  H   UNL     1      33.998  34.972  13.103  1.00  0.00     0.214 HD
ENDBRANCH  10  15
BRANCH  10  17
ATOM     17  C   UNL     1      30.816  35.217  12.766  1.00  0.00     0.364 C 
ATOM     18  O   UNL     1      30.412  34.135  12.253  1.00  0.00    -0.246 OA
BRANCH  17  19
ATOM     19  O   UNL     1      30.009  36.327  12.549  1.00  0.00    -0.477 OA
ATOM     20  H   UNL     1      30.081  37.134  13.160  1.00  0.00     0.296 HD
ENDBRANCH  17  19
ENDBRANCH  10  17
BRANCH  13  21
ATOM     21  O   UNL     1      32.953  37.927  15.946  1.00  0.00    -0.391 OA
ATOM     22  H   UNL     1      33.724  38.064  15.360  1.00  0.00     0.211 HD
ENDBRANCH  13  21
BRANCH  14  23
ATOM     23  N   UNL     1      31.914  35.977  17.685  1.00  0.00    -0.348 N 
ATOM     24  C   UNL     1      32.978  36.105  18.632  1.00  0.00     0.217 C 
ATOM     25  H   UNL     1      30.949  36.122  18.048  1.00  0.00     0.163 HD
ATOM     26  C   UNL     1      32.751  36.415  20.059  1.00  0.00     0.114 C 
ATOM     27  O   UNL     1      34.176  35.951  18.252  1.00  0.00    -0.275 OA
ENDBRANCH  14  23
ENDBRANCH   8   9
BRANCH   8  28
ATOM     28  O   UNL     1      30.409  33.442  17.557  1.00  0.00    -0.388 OA
ATOM     29  H   UNL     1      30.762  33.024  18.383  1.00  0.00     0.211 HD
ENDBRANCH   8  28
ENDBRANCH   7   8
BRANCH   7  30
ATOM     30  O   UNL     1      29.999  32.546  14.692  1.00  0.00    -0.388 OA
ATOM     31  H   UNL     1      30.295  33.466  14.408  1.00  0.00     0.211 HD
ENDBRANCH   7  30
ENDBRANCH   6   7
ENDBRANCH   3   6
ENDBRANCH   1   2
BRANCH   1  32
ATOM     32  C   UNL     1      26.053  30.035  16.116  1.00  0.00     0.294 C 
BRANCH  32  33
ATOM     33  C   UNL     1      25.345  30.757  15.036  1.00  0.00     0.120 A 
ATOM     34  C   UNL     1      25.284  32.111  14.850  1.00  0.00     0.138 A 
ATOM     35  N   UNL     1      24.636  30.199  14.042  1.00  0.00    -0.132 NA
ATOM     36  N   UNL     1      24.541  32.339  13.752  1.00  0.00    -0.250 N 
ATOM     37  N   UNL     1      24.149  31.173  13.264  1.00  0.00    -0.067 NA
BRANCH  36  38
ATOM     38  C   UNL     1      24.205  33.640  13.169  1.00  0.00     0.167 C 
BRANCH  38  39
ATOM     39  C   UNL     1      25.480  34.243  12.643  1.00  0.00     0.141 C 
BRANCH  39  40
ATOM     40  N   UNL     1      25.812  35.413  13.416  1.00  0.00    -0.336 N 
ATOM     41  C   UNL     1      27.012  35.571  14.149  1.00  0.00     0.315 C 
ATOM     42  H   UNL     1      25.131  36.224  13.457  1.00  0.00     0.165 HD
ATOM     43  O   UNL     1      27.857  34.626  14.125  1.00  0.00    -0.249 OA
ATOM     44  N   UNL     1      27.245  36.763  14.883  1.00  0.00    -0.331 N 
ATOM     45  H   UNL     1      26.572  37.549  14.919  1.00  0.00     0.165 HD
BRANCH  44  46
ATOM     46  C   UNL     1      28.483  36.887  15.619  1.00  0.00     0.193 C 
BRANCH  46  47
ATOM     47  C   UNL     1      28.201  36.658  17.052  1.00  0.00     0.122 A 
ATOM     48  C   UNL     1      27.232  37.349  17.772  1.00  0.00     0.047 A 
ATOM     49  O   UNL     1      28.783  35.812  17.843  1.00  0.00    -0.467 OA
ATOM     50  C   UNL     1      27.293  36.840  19.051  1.00  0.00     0.042 A 
ATOM     51  C   UNL     1      28.282  35.879  19.038  1.00  0.00     0.195 A 
ENDBRANCH  46  47
ENDBRANCH  44  46
ENDBRANCH  39  40
ENDBRANCH  38  39
ENDBRANCH  36  38
ENDBRANCH  32  33
ENDBRANCH   1  32
TORSDOF 19
BEGIN_RES LYS A 131
REMARK  4 active torsions:
REMARK  status: ('A' for Active; 'I' for Inactive)
REMARK    1  A    between atoms: CA   and  CB  
REMARK    2  A    between atoms: CB   and  CG  
REMARK    3  A    between atoms: CG   and  CD  
REMARK    4  A    between atoms: CD   and  CE  
ROOT
ATOM      1  CA  LYS A 131      29.867  25.555  16.977  1.00 20.52     0.186 C 
ENDROOT
BRANCH   1   2
ATOM      2  CB  LYS A 131      28.345  25.722  17.026  1.00 20.94     0.034 C 
BRANCH   2   3
ATOM      3  CG  LYS A 131      27.599  24.476  16.573  1.00 22.96     0.005 C 
BRANCH   3   4
ATOM      4  CD  LYS A 131      27.046  23.694  17.731  1.00 24.33     0.041 C 
BRANCH   4   5
ATOM      5  CE  LYS A 131      26.143  24.595  18.568  1.00 26.91     0.338 C 
ATOM      6  NZ  LYS A 131      24.823  24.757  17.915  1.00 27.40     0.618 N 
ENDBRANCH   4   5
ENDBRANCH   3   4
ENDBRANCH   2   3
ENDBRANCH   1   2
END_RES LYS A 131
BEGIN_RES LYS A 135
REMARK  4 active torsions:
REMARK  status: ('A' for Active; 'I' for Inactive)
REMARK    5  A    between atoms: CA   and  CB  
REMARK    6  A    between atoms: CB   and  CG  
REMARK    7  A    between atoms: CG   and  CD  
REMARK    8  A    between atoms: CD   and  CE  
ROOT
ATOM      7  CA  LYS A 135      33.193  34.663   9.290  1.00 25.02     0.186 C 
ENDROOT
BRANCH   7   8
ATOM      8  CB  LYS A 135      32.060  35.360  10.034  1.00 26.63     0.034 C 
BRANCH   8   9
ATOM      9  CG  LYS A 135      30.831  35.580   9.190  1.00 29.45     0.005 C 
BRANCH   9  10
ATOM     10  CD  LYS A 135      30.260  34.252   8.717  1.00 32.00     0.041 C 
BRANCH  10  11
ATOM     11  CE  LYS A 135      28.761  34.206   8.940  1.00 34.25     0.338 C 
ATOM     12  NZ  LYS A 135      28.297  35.393   9.710  1.00 35.99     0.618 N 
ENDBRANCH  10  11
ENDBRANCH   9  10
ENDBRANCH   8   9
ENDBRANCH   7   8
END_RES LYS A 135
