REMARK VINA RESULT:    -6.326      4.075      8.150
REMARK INTER + INTRA:         -15.526
REMARK INTER:                  -9.256
REMARK INTRA:                  -6.271
REMARK UNBOUND:                -4.578
REMARK SMILES CC(=O)N[C@@H]1[C@@H](O)C[C@](O)(C(=O)O)O[C@H]1C(O)[C@H](O)CNC(=O)OCc1cn(C2c3ccccc3-c3ccccc32)nn1
REMARK SMILES IDX 20 1 18 2 16 3 15 4 9 5 8 6 14 7 6 8 5 9 10 10 11 12 12 13
REMARK SMILES IDX 13 14 7 16 4 18 2 19 1 21 3 22 17 23 19 25 21 27 22 28 23 30
REMARK SMILES IDX 24 31 25 32 26 33 27 34 43 35 28 36 42 37 29 38 30 39 41 40
REMARK SMILES IDX 31 41 35 42 36 43 40 44 32 45 34 46 37 47 39 48 33 49 38 50
REMARK H PARENT 10 11 13 15 7 17 4 20 17 24 19 26 21 29
REMARK Flexibility Score: inf
ROOT
ATOM      1  C   UNL     1      27.459  43.050   8.004  1.00  0.00     0.154 C 
ENDROOT
BRANCH   1   2
ATOM      2  C   UNL     1      27.851  42.728   9.398  1.00  0.00     0.165 C 
BRANCH   2   3
ATOM      3  C   UNL     1      29.075  41.873   9.494  1.00  0.00     0.176 C 
BRANCH   3   4
ATOM      4  C   UNL     1      28.910  40.438   9.077  1.00  0.00     0.178 C 
ATOM      5  C   UNL     1      29.221  38.979  10.882  1.00  0.00     0.269 C 
ATOM      6  C   UNL     1      29.584  37.781  10.030  1.00  0.00     0.112 C 
ATOM      7  O   UNL     1      28.374  39.781  10.186  1.00  0.00    -0.332 OA
ATOM      8  C   UNL     1      30.032  38.252   8.695  1.00  0.00     0.145 C 
ATOM      9  C   UNL     1      30.178  39.780   8.604  1.00  0.00     0.142 C 
BRANCH   5  10
ATOM     10  O   UNL     1      30.392  39.533  11.326  1.00  0.00    -0.357 OA
ATOM     11  H   UNL     1      31.180  39.141  10.889  1.00  0.00     0.214 HD
ENDBRANCH   5  10
BRANCH   5  12
ATOM     12  C   UNL     1      28.463  38.436  12.051  1.00  0.00     0.364 C 
ATOM     13  O   UNL     1      28.922  38.593  13.206  1.00  0.00    -0.246 OA
BRANCH  12  14
ATOM     14  O   UNL     1      27.261  37.758  11.914  1.00  0.00    -0.477 OA
ATOM     15  H   UNL     1      27.062  37.217  11.061  1.00  0.00     0.296 HD
ENDBRANCH  12  14
ENDBRANCH   5  12
BRANCH   8  16
ATOM     16  O   UNL     1      31.234  37.704   8.277  1.00  0.00    -0.391 OA
ATOM     17  H   UNL     1      31.945  37.751   8.956  1.00  0.00     0.211 HD
ENDBRANCH   8  16
BRANCH   9  18
ATOM     18  N   UNL     1      30.360  40.028   7.191  1.00  0.00    -0.348 N 
ATOM     19  C   UNL     1      31.611  40.258   6.563  1.00  0.00     0.217 C 
ATOM     20  H   UNL     1      29.511  40.035   6.589  1.00  0.00     0.163 HD
ATOM     21  C   UNL     1      31.717  40.508   5.089  1.00  0.00     0.114 C 
ATOM     22  O   UNL     1      32.638  40.246   7.289  1.00  0.00    -0.275 OA
ENDBRANCH   9  18
ENDBRANCH   3   4
BRANCH   3  23
ATOM     23  O   UNL     1      30.214  42.425   8.920  1.00  0.00    -0.388 OA
ATOM     24  H   UNL     1      30.054  43.174   8.324  1.00  0.00     0.211 HD
ENDBRANCH   3  23
ENDBRANCH   2   3
BRANCH   2  25
ATOM     25  O   UNL     1      26.821  42.029  10.023  1.00  0.00    -0.388 OA
ATOM     26  H   UNL     1      25.976  42.517  10.034  1.00  0.00     0.211 HD
ENDBRANCH   2  25
ENDBRANCH   1   2
BRANCH   1  27
ATOM     27  N   UNL     1      26.372  42.313   7.476  1.00  0.00    -0.319 N 
ATOM     28  C   UNL     1      26.485  41.370   6.439  1.00  0.00     0.407 C 
ATOM     29  H   UNL     1      25.391  42.466   7.879  1.00  0.00     0.167 HD
ATOM     30  O   UNL     1      27.558  41.101   5.908  1.00  0.00    -0.225 OA
BRANCH  28  31
ATOM     31  O   UNL     1      25.358  40.682   5.955  1.00  0.00    -0.443 OA
BRANCH  31  32
ATOM     32  C   UNL     1      24.396  40.106   6.785  1.00  0.00     0.294 C 
BRANCH  32  33
ATOM     33  C   UNL     1      24.917  39.003   7.629  1.00  0.00     0.120 A 
ATOM     34  C   UNL     1      24.901  37.649   7.402  1.00  0.00     0.139 A 
ATOM     35  N   UNL     1      25.515  39.199   8.806  1.00  0.00    -0.132 NA
ATOM     36  N   UNL     1      25.487  37.073   8.447  1.00  0.00    -0.240 N 
ATOM     37  N   UNL     1      25.852  38.023   9.283  1.00  0.00    -0.066 NA
BRANCH  36  38
ATOM     38  C   UNL     1      25.707  35.651   8.663  1.00  0.00     0.170 C 
ATOM     39  C   UNL     1      25.358  35.246  10.036  1.00  0.00    -0.011 A 
ATOM     40  C   UNL     1      27.094  35.259   8.470  1.00  0.00    -0.011 A 
ATOM     41  C   UNL     1      24.149  35.383  10.741  1.00  0.00     0.007 A 
ATOM     42  C   UNL     1      26.461  34.665  10.592  1.00  0.00    -0.012 A 
ATOM     43  C   UNL     1      27.552  34.670   9.618  1.00  0.00    -0.012 A 
ATOM     44  C   UNL     1      27.984  35.374   7.383  1.00  0.00     0.007 A 
ATOM     45  C   UNL     1      24.094  34.912  12.029  1.00  0.00     0.000 A 
ATOM     46  C   UNL     1      26.366  34.200  11.903  1.00  0.00     0.009 A 
ATOM     47  C   UNL     1      28.854  34.179   9.761  1.00  0.00     0.009 A 
ATOM     48  C   UNL     1      29.264  34.900   7.500  1.00  0.00     0.000 A 
ATOM     49  C   UNL     1      25.195  34.321  12.617  1.00  0.00     0.001 A 
ATOM     50  C   UNL     1      29.692  34.310   8.677  1.00  0.00     0.001 A 
ENDBRANCH  36  38
ENDBRANCH  32  33
ENDBRANCH  31  32
ENDBRANCH  28  31
ENDBRANCH   1  27
TORSDOF 15
BEGIN_RES LYS A 131
REMARK  4 active torsions:
REMARK  status: ('A' for Active; 'I' for Inactive)
REMARK    1  A    between atoms: CA   and  CB  
REMARK    2  A    between atoms: CB   and  CG  
REMARK    3  A    between atoms: CG   and  CD  
REMARK    4  A    between atoms: CD   and  CE  
ROOT
ATOM      1  CA  LYS A 131      29.867  25.555  16.977  1.00 20.52     0.186 C 
ENDROOT
BRANCH   1   2
ATOM      2  CB  LYS A 131      28.345  25.722  17.026  1.00 20.94     0.034 C 
BRANCH   2   3
ATOM      3  CG  LYS A 131      27.602  24.398  16.931  1.00 22.96     0.005 C 
BRANCH   3   4
ATOM      4  CD  LYS A 131      26.540  24.268  17.987  1.00 24.33     0.041 C 
BRANCH   4   5
ATOM      5  CE  LYS A 131      25.168  24.197  17.324  1.00 26.91     0.338 C 
ATOM      6  NZ  LYS A 131      24.655  22.806  17.341  1.00 27.40     0.618 N 
ENDBRANCH   4   5
ENDBRANCH   3   4
ENDBRANCH   2   3
ENDBRANCH   1   2
END_RES LYS A 131
BEGIN_RES LYS A 135
REMARK  4 active torsions:
REMARK  status: ('A' for Active; 'I' for Inactive)
REMARK    5  A    between atoms: CA   and  CB  
REMARK    6  A    between atoms: CB   and  CG  
REMARK    7  A    between atoms: CG   and  CD  
REMARK    8  A    between atoms: CD   and  CE  
ROOT
ATOM      7  CA  LYS A 135      33.193  34.663   9.290  1.00 25.02     0.186 C 
ENDROOT
BRANCH   7   8
ATOM      8  CB  LYS A 135      32.060  35.360  10.034  1.00 26.63     0.034 C 
BRANCH   8   9
ATOM      9  CG  LYS A 135      32.493  35.999  11.328  1.00 29.45     0.005 C 
BRANCH   9  10
ATOM     10  CD  LYS A 135      31.325  36.089  12.299  1.00 32.00     0.041 C 
BRANCH  10  11
ATOM     11  CE  LYS A 135      31.219  34.820  13.123  1.00 34.25     0.338 C 
ATOM     12  NZ  LYS A 135      29.805  34.366  13.228  1.00 35.99     0.618 N 
ENDBRANCH  10  11
ENDBRANCH   9  10
ENDBRANCH   8   9
ENDBRANCH   7   8
END_RES LYS A 135
