REMARK VINA RESULT:    -4.159      2.091      6.012
REMARK INTER + INTRA:         -14.288
REMARK INTER:                  -7.309
REMARK INTRA:                  -6.979
REMARK UNBOUND:                -5.875
REMARK SMILES CC[N+](C)(CC)CCCn1cc(COC(=O)NC[C@@H](O)C(O)[C@@H]2O[C@@](O)(C(=O)O)C[C@H](O)[C@H]2NC(C)=O)nn1
REMARK SMILES IDX 14 1 15 2 17 3 16 5 18 6 19 7 21 8 23 9 25 10 30 11 24 12
REMARK SMILES IDX 31 13 33 14 26 15 27 17 28 18 29 19 32 21 34 23 35 24 36 26
REMARK SMILES IDX 37 27 22 28 20 30 13 32 12 33 11 34 38 35 10 36 39 37 9 38
REMARK SMILES IDX 8 39 7 40 3 41 4 42 2 43 1 44 5 45 6 46
REMARK H PARENT 17 4 26 16 29 20 32 22 34 25 22 29 20 31
REMARK Flexibility Score: inf
ROOT
ATOM      1  O   UNL     1      33.459  30.532  21.487  1.00  0.00    -0.443 OA
ENDROOT
BRANCH   1   2
ATOM      2  C   UNL     1      32.908  29.277  21.643  1.00  0.00     0.407 C 
ATOM      3  N   UNL     1      32.220  28.608  20.580  1.00  0.00    -0.319 N 
ATOM      4  H   UNL     1      32.168  29.114  19.690  1.00  0.00     0.167 HD
ATOM      5  O   UNL     1      33.014  28.707  22.754  1.00  0.00    -0.225 OA
BRANCH   3   6
ATOM      6  C   UNL     1      31.681  27.320  20.818  1.00  0.00     0.154 C 
BRANCH   6   7
ATOM      7  C   UNL     1      30.194  27.197  20.792  1.00  0.00     0.165 C 
BRANCH   7   8
ATOM      8  C   UNL     1      29.440  28.478  20.609  1.00  0.00     0.176 C 
BRANCH   8   9
ATOM      9  C   UNL     1      28.226  28.380  19.735  1.00  0.00     0.178 C 
ATOM     10  C   UNL     1      27.051  29.523  18.123  1.00  0.00     0.269 C 
ATOM     11  C   UNL     1      26.405  28.153  18.026  1.00  0.00     0.112 C 
ATOM     12  O   UNL     1      28.113  29.532  18.995  1.00  0.00    -0.332 OA
ATOM     13  C   UNL     1      25.907  27.707  19.366  1.00  0.00     0.145 C 
ATOM     14  C   UNL     1      26.946  28.071  20.430  1.00  0.00     0.142 C 
BRANCH  10  15
ATOM     15  O   UNL     1      26.071  30.406  18.610  1.00  0.00    -0.357 OA
ATOM     16  H   UNL     1      26.396  31.317  18.389  1.00  0.00     0.214 HD
ENDBRANCH  10  15
BRANCH  10  17
ATOM     17  C   UNL     1      27.465  29.974  16.785  1.00  0.00     0.364 C 
ATOM     18  O   UNL     1      28.651  29.796  16.390  1.00  0.00    -0.246 OA
BRANCH  17  19
ATOM     19  O   UNL     1      26.583  30.598  15.927  1.00  0.00    -0.477 OA
ATOM     20  H   UNL     1      26.590  30.406  14.943  1.00  0.00     0.296 HD
ENDBRANCH  17  19
ENDBRANCH  10  17
BRANCH  13  21
ATOM     21  O   UNL     1      24.692  28.354  19.631  1.00  0.00    -0.391 OA
ATOM     22  H   UNL     1      23.994  27.990  19.044  1.00  0.00     0.211 HD
ENDBRANCH  13  21
BRANCH  14  23
ATOM     23  N   UNL     1      27.052  26.864  21.256  1.00  0.00    -0.348 N 
ATOM     24  C   UNL     1      26.183  26.669  22.356  1.00  0.00     0.217 C 
ATOM     25  H   UNL     1      27.779  26.151  21.020  1.00  0.00     0.163 HD
ATOM     26  C   UNL     1      26.305  25.433  23.192  1.00  0.00     0.114 C 
ATOM     27  O   UNL     1      25.281  27.500  22.684  1.00  0.00    -0.275 OA
ENDBRANCH  14  23
ENDBRANCH   8   9
BRANCH   8  28
ATOM     28  O   UNL     1      29.094  28.984  21.871  1.00  0.00    -0.388 OA
ATOM     29  H   UNL     1      28.548  28.285  22.327  1.00  0.00     0.211 HD
ENDBRANCH   8  28
ENDBRANCH   7   8
BRANCH   7  30
ATOM     30  O   UNL     1      29.819  26.588  22.009  1.00  0.00    -0.388 OA
ATOM     31  H   UNL     1      29.606  27.242  22.705  1.00  0.00     0.211 HD
ENDBRANCH   7  30
ENDBRANCH   6   7
ENDBRANCH   3   6
ENDBRANCH   1   2
BRANCH   1  32
ATOM     32  C   UNL     1      32.944  31.610  22.257  1.00  0.00     0.294 C 
BRANCH  32  33
ATOM     33  C   UNL     1      31.530  31.858  21.893  1.00  0.00     0.120 A 
ATOM     34  C   UNL     1      30.997  32.430  20.759  1.00  0.00     0.138 A 
ATOM     35  N   UNL     1      30.459  31.554  22.656  1.00  0.00    -0.132 NA
ATOM     36  N   UNL     1      29.653  32.462  20.847  1.00  0.00    -0.252 N 
ATOM     37  N   UNL     1      29.368  31.921  22.013  1.00  0.00    -0.067 NA
BRANCH  36  38
ATOM     38  C   UNL     1      28.698  32.966  19.915  1.00  0.00     0.152 C 
BRANCH  38  39
ATOM     39  C   UNL     1      29.097  32.821  18.496  1.00  0.00     0.085 C 
BRANCH  39  40
ATOM     40  C   UNL     1      29.263  34.034  17.680  1.00  0.00     0.265 C 
BRANCH  40  41
ATOM     41  N   UNL     1      30.215  34.088  16.647  1.00  0.00    -0.326 N 
ATOM     42  C   UNL     1      30.394  35.354  15.988  1.00  0.00     0.334 C 
BRANCH  41  43
ATOM     43  C   UNL     1      31.518  33.817  17.287  1.00  0.00     0.260 C 
ATOM     44  C   UNL     1      32.071  34.954  18.055  1.00  0.00     0.071 C 
ENDBRANCH  41  43
BRANCH  41  45
ATOM     45  C   UNL     1      30.048  33.075  15.643  1.00  0.00     0.260 C 
ATOM     46  C   UNL     1      31.198  32.149  15.483  1.00  0.00     0.071 C 
ENDBRANCH  41  45
ENDBRANCH  40  41
ENDBRANCH  39  40
ENDBRANCH  38  39
ENDBRANCH  36  38
ENDBRANCH  32  33
ENDBRANCH   1  32
TORSDOF 20
BEGIN_RES LYS A 131
REMARK  4 active torsions:
REMARK  status: ('A' for Active; 'I' for Inactive)
REMARK    1  A    between atoms: CA   and  CB  
REMARK    2  A    between atoms: CB   and  CG  
REMARK    3  A    between atoms: CG   and  CD  
REMARK    4  A    between atoms: CD   and  CE  
ROOT
ATOM      1  CA  LYS A 131      29.867  25.555  16.977  1.00 20.52     0.186 C 
ENDROOT
BRANCH   1   2
ATOM      2  CB  LYS A 131      28.345  25.722  17.026  1.00 20.94     0.034 C 
BRANCH   2   3
ATOM      3  CG  LYS A 131      27.604  24.394  17.006  1.00 22.96     0.005 C 
BRANCH   3   4
ATOM      4  CD  LYS A 131      26.112  24.577  17.049  1.00 24.33     0.041 C 
BRANCH   4   5
ATOM      5  CE  LYS A 131      25.504  23.572  18.022  1.00 26.91     0.338 C 
ATOM      6  NZ  LYS A 131      25.807  23.954  19.421  1.00 27.40     0.618 N 
ENDBRANCH   4   5
ENDBRANCH   3   4
ENDBRANCH   2   3
ENDBRANCH   1   2
END_RES LYS A 131
BEGIN_RES LYS A 135
REMARK  4 active torsions:
REMARK  status: ('A' for Active; 'I' for Inactive)
REMARK    5  A    between atoms: CA   and  CB  
REMARK    6  A    between atoms: CB   and  CG  
REMARK    7  A    between atoms: CG   and  CD  
REMARK    8  A    between atoms: CD   and  CE  
ROOT
ATOM      7  CA  LYS A 135      33.193  34.663   9.290  1.00 25.02     0.186 C 
ENDROOT
BRANCH   7   8
ATOM      8  CB  LYS A 135      32.060  35.360  10.034  1.00 26.63     0.034 C 
BRANCH   8   9
ATOM      9  CG  LYS A 135      30.803  35.507   9.216  1.00 29.45     0.005 C 
BRANCH   9  10
ATOM     10  CD  LYS A 135      30.090  34.170   9.083  1.00 32.00     0.041 C 
BRANCH  10  11
ATOM     11  CE  LYS A 135      28.636  34.376   8.707  1.00 34.25     0.338 C 
ATOM     12  NZ  LYS A 135      27.733  33.624   9.622  1.00 35.99     0.618 N 
ENDBRANCH  10  11
ENDBRANCH   9  10
ENDBRANCH   8   9
ENDBRANCH   7   8
END_RES LYS A 135
