REMARK VINA RESULT:    -4.792      7.796     13.471
REMARK INTER + INTRA:         -14.211
REMARK INTER:                  -9.205
REMARK INTRA:                  -5.005
REMARK UNBOUND:                -5.917
REMARK SMILES CC(=O)N[C@@H]1[C@@H](O)C[C@](O)(C(=O)O)O[C@H]1C(O)[C@H](O)CNC(=O)OCc1cn(-c2c(C)cc(C)cc2C)nn1
REMARK SMILES IDX 20 1 18 2 16 3 15 4 9 5 8 6 14 7 6 8 5 9 10 10 11 12 12 13
REMARK SMILES IDX 13 14 7 16 4 18 2 19 1 21 3 22 17 23 19 25 21 27 22 28 23 30
REMARK SMILES IDX 24 31 25 32 26 33 27 34 39 35 28 36 38 37 29 38 30 39 36 40
REMARK SMILES IDX 31 41 32 42 35 43 37 44 33 45 34 46
REMARK H PARENT 10 11 13 15 7 17 4 20 17 24 19 26 21 29
REMARK Flexibility Score: inf
ROOT
ATOM      1  C   UNL     1      27.335  41.425   9.076  1.00  0.00     0.154 C 
ENDROOT
BRANCH   1   2
ATOM      2  C   UNL     1      26.819  41.250   7.693  1.00  0.00     0.165 C 
BRANCH   2   3
ATOM      3  C   UNL     1      27.745  40.563   6.742  1.00  0.00     0.176 C 
BRANCH   3   4
ATOM      4  C   UNL     1      27.517  39.111   6.541  1.00  0.00     0.178 C 
ATOM      5  C   UNL     1      26.598  37.351   7.776  1.00  0.00     0.269 C 
ATOM      6  C   UNL     1      27.213  36.347   6.844  1.00  0.00     0.112 C 
ATOM      7  O   UNL     1      26.479  38.611   7.271  1.00  0.00    -0.332 OA
ATOM      8  C   UNL     1      28.322  36.896   6.013  1.00  0.00     0.145 C 
ATOM      9  C   UNL     1      28.744  38.253   6.604  1.00  0.00     0.142 C 
BRANCH   5  10
ATOM     10  O   UNL     1      27.347  37.357   8.950  1.00  0.00    -0.357 OA
ATOM     11  H   UNL     1      27.518  36.405   9.203  1.00  0.00     0.214 HD
ENDBRANCH   5  10
BRANCH   5  12
ATOM     12  C   UNL     1      25.231  36.858   8.096  1.00  0.00     0.364 C 
ATOM     13  O   UNL     1      25.062  35.974   8.959  1.00  0.00    -0.246 OA
BRANCH  12  14
ATOM     14  O   UNL     1      24.110  37.374   7.433  1.00  0.00    -0.477 OA
ATOM     15  H   UNL     1      24.250  37.838   6.524  1.00  0.00     0.296 HD
ENDBRANCH  12  14
ENDBRANCH   5  12
BRANCH   8  16
ATOM     16  O   UNL     1      29.399  36.047   5.858  1.00  0.00    -0.391 OA
ATOM     17  H   UNL     1      29.418  35.763   4.896  1.00  0.00     0.211 HD
ENDBRANCH   8  16
BRANCH   9  18
ATOM     18  N   UNL     1      29.786  38.729   5.733  1.00  0.00    -0.348 N 
ATOM     19  C   UNL     1      30.929  39.337   6.318  1.00  0.00     0.217 C 
ATOM     20  H   UNL     1      29.734  38.643   4.688  1.00  0.00     0.163 HD
ATOM     21  C   UNL     1      32.058  39.862   5.506  1.00  0.00     0.114 C 
ATOM     22  O   UNL     1      31.020  39.451   7.566  1.00  0.00    -0.275 OA
ENDBRANCH   9  18
ENDBRANCH   3   4
BRANCH   3  23
ATOM     23  O   UNL     1      27.665  41.220   5.517  1.00  0.00    -0.388 OA
ATOM     24  H   UNL     1      26.858  40.890   5.049  1.00  0.00     0.211 HD
ENDBRANCH   3  23
ENDBRANCH   2   3
BRANCH   2  25
ATOM     25  O   UNL     1      26.317  42.449   7.182  1.00  0.00    -0.388 OA
ATOM     26  H   UNL     1      26.935  42.860   6.527  1.00  0.00     0.211 HD
ENDBRANCH   2  25
ENDBRANCH   1   2
BRANCH   1  27
ATOM     27  N   UNL     1      27.797  40.188   9.671  1.00  0.00    -0.319 N 
ATOM     28  C   UNL     1      29.074  40.048  10.283  1.00  0.00     0.407 C 
ATOM     29  H   UNL     1      27.200  39.307   9.685  1.00  0.00     0.167 HD
ATOM     30  O   UNL     1      29.859  41.014  10.325  1.00  0.00    -0.225 OA
BRANCH  28  31
ATOM     31  O   UNL     1      29.475  38.834  10.846  1.00  0.00    -0.443 OA
BRANCH  31  32
ATOM     32  C   UNL     1      30.846  38.669  11.243  1.00  0.00     0.294 C 
BRANCH  32  33
ATOM     33  C   UNL     1      30.871  37.920  12.525  1.00  0.00     0.121 A 
ATOM     34  C   UNL     1      30.702  36.552  12.660  1.00  0.00     0.144 A 
ATOM     35  N   UNL     1      31.053  38.384  13.753  1.00  0.00    -0.131 NA
ATOM     36  N   UNL     1      30.784  36.221  13.950  1.00  0.00    -0.220 N 
ATOM     37  N   UNL     1      31.002  37.384  14.587  1.00  0.00    -0.062 NA
BRANCH  36  38
ATOM     38  C   UNL     1      30.677  34.951  14.580  1.00  0.00     0.072 A 
ATOM     39  C   UNL     1      31.809  34.226  14.877  1.00  0.00    -0.025 A 
ATOM     40  C   UNL     1      29.449  34.400  14.912  1.00  0.00    -0.025 A 
ATOM     41  C   UNL     1      33.133  34.792  14.535  1.00  0.00     0.047 C 
ATOM     42  C   UNL     1      31.699  32.974  15.497  1.00  0.00     0.009 A 
ATOM     43  C   UNL     1      29.351  33.165  15.523  1.00  0.00     0.009 A 
ATOM     44  C   UNL     1      28.223  35.208  14.578  1.00  0.00     0.047 C 
ATOM     45  C   UNL     1      30.476  32.429  15.826  1.00  0.00    -0.050 A 
ATOM     46  C   UNL     1      30.386  31.093  16.487  1.00  0.00     0.044 C 
ENDBRANCH  36  38
ENDBRANCH  32  33
ENDBRANCH  31  32
ENDBRANCH  28  31
ENDBRANCH   1  27
TORSDOF 15
BEGIN_RES LYS A 131
REMARK  4 active torsions:
REMARK  status: ('A' for Active; 'I' for Inactive)
REMARK    1  A    between atoms: CA   and  CB  
REMARK    2  A    between atoms: CB   and  CG  
REMARK    3  A    between atoms: CG   and  CD  
REMARK    4  A    between atoms: CD   and  CE  
ROOT
ATOM      1  CA  LYS A 131      29.867  25.555  16.977  1.00 20.52     0.186 C 
ENDROOT
BRANCH   1   2
ATOM      2  CB  LYS A 131      28.345  25.722  17.026  1.00 20.94     0.034 C 
BRANCH   2   3
ATOM      3  CG  LYS A 131      27.603  24.395  16.980  1.00 22.96     0.005 C 
BRANCH   3   4
ATOM      4  CD  LYS A 131      26.314  24.439  17.753  1.00 24.33     0.041 C 
BRANCH   4   5
ATOM      5  CE  LYS A 131      25.510  23.174  17.474  1.00 26.91     0.338 C 
ATOM      6  NZ  LYS A 131      24.135  23.518  17.041  1.00 27.40     0.618 N 
ENDBRANCH   4   5
ENDBRANCH   3   4
ENDBRANCH   2   3
ENDBRANCH   1   2
END_RES LYS A 131
BEGIN_RES LYS A 135
REMARK  4 active torsions:
REMARK  status: ('A' for Active; 'I' for Inactive)
REMARK    5  A    between atoms: CA   and  CB  
REMARK    6  A    between atoms: CB   and  CG  
REMARK    7  A    between atoms: CG   and  CD  
REMARK    8  A    between atoms: CD   and  CE  
ROOT
ATOM      7  CA  LYS A 135      33.193  34.663   9.290  1.00 25.02     0.186 C 
ENDROOT
BRANCH   7   8
ATOM      8  CB  LYS A 135      32.060  35.360  10.034  1.00 26.63     0.034 C 
BRANCH   8   9
ATOM      9  CG  LYS A 135      30.789  35.469   9.231  1.00 29.45     0.005 C 
BRANCH   9  10
ATOM     10  CD  LYS A 135      30.211  34.090   8.952  1.00 32.00     0.041 C 
BRANCH  10  11
ATOM     11  CE  LYS A 135      28.727  34.062   9.263  1.00 34.25     0.338 C 
ATOM     12  NZ  LYS A 135      28.467  34.455  10.675  1.00 35.99     0.618 N 
ENDBRANCH  10  11
ENDBRANCH   9  10
ENDBRANCH   8   9
ENDBRANCH   7   8
END_RES LYS A 135
