REMARK VINA RESULT:    -5.126      7.071     12.539
REMARK INTER + INTRA:         -14.955
REMARK INTER:                  -8.871
REMARK INTRA:                  -6.084
REMARK UNBOUND:                -6.084
REMARK SMILES CC(=O)N[C@@H]1[C@@H](O)C[C@](O)(C(=O)O)O[C@H]1C(O)[C@H](O)CNC(=O)OCc1cn(-c2c3ccccc3nc3ccccc23)nn1
REMARK SMILES IDX 20 1 18 2 16 3 15 4 9 5 8 6 14 7 6 8 5 9 10 10 11 12 12 13
REMARK SMILES IDX 13 14 7 16 4 18 2 19 1 21 3 22 17 23 19 25 21 27 22 28 23 30
REMARK SMILES IDX 24 31 25 32 26 33 27 34 44 35 28 36 43 37 29 38 30 39 42 40
REMARK SMILES IDX 31 41 35 42 37 43 41 44 32 45 34 46 36 47 38 48 40 49 33 50
REMARK SMILES IDX 39 51
REMARK H PARENT 10 11 13 15 7 17 4 20 17 24 19 26 21 29
REMARK Flexibility Score: inf
ROOT
ATOM      1  C   UNL     1      28.834  33.156  20.826  1.00  0.00     0.154 C 
ENDROOT
BRANCH   1   2
ATOM      2  C   UNL     1      28.827  31.701  21.208  1.00  0.00     0.165 C 
BRANCH   2   3
ATOM      3  C   UNL     1      30.092  31.103  20.677  1.00  0.00     0.176 C 
BRANCH   3   4
ATOM      4  C   UNL     1      30.503  29.811  21.369  1.00  0.00     0.178 C 
ATOM      5  C   UNL     1      30.139  27.581  21.195  1.00  0.00     0.269 C 
ATOM      6  C   UNL     1      29.737  27.365  22.630  1.00  0.00     0.112 C 
ATOM      7  O   UNL     1      29.814  28.815  20.734  1.00  0.00    -0.332 OA
ATOM      8  C   UNL     1      29.462  28.648  23.358  1.00  0.00     0.145 C 
ATOM      9  C   UNL     1      30.204  29.827  22.822  1.00  0.00     0.142 C 
BRANCH   5  10
ATOM     10  O   UNL     1      29.378  26.674  20.386  1.00  0.00    -0.357 OA
ATOM     11  H   UNL     1      28.781  26.141  20.966  1.00  0.00     0.214 HD
ENDBRANCH   5  10
BRANCH   5  12
ATOM     12  C   UNL     1      31.544  27.156  20.983  1.00  0.00     0.364 C 
ATOM     13  O   UNL     1      32.288  26.809  21.939  1.00  0.00    -0.246 OA
BRANCH  12  14
ATOM     14  O   UNL     1      32.136  27.113  19.710  1.00  0.00    -0.477 OA
ATOM     15  H   UNL     1      32.971  27.652  19.537  1.00  0.00     0.296 HD
ENDBRANCH  12  14
ENDBRANCH   5  12
BRANCH   8  16
ATOM     16  O   UNL     1      28.082  28.876  23.352  1.00  0.00    -0.391 OA
ATOM     17  H   UNL     1      27.852  29.680  22.823  1.00  0.00     0.211 HD
ENDBRANCH   8  16
BRANCH   9  18
ATOM     18  N   UNL     1      31.380  30.064  23.667  1.00  0.00    -0.348 N 
ATOM     19  C   UNL     1      31.725  31.354  24.155  1.00  0.00     0.217 C 
ATOM     20  H   UNL     1      32.018  29.287  23.947  1.00  0.00     0.163 HD
ATOM     21  C   UNL     1      32.926  31.575  25.018  1.00  0.00     0.114 C 
ATOM     22  O   UNL     1      31.011  32.348  23.864  1.00  0.00    -0.275 OA
ENDBRANCH   9  18
ENDBRANCH   3   4
BRANCH   3  23
ATOM     23  O   UNL     1      31.125  32.015  20.827  1.00  0.00    -0.388 OA
ATOM     24  H   UNL     1      31.040  32.421  21.724  1.00  0.00     0.211 HD
ENDBRANCH   3  23
ENDBRANCH   2   3
BRANCH   2  25
ATOM     25  O   UNL     1      27.691  31.087  20.737  1.00  0.00    -0.388 OA
ATOM     26  H   UNL     1      26.914  31.692  20.934  1.00  0.00     0.211 HD
ENDBRANCH   2  25
ENDBRANCH   1   2
BRANCH   1  27
ATOM     27  N   UNL     1      28.391  33.468  19.511  1.00  0.00    -0.319 N 
ATOM     28  C   UNL     1      29.233  33.854  18.448  1.00  0.00     0.407 C 
ATOM     29  H   UNL     1      27.343  33.424  19.247  1.00  0.00     0.167 HD
ATOM     30  O   UNL     1      30.468  33.963  18.594  1.00  0.00    -0.225 OA
BRANCH  28  31
ATOM     31  O   UNL     1      28.731  34.134  17.167  1.00  0.00    -0.443 OA
BRANCH  31  32
ATOM     32  C   UNL     1      29.258  33.465  16.022  1.00  0.00     0.294 C 
BRANCH  32  33
ATOM     33  C   UNL     1      28.634  32.122  15.961  1.00  0.00     0.121 A 
ATOM     34  C   UNL     1      27.304  31.822  16.171  1.00  0.00     0.144 A 
ATOM     35  N   UNL     1      29.209  30.924  15.696  1.00  0.00    -0.131 NA
ATOM     36  N   UNL     1      27.106  30.501  16.032  1.00  0.00    -0.219 N 
ATOM     37  N   UNL     1      28.275  29.972  15.745  1.00  0.00    -0.062 NA
BRANCH  36  38
ATOM     38  C   UNL     1      25.892  29.793  16.164  1.00  0.00     0.085 A 
ATOM     39  C   UNL     1      25.667  28.976  17.276  1.00  0.00     0.027 A 
ATOM     40  C   UNL     1      24.885  29.880  15.216  1.00  0.00     0.027 A 
ATOM     41  C   UNL     1      26.630  28.848  18.254  1.00  0.00     0.012 A 
ATOM     42  C   UNL     1      24.506  28.287  17.432  1.00  0.00     0.073 A 
ATOM     43  C   UNL     1      23.716  29.173  15.394  1.00  0.00     0.073 A 
ATOM     44  C   UNL     1      25.107  30.680  14.124  1.00  0.00     0.012 A 
ATOM     45  C   UNL     1      26.458  28.055  19.369  1.00  0.00     0.001 A 
ATOM     46  C   UNL     1      24.318  27.484  18.552  1.00  0.00     0.029 A 
ATOM     47  N   UNL     1      23.552  28.398  16.488  1.00  0.00    -0.248 NA
ATOM     48  C   UNL     1      22.746  29.288  14.427  1.00  0.00     0.029 A 
ATOM     49  C   UNL     1      24.102  30.776  13.159  1.00  0.00     0.001 A 
ATOM     50  C   UNL     1      25.267  27.342  19.540  1.00  0.00     0.002 A 
ATOM     51  C   UNL     1      22.918  30.086  13.297  1.00  0.00     0.002 A 
ENDBRANCH  36  38
ENDBRANCH  32  33
ENDBRANCH  31  32
ENDBRANCH  28  31
ENDBRANCH   1  27
TORSDOF 15
BEGIN_RES LYS A 131
REMARK  4 active torsions:
REMARK  status: ('A' for Active; 'I' for Inactive)
REMARK    1  A    between atoms: CA   and  CB  
REMARK    2  A    between atoms: CB   and  CG  
REMARK    3  A    between atoms: CG   and  CD  
REMARK    4  A    between atoms: CD   and  CE  
ROOT
ATOM      1  CA  LYS A 131      29.867  25.555  16.977  1.00 20.52     0.186 C 
ENDROOT
BRANCH   1   2
ATOM      2  CB  LYS A 131      28.345  25.722  17.026  1.00 20.94     0.034 C 
BRANCH   2   3
ATOM      3  CG  LYS A 131      27.602  24.397  16.942  1.00 22.96     0.005 C 
BRANCH   3   4
ATOM      4  CD  LYS A 131      26.165  24.526  17.365  1.00 24.33     0.041 C 
BRANCH   4   5
ATOM      5  CE  LYS A 131      25.762  23.301  18.179  1.00 26.91     0.338 C 
ATOM      6  NZ  LYS A 131      25.519  23.675  19.593  1.00 27.40     0.618 N 
ENDBRANCH   4   5
ENDBRANCH   3   4
ENDBRANCH   2   3
ENDBRANCH   1   2
END_RES LYS A 131
BEGIN_RES LYS A 135
REMARK  4 active torsions:
REMARK  status: ('A' for Active; 'I' for Inactive)
REMARK    5  A    between atoms: CA   and  CB  
REMARK    6  A    between atoms: CB   and  CG  
REMARK    7  A    between atoms: CG   and  CD  
REMARK    8  A    between atoms: CD   and  CE  
ROOT
ATOM      7  CA  LYS A 135      33.193  34.663   9.290  1.00 25.02     0.186 C 
ENDROOT
BRANCH   7   8
ATOM      8  CB  LYS A 135      32.060  35.360  10.034  1.00 26.63     0.034 C 
BRANCH   8   9
ATOM      9  CG  LYS A 135      30.798  35.494   9.221  1.00 29.45     0.005 C 
BRANCH   9  10
ATOM     10  CD  LYS A 135      30.194  34.127   8.938  1.00 32.00     0.041 C 
BRANCH  10  11
ATOM     11  CE  LYS A 135      28.693  34.237   8.750  1.00 34.25     0.338 C 
ATOM     12  NZ  LYS A 135      27.980  34.123  10.052  1.00 35.99     0.618 N 
ENDBRANCH  10  11
ENDBRANCH   9  10
ENDBRANCH   8   9
ENDBRANCH   7   8
END_RES LYS A 135
