REMARK VINA RESULT:    -5.307      3.024      6.760
REMARK INTER + INTRA:         -15.234
REMARK INTER:                  -8.538
REMARK INTRA:                  -6.696
REMARK UNBOUND:                -5.118
REMARK SMILES COc1ccc(Cn2cc(COC(=O)NC[C@@H](O)C(O)[C@@H]3O[C@@](O)(C(=O)O)C[C@H](O)[C@H]3NC(C)=O)nn2)cc1OC
REMARK SMILES IDX 15 1 13 2 14 3 16 5 17 6 19 7 21 8 23 9 28 10 22 11 29 12
REMARK SMILES IDX 31 13 24 14 25 16 26 17 27 18 30 20 32 22 33 23 34 25 35 26
REMARK SMILES IDX 20 27 18 29 12 31 11 32 10 33 9 34 36 35 8 36 37 37 7 38
REMARK SMILES IDX 6 39 38 40 5 41 39 42 4 43 3 44 40 45 41 46 2 47 1 48
REMARK H PARENT 15 4 24 15 27 19 30 21 32 24 20 28 18 30
REMARK Flexibility Score: inf
ROOT
ATOM      1  N   UNL     1      28.359  34.073  15.031  1.00  0.00    -0.319 N 
ATOM      2  C   UNL     1      29.607  34.166  14.401  1.00  0.00     0.407 C 
ATOM      3  O   UNL     1      29.712  34.147  13.156  1.00  0.00    -0.225 OA
ATOM      4  H   UNL     1      28.358  34.086  16.096  1.00  0.00     0.167 HD
ENDROOT
BRANCH   1   5
ATOM      5  C   UNL     1      27.073  33.962  14.364  1.00  0.00     0.154 C 
BRANCH   5   6
ATOM      6  C   UNL     1      26.079  33.286  15.239  1.00  0.00     0.165 C 
BRANCH   6   7
ATOM      7  C   UNL     1      26.533  31.955  15.787  1.00  0.00     0.176 C 
BRANCH   7   8
ATOM      8  C   UNL     1      25.444  31.109  16.356  1.00  0.00     0.178 C 
ATOM      9  C   UNL     1      26.505  29.442  17.596  1.00  0.00     0.269 C 
ATOM     10  C   UNL     1      25.430  28.390  17.366  1.00  0.00     0.112 C 
ATOM     11  O   UNL     1      25.877  30.658  17.619  1.00  0.00    -0.332 OA
ATOM     12  C   UNL     1      24.300  29.004  16.591  1.00  0.00     0.145 C 
ATOM     13  C   UNL     1      24.852  30.039  15.543  1.00  0.00     0.142 C 
BRANCH   9  14
ATOM     14  O   UNL     1      27.532  29.325  16.666  1.00  0.00    -0.357 OA
ATOM     15  H   UNL     1      27.738  30.185  16.215  1.00  0.00     0.214 HD
ENDBRANCH   9  14
BRANCH   9  16
ATOM     16  C   UNL     1      27.121  29.219  18.936  1.00  0.00     0.364 C 
ATOM     17  O   UNL     1      26.497  29.592  19.958  1.00  0.00    -0.246 OA
BRANCH  16  18
ATOM     18  O   UNL     1      28.358  28.616  19.100  1.00  0.00    -0.477 OA
ATOM     19  H   UNL     1      29.091  28.666  18.380  1.00  0.00     0.296 HD
ENDBRANCH  16  18
ENDBRANCH   9  16
BRANCH  12  20
ATOM     20  O   UNL     1      23.548  28.054  15.909  1.00  0.00    -0.391 OA
ATOM     21  H   UNL     1      22.938  28.472  15.264  1.00  0.00     0.211 HD
ENDBRANCH  12  20
BRANCH  13  22
ATOM     22  N   UNL     1      23.622  30.481  14.871  1.00  0.00    -0.348 N 
ATOM     23  C   UNL     1      23.424  30.430  13.471  1.00  0.00     0.217 C 
ATOM     24  H   UNL     1      22.812  30.865  15.440  1.00  0.00     0.163 HD
ATOM     25  C   UNL     1      22.170  30.886  12.819  1.00  0.00     0.114 C 
ATOM     26  O   UNL     1      24.337  29.983  12.733  1.00  0.00    -0.275 OA
ENDBRANCH  13  22
ENDBRANCH   7   8
BRANCH   7  27
ATOM     27  O   UNL     1      27.396  32.250  16.919  1.00  0.00    -0.388 OA
ATOM     28  H   UNL     1      27.001  33.028  17.382  1.00  0.00     0.211 HD
ENDBRANCH   7  27
ENDBRANCH   6   7
BRANCH   6  29
ATOM     29  O   UNL     1      24.775  33.323  14.819  1.00  0.00    -0.388 OA
ATOM     30  H   UNL     1      24.128  33.497  15.529  1.00  0.00     0.211 HD
ENDBRANCH   6  29
ENDBRANCH   5   6
ENDBRANCH   1   5
BRANCH   2  31
ATOM     31  O   UNL     1      30.793  34.285  15.157  1.00  0.00    -0.443 OA
BRANCH  31  32
ATOM     32  C   UNL     1      31.511  33.078  15.461  1.00  0.00     0.294 C 
BRANCH  32  33
ATOM     33  C   UNL     1      30.903  32.361  16.579  1.00  0.00     0.120 A 
ATOM     34  C   UNL     1      30.786  32.807  17.871  1.00  0.00     0.138 A 
ATOM     35  N   UNL     1      30.345  31.141  16.521  1.00  0.00    -0.132 NA
ATOM     36  N   UNL     1      30.167  31.860  18.569  1.00  0.00    -0.248 N 
ATOM     37  N   UNL     1      29.910  30.867  17.744  1.00  0.00    -0.067 NA
BRANCH  36  38
ATOM     38  C   UNL     1      29.831  31.886  19.988  1.00  0.00     0.181 C 
BRANCH  38  39
ATOM     39  C   UNL     1      30.980  31.308  20.751  1.00  0.00    -0.023 A 
ATOM     40  C   UNL     1      31.020  29.935  20.988  1.00  0.00     0.056 A 
ATOM     41  C   UNL     1      32.018  32.079  21.229  1.00  0.00     0.010 A 
ATOM     42  C   UNL     1      32.061  29.363  21.678  1.00  0.00     0.161 A 
ATOM     43  C   UNL     1      33.079  31.534  21.926  1.00  0.00     0.051 A 
ATOM     44  C   UNL     1      33.081  30.175  22.138  1.00  0.00     0.160 A 
BRANCH  42  45
ATOM     45  O   UNL     1      32.113  27.994  21.923  1.00  0.00    -0.493 OA
ATOM     46  C   UNL     1      31.619  27.113  20.928  1.00  0.00     0.278 C 
ENDBRANCH  42  45
BRANCH  44  47
ATOM     47  O   UNL     1      34.127  29.589  22.833  1.00  0.00    -0.493 OA
ATOM     48  C   UNL     1      35.445  30.100  22.776  1.00  0.00     0.278 C 
ENDBRANCH  44  47
ENDBRANCH  38  39
ENDBRANCH  36  38
ENDBRANCH  32  33
ENDBRANCH  31  32
ENDBRANCH   2  31
TORSDOF 18
BEGIN_RES LYS A 131
REMARK  4 active torsions:
REMARK  status: ('A' for Active; 'I' for Inactive)
REMARK    1  A    between atoms: CA   and  CB  
REMARK    2  A    between atoms: CB   and  CG  
REMARK    3  A    between atoms: CG   and  CD  
REMARK    4  A    between atoms: CD   and  CE  
ROOT
ATOM      1  CA  LYS A 131      29.867  25.555  16.977  1.00 20.52     0.186 C 
ENDROOT
BRANCH   1   2
ATOM      2  CB  LYS A 131      28.345  25.722  17.026  1.00 20.94     0.034 C 
BRANCH   2   3
ATOM      3  CG  LYS A 131      27.599  24.433  16.718  1.00 22.96     0.005 C 
BRANCH   3   4
ATOM      4  CD  LYS A 131      26.945  23.851  17.940  1.00 24.33     0.041 C 
BRANCH   4   5
ATOM      5  CE  LYS A 131      26.277  24.965  18.739  1.00 26.91     0.338 C 
ATOM      6  NZ  LYS A 131      25.360  24.396  19.755  1.00 27.40     0.618 N 
ENDBRANCH   4   5
ENDBRANCH   3   4
ENDBRANCH   2   3
ENDBRANCH   1   2
END_RES LYS A 131
BEGIN_RES LYS A 135
REMARK  4 active torsions:
REMARK  status: ('A' for Active; 'I' for Inactive)
REMARK    5  A    between atoms: CA   and  CB  
REMARK    6  A    between atoms: CB   and  CG  
REMARK    7  A    between atoms: CG   and  CD  
REMARK    8  A    between atoms: CD   and  CE  
ROOT
ATOM      7  CA  LYS A 135      33.193  34.663   9.290  1.00 25.02     0.186 C 
ENDROOT
BRANCH   7   8
ATOM      8  CB  LYS A 135      32.060  35.360  10.034  1.00 26.63     0.034 C 
BRANCH   8   9
ATOM      9  CG  LYS A 135      30.881  35.695   9.158  1.00 29.45     0.005 C 
BRANCH   9  10
ATOM     10  CD  LYS A 135      30.411  34.466   8.396  1.00 32.00     0.041 C 
BRANCH  10  11
ATOM     11  CE  LYS A 135      28.898  34.367   8.423  1.00 34.25     0.338 C 
ATOM     12  NZ  LYS A 135      28.410  33.990   9.779  1.00 35.99     0.618 N 
ENDBRANCH  10  11
ENDBRANCH   9  10
ENDBRANCH   8   9
ENDBRANCH   7   8
END_RES LYS A 135
