REMARK VINA RESULT:    -5.114      3.258      6.338
REMARK INTER + INTRA:         -13.899
REMARK INTER:                  -9.331
REMARK INTRA:                  -4.568
REMARK UNBOUND:                -4.749
REMARK SMILES CC(=O)N[C@@H]1[C@@H](O)C[C@](O)(C(=O)O)O[C@H]1C(O)[C@H](O)CNC(=O)OCc1cn(-c2ccc([N+](=O)[O-])cc2)nn1
REMARK SMILES IDX 21 1 22 2 23 3 20 5 18 6 16 7 15 8 9 9 8 10 14 11 6 12 5 13
REMARK SMILES IDX 10 14 11 16 12 17 13 18 7 20 4 22 2 23 1 25 3 26 17 27 19 29
REMARK SMILES IDX 24 31 25 32 26 33 27 34 39 35 28 36 38 37 29 38 30 39 37 40
REMARK SMILES IDX 31 41 36 42 32 43 33 44 34 45 35 46
REMARK H PARENT 21 4 10 15 13 19 7 21 4 24 17 28 19 30
REMARK Flexibility Score: inf
ROOT
ATOM      1  N   UNL     1      30.842  33.049  17.430  1.00  0.00    -0.319 N 
ATOM      2  C   UNL     1      31.612  34.205  17.208  1.00  0.00     0.407 C 
ATOM      3  O   UNL     1      31.722  35.123  18.041  1.00  0.00    -0.225 OA
ATOM      4  H   UNL     1      30.851  32.315  16.640  1.00  0.00     0.167 HD
ENDROOT
BRANCH   1   5
ATOM      5  C   UNL     1      30.077  32.795  18.587  1.00  0.00     0.154 C 
BRANCH   5   6
ATOM      6  C   UNL     1      30.090  31.460  19.216  1.00  0.00     0.165 C 
BRANCH   6   7
ATOM      7  C   UNL     1      31.131  31.029  20.142  1.00  0.00     0.176 C 
BRANCH   7   8
ATOM      8  C   UNL     1      31.093  29.520  20.407  1.00  0.00     0.178 C 
ATOM      9  C   UNL     1      29.684  27.967  21.414  1.00  0.00     0.269 C 
ATOM     10  C   UNL     1      30.791  27.014  21.027  1.00  0.00     0.112 C 
ATOM     11  O   UNL     1      29.780  29.202  20.815  1.00  0.00    -0.332 OA
ATOM     12  C   UNL     1      32.154  27.551  21.334  1.00  0.00     0.145 C 
ATOM     13  C   UNL     1      32.004  29.076  21.492  1.00  0.00     0.142 C 
BRANCH   9  14
ATOM     14  O   UNL     1      29.658  28.031  22.796  1.00  0.00    -0.357 OA
ATOM     15  H   UNL     1      30.566  27.910  23.140  1.00  0.00     0.214 HD
ENDBRANCH   9  14
BRANCH   9  16
ATOM     16  C   UNL     1      28.413  27.350  20.950  1.00  0.00     0.364 C 
ATOM     17  O   UNL     1      27.364  27.444  21.638  1.00  0.00    -0.246 OA
BRANCH  16  18
ATOM     18  O   UNL     1      28.350  26.658  19.753  1.00  0.00    -0.477 OA
ATOM     19  H   UNL     1      29.073  25.993  19.470  1.00  0.00     0.296 HD
ENDBRANCH  16  18
ENDBRANCH   9  16
BRANCH  12  20
ATOM     20  O   UNL     1      32.753  26.991  22.440  1.00  0.00    -0.391 OA
ATOM     21  H   UNL     1      32.468  27.503  23.238  1.00  0.00     0.211 HD
ENDBRANCH  12  20
BRANCH  13  22
ATOM     22  N   UNL     1      33.353  29.597  21.417  1.00  0.00    -0.348 N 
ATOM     23  C   UNL     1      34.043  30.008  22.606  1.00  0.00     0.217 C 
ATOM     24  H   UNL     1      33.872  29.696  20.524  1.00  0.00     0.163 HD
ATOM     25  C   UNL     1      35.419  30.548  22.603  1.00  0.00     0.114 C 
ATOM     26  O   UNL     1      33.434  29.895  23.690  1.00  0.00    -0.275 OA
ENDBRANCH  13  22
ENDBRANCH   7   8
BRANCH   7  27
ATOM     27  O   UNL     1      31.105  31.741  21.313  1.00  0.00    -0.388 OA
ATOM     28  H   UNL     1      30.218  31.925  21.694  1.00  0.00     0.211 HD
ENDBRANCH   7  27
ENDBRANCH   6   7
BRANCH   6  29
ATOM     29  O   UNL     1      29.887  30.543  18.145  1.00  0.00    -0.388 OA
ATOM     30  H   UNL     1      28.915  30.395  18.010  1.00  0.00     0.211 HD
ENDBRANCH   6  29
ENDBRANCH   5   6
ENDBRANCH   1   5
BRANCH   2  31
ATOM     31  O   UNL     1      32.284  34.308  15.969  1.00  0.00    -0.443 OA
BRANCH  31  32
ATOM     32  C   UNL     1      31.653  33.690  14.865  1.00  0.00     0.294 C 
BRANCH  32  33
ATOM     33  C   UNL     1      30.795  34.688  14.140  1.00  0.00     0.121 A 
ATOM     34  C   UNL     1      29.767  34.427  13.260  1.00  0.00     0.144 A 
ATOM     35  N   UNL     1      30.858  36.040  14.201  1.00  0.00    -0.131 NA
ATOM     36  N   UNL     1      29.235  35.590  12.814  1.00  0.00    -0.220 N 
ATOM     37  N   UNL     1      29.932  36.532  13.413  1.00  0.00    -0.062 NA
BRANCH  36  38
ATOM     38  C   UNL     1      28.158  35.742  11.893  1.00  0.00     0.067 A 
ATOM     39  C   UNL     1      27.994  36.883  11.137  1.00  0.00     0.035 A 
ATOM     40  C   UNL     1      27.222  34.739  11.718  1.00  0.00     0.035 A 
ATOM     41  C   UNL     1      26.943  37.009  10.250  1.00  0.00     0.088 A 
ATOM     42  C   UNL     1      26.170  34.863  10.831  1.00  0.00     0.088 A 
ATOM     43  C   UNL     1      26.004  36.003  10.074  1.00  0.00     0.269 A 
BRANCH  43  44
ATOM     44  N   UNL     1      24.925  36.123   9.167  1.00  0.00     0.062 N 
ATOM     45  O   UNL     1      23.927  35.401   9.331  1.00  0.00    -0.258 OA
ATOM     46  O   UNL     1      24.911  36.993   8.114  1.00  0.00    -0.258 OA
ENDBRANCH  43  44
ENDBRANCH  36  38
ENDBRANCH  32  33
ENDBRANCH  31  32
ENDBRANCH   2  31
TORSDOF 16
BEGIN_RES LYS A 131
REMARK  4 active torsions:
REMARK  status: ('A' for Active; 'I' for Inactive)
REMARK    1  A    between atoms: CA   and  CB  
REMARK    2  A    between atoms: CB   and  CG  
REMARK    3  A    between atoms: CG   and  CD  
REMARK    4  A    between atoms: CD   and  CE  
ROOT
ATOM      1  CA  LYS A 131      29.867  25.555  16.977  1.00 20.52     0.186 C 
ENDROOT
BRANCH   1   2
ATOM      2  CB  LYS A 131      28.345  25.722  17.026  1.00 20.94     0.034 C 
BRANCH   2   3
ATOM      3  CG  LYS A 131      27.601  24.401  16.902  1.00 22.96     0.005 C 
BRANCH   3   4
ATOM      4  CD  LYS A 131      26.150  24.531  17.270  1.00 24.33     0.041 C 
BRANCH   4   5
ATOM      5  CE  LYS A 131      25.643  23.203  17.823  1.00 26.91     0.338 C 
ATOM      6  NZ  LYS A 131      24.341  22.849  17.211  1.00 27.40     0.618 N 
ENDBRANCH   4   5
ENDBRANCH   3   4
ENDBRANCH   2   3
ENDBRANCH   1   2
END_RES LYS A 131
BEGIN_RES LYS A 135
REMARK  4 active torsions:
REMARK  status: ('A' for Active; 'I' for Inactive)
REMARK    5  A    between atoms: CA   and  CB  
REMARK    6  A    between atoms: CB   and  CG  
REMARK    7  A    between atoms: CG   and  CD  
REMARK    8  A    between atoms: CD   and  CE  
ROOT
ATOM      7  CA  LYS A 135      33.193  34.663   9.290  1.00 25.02     0.186 C 
ENDROOT
BRANCH   7   8
ATOM      8  CB  LYS A 135      32.060  35.360  10.034  1.00 26.63     0.034 C 
BRANCH   8   9
ATOM      9  CG  LYS A 135      30.821  35.554   9.199  1.00 29.45     0.005 C 
BRANCH   9  10
ATOM     10  CD  LYS A 135      30.040  34.254   9.087  1.00 32.00     0.041 C 
BRANCH  10  11
ATOM     11  CE  LYS A 135      28.798  34.450   8.238  1.00 34.25     0.338 C 
ATOM     12  NZ  LYS A 135      28.894  35.696   7.428  1.00 35.99     0.618 N 
ENDBRANCH  10  11
ENDBRANCH   9  10
ENDBRANCH   8   9
ENDBRANCH   7   8
END_RES LYS A 135
