REMARK VINA RESULT:    -4.756      4.124     12.313
REMARK INTER + INTRA:         -14.612
REMARK INTER:                  -9.377
REMARK INTRA:                  -5.235
REMARK UNBOUND:                -5.964
REMARK SMILES CC(=O)N[C@@H]1[C@@H](O)C[C@](O)(C(=O)O)O[C@H]1C(O)[C@H](O)CNC(=O)OCc1cn(-c2ccc(S(N)(=O)=O)cc2)nn1
REMARK SMILES IDX 21 1 22 2 23 3 20 5 18 6 16 7 15 8 9 9 8 10 14 11 6 12 5 13
REMARK SMILES IDX 10 14 11 16 12 17 13 18 7 20 4 22 2 23 1 25 3 26 17 27 19 29
REMARK SMILES IDX 24 31 25 32 26 33 27 34 40 35 28 36 39 37 29 38 30 39 38 40
REMARK SMILES IDX 31 41 37 42 32 43 33 44 35 45 36 46 34 47
REMARK H PARENT 21 4 10 15 13 19 7 21 4 24 17 28 19 30 34 48 34 49
REMARK Flexibility Score: inf
ROOT
ATOM      1  N   UNL     1      31.831  38.002  11.126  1.00  0.00    -0.319 N 
ATOM      2  C   UNL     1      31.893  37.328  12.353  1.00  0.00     0.407 C 
ATOM      3  O   UNL     1      31.530  37.882  13.404  1.00  0.00    -0.225 OA
ATOM      4  H   UNL     1      32.151  37.474  10.268  1.00  0.00     0.167 HD
ENDROOT
BRANCH   1   5
ATOM      5  C   UNL     1      31.361  39.338  11.011  1.00  0.00     0.154 C 
BRANCH   5   6
ATOM      6  C   UNL     1      30.547  39.580   9.746  1.00  0.00     0.165 C 
BRANCH   6   7
ATOM      7  C   UNL     1      30.396  38.274   9.022  1.00  0.00     0.176 C 
BRANCH   7   8
ATOM      8  C   UNL     1      29.053  38.035   8.447  1.00  0.00     0.178 C 
ATOM      9  C   UNL     1      27.598  38.983   6.893  1.00  0.00     0.269 C 
ATOM     10  C   UNL     1      26.945  37.640   7.112  1.00  0.00     0.112 C 
ATOM     11  O   UNL     1      28.729  39.159   7.641  1.00  0.00    -0.332 OA
ATOM     12  C   UNL     1      26.756  37.303   8.559  1.00  0.00     0.145 C 
ATOM     13  C   UNL     1      27.903  37.860   9.366  1.00  0.00     0.142 C 
BRANCH   9  14
ATOM     14  O   UNL     1      26.669  40.035   7.082  1.00  0.00    -0.357 OA
ATOM     15  H   UNL     1      27.131  40.863   7.366  1.00  0.00     0.214 HD
ENDBRANCH   9  14
BRANCH   9  16
ATOM     16  C   UNL     1      27.982  39.049   5.458  1.00  0.00     0.364 C 
ATOM     17  O   UNL     1      28.805  39.932   5.106  1.00  0.00    -0.246 OA
BRANCH  16  18
ATOM     18  O   UNL     1      27.491  38.199   4.485  1.00  0.00    -0.477 OA
ATOM     19  H   UNL     1      26.801  37.488   4.712  1.00  0.00     0.296 HD
ENDBRANCH  16  18
ENDBRANCH   9  16
BRANCH  12  20
ATOM     20  O   UNL     1      25.521  37.791   8.965  1.00  0.00    -0.391 OA
ATOM     21  H   UNL     1      24.837  37.251   8.493  1.00  0.00     0.211 HD
ENDBRANCH  12  20
BRANCH  13  22
ATOM     22  N   UNL     1      28.118  37.190  10.592  1.00  0.00    -0.348 N 
ATOM     23  C   UNL     1      27.936  37.817  11.846  1.00  0.00     0.217 C 
ATOM     24  H   UNL     1      28.403  36.190  10.601  1.00  0.00     0.163 HD
ATOM     25  C   UNL     1      28.170  37.090  13.141  1.00  0.00     0.114 C 
ATOM     26  O   UNL     1      27.572  39.007  11.853  1.00  0.00    -0.275 OA
ENDBRANCH  13  22
ENDBRANCH   7   8
BRANCH   7  27
ATOM     27  O   UNL     1      31.481  37.866   8.292  1.00  0.00    -0.388 OA
ATOM     28  H   UNL     1      31.569  38.438   7.497  1.00  0.00     0.211 HD
ENDBRANCH   7  27
ENDBRANCH   6   7
BRANCH   6  29
ATOM     29  O   UNL     1      31.128  40.594   9.032  1.00  0.00    -0.388 OA
ATOM     30  H   UNL     1      31.826  40.230   8.421  1.00  0.00     0.211 HD
ENDBRANCH   6  29
ENDBRANCH   5   6
ENDBRANCH   1   5
BRANCH   2  31
ATOM     31  O   UNL     1      32.361  36.010  12.465  1.00  0.00    -0.443 OA
BRANCH  31  32
ATOM     32  C   UNL     1      32.791  35.500  13.688  1.00  0.00     0.294 C 
BRANCH  32  33
ATOM     33  C   UNL     1      31.806  34.571  14.284  1.00  0.00     0.121 A 
ATOM     34  C   UNL     1      31.812  33.935  15.502  1.00  0.00     0.144 A 
ATOM     35  N   UNL     1      30.658  34.177  13.676  1.00  0.00    -0.131 NA
ATOM     36  N   UNL     1      30.703  33.183  15.620  1.00  0.00    -0.220 N 
ATOM     37  N   UNL     1      30.031  33.354  14.499  1.00  0.00    -0.062 NA
BRANCH  36  38
ATOM     38  C   UNL     1      30.297  32.359  16.708  1.00  0.00     0.066 A 
ATOM     39  C   UNL     1      29.392  31.332  16.542  1.00  0.00     0.030 A 
ATOM     40  C   UNL     1      30.795  32.557  17.982  1.00  0.00     0.030 A 
ATOM     41  C   UNL     1      28.989  30.526  17.583  1.00  0.00     0.024 A 
ATOM     42  C   UNL     1      30.394  31.752  19.028  1.00  0.00     0.024 A 
ATOM     43  C   UNL     1      29.490  30.722  18.875  1.00  0.00     0.082 A 
BRANCH  43  44
ATOM     44  S   UNL     1      28.974  29.697  20.194  1.00  0.00     0.238 S 
ATOM     45  O   UNL     1      29.313  30.412  21.472  1.00  0.00    -0.207 OA
ATOM     46  O   UNL     1      27.467  29.581  20.151  1.00  0.00    -0.207 OA
BRANCH  44  47
ATOM     47  N   UNL     1      29.707  28.150  20.160  1.00  0.00    -0.225 NA
ATOM     48  H   UNL     1      30.108  27.877  19.256  1.00  0.00     0.137 HD
ATOM     49  H   UNL     1      30.373  28.010  20.952  1.00  0.00     0.137 HD
ENDBRANCH  44  47
ENDBRANCH  43  44
ENDBRANCH  36  38
ENDBRANCH  32  33
ENDBRANCH  31  32
ENDBRANCH   2  31
TORSDOF 17
BEGIN_RES LYS A 131
REMARK  4 active torsions:
REMARK  status: ('A' for Active; 'I' for Inactive)
REMARK    1  A    between atoms: CA   and  CB  
REMARK    2  A    between atoms: CB   and  CG  
REMARK    3  A    between atoms: CG   and  CD  
REMARK    4  A    between atoms: CD   and  CE  
ROOT
ATOM      1  CA  LYS A 131      29.867  25.555  16.977  1.00 20.52     0.186 C 
ENDROOT
BRANCH   1   2
ATOM      2  CB  LYS A 131      28.345  25.722  17.026  1.00 20.94     0.034 C 
BRANCH   2   3
ATOM      3  CG  LYS A 131      27.601  24.404  16.876  1.00 22.96     0.005 C 
BRANCH   3   4
ATOM      4  CD  LYS A 131      26.153  24.524  17.264  1.00 24.33     0.041 C 
BRANCH   4   5
ATOM      5  CE  LYS A 131      25.637  23.166  17.729  1.00 26.91     0.338 C 
ATOM      6  NZ  LYS A 131      25.527  23.132  19.207  1.00 27.40     0.618 N 
ENDBRANCH   4   5
ENDBRANCH   3   4
ENDBRANCH   2   3
ENDBRANCH   1   2
END_RES LYS A 131
BEGIN_RES LYS A 135
REMARK  4 active torsions:
REMARK  status: ('A' for Active; 'I' for Inactive)
REMARK    5  A    between atoms: CA   and  CB  
REMARK    6  A    between atoms: CB   and  CG  
REMARK    7  A    between atoms: CG   and  CD  
REMARK    8  A    between atoms: CD   and  CE  
ROOT
ATOM      7  CA  LYS A 135      33.193  34.663   9.290  1.00 25.02     0.186 C 
ENDROOT
BRANCH   7   8
ATOM      8  CB  LYS A 135      32.060  35.360  10.034  1.00 26.63     0.034 C 
BRANCH   8   9
ATOM      9  CG  LYS A 135      30.738  34.645   9.925  1.00 29.45     0.005 C 
BRANCH   9  10
ATOM     10  CD  LYS A 135      30.365  34.425   8.467  1.00 32.00     0.041 C 
BRANCH  10  11
ATOM     11  CE  LYS A 135      28.858  34.414   8.299  1.00 34.25     0.338 C 
ATOM     12  NZ  LYS A 135      28.190  33.808   9.484  1.00 35.99     0.618 N 
ENDBRANCH  10  11
ENDBRANCH   9  10
ENDBRANCH   8   9
ENDBRANCH   7   8
END_RES LYS A 135
