REMARK VINA RESULT:    -4.566      5.956     11.705
REMARK INTER + INTRA:         -15.638
REMARK INTER:                 -10.450
REMARK INTRA:                  -5.188
REMARK UNBOUND:                -6.934
REMARK SMILES CC(=O)N[C@@H]1[C@@H](O)C[C@](O)(C(=O)O)O[C@H]1C(O)[C@H](O)CNC(=O)OCc1cn(C(C)CC(=O)c2ccccc2)nn1
REMARK SMILES IDX 21 1 22 2 23 3 20 5 18 6 16 7 15 8 9 9 8 10 14 11 6 12 5 13
REMARK SMILES IDX 10 14 11 16 12 17 13 18 7 20 4 22 2 23 1 25 3 26 17 27 19 29
REMARK SMILES IDX 24 31 25 32 26 33 27 34 41 35 28 36 40 37 29 38 30 39 31 40
REMARK SMILES IDX 32 41 33 42 34 43 35 44 39 45 36 46 38 47 37 48
REMARK H PARENT 21 4 10 15 13 19 7 21 4 24 17 28 19 30
REMARK Flexibility Score: inf
ROOT
ATOM      1  N   UNL     1      28.483  35.141   7.330  1.00  0.00    -0.319 N 
ATOM      2  C   UNL     1      29.413  34.508   8.203  1.00  0.00     0.407 C 
ATOM      3  O   UNL     1      30.624  34.552   7.919  1.00  0.00    -0.225 OA
ATOM      4  H   UNL     1      27.467  35.060   7.643  1.00  0.00     0.167 HD
ENDROOT
BRANCH   1   5
ATOM      5  C   UNL     1      28.845  35.843   6.119  1.00  0.00     0.154 C 
BRANCH   5   6
ATOM      6  C   UNL     1      28.297  37.252   6.096  1.00  0.00     0.165 C 
BRANCH   6   7
ATOM      7  C   UNL     1      28.106  37.805   7.492  1.00  0.00     0.176 C 
BRANCH   7   8
ATOM      8  C   UNL     1      28.649  39.194   7.654  1.00  0.00     0.178 C 
ATOM      9  C   UNL     1      30.906  38.934   8.190  1.00  0.00     0.269 C 
ATOM     10  C   UNL     1      30.691  39.410   9.604  1.00  0.00     0.112 C 
ATOM     11  O   UNL     1      29.962  39.323   7.288  1.00  0.00    -0.332 OA
ATOM     12  C   UNL     1      29.287  39.199  10.088  1.00  0.00     0.145 C 
ATOM     13  C   UNL     1      28.362  39.762   9.032  1.00  0.00     0.142 C 
BRANCH   9  14
ATOM     14  O   UNL     1      31.146  37.541   8.199  1.00  0.00    -0.357 OA
ATOM     15  H   UNL     1      31.967  37.305   7.727  1.00  0.00     0.214 HD
ENDBRANCH   9  14
BRANCH   9  16
ATOM     16  C   UNL     1      32.207  39.557   7.749  1.00  0.00     0.364 C 
ATOM     17  O   UNL     1      32.321  40.263   6.738  1.00  0.00    -0.246 OA
BRANCH  16  18
ATOM     18  O   UNL     1      33.304  39.277   8.582  1.00  0.00    -0.477 OA
ATOM     19  H   UNL     1      33.600  38.328   8.745  1.00  0.00     0.296 HD
ENDBRANCH  16  18
ENDBRANCH   9  16
BRANCH  12  20
ATOM     20  O   UNL     1      29.012  37.888  10.397  1.00  0.00    -0.391 OA
ATOM     21  H   UNL     1      29.850  37.369  10.439  1.00  0.00     0.211 HD
ENDBRANCH  12  20
BRANCH  13  22
ATOM     22  N   UNL     1      28.692  41.194   8.946  1.00  0.00    -0.348 N 
ATOM     23  C   UNL     1      27.666  42.153   9.166  1.00  0.00     0.217 C 
ATOM     24  H   UNL     1      29.651  41.527   8.730  1.00  0.00     0.163 HD
ATOM     25  C   UNL     1      28.016  43.594   9.077  1.00  0.00     0.114 C 
ATOM     26  O   UNL     1      26.510  41.752   9.426  1.00  0.00    -0.275 OA
ENDBRANCH  13  22
ENDBRANCH   7   8
BRANCH   7  27
ATOM     27  O   UNL     1      26.735  37.762   7.757  1.00  0.00    -0.388 OA
ATOM     28  H   UNL     1      26.480  36.819   7.987  1.00  0.00     0.211 HD
ENDBRANCH   7  27
ENDBRANCH   6   7
BRANCH   6  29
ATOM     29  O   UNL     1      27.069  37.249   5.404  1.00  0.00    -0.388 OA
ATOM     30  H   UNL     1      27.113  37.788   4.575  1.00  0.00     0.211 HD
ENDBRANCH   6  29
ENDBRANCH   5   6
ENDBRANCH   1   5
BRANCH   2  31
ATOM     31  O   UNL     1      29.030  33.848   9.349  1.00  0.00    -0.443 OA
BRANCH  31  32
ATOM     32  C   UNL     1      27.706  33.713   9.816  1.00  0.00     0.294 C 
BRANCH  32  33
ATOM     33  C   UNL     1      27.222  34.842  10.615  1.00  0.00     0.120 A 
ATOM     34  C   UNL     1      27.225  34.916  12.014  1.00  0.00     0.138 A 
ATOM     35  N   UNL     1      26.687  36.020  10.204  1.00  0.00    -0.132 NA
ATOM     36  N   UNL     1      26.717  36.081  12.369  1.00  0.00    -0.249 N 
ATOM     37  N   UNL     1      26.402  36.725  11.283  1.00  0.00    -0.067 NA
BRANCH  36  38
ATOM     38  C   UNL     1      26.547  36.551  13.780  1.00  0.00     0.114 C 
ATOM     39  C   UNL     1      25.064  36.775  13.917  1.00  0.00     0.034 C 
BRANCH  38  40
ATOM     40  C   UNL     1      27.051  35.488  14.640  1.00  0.00     0.108 C 
BRANCH  40  41
ATOM     41  C   UNL     1      28.354  35.574  15.221  1.00  0.00     0.164 C 
ATOM     42  O   UNL     1      28.611  36.789  15.715  1.00  0.00    -0.294 OA
BRANCH  41  43
ATOM     43  C   UNL     1      29.436  34.655  15.387  1.00  0.00     0.018 A 
ATOM     44  C   UNL     1      30.367  34.890  16.428  1.00  0.00     0.012 A 
ATOM     45  C   UNL     1      29.654  33.531  14.628  1.00  0.00     0.012 A 
ATOM     46  C   UNL     1      31.420  34.040  16.654  1.00  0.00     0.001 A 
ATOM     47  C   UNL     1      30.729  32.693  14.886  1.00  0.00     0.001 A 
ATOM     48  C   UNL     1      31.620  32.922  15.883  1.00  0.00     0.000 A 
ENDBRANCH  41  43
ENDBRANCH  40  41
ENDBRANCH  38  40
ENDBRANCH  36  38
ENDBRANCH  32  33
ENDBRANCH  31  32
ENDBRANCH   2  31
TORSDOF 18
BEGIN_RES LYS A 131
REMARK  4 active torsions:
REMARK  status: ('A' for Active; 'I' for Inactive)
REMARK    1  A    between atoms: CA   and  CB  
REMARK    2  A    between atoms: CB   and  CG  
REMARK    3  A    between atoms: CG   and  CD  
REMARK    4  A    between atoms: CD   and  CE  
ROOT
ATOM      1  CA  LYS A 131      29.867  25.555  16.977  1.00 20.52     0.186 C 
ENDROOT
BRANCH   1   2
ATOM      2  CB  LYS A 131      28.345  25.722  17.026  1.00 20.94     0.034 C 
BRANCH   2   3
ATOM      3  CG  LYS A 131      27.601  24.401  16.906  1.00 22.96     0.005 C 
BRANCH   3   4
ATOM      4  CD  LYS A 131      26.155  24.527  17.296  1.00 24.33     0.041 C 
BRANCH   4   5
ATOM      5  CE  LYS A 131      25.793  23.418  18.279  1.00 26.91     0.338 C 
ATOM      6  NZ  LYS A 131      24.951  22.394  17.618  1.00 27.40     0.618 N 
ENDBRANCH   4   5
ENDBRANCH   3   4
ENDBRANCH   2   3
ENDBRANCH   1   2
END_RES LYS A 131
BEGIN_RES LYS A 135
REMARK  4 active torsions:
REMARK  status: ('A' for Active; 'I' for Inactive)
REMARK    5  A    between atoms: CA   and  CB  
REMARK    6  A    between atoms: CB   and  CG  
REMARK    7  A    between atoms: CG   and  CD  
REMARK    8  A    between atoms: CD   and  CE  
ROOT
ATOM      7  CA  LYS A 135      33.193  34.663   9.290  1.00 25.02     0.186 C 
ENDROOT
BRANCH   7   8
ATOM      8  CB  LYS A 135      32.060  35.360  10.034  1.00 26.63     0.034 C 
BRANCH   8   9
ATOM      9  CG  LYS A 135      32.520  36.139  11.239  1.00 29.45     0.005 C 
BRANCH   9  10
ATOM     10  CD  LYS A 135      32.057  35.466  12.522  1.00 32.00     0.041 C 
BRANCH  10  11
ATOM     11  CE  LYS A 135      32.247  36.392  13.708  1.00 34.25     0.338 C 
ATOM     12  NZ  LYS A 135      31.305  37.545  13.645  1.00 35.99     0.618 N 
ENDBRANCH  10  11
ENDBRANCH   9  10
ENDBRANCH   8   9
ENDBRANCH   7   8
END_RES LYS A 135
