REMARK VINA RESULT:    -5.218      2.751      6.142
REMARK INTER + INTRA:         -15.065
REMARK INTER:                  -8.657
REMARK INTRA:                  -6.408
REMARK UNBOUND:                -5.118
REMARK SMILES COc1ccc(Cn2cc(COC(=O)NC[C@@H](O)C(O)[C@@H]3O[C@@](O)(C(=O)O)C[C@H](O)[C@H]3NC(C)=O)nn2)cc1OC
REMARK SMILES IDX 15 1 13 2 14 3 16 5 17 6 19 7 21 8 23 9 28 10 22 11 29 12
REMARK SMILES IDX 31 13 24 14 25 16 26 17 27 18 30 20 32 22 33 23 34 25 35 26
REMARK SMILES IDX 20 27 18 29 12 31 11 32 10 33 9 34 36 35 8 36 37 37 7 38
REMARK SMILES IDX 6 39 38 40 5 41 39 42 4 43 3 44 40 45 41 46 2 47 1 48
REMARK H PARENT 15 4 24 15 27 19 30 21 32 24 20 28 18 30
REMARK Flexibility Score: inf
ROOT
ATOM      1  N   UNL     1      29.925  32.387  15.622  1.00  0.00    -0.319 N 
ATOM      2  C   UNL     1      30.722  33.342  14.977  1.00  0.00     0.407 C 
ATOM      3  O   UNL     1      30.327  33.934  13.949  1.00  0.00    -0.225 OA
ATOM      4  H   UNL     1      30.341  31.922  16.485  1.00  0.00     0.167 HD
ENDROOT
BRANCH   1   5
ATOM      5  C   UNL     1      28.591  31.978  15.220  1.00  0.00     0.154 C 
BRANCH   5   6
ATOM      6  C   UNL     1      28.209  30.699  15.874  1.00  0.00     0.165 C 
BRANCH   6   7
ATOM      7  C   UNL     1      27.966  30.806  17.360  1.00  0.00     0.176 C 
BRANCH   7   8
ATOM      8  C   UNL     1      26.608  30.380  17.804  1.00  0.00     0.178 C 
ATOM      9  C   UNL     1      26.814  28.150  18.459  1.00  0.00     0.269 C 
ATOM     10  C   UNL     1      25.392  27.761  18.082  1.00  0.00     0.112 C 
ATOM     11  O   UNL     1      26.779  29.459  18.858  1.00  0.00    -0.332 OA
ATOM     12  C   UNL     1      24.656  28.983  17.613  1.00  0.00     0.145 C 
ATOM     13  C   UNL     1      25.623  29.931  16.812  1.00  0.00     0.142 C 
BRANCH   9  14
ATOM     14  O   UNL     1      27.704  27.871  17.427  1.00  0.00    -0.357 OA
ATOM     15  H   UNL     1      27.415  27.100  16.873  1.00  0.00     0.214 HD
ENDBRANCH   9  14
BRANCH   9  16
ATOM     16  C   UNL     1      27.247  27.328  19.626  1.00  0.00     0.364 C 
ATOM     17  O   UNL     1      26.499  27.260  20.629  1.00  0.00    -0.246 OA
BRANCH  16  18
ATOM     18  O   UNL     1      28.447  26.634  19.647  1.00  0.00    -0.477 OA
ATOM     19  H   UNL     1      29.101  26.648  18.855  1.00  0.00     0.296 HD
ENDBRANCH  16  18
ENDBRANCH   9  16
BRANCH  12  20
ATOM     20  O   UNL     1      23.577  28.669  16.793  1.00  0.00    -0.391 OA
ATOM     21  H   UNL     1      23.664  27.769  16.413  1.00  0.00     0.211 HD
ENDBRANCH  12  20
BRANCH  13  22
ATOM     22  N   UNL     1      24.720  31.018  16.407  1.00  0.00    -0.348 N 
ATOM     23  C   UNL     1      24.511  31.415  15.065  1.00  0.00     0.217 C 
ATOM     24  H   UNL     1      24.174  31.559  17.141  1.00  0.00     0.163 HD
ATOM     25  C   UNL     1      23.594  32.520  14.687  1.00  0.00     0.114 C 
ATOM     26  O   UNL     1      25.119  30.818  14.142  1.00  0.00    -0.275 OA
ENDBRANCH  13  22
ENDBRANCH   7   8
BRANCH   7  27
ATOM     27  O   UNL     1      28.030  32.221  17.687  1.00  0.00    -0.388 OA
ATOM     28  H   UNL     1      27.887  32.293  18.661  1.00  0.00     0.211 HD
ENDBRANCH   7  27
ENDBRANCH   6   7
BRANCH   6  29
ATOM     29  O   UNL     1      28.901  29.584  15.480  1.00  0.00    -0.388 OA
ATOM     30  H   UNL     1      28.762  28.802  16.048  1.00  0.00     0.211 HD
ENDBRANCH   6  29
ENDBRANCH   5   6
ENDBRANCH   1   5
BRANCH   2  31
ATOM     31  O   UNL     1      32.004  33.669  15.469  1.00  0.00    -0.443 OA
BRANCH  31  32
ATOM     32  C   UNL     1      32.097  34.736  16.425  1.00  0.00     0.294 C 
BRANCH  32  33
ATOM     33  C   UNL     1      31.290  34.463  17.612  1.00  0.00     0.120 A 
ATOM     34  C   UNL     1      31.723  33.898  18.784  1.00  0.00     0.138 A 
ATOM     35  N   UNL     1      29.982  34.731  17.753  1.00  0.00    -0.132 NA
ATOM     36  N   UNL     1      30.682  33.832  19.608  1.00  0.00    -0.248 N 
ATOM     37  N   UNL     1      29.645  34.336  18.974  1.00  0.00    -0.067 NA
BRANCH  36  38
ATOM     38  C   UNL     1      30.662  33.297  20.965  1.00  0.00     0.181 C 
BRANCH  38  39
ATOM     39  C   UNL     1      30.959  31.833  20.895  1.00  0.00    -0.023 A 
ATOM     40  C   UNL     1      32.176  31.360  21.385  1.00  0.00     0.056 A 
ATOM     41  C   UNL     1      30.072  30.918  20.371  1.00  0.00     0.010 A 
ATOM     42  C   UNL     1      32.485  30.023  21.347  1.00  0.00     0.161 A 
ATOM     43  C   UNL     1      30.353  29.567  20.319  1.00  0.00     0.051 A 
ATOM     44  C   UNL     1      31.563  29.141  20.812  1.00  0.00     0.160 A 
BRANCH  42  45
ATOM     45  O   UNL     1      33.696  29.536  21.831  1.00  0.00    -0.493 OA
ATOM     46  C   UNL     1      34.633  30.463  22.351  1.00  0.00     0.278 C 
ENDBRANCH  42  45
BRANCH  44  47
ATOM     47  O   UNL     1      31.884  27.793  20.779  1.00  0.00    -0.493 OA
ATOM     48  C   UNL     1      31.232  26.846  21.604  1.00  0.00     0.278 C 
ENDBRANCH  44  47
ENDBRANCH  38  39
ENDBRANCH  36  38
ENDBRANCH  32  33
ENDBRANCH  31  32
ENDBRANCH   2  31
TORSDOF 18
BEGIN_RES LYS A 131
REMARK  4 active torsions:
REMARK  status: ('A' for Active; 'I' for Inactive)
REMARK    1  A    between atoms: CA   and  CB  
REMARK    2  A    between atoms: CB   and  CG  
REMARK    3  A    between atoms: CG   and  CD  
REMARK    4  A    between atoms: CD   and  CE  
ROOT
ATOM      1  CA  LYS A 131      29.867  25.555  16.977  1.00 20.52     0.186 C 
ENDROOT
BRANCH   1   2
ATOM      2  CB  LYS A 131      28.345  25.722  17.026  1.00 20.94     0.034 C 
BRANCH   2   3
ATOM      3  CG  LYS A 131      27.599  24.426  16.746  1.00 22.96     0.005 C 
BRANCH   3   4
ATOM      4  CD  LYS A 131      26.942  23.873  17.980  1.00 24.33     0.041 C 
BRANCH   4   5
ATOM      5  CE  LYS A 131      25.577  23.299  17.616  1.00 26.91     0.338 C 
ATOM      6  NZ  LYS A 131      24.768  24.306  16.890  1.00 27.40     0.618 N 
ENDBRANCH   4   5
ENDBRANCH   3   4
ENDBRANCH   2   3
ENDBRANCH   1   2
END_RES LYS A 131
BEGIN_RES LYS A 135
REMARK  4 active torsions:
REMARK  status: ('A' for Active; 'I' for Inactive)
REMARK    5  A    between atoms: CA   and  CB  
REMARK    6  A    between atoms: CB   and  CG  
REMARK    7  A    between atoms: CG   and  CD  
REMARK    8  A    between atoms: CD   and  CE  
ROOT
ATOM      7  CA  LYS A 135      33.193  34.663   9.290  1.00 25.02     0.186 C 
ENDROOT
BRANCH   7   8
ATOM      8  CB  LYS A 135      32.060  35.360  10.034  1.00 26.63     0.034 C 
BRANCH   8   9
ATOM      9  CG  LYS A 135      30.794  35.481   9.226  1.00 29.45     0.005 C 
BRANCH   9  10
ATOM     10  CD  LYS A 135      30.213  34.107   8.929  1.00 32.00     0.041 C 
BRANCH  10  11
ATOM     11  CE  LYS A 135      28.706  34.117   9.101  1.00 34.25     0.338 C 
ATOM     12  NZ  LYS A 135      28.196  35.504   9.281  1.00 35.99     0.618 N 
ENDBRANCH  10  11
ENDBRANCH   9  10
ENDBRANCH   8   9
ENDBRANCH   7   8
END_RES LYS A 135
