REMARK VINA RESULT:    -4.501      2.647      4.755
REMARK INTER + INTRA:         -14.348
REMARK INTER:                  -7.773
REMARK INTRA:                  -6.575
REMARK UNBOUND:                -6.295
REMARK SMILES CC(=O)N[C@@H]1[C@@H](O)C[C@](O)(C(=O)O)O[C@H]1C(O)[C@H](O)CNC(=O)OCc1cn(Cc2cccc(Br)c2)nn1
REMARK SMILES IDX 21 1 22 2 23 3 20 5 18 6 16 7 15 8 9 9 8 10 14 11 6 12 5 13
REMARK SMILES IDX 10 14 11 16 12 17 13 18 7 20 4 22 2 23 1 25 3 26 17 27 19 29
REMARK SMILES IDX 24 31 25 32 26 33 27 34 38 35 28 36 37 37 29 38 30 39 31 40
REMARK SMILES IDX 36 41 32 42 34 43 33 44 35 45
REMARK H PARENT 21 4 10 15 13 19 7 21 4 24 17 28 19 30
REMARK Flexibility Score: inf
ROOT
ATOM      1  N   UNL     1      32.221  33.707  14.631  1.00  0.00    -0.319 N 
ATOM      2  C   UNL     1      31.912  33.611  16.009  1.00  0.00     0.407 C 
ATOM      3  O   UNL     1      32.328  34.492  16.831  1.00  0.00    -0.225 OA
ATOM      4  H   UNL     1      31.861  32.965  13.995  1.00  0.00     0.167 HD
ENDROOT
BRANCH   1   5
ATOM      5  C   UNL     1      33.016  34.829  14.211  1.00  0.00     0.154 C 
BRANCH   5   6
ATOM      6  C   UNL     1      32.424  35.493  12.959  1.00  0.00     0.165 C 
BRANCH   6   7
ATOM      7  C   UNL     1      31.680  36.685  13.449  1.00  0.00     0.176 C 
BRANCH   7   8
ATOM      8  C   UNL     1      30.205  36.506  13.659  1.00  0.00     0.178 C 
ATOM      9  C   UNL     1      28.295  36.550  12.314  1.00  0.00     0.269 C 
ATOM     10  C   UNL     1      27.535  37.050  13.528  1.00  0.00     0.112 C 
ATOM     11  O   UNL     1      29.625  36.868  12.437  1.00  0.00    -0.332 OA
ATOM     12  C   UNL     1      28.394  37.992  14.355  1.00  0.00     0.145 C 
ATOM     13  C   UNL     1      29.617  37.188  14.834  1.00  0.00     0.142 C 
BRANCH   9  14
ATOM     14  O   UNL     1      27.823  37.328  11.235  1.00  0.00    -0.357 OA
ATOM     15  H   UNL     1      28.232  37.066  10.388  1.00  0.00     0.214 HD
ENDBRANCH   9  14
BRANCH   9  16
ATOM     16  C   UNL     1      28.008  35.147  12.006  1.00  0.00     0.364 C 
ATOM     17  O   UNL     1      28.811  34.475  11.318  1.00  0.00    -0.246 OA
BRANCH  16  18
ATOM     18  O   UNL     1      26.863  34.497  12.444  1.00  0.00    -0.477 OA
ATOM     19  H   UNL     1      26.355  33.916  11.807  1.00  0.00     0.296 HD
ENDBRANCH  16  18
ENDBRANCH   9  16
BRANCH  12  20
ATOM     20  O   UNL     1      28.752  39.108  13.644  1.00  0.00    -0.391 OA
ATOM     21  H   UNL     1      29.680  39.387  13.928  1.00  0.00     0.211 HD
ENDBRANCH  12  20
BRANCH  13  22
ATOM     22  N   UNL     1      29.053  36.228  15.791  1.00  0.00    -0.348 N 
ATOM     23  C   UNL     1      29.444  36.224  17.156  1.00  0.00     0.217 C 
ATOM     24  H   UNL     1      28.347  35.510  15.515  1.00  0.00     0.163 HD
ATOM     25  C   UNL     1      28.853  35.227  18.120  1.00  0.00     0.114 C 
ATOM     26  O   UNL     1      30.277  37.030  17.601  1.00  0.00    -0.275 OA
ENDBRANCH  13  22
ENDBRANCH   7   8
BRANCH   7  27
ATOM     27  O   UNL     1      31.783  37.655  12.417  1.00  0.00    -0.388 OA
ATOM     28  H   UNL     1      32.511  37.311  11.825  1.00  0.00     0.211 HD
ENDBRANCH   7  27
ENDBRANCH   6   7
BRANCH   6  29
ATOM     29  O   UNL     1      31.626  34.521  12.362  1.00  0.00    -0.388 OA
ATOM     30  H   UNL     1      30.771  34.483  12.843  1.00  0.00     0.211 HD
ENDBRANCH   6  29
ENDBRANCH   5   6
ENDBRANCH   1   5
BRANCH   2  31
ATOM     31  O   UNL     1      31.155  32.581  16.547  1.00  0.00    -0.443 OA
BRANCH  31  32
ATOM     32  C   UNL     1      30.277  31.773  15.786  1.00  0.00     0.294 C 
BRANCH  32  33
ATOM     33  C   UNL     1      28.922  32.379  15.697  1.00  0.00     0.120 A 
ATOM     34  C   UNL     1      27.791  31.984  16.421  1.00  0.00     0.138 A 
ATOM     35  N   UNL     1      28.500  33.404  14.934  1.00  0.00    -0.132 NA
ATOM     36  N   UNL     1      26.767  32.768  16.067  1.00  0.00    -0.248 N 
ATOM     37  N   UNL     1      27.221  33.619  15.167  1.00  0.00    -0.067 NA
BRANCH  36  38
ATOM     38  C   UNL     1      25.402  32.738  16.543  1.00  0.00     0.181 C 
BRANCH  38  39
ATOM     39  C   UNL     1      24.782  31.422  16.240  1.00  0.00    -0.025 A 
ATOM     40  C   UNL     1      24.499  30.519  17.242  1.00  0.00     0.006 A 
ATOM     41  C   UNL     1      24.482  31.087  14.949  1.00  0.00     0.021 A 
ATOM     42  C   UNL     1      23.916  29.281  16.958  1.00  0.00     0.002 A 
ATOM     43  C   UNL     1      23.901  29.854  14.654  1.00  0.00     0.018 A 
ATOM     44  C   UNL     1      23.618  28.950  15.665  1.00  0.00     0.016 A 
ATOM     45  Br  UNL     1      23.498  29.424  12.849  1.00  0.00    -0.051 Br
ENDBRANCH  38  39
ENDBRANCH  36  38
ENDBRANCH  32  33
ENDBRANCH  31  32
ENDBRANCH   2  31
TORSDOF 16
BEGIN_RES LYS A 131
REMARK  4 active torsions:
REMARK  status: ('A' for Active; 'I' for Inactive)
REMARK    1  A    between atoms: CA   and  CB  
REMARK    2  A    between atoms: CB   and  CG  
REMARK    3  A    between atoms: CG   and  CD  
REMARK    4  A    between atoms: CD   and  CE  
ROOT
ATOM      1  CA  LYS A 131      29.867  25.555  16.977  1.00 20.52     0.186 C 
ENDROOT
BRANCH   1   2
ATOM      2  CB  LYS A 131      28.345  25.722  17.026  1.00 20.94     0.034 C 
BRANCH   2   3
ATOM      3  CG  LYS A 131      27.601  24.401  16.903  1.00 22.96     0.005 C 
BRANCH   3   4
ATOM      4  CD  LYS A 131      26.149  24.532  17.270  1.00 24.33     0.041 C 
BRANCH   4   5
ATOM      5  CE  LYS A 131      26.029  24.937  18.735  1.00 26.91     0.338 C 
ATOM      6  NZ  LYS A 131      24.688  25.507  19.008  1.00 27.40     0.618 N 
ENDBRANCH   4   5
ENDBRANCH   3   4
ENDBRANCH   2   3
ENDBRANCH   1   2
END_RES LYS A 131
BEGIN_RES LYS A 135
REMARK  4 active torsions:
REMARK  status: ('A' for Active; 'I' for Inactive)
REMARK    5  A    between atoms: CA   and  CB  
REMARK    6  A    between atoms: CB   and  CG  
REMARK    7  A    between atoms: CG   and  CD  
REMARK    8  A    between atoms: CD   and  CE  
ROOT
ATOM      7  CA  LYS A 135      33.193  34.663   9.290  1.00 25.02     0.186 C 
ENDROOT
BRANCH   7   8
ATOM      8  CB  LYS A 135      32.060  35.360  10.034  1.00 26.63     0.034 C 
BRANCH   8   9
ATOM      9  CG  LYS A 135      30.917  35.771   9.142  1.00 29.45     0.005 C 
BRANCH   9  10
ATOM     10  CD  LYS A 135      30.453  34.600   8.290  1.00 32.00     0.041 C 
BRANCH  10  11
ATOM     11  CE  LYS A 135      29.117  34.910   7.642  1.00 34.25     0.338 C 
ATOM     12  NZ  LYS A 135      28.620  36.252   8.052  1.00 35.99     0.618 N 
ENDBRANCH  10  11
ENDBRANCH   9  10
ENDBRANCH   8   9
ENDBRANCH   7   8
END_RES LYS A 135
