REMARK VINA RESULT:    -6.068      5.514     11.519
REMARK INTER + INTRA:         -15.989
REMARK INTER:                  -9.214
REMARK INTRA:                  -6.775
REMARK UNBOUND:                -4.777
REMARK SMILES CC(=O)N[C@@H]1[C@@H](O)C[C@](O)(C(=O)O)O[C@H]1C(O)[C@H](O)CNC(=O)OCc1cn(C(C)(C)C(=O)c2c[nH]c3ccccc23)nn1
REMARK SMILES IDX 21 1 22 2 23 3 20 5 18 6 16 7 15 8 9 9 8 10 14 11 6 12 5 13
REMARK SMILES IDX 10 14 11 16 12 17 13 18 7 20 4 22 2 23 1 25 3 26 17 27 19 29
REMARK SMILES IDX 24 31 25 32 26 33 27 34 44 35 28 36 43 37 29 38 30 39 31 40
REMARK SMILES IDX 32 41 33 42 34 43 35 44 42 45 36 46 37 47 41 48 38 50 40 51
REMARK SMILES IDX 39 52
REMARK H PARENT 21 4 10 15 13 19 7 21 4 24 17 28 19 30 36 49
REMARK Flexibility Score: inf
ROOT
ATOM      1  N   UNL     1      28.305  28.450  19.188  1.00  0.00    -0.319 N 
ATOM      2  C   UNL     1      27.265  28.442  18.229  1.00  0.00     0.407 C 
ATOM      3  O   UNL     1      26.418  27.545  18.213  1.00  0.00    -0.225 OA
ATOM      4  H   UNL     1      28.983  29.282  19.116  1.00  0.00     0.167 HD
ENDROOT
BRANCH   1   5
ATOM      5  C   UNL     1      28.518  27.465  20.214  1.00  0.00     0.154 C 
BRANCH   5   6
ATOM      6  C   UNL     1      29.727  27.653  21.053  1.00  0.00     0.165 C 
BRANCH   6   7
ATOM      7  C   UNL     1      30.941  28.134  20.274  1.00  0.00     0.176 C 
BRANCH   7   8
ATOM      8  C   UNL     1      31.623  29.288  20.963  1.00  0.00     0.178 C 
ATOM      9  C   UNL     1      32.703  28.778  22.949  1.00  0.00     0.269 C 
ATOM     10  C   UNL     1      32.264  30.044  23.652  1.00  0.00     0.112 C 
ATOM     11  O   UNL     1      32.797  28.954  21.574  1.00  0.00    -0.332 OA
ATOM     12  C   UNL     1      31.525  30.974  22.713  1.00  0.00     0.145 C 
ATOM     13  C   UNL     1      30.661  30.067  21.834  1.00  0.00     0.142 C 
BRANCH   9  14
ATOM     14  O   UNL     1      31.892  27.686  23.256  1.00  0.00    -0.357 OA
ATOM     15  H   UNL     1      32.048  26.936  22.613  1.00  0.00     0.214 HD
ENDBRANCH   9  14
BRANCH   9  16
ATOM     16  C   UNL     1      34.068  28.456  23.443  1.00  0.00     0.364 C 
ATOM     17  O   UNL     1      34.203  27.847  24.551  1.00  0.00    -0.246 OA
BRANCH  16  18
ATOM     18  O   UNL     1      35.218  28.783  22.762  1.00  0.00    -0.477 OA
ATOM     19  H   UNL     1      36.133  28.432  23.015  1.00  0.00     0.296 HD
ENDBRANCH  16  18
ENDBRANCH   9  16
BRANCH  12  20
ATOM     20  O   UNL     1      30.765  31.905  23.381  1.00  0.00    -0.391 OA
ATOM     21  H   UNL     1      31.255  32.786  23.345  1.00  0.00     0.211 HD
ENDBRANCH  12  20
BRANCH  13  22
ATOM     22  N   UNL     1      29.765  30.830  21.009  1.00  0.00    -0.348 N 
ATOM     23  C   UNL     1      28.401  31.084  21.395  1.00  0.00     0.217 C 
ATOM     24  H   UNL     1      30.042  31.245  20.085  1.00  0.00     0.163 HD
ATOM     25  C   UNL     1      27.458  31.854  20.585  1.00  0.00     0.114 C 
ATOM     26  O   UNL     1      28.038  30.592  22.512  1.00  0.00    -0.275 OA
ENDBRANCH  13  22
ENDBRANCH   7   8
BRANCH   7  27
ATOM     27  O   UNL     1      31.809  27.040  20.223  1.00  0.00    -0.388 OA
ATOM     28  H   UNL     1      32.676  27.222  20.634  1.00  0.00     0.211 HD
ENDBRANCH   7  27
ENDBRANCH   6   7
BRANCH   6  29
ATOM     29  O   UNL     1      30.096  26.467  21.659  1.00  0.00    -0.388 OA
ATOM     30  H   UNL     1      30.978  26.203  21.290  1.00  0.00     0.211 HD
ENDBRANCH   6  29
ENDBRANCH   5   6
ENDBRANCH   1   5
BRANCH   2  31
ATOM     31  O   UNL     1      27.144  29.442  17.262  1.00  0.00    -0.443 OA
BRANCH  31  32
ATOM     32  C   UNL     1      28.237  29.817  16.477  1.00  0.00     0.294 C 
BRANCH  32  33
ATOM     33  C   UNL     1      28.900  31.017  17.050  1.00  0.00     0.120 A 
ATOM     34  C   UNL     1      28.609  32.337  16.740  1.00  0.00     0.139 A 
ATOM     35  N   UNL     1      29.889  31.093  17.964  1.00  0.00    -0.132 NA
ATOM     36  N   UNL     1      29.411  33.150  17.456  1.00  0.00    -0.239 N 
ATOM     37  N   UNL     1      30.177  32.362  18.190  1.00  0.00    -0.066 NA
BRANCH  36  38
ATOM     38  C   UNL     1      29.415  34.625  17.413  1.00  0.00     0.122 C 
ATOM     39  C   UNL     1      28.363  35.089  16.465  1.00  0.00     0.046 C 
ATOM     40  C   UNL     1      29.063  35.027  18.858  1.00  0.00     0.046 C 
BRANCH  38  41
ATOM     41  C   UNL     1      30.785  35.049  17.134  1.00  0.00     0.192 C 
ATOM     42  O   UNL     1      31.487  35.636  18.031  1.00  0.00    -0.291 OA
BRANCH  41  43
ATOM     43  C   UNL     1      31.477  34.869  15.864  1.00  0.00     0.045 A 
ATOM     44  C   UNL     1      32.216  33.740  15.513  1.00  0.00     0.095 A 
ATOM     45  C   UNL     1      31.526  35.787  14.847  1.00  0.00     0.010 A 
ATOM     46  N   UNL     1      32.705  33.978  14.297  1.00  0.00    -0.360 N 
ATOM     47  C   UNL     1      32.317  35.194  13.858  1.00  0.00     0.046 A 
ATOM     48  C   UNL     1      30.987  37.053  14.639  1.00  0.00     0.011 A 
ATOM     49  H   UNL     1      33.298  33.334  13.753  1.00  0.00     0.166 HD
ATOM     50  C   UNL     1      32.538  35.900  12.692  1.00  0.00     0.027 A 
ATOM     51  C   UNL     1      31.227  37.721  13.474  1.00  0.00     0.001 A 
ATOM     52  C   UNL     1      31.998  37.150  12.506  1.00  0.00     0.002 A 
ENDBRANCH  41  43
ENDBRANCH  38  41
ENDBRANCH  36  38
ENDBRANCH  32  33
ENDBRANCH  31  32
ENDBRANCH   2  31
TORSDOF 17
BEGIN_RES LYS A 131
REMARK  4 active torsions:
REMARK  status: ('A' for Active; 'I' for Inactive)
REMARK    1  A    between atoms: CA   and  CB  
REMARK    2  A    between atoms: CB   and  CG  
REMARK    3  A    between atoms: CG   and  CD  
REMARK    4  A    between atoms: CD   and  CE  
ROOT
ATOM      1  CA  LYS A 131      29.867  25.555  16.977  1.00 20.52     0.186 C 
ENDROOT
BRANCH   1   2
ATOM      2  CB  LYS A 131      28.345  25.722  17.026  1.00 20.94     0.034 C 
BRANCH   2   3
ATOM      3  CG  LYS A 131      27.599  24.428  16.740  1.00 22.96     0.005 C 
BRANCH   3   4
ATOM      4  CD  LYS A 131      26.954  23.861  17.974  1.00 24.33     0.041 C 
BRANCH   4   5
ATOM      5  CE  LYS A 131      25.561  23.345  17.629  1.00 26.91     0.338 C 
ATOM      6  NZ  LYS A 131      24.790  24.380  16.900  1.00 27.40     0.618 N 
ENDBRANCH   4   5
ENDBRANCH   3   4
ENDBRANCH   2   3
ENDBRANCH   1   2
END_RES LYS A 131
BEGIN_RES LYS A 135
REMARK  4 active torsions:
REMARK  status: ('A' for Active; 'I' for Inactive)
REMARK    5  A    between atoms: CA   and  CB  
REMARK    6  A    between atoms: CB   and  CG  
REMARK    7  A    between atoms: CG   and  CD  
REMARK    8  A    between atoms: CD   and  CE  
ROOT
ATOM      7  CA  LYS A 135      33.193  34.663   9.290  1.00 25.02     0.186 C 
ENDROOT
BRANCH   7   8
ATOM      8  CB  LYS A 135      32.060  35.360  10.034  1.00 26.63     0.034 C 
BRANCH   8   9
ATOM      9  CG  LYS A 135      30.697  34.799   9.719  1.00 29.45     0.005 C 
BRANCH   9  10
ATOM     10  CD  LYS A 135      30.570  34.499   8.234  1.00 32.00     0.041 C 
BRANCH  10  11
ATOM     11  CE  LYS A 135      29.195  34.889   7.727  1.00 34.25     0.338 C 
ATOM     12  NZ  LYS A 135      28.132  34.466   8.681  1.00 35.99     0.618 N 
ENDBRANCH  10  11
ENDBRANCH   9  10
ENDBRANCH   8   9
ENDBRANCH   7   8
END_RES LYS A 135
