REMARK VINA RESULT:    -4.767      3.837      7.375
REMARK INTER + INTRA:         -16.021
REMARK INTER:                 -11.622
REMARK INTRA:                  -4.399
REMARK UNBOUND:                -6.934
REMARK SMILES CC(=O)N[C@@H]1[C@@H](O)C[C@](O)(C(=O)O)O[C@H]1C(O)[C@H](O)CNC(=O)OCc1cn(C(C)CC(=O)c2ccccc2)nn1
REMARK SMILES IDX 21 1 22 2 23 3 20 5 18 6 16 7 15 8 9 9 8 10 14 11 6 12 5 13
REMARK SMILES IDX 10 14 11 16 12 17 13 18 7 20 4 22 2 23 1 25 3 26 17 27 19 29
REMARK SMILES IDX 24 31 25 32 26 33 27 34 41 35 28 36 40 37 29 38 30 39 31 40
REMARK SMILES IDX 32 41 33 42 34 43 35 44 39 45 36 46 38 47 37 48
REMARK H PARENT 21 4 10 15 13 19 7 21 4 24 17 28 19 30
REMARK Flexibility Score: inf
ROOT
ATOM      1  N   UNL     1      24.937  34.860  15.528  1.00  0.00    -0.319 N 
ATOM      2  C   UNL     1      24.125  33.698  15.662  1.00  0.00     0.407 C 
ATOM      3  O   UNL     1      24.486  32.804  16.449  1.00  0.00    -0.225 OA
ATOM      4  H   UNL     1      24.559  35.579  14.838  1.00  0.00     0.167 HD
ENDROOT
BRANCH   1   5
ATOM      5  C   UNL     1      26.173  35.081  16.246  1.00  0.00     0.154 C 
BRANCH   5   6
ATOM      6  C   UNL     1      27.357  35.194  15.312  1.00  0.00     0.165 C 
BRANCH   6   7
ATOM      7  C   UNL     1      28.234  33.961  15.361  1.00  0.00     0.176 C 
BRANCH   7   8
ATOM      8  C   UNL     1      29.414  34.115  16.273  1.00  0.00     0.178 C 
ATOM      9  C   UNL     1      31.299  33.923  14.909  1.00  0.00     0.269 C 
ATOM     10  C   UNL     1      31.671  32.587  15.502  1.00  0.00     0.112 C 
ATOM     11  O   UNL     1      30.498  34.708  15.683  1.00  0.00    -0.332 OA
ATOM     12  C   UNL     1      30.496  31.852  16.075  1.00  0.00     0.145 C 
ATOM     13  C   UNL     1      29.763  32.817  16.979  1.00  0.00     0.142 C 
BRANCH   9  14
ATOM     14  O   UNL     1      30.812  33.731  13.597  1.00  0.00    -0.357 OA
ATOM     15  H   UNL     1      30.410  32.849  13.477  1.00  0.00     0.214 HD
ENDBRANCH   9  14
BRANCH   9  16
ATOM     16  C   UNL     1      32.602  34.666  14.743  1.00  0.00     0.364 C 
ATOM     17  O   UNL     1      32.815  35.790  15.218  1.00  0.00    -0.246 OA
BRANCH  16  18
ATOM     18  O   UNL     1      33.577  33.982  13.999  1.00  0.00    -0.477 OA
ATOM     19  H   UNL     1      34.557  34.178  14.127  1.00  0.00     0.296 HD
ENDBRANCH  16  18
ENDBRANCH   9  16
BRANCH  12  20
ATOM     20  O   UNL     1      29.684  31.296  15.115  1.00  0.00    -0.391 OA
ATOM     21  H   UNL     1      30.190  31.171  14.277  1.00  0.00     0.211 HD
ENDBRANCH  12  20
BRANCH  13  22
ATOM     22  N   UNL     1      30.731  33.185  18.026  1.00  0.00    -0.348 N 
ATOM     23  C   UNL     1      30.586  32.628  19.326  1.00  0.00     0.217 C 
ATOM     24  H   UNL     1      31.518  33.837  17.846  1.00  0.00     0.163 HD
ATOM     25  C   UNL     1      31.573  33.008  20.370  1.00  0.00     0.114 C 
ATOM     26  O   UNL     1      29.639  31.841  19.544  1.00  0.00    -0.275 OA
ENDBRANCH  13  22
ENDBRANCH   7   8
BRANCH   7  27
ATOM     27  O   UNL     1      27.416  32.903  15.764  1.00  0.00    -0.388 OA
ATOM     28  H   UNL     1      26.557  32.944  15.247  1.00  0.00     0.211 HD
ENDBRANCH   7  27
ENDBRANCH   6   7
BRANCH   6  29
ATOM     29  O   UNL     1      28.106  36.335  15.666  1.00  0.00    -0.388 OA
ATOM     30  H   UNL     1      29.053  36.252  15.393  1.00  0.00     0.211 HD
ENDBRANCH   6  29
ENDBRANCH   5   6
ENDBRANCH   1   5
BRANCH   2  31
ATOM     31  O   UNL     1      22.954  33.523  14.960  1.00  0.00    -0.443 OA
BRANCH  31  32
ATOM     32  C   UNL     1      22.857  33.182  13.595  1.00  0.00     0.294 C 
BRANCH  32  33
ATOM     33  C   UNL     1      23.880  33.788  12.739  1.00  0.00     0.120 A 
ATOM     34  C   UNL     1      23.649  34.729  11.727  1.00  0.00     0.138 A 
ATOM     35  N   UNL     1      25.223  33.589  12.731  1.00  0.00    -0.132 NA
ATOM     36  N   UNL     1      24.807  35.043  11.180  1.00  0.00    -0.249 N 
ATOM     37  N   UNL     1      25.732  34.357  11.787  1.00  0.00    -0.067 NA
BRANCH  36  38
ATOM     38  C   UNL     1      24.993  36.019  10.061  1.00  0.00     0.114 C 
ATOM     39  C   UNL     1      26.054  36.961  10.567  1.00  0.00     0.034 C 
BRANCH  38  40
ATOM     40  C   UNL     1      25.413  35.249   8.898  1.00  0.00     0.108 C 
BRANCH  40  41
ATOM     41  C   UNL     1      26.624  35.568   8.209  1.00  0.00     0.164 C 
ATOM     42  O   UNL     1      26.437  36.481   7.251  1.00  0.00    -0.294 OA
BRANCH  41  43
ATOM     43  C   UNL     1      27.979  35.127   8.314  1.00  0.00     0.018 A 
ATOM     44  C   UNL     1      28.348  34.339   9.432  1.00  0.00     0.012 A 
ATOM     45  C   UNL     1      28.976  35.384   7.405  1.00  0.00     0.012 A 
ATOM     46  C   UNL     1      29.628  33.869   9.587  1.00  0.00     0.001 A 
ATOM     47  C   UNL     1      30.260  34.892   7.594  1.00  0.00     0.001 A 
ATOM     48  C   UNL     1      30.610  34.139   8.666  1.00  0.00     0.000 A 
ENDBRANCH  41  43
ENDBRANCH  40  41
ENDBRANCH  38  40
ENDBRANCH  36  38
ENDBRANCH  32  33
ENDBRANCH  31  32
ENDBRANCH   2  31
TORSDOF 18
BEGIN_RES LYS A 131
REMARK  4 active torsions:
REMARK  status: ('A' for Active; 'I' for Inactive)
REMARK    1  A    between atoms: CA   and  CB  
REMARK    2  A    between atoms: CB   and  CG  
REMARK    3  A    between atoms: CG   and  CD  
REMARK    4  A    between atoms: CD   and  CE  
ROOT
ATOM      1  CA  LYS A 131      29.867  25.555  16.977  1.00 20.52     0.186 C 
ENDROOT
BRANCH   1   2
ATOM      2  CB  LYS A 131      28.345  25.722  17.026  1.00 20.94     0.034 C 
BRANCH   2   3
ATOM      3  CG  LYS A 131      27.601  24.404  16.873  1.00 22.96     0.005 C 
BRANCH   3   4
ATOM      4  CD  LYS A 131      26.618  24.176  17.988  1.00 24.33     0.041 C 
BRANCH   4   5
ATOM      5  CE  LYS A 131      25.344  24.968  17.713  1.00 26.91     0.338 C 
ATOM      6  NZ  LYS A 131      24.458  24.222  16.789  1.00 27.40     0.618 N 
ENDBRANCH   4   5
ENDBRANCH   3   4
ENDBRANCH   2   3
ENDBRANCH   1   2
END_RES LYS A 131
BEGIN_RES LYS A 135
REMARK  4 active torsions:
REMARK  status: ('A' for Active; 'I' for Inactive)
REMARK    5  A    between atoms: CA   and  CB  
REMARK    6  A    between atoms: CB   and  CG  
REMARK    7  A    between atoms: CG   and  CD  
REMARK    8  A    between atoms: CD   and  CE  
ROOT
ATOM      7  CA  LYS A 135      33.193  34.663   9.290  1.00 25.02     0.186 C 
ENDROOT
BRANCH   7   8
ATOM      8  CB  LYS A 135      32.060  35.360  10.034  1.00 26.63     0.034 C 
BRANCH   8   9
ATOM      9  CG  LYS A 135      32.497  36.018  11.317  1.00 29.45     0.005 C 
BRANCH   9  10
ATOM     10  CD  LYS A 135      31.875  37.399  11.451  1.00 32.00     0.041 C 
BRANCH  10  11
ATOM     11  CE  LYS A 135      31.026  37.482  12.705  1.00 34.25     0.338 C 
ATOM     12  NZ  LYS A 135      29.761  36.713  12.548  1.00 35.99     0.618 N 
ENDBRANCH  10  11
ENDBRANCH   9  10
ENDBRANCH   8   9
ENDBRANCH   7   8
END_RES LYS A 135
