REMARK VINA RESULT:    -5.005      2.438      7.309
REMARK INTER + INTRA:         -14.680
REMARK INTER:                  -7.697
REMARK INTRA:                  -6.983
REMARK UNBOUND:                -5.578
REMARK SMILES CC(=O)N[C@@H]1[C@@H](O)C[C@](O)(C(=O)O)O[C@H]1C(O)[C@H](O)CNC(=O)OCc1cn(C(C)(C)C(=O)O)nn1
REMARK SMILES IDX 21 1 22 2 23 3 20 5 18 6 16 7 15 8 9 9 8 10 14 11 6 12 5 13
REMARK SMILES IDX 10 14 11 16 12 17 13 18 7 20 4 22 2 23 1 25 3 26 17 27 19 29
REMARK SMILES IDX 24 31 25 32 26 33 27 34 36 35 28 36 35 37 29 38 30 39 31 40
REMARK SMILES IDX 32 41 33 42 34 43
REMARK H PARENT 21 4 10 15 13 19 7 21 4 24 17 28 19 30 34 44
REMARK Flexibility Score: inf
ROOT
ATOM      1  N   UNL     1      31.481  32.286  15.070  1.00  0.00    -0.319 N 
ATOM      2  C   UNL     1      31.875  33.551  15.566  1.00  0.00     0.407 C 
ATOM      3  O   UNL     1      31.513  33.937  16.730  1.00  0.00    -0.225 OA
ATOM      4  H   UNL     1      31.782  31.981  14.126  1.00  0.00     0.167 HD
ENDROOT
BRANCH   1   5
ATOM      5  C   UNL     1      30.665  31.453  15.917  1.00  0.00     0.154 C 
BRANCH   5   6
ATOM      6  C   UNL     1      29.271  31.237  15.445  1.00  0.00     0.165 C 
BRANCH   6   7
ATOM      7  C   UNL     1      28.288  32.246  15.983  1.00  0.00     0.176 C 
BRANCH   7   8
ATOM      8  C   UNL     1      26.932  31.546  16.134  1.00  0.00     0.178 C 
ATOM      9  C   UNL     1      24.758  31.790  15.344  1.00  0.00     0.269 C 
ATOM     10  C   UNL     1      24.201  31.621  16.741  1.00  0.00     0.112 C 
ATOM     11  O   UNL     1      26.052  32.251  15.321  1.00  0.00    -0.332 OA
ATOM     12  C   UNL     1      25.143  32.217  17.746  1.00  0.00     0.145 C 
ATOM     13  C   UNL     1      26.506  31.574  17.586  1.00  0.00     0.142 C 
BRANCH   9  14
ATOM     14  O   UNL     1      23.975  32.781  14.731  1.00  0.00    -0.357 OA
ATOM     15  H   UNL     1      23.041  32.676  14.991  1.00  0.00     0.214 HD
ENDBRANCH   9  14
BRANCH   9  16
ATOM     16  C   UNL     1      24.602  30.542  14.566  1.00  0.00     0.364 C 
ATOM     17  O   UNL     1      24.357  29.468  15.151  1.00  0.00    -0.246 OA
BRANCH  16  18
ATOM     18  O   UNL     1      24.720  30.517  13.185  1.00  0.00    -0.477 OA
ATOM     19  H   UNL     1      24.720  31.358  12.627  1.00  0.00     0.296 HD
ENDBRANCH  16  18
ENDBRANCH   9  16
BRANCH  12  20
ATOM     20  O   UNL     1      25.199  33.588  17.694  1.00  0.00    -0.391 OA
ATOM     21  H   UNL     1      26.066  33.976  17.942  1.00  0.00     0.211 HD
ENDBRANCH  12  20
BRANCH  13  22
ATOM     22  N   UNL     1      26.392  30.218  18.121  1.00  0.00    -0.348 N 
ATOM     23  C   UNL     1      27.483  29.590  18.783  1.00  0.00     0.217 C 
ATOM     24  H   UNL     1      25.500  29.691  18.020  1.00  0.00     0.163 HD
ATOM     25  C   UNL     1      27.383  28.207  19.335  1.00  0.00     0.114 C 
ATOM     26  O   UNL     1      28.549  30.276  18.879  1.00  0.00    -0.275 OA
ENDBRANCH  13  22
ENDBRANCH   7   8
BRANCH   7  27
ATOM     27  O   UNL     1      28.664  32.865  17.142  1.00  0.00    -0.388 OA
ATOM     28  H   UNL     1      28.080  33.621  17.342  1.00  0.00     0.211 HD
ENDBRANCH   7  27
ENDBRANCH   6   7
BRANCH   6  29
ATOM     29  O   UNL     1      28.898  29.949  15.910  1.00  0.00    -0.388 OA
ATOM     30  H   UNL     1      28.011  29.717  15.509  1.00  0.00     0.211 HD
ENDBRANCH   6  29
ENDBRANCH   5   6
ENDBRANCH   1   5
BRANCH   2  31
ATOM     31  O   UNL     1      32.654  34.443  14.859  1.00  0.00    -0.443 OA
BRANCH  31  32
ATOM     32  C   UNL     1      32.138  35.717  14.434  1.00  0.00     0.294 C 
BRANCH  32  33
ATOM     33  C   UNL     1      30.841  35.470  13.752  1.00  0.00     0.120 A 
ATOM     34  C   UNL     1      29.670  36.179  13.969  1.00  0.00     0.139 A 
ATOM     35  N   UNL     1      30.519  34.553  12.820  1.00  0.00    -0.132 NA
ATOM     36  N   UNL     1      28.690  35.684  13.179  1.00  0.00    -0.235 N 
ATOM     37  N   UNL     1      29.242  34.699  12.496  1.00  0.00    -0.066 NA
BRANCH  36  38
ATOM     38  C   UNL     1      27.325  36.165  13.122  1.00  0.00     0.155 C 
ATOM     39  C   UNL     1      27.173  37.412  13.968  1.00  0.00     0.049 C 
ATOM     40  C   UNL     1      26.961  36.475  11.685  1.00  0.00     0.049 C 
BRANCH  38  41
ATOM     41  C   UNL     1      26.378  35.151  13.672  1.00  0.00     0.331 C 
ATOM     42  O   UNL     1      25.762  34.429  12.847  1.00  0.00    -0.250 OA
BRANCH  41  43
ATOM     43  O   UNL     1      26.171  34.992  15.028  1.00  0.00    -0.479 OA
ATOM     44  H   UNL     1      25.440  35.553  15.457  1.00  0.00     0.296 HD
ENDBRANCH  41  43
ENDBRANCH  38  41
ENDBRANCH  36  38
ENDBRANCH  32  33
ENDBRANCH  31  32
ENDBRANCH   2  31
TORSDOF 17
BEGIN_RES LYS A 131
REMARK  4 active torsions:
REMARK  status: ('A' for Active; 'I' for Inactive)
REMARK    1  A    between atoms: CA   and  CB  
REMARK    2  A    between atoms: CB   and  CG  
REMARK    3  A    between atoms: CG   and  CD  
REMARK    4  A    between atoms: CD   and  CE  
ROOT
ATOM      1  CA  LYS A 131      29.867  25.555  16.977  1.00 20.52     0.186 C 
ENDROOT
BRANCH   1   2
ATOM      2  CB  LYS A 131      28.345  25.722  17.026  1.00 20.94     0.034 C 
BRANCH   2   3
ATOM      3  CG  LYS A 131      27.602  24.399  16.922  1.00 22.96     0.005 C 
BRANCH   3   4
ATOM      4  CD  LYS A 131      26.153  24.532  17.300  1.00 24.33     0.041 C 
BRANCH   4   5
ATOM      5  CE  LYS A 131      25.942  23.992  18.710  1.00 26.91     0.338 C 
ATOM      6  NZ  LYS A 131      25.513  25.078  19.624  1.00 27.40     0.618 N 
ENDBRANCH   4   5
ENDBRANCH   3   4
ENDBRANCH   2   3
ENDBRANCH   1   2
END_RES LYS A 131
BEGIN_RES LYS A 135
REMARK  4 active torsions:
REMARK  status: ('A' for Active; 'I' for Inactive)
REMARK    5  A    between atoms: CA   and  CB  
REMARK    6  A    between atoms: CB   and  CG  
REMARK    7  A    between atoms: CG   and  CD  
REMARK    8  A    between atoms: CD   and  CE  
ROOT
ATOM      7  CA  LYS A 135      33.193  34.663   9.290  1.00 25.02     0.186 C 
ENDROOT
BRANCH   7   8
ATOM      8  CB  LYS A 135      32.060  35.360  10.034  1.00 26.63     0.034 C 
BRANCH   8   9
ATOM      9  CG  LYS A 135      30.815  35.540   9.204  1.00 29.45     0.005 C 
BRANCH   9  10
ATOM     10  CD  LYS A 135      30.115  34.207   8.990  1.00 32.00     0.041 C 
BRANCH  10  11
ATOM     11  CE  LYS A 135      28.683  34.423   8.542  1.00 34.25     0.338 C 
ATOM     12  NZ  LYS A 135      27.728  33.710   9.436  1.00 35.99     0.618 N 
ENDBRANCH  10  11
ENDBRANCH   9  10
ENDBRANCH   8   9
ENDBRANCH   7   8
END_RES LYS A 135
