REMARK VINA RESULT:    -4.937      2.399      5.167
REMARK INTER + INTRA:         -13.702
REMARK INTER:                  -7.165
REMARK INTRA:                  -6.537
REMARK UNBOUND:                -4.724
REMARK SMILES CC(=O)N[C@@H]1[C@@H](O)C[C@](O)(C(=O)O)O[C@H]1C(O)[C@H](O)CNC(=O)OCc1cn([C@@H](C)C(=O)O)nn1
REMARK SMILES IDX 21 1 22 2 23 3 20 5 18 6 16 7 15 8 9 9 8 10 14 11 6 12 5 13
REMARK SMILES IDX 10 14 11 16 12 17 13 18 7 20 4 22 2 23 1 25 3 26 17 27 19 29
REMARK SMILES IDX 24 31 25 32 26 33 27 34 35 35 28 36 34 37 29 38 30 39 31 40
REMARK SMILES IDX 32 41 33 42
REMARK H PARENT 21 4 10 15 13 19 7 21 4 24 17 28 19 30 33 43
REMARK Flexibility Score: inf
ROOT
ATOM      1  N   UNL     1      27.993  29.349  16.776  1.00  0.00    -0.319 N 
ATOM      2  C   UNL     1      26.798  29.534  17.508  1.00  0.00     0.407 C 
ATOM      3  O   UNL     1      26.092  30.565  17.373  1.00  0.00    -0.225 OA
ATOM      4  H   UNL     1      28.540  28.481  16.924  1.00  0.00     0.167 HD
ENDROOT
BRANCH   1   5
ATOM      5  C   UNL     1      28.468  30.324  15.837  1.00  0.00     0.154 C 
BRANCH   5   6
ATOM      6  C   UNL     1      29.883  30.819  16.156  1.00  0.00     0.165 C 
BRANCH   6   7
ATOM      7  C   UNL     1      29.823  31.505  17.477  1.00  0.00     0.176 C 
BRANCH   7   8
ATOM      8  C   UNL     1      30.734  32.671  17.665  1.00  0.00     0.178 C 
ATOM      9  C   UNL     1      29.988  33.374  19.763  1.00  0.00     0.269 C 
ATOM     10  C   UNL     1      28.914  34.091  19.047  1.00  0.00     0.112 C 
ATOM     11  O   UNL     1      30.981  32.789  19.025  1.00  0.00    -0.332 OA
ATOM     12  C   UNL     1      29.250  34.684  17.725  1.00  0.00     0.145 C 
ATOM     13  C   UNL     1      30.355  33.950  17.021  1.00  0.00     0.142 C 
BRANCH   9  14
ATOM     14  O   UNL     1      29.357  32.304  20.451  1.00  0.00    -0.357 OA
ATOM     15  H   UNL     1      28.398  32.509  20.481  1.00  0.00     0.214 HD
ENDBRANCH   9  14
BRANCH   9  16
ATOM     16  C   UNL     1      30.554  34.260  20.817  1.00  0.00     0.364 C 
ATOM     17  O   UNL     1      30.519  33.950  22.039  1.00  0.00    -0.246 OA
BRANCH  16  18
ATOM     18  O   UNL     1      31.147  35.466  20.488  1.00  0.00    -0.477 OA
ATOM     19  H   UNL     1      31.920  35.870  21.005  1.00  0.00     0.296 HD
ENDBRANCH  16  18
ENDBRANCH   9  16
BRANCH  12  20
ATOM     20  O   UNL     1      28.069  34.696  16.959  1.00  0.00    -0.391 OA
ATOM     21  H   UNL     1      27.847  33.749  16.786  1.00  0.00     0.211 HD
ENDBRANCH  12  20
BRANCH  13  22
ATOM     22  N   UNL     1      31.564  34.798  17.045  1.00  0.00    -0.348 N 
ATOM     23  C   UNL     1      32.483  34.792  15.973  1.00  0.00     0.217 C 
ATOM     24  H   UNL     1      31.781  35.423  17.843  1.00  0.00     0.163 HD
ATOM     25  C   UNL     1      33.703  35.622  15.953  1.00  0.00     0.114 C 
ATOM     26  O   UNL     1      32.272  34.044  14.962  1.00  0.00    -0.275 OA
ENDBRANCH  13  22
ENDBRANCH   7   8
BRANCH   7  27
ATOM     27  O   UNL     1      30.289  30.531  18.418  1.00  0.00    -0.388 OA
ATOM     28  H   UNL     1      29.461  30.111  18.762  1.00  0.00     0.211 HD
ENDBRANCH   7  27
ENDBRANCH   6   7
BRANCH   6  29
ATOM     29  O   UNL     1      30.199  31.700  15.129  1.00  0.00    -0.388 OA
ATOM     30  H   UNL     1      29.475  31.635  14.455  1.00  0.00     0.211 HD
ENDBRANCH   6  29
ENDBRANCH   5   6
ENDBRANCH   1   5
BRANCH   2  31
ATOM     31  O   UNL     1      26.353  28.560  18.422  1.00  0.00    -0.443 OA
BRANCH  31  32
ATOM     32  C   UNL     1      27.256  27.619  18.973  1.00  0.00     0.294 C 
BRANCH  32  33
ATOM     33  C   UNL     1      28.188  28.267  19.930  1.00  0.00     0.120 A 
ATOM     34  C   UNL     1      29.391  27.734  20.400  1.00  0.00     0.139 A 
ATOM     35  N   UNL     1      28.090  29.470  20.539  1.00  0.00    -0.132 NA
ATOM     36  N   UNL     1      29.951  28.606  21.244  1.00  0.00    -0.238 N 
ATOM     37  N   UNL     1      29.162  29.648  21.323  1.00  0.00    -0.066 NA
BRANCH  36  38
ATOM     38  C   UNL     1      31.219  28.445  21.963  1.00  0.00     0.215 C 
ATOM     39  C   UNL     1      31.801  27.071  21.678  1.00  0.00     0.046 C 
BRANCH  38  40
ATOM     40  C   UNL     1      32.180  29.491  21.617  1.00  0.00     0.328 C 
ATOM     41  O   UNL     1      33.395  29.336  21.879  1.00  0.00    -0.250 OA
BRANCH  40  42
ATOM     42  O   UNL     1      31.832  30.689  20.997  1.00  0.00    -0.480 OA
ATOM     43  H   UNL     1      31.819  31.561  21.514  1.00  0.00     0.296 HD
ENDBRANCH  40  42
ENDBRANCH  38  40
ENDBRANCH  36  38
ENDBRANCH  32  33
ENDBRANCH  31  32
ENDBRANCH   2  31
TORSDOF 17
BEGIN_RES LYS A 131
REMARK  4 active torsions:
REMARK  status: ('A' for Active; 'I' for Inactive)
REMARK    1  A    between atoms: CA   and  CB  
REMARK    2  A    between atoms: CB   and  CG  
REMARK    3  A    between atoms: CG   and  CD  
REMARK    4  A    between atoms: CD   and  CE  
ROOT
ATOM      1  CA  LYS A 131      29.867  25.555  16.977  1.00 20.52     0.186 C 
ENDROOT
BRANCH   1   2
ATOM      2  CB  LYS A 131      28.345  25.722  17.026  1.00 20.94     0.034 C 
BRANCH   2   3
ATOM      3  CG  LYS A 131      27.602  24.400  16.914  1.00 22.96     0.005 C 
BRANCH   3   4
ATOM      4  CD  LYS A 131      26.155  24.528  17.304  1.00 24.33     0.041 C 
BRANCH   4   5
ATOM      5  CE  LYS A 131      25.870  23.630  18.503  1.00 26.91     0.338 C 
ATOM      6  NZ  LYS A 131      25.517  24.446  19.690  1.00 27.40     0.618 N 
ENDBRANCH   4   5
ENDBRANCH   3   4
ENDBRANCH   2   3
ENDBRANCH   1   2
END_RES LYS A 131
BEGIN_RES LYS A 135
REMARK  4 active torsions:
REMARK  status: ('A' for Active; 'I' for Inactive)
REMARK    5  A    between atoms: CA   and  CB  
REMARK    6  A    between atoms: CB   and  CG  
REMARK    7  A    between atoms: CG   and  CD  
REMARK    8  A    between atoms: CD   and  CE  
ROOT
ATOM      7  CA  LYS A 135      33.193  34.663   9.290  1.00 25.02     0.186 C 
ENDROOT
BRANCH   7   8
ATOM      8  CB  LYS A 135      32.060  35.360  10.034  1.00 26.63     0.034 C 
BRANCH   8   9
ATOM      9  CG  LYS A 135      30.778  35.434   9.246  1.00 29.45     0.005 C 
BRANCH   9  10
ATOM     10  CD  LYS A 135      30.219  34.041   8.999  1.00 32.00     0.041 C 
BRANCH  10  11
ATOM     11  CE  LYS A 135      28.727  34.010   9.271  1.00 34.25     0.338 C 
ATOM     12  NZ  LYS A 135      28.314  35.154  10.130  1.00 35.99     0.618 N 
ENDBRANCH  10  11
ENDBRANCH   9  10
ENDBRANCH   8   9
ENDBRANCH   7   8
END_RES LYS A 135
