REMARK VINA RESULT:    -6.049      9.044     14.323
REMARK INTER + INTRA:         -14.955
REMARK INTER:                  -8.894
REMARK INTRA:                  -6.061
REMARK UNBOUND:                -4.485
REMARK SMILES CC(=O)N[C@@H]1[C@@H](O)C[C@](O)(C(=O)O)O[C@H]1C(O)[C@H](O)CNC(=O)OCc1cn(-c2ccccc2)nn1
REMARK SMILES IDX 20 1 18 2 16 3 15 4 9 5 8 6 14 7 6 8 5 9 10 10 11 12 12 13
REMARK SMILES IDX 13 14 7 16 4 18 2 19 1 21 3 22 17 23 19 25 21 27 22 28 23 30
REMARK SMILES IDX 24 31 25 32 26 33 27 34 36 35 28 36 35 37 29 38 30 39 34 40
REMARK SMILES IDX 31 41 33 42 32 43
REMARK H PARENT 10 11 13 15 7 17 4 20 17 24 19 26 21 29
REMARK Flexibility Score: inf
ROOT
ATOM      1  C   UNL     1      27.417  28.566  19.860  1.00  0.00     0.154 C 
ENDROOT
BRANCH   1   2
ATOM      2  C   UNL     1      28.137  27.360  20.429  1.00  0.00     0.165 C 
BRANCH   2   3
ATOM      3  C   UNL     1      29.588  27.661  20.730  1.00  0.00     0.176 C 
BRANCH   3   4
ATOM      4  C   UNL     1      29.759  28.826  21.647  1.00  0.00     0.178 C 
ATOM      5  C   UNL     1      30.758  30.573  20.436  1.00  0.00     0.269 C 
ATOM      6  C   UNL     1      32.118  30.266  20.956  1.00  0.00     0.112 C 
ATOM      7  O   UNL     1      29.703  30.043  21.076  1.00  0.00    -0.332 OA
ATOM      8  C   UNL     1      32.213  29.015  21.778  1.00  0.00     0.145 C 
ATOM      9  C   UNL     1      30.961  28.715  22.540  1.00  0.00     0.142 C 
BRANCH   5  10
ATOM     10  O   UNL     1      30.731  30.121  19.099  1.00  0.00    -0.357 OA
ATOM     11  H   UNL     1      30.921  30.914  18.523  1.00  0.00     0.214 HD
ENDBRANCH   5  10
BRANCH   5  12
ATOM     12  C   UNL     1      30.568  32.046  20.357  1.00  0.00     0.364 C 
ATOM     13  O   UNL     1      30.608  32.786  21.364  1.00  0.00    -0.246 OA
BRANCH  12  14
ATOM     14  O   UNL     1      30.340  32.641  19.136  1.00  0.00    -0.477 OA
ATOM     15  H   UNL     1      30.669  33.562  18.877  1.00  0.00     0.296 HD
ENDBRANCH  12  14
ENDBRANCH   5  12
BRANCH   8  16
ATOM     16  O   UNL     1      32.549  27.921  20.961  1.00  0.00    -0.391 OA
ATOM     17  H   UNL     1      32.810  28.194  20.060  1.00  0.00     0.211 HD
ENDBRANCH   8  16
BRANCH   9  18
ATOM     18  N   UNL     1      30.823  29.738  23.579  1.00  0.00    -0.348 N 
ATOM     19  C   UNL     1      30.628  29.395  24.945  1.00  0.00     0.217 C 
ATOM     20  H   UNL     1      30.865  30.753  23.346  1.00  0.00     0.163 HD
ATOM     21  C   UNL     1      30.487  30.418  26.014  1.00  0.00     0.114 C 
ATOM     22  O   UNL     1      30.567  28.187  25.304  1.00  0.00    -0.275 OA
ENDBRANCH   9  18
ENDBRANCH   3   4
BRANCH   3  23
ATOM     23  O   UNL     1      30.096  26.486  21.308  1.00  0.00    -0.388 OA
ATOM     24  H   UNL     1      29.561  26.368  22.150  1.00  0.00     0.211 HD
ENDBRANCH   3  23
ENDBRANCH   2   3
BRANCH   2  25
ATOM     25  O   UNL     1      27.956  26.240  19.637  1.00  0.00    -0.388 OA
ATOM     26  H   UNL     1      27.172  25.710  19.889  1.00  0.00     0.211 HD
ENDBRANCH   2  25
ENDBRANCH   1   2
BRANCH   1  27
ATOM     27  N   UNL     1      27.925  28.993  18.594  1.00  0.00    -0.319 N 
ATOM     28  C   UNL     1      27.218  28.846  17.370  1.00  0.00     0.407 C 
ATOM     29  H   UNL     1      28.868  29.444  18.530  1.00  0.00     0.167 HD
ATOM     30  O   UNL     1      26.095  28.328  17.333  1.00  0.00    -0.225 OA
BRANCH  28  31
ATOM     31  O   UNL     1      27.760  29.278  16.165  1.00  0.00    -0.443 OA
BRANCH  31  32
ATOM     32  C   UNL     1      27.552  30.615  15.733  1.00  0.00     0.294 C 
BRANCH  32  33
ATOM     33  C   UNL     1      28.859  31.307  15.793  1.00  0.00     0.121 A 
ATOM     34  C   UNL     1      29.233  32.443  15.111  1.00  0.00     0.144 A 
ATOM     35  N   UNL     1      29.915  30.927  16.541  1.00  0.00    -0.131 NA
ATOM     36  N   UNL     1      30.499  32.699  15.477  1.00  0.00    -0.220 N 
ATOM     37  N   UNL     1      30.895  31.783  16.336  1.00  0.00    -0.062 NA
BRANCH  36  38
ATOM     38  C   UNL     1      31.275  33.794  15.003  1.00  0.00     0.066 A 
ATOM     39  C   UNL     1      32.335  34.252  15.766  1.00  0.00     0.028 A 
ATOM     40  C   UNL     1      30.979  34.398  13.796  1.00  0.00     0.028 A 
ATOM     41  C   UNL     1      33.069  35.317  15.276  1.00  0.00     0.002 A 
ATOM     42  C   UNL     1      31.718  35.454  13.324  1.00  0.00     0.002 A 
ATOM     43  C   UNL     1      32.775  35.914  14.079  1.00  0.00     0.000 A 
ENDBRANCH  36  38
ENDBRANCH  32  33
ENDBRANCH  31  32
ENDBRANCH  28  31
ENDBRANCH   1  27
TORSDOF 15
BEGIN_RES LYS A 131
REMARK  4 active torsions:
REMARK  status: ('A' for Active; 'I' for Inactive)
REMARK    1  A    between atoms: CA   and  CB  
REMARK    2  A    between atoms: CB   and  CG  
REMARK    3  A    between atoms: CG   and  CD  
REMARK    4  A    between atoms: CD   and  CE  
ROOT
ATOM      1  CA  LYS A 131      29.867  25.555  16.977  1.00 20.52     0.186 C 
ENDROOT
BRANCH   1   2
ATOM      2  CB  LYS A 131      28.345  25.722  17.026  1.00 20.94     0.034 C 
BRANCH   2   3
ATOM      3  CG  LYS A 131      27.600  24.411  16.826  1.00 22.96     0.005 C 
BRANCH   3   4
ATOM      4  CD  LYS A 131      26.140  24.532  17.165  1.00 24.33     0.041 C 
BRANCH   4   5
ATOM      5  CE  LYS A 131      25.568  23.147  17.452  1.00 26.91     0.338 C 
ATOM      6  NZ  LYS A 131      24.101  23.138  17.240  1.00 27.40     0.618 N 
ENDBRANCH   4   5
ENDBRANCH   3   4
ENDBRANCH   2   3
ENDBRANCH   1   2
END_RES LYS A 131
BEGIN_RES LYS A 135
REMARK  4 active torsions:
REMARK  status: ('A' for Active; 'I' for Inactive)
REMARK    5  A    between atoms: CA   and  CB  
REMARK    6  A    between atoms: CB   and  CG  
REMARK    7  A    between atoms: CG   and  CD  
REMARK    8  A    between atoms: CD   and  CE  
ROOT
ATOM      7  CA  LYS A 135      33.193  34.663   9.290  1.00 25.02     0.186 C 
ENDROOT
BRANCH   7   8
ATOM      8  CB  LYS A 135      32.060  35.360  10.034  1.00 26.63     0.034 C 
BRANCH   8   9
ATOM      9  CG  LYS A 135      30.707  34.746   9.784  1.00 29.45     0.005 C 
BRANCH   9  10
ATOM     10  CD  LYS A 135      30.486  34.522   8.295  1.00 32.00     0.041 C 
BRANCH  10  11
ATOM     11  CE  LYS A 135      29.067  34.889   7.907  1.00 34.25     0.338 C 
ATOM     12  NZ  LYS A 135      28.080  34.279   8.841  1.00 35.99     0.618 N 
ENDBRANCH  10  11
ENDBRANCH   9  10
ENDBRANCH   8   9
ENDBRANCH   7   8
END_RES LYS A 135
