REMARK VINA RESULT:    -4.885      3.992      8.734
REMARK INTER + INTRA:         -14.428
REMARK INTER:                  -9.311
REMARK INTRA:                  -5.118
REMARK UNBOUND:                -5.118
REMARK SMILES COc1ccc(Cn2cc(COC(=O)NC[C@@H](O)C(O)[C@@H]3O[C@@](O)(C(=O)O)C[C@H](O)[C@H]3NC(C)=O)nn2)cc1OC
REMARK SMILES IDX 15 1 13 2 14 3 16 5 17 6 19 7 21 8 23 9 28 10 22 11 29 12
REMARK SMILES IDX 31 13 24 14 25 16 26 17 27 18 30 20 32 22 33 23 34 25 35 26
REMARK SMILES IDX 20 27 18 29 12 31 11 32 10 33 9 34 36 35 8 36 37 37 7 38
REMARK SMILES IDX 6 39 38 40 5 41 39 42 4 43 3 44 40 45 41 46 2 47 1 48
REMARK H PARENT 15 4 24 15 27 19 30 21 32 24 20 28 18 30
REMARK Flexibility Score: inf
ROOT
ATOM      1  N   UNL     1      25.796  34.879  13.041  1.00  0.00    -0.319 N 
ATOM      2  C   UNL     1      25.682  35.494  14.294  1.00  0.00     0.407 C 
ATOM      3  O   UNL     1      24.680  35.314  15.020  1.00  0.00    -0.225 OA
ATOM      4  H   UNL     1      26.677  35.093  12.481  1.00  0.00     0.167 HD
ENDROOT
BRANCH   1   5
ATOM      5  C   UNL     1      24.826  33.980  12.441  1.00  0.00     0.154 C 
BRANCH   5   6
ATOM      6  C   UNL     1      23.773  34.740  11.717  1.00  0.00     0.165 C 
BRANCH   6   7
ATOM      7  C   UNL     1      24.300  35.713  10.691  1.00  0.00     0.176 C 
BRANCH   7   8
ATOM      8  C   UNL     1      23.553  35.726   9.400  1.00  0.00     0.178 C 
ATOM      9  C   UNL     1      24.258  37.640   8.268  1.00  0.00     0.269 C 
ATOM     10  C   UNL     1      22.942  37.862   7.536  1.00  0.00     0.112 C 
ATOM     11  O   UNL     1      24.404  36.288   8.427  1.00  0.00    -0.332 OA
ATOM     12  C   UNL     1      22.004  36.735   7.858  1.00  0.00     0.145 C 
ATOM     13  C   UNL     1      22.193  36.275   9.351  1.00  0.00     0.142 C 
BRANCH   9  14
ATOM     14  O   UNL     1      24.314  38.383   9.442  1.00  0.00    -0.357 OA
ATOM     15  H   UNL     1      25.123  38.955   9.493  1.00  0.00     0.214 HD
ENDBRANCH   9  14
BRANCH   9  16
ATOM     16  C   UNL     1      25.377  38.122   7.407  1.00  0.00     0.364 C 
ATOM     17  O   UNL     1      25.604  39.353   7.344  1.00  0.00    -0.246 OA
BRANCH  16  18
ATOM     18  O   UNL     1      26.178  37.263   6.671  1.00  0.00    -0.477 OA
ATOM     19  H   UNL     1      25.869  36.319   6.406  1.00  0.00     0.296 HD
ENDBRANCH  16  18
ENDBRANCH   9  16
BRANCH  12  20
ATOM     20  O   UNL     1      20.671  37.087   7.676  1.00  0.00    -0.391 OA
ATOM     21  H   UNL     1      20.148  36.342   7.312  1.00  0.00     0.211 HD
ENDBRANCH  12  20
BRANCH  13  22
ATOM     22  N   UNL     1      21.173  35.223   9.477  1.00  0.00    -0.348 N 
ATOM     23  C   UNL     1      20.177  35.203  10.482  1.00  0.00     0.217 C 
ATOM     24  H   UNL     1      21.153  34.414   8.789  1.00  0.00     0.163 HD
ATOM     25  C   UNL     1      19.163  34.125  10.588  1.00  0.00     0.114 C 
ATOM     26  O   UNL     1      20.136  36.130  11.330  1.00  0.00    -0.275 OA
ENDBRANCH  13  22
ENDBRANCH   7   8
BRANCH   7  27
ATOM     27  O   UNL     1      25.634  35.256  10.337  1.00  0.00    -0.388 OA
ATOM     28  H   UNL     1      26.222  35.485  11.097  1.00  0.00     0.211 HD
ENDBRANCH   7  27
ENDBRANCH   6   7
BRANCH   6  29
ATOM     29  O   UNL     1      22.731  35.207  12.475  1.00  0.00    -0.388 OA
ATOM     30  H   UNL     1      22.717  34.871  13.391  1.00  0.00     0.211 HD
ENDBRANCH   6  29
ENDBRANCH   5   6
ENDBRANCH   1   5
BRANCH   2  31
ATOM     31  O   UNL     1      26.700  36.343  14.781  1.00  0.00    -0.443 OA
BRANCH  31  32
ATOM     32  C   UNL     1      27.675  36.818  13.840  1.00  0.00     0.294 C 
BRANCH  32  33
ATOM     33  C   UNL     1      28.805  35.898  13.731  1.00  0.00     0.120 A 
ATOM     34  C   UNL     1      29.748  35.642  14.693  1.00  0.00     0.138 A 
ATOM     35  N   UNL     1      29.102  35.140  12.664  1.00  0.00    -0.132 NA
ATOM     36  N   UNL     1      30.593  34.743  14.200  1.00  0.00    -0.248 N 
ATOM     37  N   UNL     1      30.191  34.452  12.981  1.00  0.00    -0.067 NA
BRANCH  36  38
ATOM     38  C   UNL     1      31.762  34.173  14.861  1.00  0.00     0.181 C 
BRANCH  38  39
ATOM     39  C   UNL     1      31.286  33.236  15.925  1.00  0.00    -0.023 A 
ATOM     40  C   UNL     1      31.324  33.642  17.258  1.00  0.00     0.056 A 
ATOM     41  C   UNL     1      30.799  31.977  15.644  1.00  0.00     0.010 A 
ATOM     42  C   UNL     1      30.889  32.816  18.265  1.00  0.00     0.161 A 
ATOM     43  C   UNL     1      30.355  31.123  16.634  1.00  0.00     0.051 A 
ATOM     44  C   UNL     1      30.408  31.562  17.936  1.00  0.00     0.160 A 
BRANCH  42  45
ATOM     45  O   UNL     1      30.921  33.208  19.600  1.00  0.00    -0.493 OA
ATOM     46  C   UNL     1      31.944  34.096  20.016  1.00  0.00     0.278 C 
ENDBRANCH  42  45
BRANCH  44  47
ATOM     47  O   UNL     1      29.972  30.735  18.959  1.00  0.00    -0.493 OA
ATOM     48  C   UNL     1      28.612  30.369  19.100  1.00  0.00     0.278 C 
ENDBRANCH  44  47
ENDBRANCH  38  39
ENDBRANCH  36  38
ENDBRANCH  32  33
ENDBRANCH  31  32
ENDBRANCH   2  31
TORSDOF 18
BEGIN_RES LYS A 131
REMARK  4 active torsions:
REMARK  status: ('A' for Active; 'I' for Inactive)
REMARK    1  A    between atoms: CA   and  CB  
REMARK    2  A    between atoms: CB   and  CG  
REMARK    3  A    between atoms: CG   and  CD  
REMARK    4  A    between atoms: CD   and  CE  
ROOT
ATOM      1  CA  LYS A 131      29.867  25.555  16.977  1.00 20.52     0.186 C 
ENDROOT
BRANCH   1   2
ATOM      2  CB  LYS A 131      28.345  25.722  17.026  1.00 20.94     0.034 C 
BRANCH   2   3
ATOM      3  CG  LYS A 131      27.602  24.400  16.911  1.00 22.96     0.005 C 
BRANCH   3   4
ATOM      4  CD  LYS A 131      26.633  24.195  18.042  1.00 24.33     0.041 C 
BRANCH   4   5
ATOM      5  CE  LYS A 131      26.389  25.523  18.751  1.00 26.91     0.338 C 
ATOM      6  NZ  LYS A 131      24.991  25.970  18.550  1.00 27.40     0.618 N 
ENDBRANCH   4   5
ENDBRANCH   3   4
ENDBRANCH   2   3
ENDBRANCH   1   2
END_RES LYS A 131
BEGIN_RES LYS A 135
REMARK  4 active torsions:
REMARK  status: ('A' for Active; 'I' for Inactive)
REMARK    5  A    between atoms: CA   and  CB  
REMARK    6  A    between atoms: CB   and  CG  
REMARK    7  A    between atoms: CG   and  CD  
REMARK    8  A    between atoms: CD   and  CE  
ROOT
ATOM      7  CA  LYS A 135      33.193  34.663   9.290  1.00 25.02     0.186 C 
ENDROOT
BRANCH   7   8
ATOM      8  CB  LYS A 135      32.060  35.360  10.034  1.00 26.63     0.034 C 
BRANCH   8   9
ATOM      9  CG  LYS A 135      30.765  35.393   9.265  1.00 29.45     0.005 C 
BRANCH   9  10
ATOM     10  CD  LYS A 135      30.149  34.005   9.190  1.00 32.00     0.041 C 
BRANCH  10  11
ATOM     11  CE  LYS A 135      28.652  34.097   8.963  1.00 34.25     0.338 C 
ATOM     12  NZ  LYS A 135      28.340  34.967   7.795  1.00 35.99     0.618 N 
ENDBRANCH  10  11
ENDBRANCH   9  10
ENDBRANCH   8   9
ENDBRANCH   7   8
END_RES LYS A 135
