REMARK VINA RESULT:    -5.754      0.000      0.000
REMARK INTER + INTRA:         -15.585
REMARK INTER:                 -10.541
REMARK INTRA:                  -5.043
REMARK UNBOUND:                -5.290
REMARK SMILES CC(=O)N[C@@H]1[C@@H](O)C[C@](O)(C(=O)O)O[C@H]1C(O)[C@H](O)CNC(=O)OCc1cn(Cc2ccccc2)nn1
REMARK SMILES IDX 21 1 22 2 23 3 20 5 18 6 16 7 15 8 9 9 8 10 14 11 6 12 5 13
REMARK SMILES IDX 10 14 11 16 12 17 13 18 7 20 4 22 2 23 1 25 3 26 17 27 19 29
REMARK SMILES IDX 24 31 25 32 26 33 27 34 37 35 28 36 36 37 29 38 30 39 31 40
REMARK SMILES IDX 35 41 32 42 34 43 33 44
REMARK H PARENT 21 4 10 15 13 19 7 21 4 24 17 28 19 30
REMARK Flexibility Score: inf
ROOT
ATOM      1  N   UNL     1      24.923  41.081   6.944  1.00  0.00    -0.319 N 
ATOM      2  C   UNL     1      25.684  41.492   5.831  1.00  0.00     0.407 C 
ATOM      3  O   UNL     1      25.186  41.640   4.704  1.00  0.00    -0.225 OA
ATOM      4  H   UNL     1      25.455  40.994   7.849  1.00  0.00     0.167 HD
ENDROOT
BRANCH   1   5
ATOM      5  C   UNL     1      23.524  40.795   6.874  1.00  0.00     0.154 C 
BRANCH   5   6
ATOM      6  C   UNL     1      23.191  39.644   7.795  1.00  0.00     0.165 C 
BRANCH   6   7
ATOM      7  C   UNL     1      23.614  38.328   7.207  1.00  0.00     0.176 C 
BRANCH   7   8
ATOM      8  C   UNL     1      23.036  37.133   7.927  1.00  0.00     0.178 C 
ATOM      9  C   UNL     1      20.855  36.510   8.490  1.00  0.00     0.269 C 
ATOM     10  C   UNL     1      21.524  35.474   9.407  1.00  0.00     0.112 C 
ATOM     11  O   UNL     1      21.771  36.824   7.531  1.00  0.00    -0.332 OA
ATOM     12  C   UNL     1      22.482  36.312  10.252  1.00  0.00     0.145 C 
ATOM     13  C   UNL     1      23.289  37.254   9.389  1.00  0.00     0.142 C 
BRANCH   9  14
ATOM     14  O   UNL     1      20.373  37.569   9.229  1.00  0.00    -0.357 OA
ATOM     15  H   UNL     1      19.605  37.260   9.755  1.00  0.00     0.214 HD
ENDBRANCH   9  14
BRANCH   9  16
ATOM     16  C   UNL     1      19.724  35.789   7.804  1.00  0.00     0.364 C 
ATOM     17  O   UNL     1      18.578  36.280   7.741  1.00  0.00    -0.246 OA
BRANCH  16  18
ATOM     18  O   UNL     1      19.940  34.554   7.224  1.00  0.00    -0.477 OA
ATOM     19  H   UNL     1      19.619  33.731   7.708  1.00  0.00     0.296 HD
ENDBRANCH  16  18
ENDBRANCH   9  16
BRANCH  12  20
ATOM     20  O   UNL     1      21.679  37.004  11.159  1.00  0.00    -0.391 OA
ATOM     21  H   UNL     1      21.713  37.963  10.952  1.00  0.00     0.211 HD
ENDBRANCH  12  20
BRANCH  13  22
ATOM     22  N   UNL     1      24.726  36.991   9.592  1.00  0.00    -0.348 N 
ATOM     23  C   UNL     1      25.514  37.726  10.511  1.00  0.00     0.217 C 
ATOM     24  H   UNL     1      25.195  36.224   9.030  1.00  0.00     0.163 HD
ATOM     25  C   UNL     1      26.960  37.499  10.749  1.00  0.00     0.114 C 
ATOM     26  O   UNL     1      24.953  38.634  11.173  1.00  0.00    -0.275 OA
ENDBRANCH  13  22
ENDBRANCH   7   8
BRANCH   7  27
ATOM     27  O   UNL     1      24.992  38.287   7.125  1.00  0.00    -0.388 OA
ATOM     28  H   UNL     1      25.247  38.269   6.172  1.00  0.00     0.211 HD
ENDBRANCH   7  27
ENDBRANCH   6   7
BRANCH   6  29
ATOM     29  O   UNL     1      21.814  39.714   8.005  1.00  0.00    -0.388 OA
ATOM     30  H   UNL     1      21.326  40.078   7.233  1.00  0.00     0.211 HD
ENDBRANCH   6  29
ENDBRANCH   5   6
ENDBRANCH   1   5
BRANCH   2  31
ATOM     31  O   UNL     1      27.048  41.751   5.964  1.00  0.00    -0.443 OA
BRANCH  31  32
ATOM     32  C   UNL     1      27.980  40.920   5.316  1.00  0.00     0.294 C 
BRANCH  32  33
ATOM     33  C   UNL     1      28.015  39.564   5.915  1.00  0.00     0.120 A 
ATOM     34  C   UNL     1      28.197  38.387   5.241  1.00  0.00     0.138 A 
ATOM     35  N   UNL     1      27.872  39.264   7.210  1.00  0.00    -0.132 NA
ATOM     36  N   UNL     1      28.159  37.397   6.148  1.00  0.00    -0.248 N 
ATOM     37  N   UNL     1      27.959  37.964   7.343  1.00  0.00    -0.067 NA
BRANCH  36  38
ATOM     38  C   UNL     1      28.300  35.978   5.943  1.00  0.00     0.181 C 
BRANCH  38  39
ATOM     39  C   UNL     1      28.301  35.247   7.239  1.00  0.00    -0.026 A 
ATOM     40  C   UNL     1      29.489  34.896   7.869  1.00  0.00     0.005 A 
ATOM     41  C   UNL     1      27.137  34.885   7.870  1.00  0.00     0.005 A 
ATOM     42  C   UNL     1      29.483  34.220   9.064  1.00  0.00     0.000 A 
ATOM     43  C   UNL     1      27.120  34.204   9.075  1.00  0.00     0.000 A 
ATOM     44  C   UNL     1      28.305  33.865   9.686  1.00  0.00     0.000 A 
ENDBRANCH  38  39
ENDBRANCH  36  38
ENDBRANCH  32  33
ENDBRANCH  31  32
ENDBRANCH   2  31
TORSDOF 16
BEGIN_RES LYS A 131
REMARK  4 active torsions:
REMARK  status: ('A' for Active; 'I' for Inactive)
REMARK    1  A    between atoms: CA   and  CB  
REMARK    2  A    between atoms: CB   and  CG  
REMARK    3  A    between atoms: CG   and  CD  
REMARK    4  A    between atoms: CD   and  CE  
ROOT
ATOM      1  CA  LYS A 131      29.867  25.555  16.977  1.00 20.52     0.186 C 
ENDROOT
BRANCH   1   2
ATOM      2  CB  LYS A 131      28.345  25.722  17.026  1.00 20.94     0.034 C 
BRANCH   2   3
ATOM      3  CG  LYS A 131      27.600  24.408  16.846  1.00 22.96     0.005 C 
BRANCH   3   4
ATOM      4  CD  LYS A 131      26.730  24.084  18.029  1.00 24.33     0.041 C 
BRANCH   4   5
ATOM      5  CE  LYS A 131      25.772  25.241  18.288  1.00 26.91     0.338 C 
ATOM      6  NZ  LYS A 131      25.888  25.707  19.690  1.00 27.40     0.618 N 
ENDBRANCH   4   5
ENDBRANCH   3   4
ENDBRANCH   2   3
ENDBRANCH   1   2
END_RES LYS A 131
BEGIN_RES LYS A 135
REMARK  4 active torsions:
REMARK  status: ('A' for Active; 'I' for Inactive)
REMARK    5  A    between atoms: CA   and  CB  
REMARK    6  A    between atoms: CB   and  CG  
REMARK    7  A    between atoms: CG   and  CD  
REMARK    8  A    between atoms: CD   and  CE  
ROOT
ATOM      7  CA  LYS A 135      33.193  34.663   9.290  1.00 25.02     0.186 C 
ENDROOT
BRANCH   7   8
ATOM      8  CB  LYS A 135      32.060  35.360  10.034  1.00 26.63     0.034 C 
BRANCH   8   9
ATOM      9  CG  LYS A 135      32.379  35.655  11.477  1.00 29.45     0.005 C 
BRANCH   9  10
ATOM     10  CD  LYS A 135      32.245  37.143  11.763  1.00 32.00     0.041 C 
BRANCH  10  11
ATOM     11  CE  LYS A 135      31.269  37.785  10.796  1.00 34.25     0.338 C 
ATOM     12  NZ  LYS A 135      31.914  38.896  10.041  1.00 35.99     0.618 N 
ENDBRANCH  10  11
ENDBRANCH   9  10
ENDBRANCH   8   9
ENDBRANCH   7   8
END_RES LYS A 135
