REMARK VINA RESULT:    -4.009      5.248      9.605
REMARK INTER + INTRA:         -13.946
REMARK INTER:                  -7.347
REMARK INTRA:                  -6.599
REMARK UNBOUND:                -7.007
REMARK SMILES CC(=O)N[C@@H]1[C@@H](O)C[C@](O)(C(=O)O)O[C@H]1C(O)[C@H](O)CNC(=O)OCc1cn(-c2ccc(Cl)cc2)nn1
REMARK SMILES IDX 20 1 18 2 16 3 15 4 9 5 8 6 14 7 6 8 5 9 10 10 11 12 12 13
REMARK SMILES IDX 13 14 7 16 4 18 2 19 1 21 3 22 17 23 19 25 21 27 22 28 23 30
REMARK SMILES IDX 24 31 25 32 26 33 27 34 37 35 28 36 36 37 29 38 30 39 35 40
REMARK SMILES IDX 31 41 34 42 32 43 33 44
REMARK H PARENT 10 11 13 15 7 17 4 20 17 24 19 26 21 29
REMARK Flexibility Score: inf
ROOT
ATOM      1  C   UNL     1      32.492  35.995  14.892  1.00  0.00     0.154 C 
ENDROOT
BRANCH   1   2
ATOM      2  C   UNL     1      32.446  34.571  14.435  1.00  0.00     0.165 C 
BRANCH   2   3
ATOM      3  C   UNL     1      31.932  33.717  15.606  1.00  0.00     0.176 C 
BRANCH   3   4
ATOM      4  C   UNL     1      30.704  32.909  15.195  1.00  0.00     0.178 C 
ATOM      5  C   UNL     1      28.911  34.255  14.501  1.00  0.00     0.269 C 
ATOM      6  C   UNL     1      27.822  33.364  15.059  1.00  0.00     0.112 C 
ATOM      7  O   UNL     1      30.076  33.637  14.205  1.00  0.00    -0.332 OA
ATOM      8  C   UNL     1      28.451  32.207  15.749  1.00  0.00     0.145 C 
ATOM      9  C   UNL     1      29.785  32.649  16.317  1.00  0.00     0.142 C 
BRANCH   5  10
ATOM     10  O   UNL     1      29.028  35.326  15.385  1.00  0.00    -0.357 OA
ATOM     11  H   UNL     1      29.217  36.123  14.829  1.00  0.00     0.214 HD
ENDBRANCH   5  10
BRANCH   5  12
ATOM     12  C   UNL     1      28.366  34.804  13.231  1.00  0.00     0.364 C 
ATOM     13  O   UNL     1      27.124  34.904  13.119  1.00  0.00    -0.246 OA
BRANCH  12  14
ATOM     14  O   UNL     1      29.177  35.194  12.201  1.00  0.00    -0.477 OA
ATOM     15  H   UNL     1      28.760  35.564  11.343  1.00  0.00     0.296 HD
ENDBRANCH  12  14
ENDBRANCH   5  12
BRANCH   8  16
ATOM     16  O   UNL     1      27.637  31.627  16.714  1.00  0.00    -0.391 OA
ATOM     17  H   UNL     1      28.112  31.546  17.567  1.00  0.00     0.211 HD
ENDBRANCH   8  16
BRANCH   9  18
ATOM     18  N   UNL     1      30.177  31.687  17.289  1.00  0.00    -0.348 N 
ATOM     19  C   UNL     1      30.359  31.994  18.659  1.00  0.00     0.217 C 
ATOM     20  H   UNL     1      30.328  30.709  16.927  1.00  0.00     0.163 HD
ATOM     21  C   UNL     1      30.766  30.967  19.640  1.00  0.00     0.114 C 
ATOM     22  O   UNL     1      30.146  33.200  18.960  1.00  0.00    -0.275 OA
ENDBRANCH   9  18
ENDBRANCH   3   4
BRANCH   3  23
ATOM     23  O   UNL     1      31.616  34.545  16.688  1.00  0.00    -0.388 OA
ATOM     24  H   UNL     1      31.673  35.510  16.439  1.00  0.00     0.211 HD
ENDBRANCH   3  23
ENDBRANCH   2   3
BRANCH   2  25
ATOM     25  O   UNL     1      33.658  34.106  13.976  1.00  0.00    -0.388 OA
ATOM     26  H   UNL     1      33.676  33.749  13.072  1.00  0.00     0.211 HD
ENDBRANCH   2  25
ENDBRANCH   1   2
BRANCH   1  27
ATOM     27  N   UNL     1      31.906  36.959  14.022  1.00  0.00    -0.319 N 
ATOM     28  C   UNL     1      30.882  37.869  14.386  1.00  0.00     0.407 C 
ATOM     29  H   UNL     1      32.246  37.018  13.022  1.00  0.00     0.167 HD
ATOM     30  O   UNL     1      30.411  37.898  15.535  1.00  0.00    -0.225 OA
BRANCH  28  31
ATOM     31  O   UNL     1      30.371  38.773  13.435  1.00  0.00    -0.443 OA
BRANCH  31  32
ATOM     32  C   UNL     1      28.985  39.101  13.416  1.00  0.00     0.294 C 
BRANCH  32  33
ATOM     33  C   UNL     1      28.408  38.454  12.213  1.00  0.00     0.121 A 
ATOM     34  C   UNL     1      27.085  38.207  11.990  1.00  0.00     0.144 A 
ATOM     35  N   UNL     1      29.074  38.008  11.157  1.00  0.00    -0.131 NA
ATOM     36  N   UNL     1      26.993  37.608  10.785  1.00  0.00    -0.220 N 
ATOM     37  N   UNL     1      28.212  37.494  10.290  1.00  0.00    -0.062 NA
BRANCH  36  38
ATOM     38  C   UNL     1      25.749  37.196  10.210  1.00  0.00     0.066 A 
ATOM     39  C   UNL     1      24.816  38.145   9.866  1.00  0.00     0.030 A 
ATOM     40  C   UNL     1      25.543  35.853  10.024  1.00  0.00     0.030 A 
ATOM     41  C   UNL     1      23.629  37.704   9.314  1.00  0.00     0.023 A 
ATOM     42  C   UNL     1      24.345  35.446   9.469  1.00  0.00     0.023 A 
ATOM     43  C   UNL     1      23.382  36.355   9.110  1.00  0.00     0.041 A 
ATOM     44  Cl  UNL     1      21.892  35.777   8.416  1.00  0.00    -0.084 Cl
ENDBRANCH  36  38
ENDBRANCH  32  33
ENDBRANCH  31  32
ENDBRANCH  28  31
ENDBRANCH   1  27
TORSDOF 15
BEGIN_RES LYS A 131
REMARK  4 active torsions:
REMARK  status: ('A' for Active; 'I' for Inactive)
REMARK    1  A    between atoms: CA   and  CB  
REMARK    2  A    between atoms: CB   and  CG  
REMARK    3  A    between atoms: CG   and  CD  
REMARK    4  A    between atoms: CD   and  CE  
ROOT
ATOM      1  CA  LYS A 131      29.867  25.555  16.977  1.00 20.52     0.186 C 
ENDROOT
BRANCH   1   2
ATOM      2  CB  LYS A 131      28.345  25.722  17.026  1.00 20.94     0.034 C 
BRANCH   2   3
ATOM      3  CG  LYS A 131      27.602  24.398  16.929  1.00 22.96     0.005 C 
BRANCH   3   4
ATOM      4  CD  LYS A 131      26.528  24.274  17.974  1.00 24.33     0.041 C 
BRANCH   4   5
ATOM      5  CE  LYS A 131      25.234  23.801  17.320  1.00 26.91     0.338 C 
ATOM      6  NZ  LYS A 131      25.036  22.350  17.552  1.00 27.40     0.618 N 
ENDBRANCH   4   5
ENDBRANCH   3   4
ENDBRANCH   2   3
ENDBRANCH   1   2
END_RES LYS A 131
BEGIN_RES LYS A 135
REMARK  4 active torsions:
REMARK  status: ('A' for Active; 'I' for Inactive)
REMARK    5  A    between atoms: CA   and  CB  
REMARK    6  A    between atoms: CB   and  CG  
REMARK    7  A    between atoms: CG   and  CD  
REMARK    8  A    between atoms: CD   and  CE  
ROOT
ATOM      7  CA  LYS A 135      33.193  34.663   9.290  1.00 25.02     0.186 C 
ENDROOT
BRANCH   7   8
ATOM      8  CB  LYS A 135      32.060  35.360  10.034  1.00 26.63     0.034 C 
BRANCH   8   9
ATOM      9  CG  LYS A 135      30.879  35.691   9.159  1.00 29.45     0.005 C 
BRANCH   9  10
ATOM     10  CD  LYS A 135      30.381  34.449   8.436  1.00 32.00     0.041 C 
BRANCH  10  11
ATOM     11  CE  LYS A 135      28.867  34.446   8.362  1.00 34.25     0.338 C 
ATOM     12  NZ  LYS A 135      28.275  33.676   9.491  1.00 35.99     0.618 N 
ENDBRANCH  10  11
ENDBRANCH   9  10
ENDBRANCH   8   9
ENDBRANCH   7   8
END_RES LYS A 135
