REMARK VINA RESULT:    -3.574      3.804      8.538
REMARK INTER + INTRA:         -14.179
REMARK INTER:                  -9.312
REMARK INTRA:                  -4.867
REMARK UNBOUND:                -7.158
REMARK SMILES CCN(CC)CCn1cc(COC(=O)NC[C@@H](O)C(O)[C@@H]2O[C@@](O)(C(=O)O)C[C@H](O)[C@H]2NC(C)=O)nn1
REMARK SMILES IDX 15 1 13 2 14 3 16 5 17 6 19 7 21 8 23 9 28 10 22 11 29 12
REMARK SMILES IDX 31 13 24 14 25 16 26 17 27 18 30 20 32 22 33 23 34 25 35 26
REMARK SMILES IDX 20 27 18 29 12 31 11 32 10 33 9 34 36 35 8 36 37 37 7 38
REMARK SMILES IDX 6 39 3 40 2 41 1 42 4 43 5 44
REMARK H PARENT 15 4 24 15 27 19 30 21 32 24 20 28 18 30
REMARK Flexibility Score: inf
ROOT
ATOM      1  N   UNL     1      32.300  33.465  14.984  1.00  0.00    -0.319 N 
ATOM      2  C   UNL     1      31.451  32.975  16.023  1.00  0.00     0.407 C 
ATOM      3  O   UNL     1      31.231  33.671  17.029  1.00  0.00    -0.225 OA
ATOM      4  H   UNL     1      32.440  32.831  14.178  1.00  0.00     0.167 HD
ENDROOT
BRANCH   1   5
ATOM      5  C   UNL     1      32.940  34.743  15.015  1.00  0.00     0.154 C 
BRANCH   5   6
ATOM      6  C   UNL     1      33.430  35.214  13.675  1.00  0.00     0.165 C 
BRANCH   6   7
ATOM      7  C   UNL     1      32.267  35.663  12.818  1.00  0.00     0.176 C 
BRANCH   7   8
ATOM      8  C   UNL     1      31.394  36.648  13.542  1.00  0.00     0.178 C 
ATOM      9  C   UNL     1      29.493  35.271  13.696  1.00  0.00     0.269 C 
ATOM     10  C   UNL     1      28.896  36.016  12.510  1.00  0.00     0.112 C 
ATOM     11  O   UNL     1      30.492  35.962  14.315  1.00  0.00    -0.332 OA
ATOM     12  C   UNL     1      29.247  37.494  12.711  1.00  0.00     0.145 C 
ATOM     13  C   UNL     1      30.727  37.610  12.623  1.00  0.00     0.142 C 
BRANCH   9  14
ATOM     14  O   UNL     1      29.836  33.996  13.251  1.00  0.00    -0.357 OA
ATOM     15  H   UNL     1      30.503  33.572  13.861  1.00  0.00     0.214 HD
ENDBRANCH   9  14
BRANCH   9  16
ATOM     16  C   UNL     1      28.400  35.106  14.706  1.00  0.00     0.364 C 
ATOM     17  O   UNL     1      27.211  34.907  14.379  1.00  0.00    -0.246 OA
BRANCH  16  18
ATOM     18  O   UNL     1      28.719  35.177  16.046  1.00  0.00    -0.477 OA
ATOM     19  H   UNL     1      28.049  35.017  16.792  1.00  0.00     0.296 HD
ENDBRANCH  16  18
ENDBRANCH   9  16
BRANCH  12  20
ATOM     20  O   UNL     1      28.576  38.223  11.730  1.00  0.00    -0.391 OA
ATOM     21  H   UNL     1      29.292  38.712  11.213  1.00  0.00     0.211 HD
ENDBRANCH  12  20
BRANCH  13  22
ATOM     22  N   UNL     1      31.203  38.971  12.785  1.00  0.00    -0.348 N 
ATOM     23  C   UNL     1      31.357  39.877  11.697  1.00  0.00     0.217 C 
ATOM     24  H   UNL     1      31.461  39.355  13.738  1.00  0.00     0.163 HD
ATOM     25  C   UNL     1      31.854  41.271  11.922  1.00  0.00     0.114 C 
ATOM     26  O   UNL     1      31.079  39.517  10.537  1.00  0.00    -0.275 OA
ENDBRANCH  13  22
ENDBRANCH   7   8
BRANCH   7  27
ATOM     27  O   UNL     1      32.866  36.233  11.679  1.00  0.00    -0.388 OA
ATOM     28  H   UNL     1      32.261  36.973  11.405  1.00  0.00     0.211 HD
ENDBRANCH   7  27
ENDBRANCH   6   7
BRANCH   6  29
ATOM     29  O   UNL     1      34.240  34.277  13.101  1.00  0.00    -0.388 OA
ATOM     30  H   UNL     1      34.963  34.027  13.728  1.00  0.00     0.211 HD
ENDBRANCH   6  29
ENDBRANCH   5   6
ENDBRANCH   1   5
BRANCH   2  31
ATOM     31  O   UNL     1      30.844  31.732  15.962  1.00  0.00    -0.443 OA
BRANCH  31  32
ATOM     32  C   UNL     1      29.439  31.582  15.813  1.00  0.00     0.294 C 
BRANCH  32  33
ATOM     33  C   UNL     1      28.936  30.807  16.975  1.00  0.00     0.120 A 
ATOM     34  C   UNL     1      29.532  30.835  18.236  1.00  0.00     0.138 A 
ATOM     35  N   UNL     1      27.894  29.975  17.093  1.00  0.00    -0.132 NA
ATOM     36  N   UNL     1      28.833  30.035  19.037  1.00  0.00    -0.251 N 
ATOM     37  N   UNL     1      27.846  29.522  18.335  1.00  0.00    -0.067 NA
BRANCH  36  38
ATOM     38  C   UNL     1      29.104  29.771  20.424  1.00  0.00     0.161 C 
BRANCH  38  39
ATOM     39  C   UNL     1      30.461  30.353  20.775  1.00  0.00     0.108 C 
BRANCH  39  40
ATOM     40  N   UNL     1      31.316  29.438  21.459  1.00  0.00    -0.302 NA
BRANCH  40  41
ATOM     41  C   UNL     1      32.220  30.034  22.386  1.00  0.00     0.081 C 
ATOM     42  C   UNL     1      33.614  29.986  21.745  1.00  0.00     0.021 C 
ENDBRANCH  40  41
BRANCH  40  43
ATOM     43  C   UNL     1      31.841  28.409  20.626  1.00  0.00     0.081 C 
ATOM     44  C   UNL     1      31.517  27.022  21.085  1.00  0.00     0.021 C 
ENDBRANCH  40  43
ENDBRANCH  39  40
ENDBRANCH  38  39
ENDBRANCH  36  38
ENDBRANCH  32  33
ENDBRANCH  31  32
ENDBRANCH   2  31
TORSDOF 19
BEGIN_RES LYS A 131
REMARK  4 active torsions:
REMARK  status: ('A' for Active; 'I' for Inactive)
REMARK    1  A    between atoms: CA   and  CB  
REMARK    2  A    between atoms: CB   and  CG  
REMARK    3  A    between atoms: CG   and  CD  
REMARK    4  A    between atoms: CD   and  CE  
ROOT
ATOM      1  CA  LYS A 131      29.867  25.555  16.977  1.00 20.52     0.186 C 
ENDROOT
BRANCH   1   2
ATOM      2  CB  LYS A 131      28.345  25.722  17.026  1.00 20.94     0.034 C 
BRANCH   2   3
ATOM      3  CG  LYS A 131      27.599  24.473  16.581  1.00 22.96     0.005 C 
BRANCH   3   4
ATOM      4  CD  LYS A 131      27.130  23.648  17.747  1.00 24.33     0.041 C 
BRANCH   4   5
ATOM      5  CE  LYS A 131      25.673  23.250  17.535  1.00 26.91     0.338 C 
ATOM      6  NZ  LYS A 131      24.899  24.387  16.983  1.00 27.40     0.618 N 
ENDBRANCH   4   5
ENDBRANCH   3   4
ENDBRANCH   2   3
ENDBRANCH   1   2
END_RES LYS A 131
BEGIN_RES LYS A 135
REMARK  4 active torsions:
REMARK  status: ('A' for Active; 'I' for Inactive)
REMARK    5  A    between atoms: CA   and  CB  
REMARK    6  A    between atoms: CB   and  CG  
REMARK    7  A    between atoms: CG   and  CD  
REMARK    8  A    between atoms: CD   and  CE  
ROOT
ATOM      7  CA  LYS A 135      33.193  34.663   9.290  1.00 25.02     0.186 C 
ENDROOT
BRANCH   7   8
ATOM      8  CB  LYS A 135      32.060  35.360  10.034  1.00 26.63     0.034 C 
BRANCH   8   9
ATOM      9  CG  LYS A 135      30.701  35.111   9.433  1.00 29.45     0.005 C 
BRANCH   9  10
ATOM     10  CD  LYS A 135      30.077  36.414   8.957  1.00 32.00     0.041 C 
BRANCH  10  11
ATOM     11  CE  LYS A 135      28.627  36.199   8.569  1.00 34.25     0.338 C 
ATOM     12  NZ  LYS A 135      28.339  34.755   8.346  1.00 35.99     0.618 N 
ENDBRANCH  10  11
ENDBRANCH   9  10
ENDBRANCH   8   9
ENDBRANCH   7   8
END_RES LYS A 135
