REMARK VINA RESULT:    -4.315      2.282      6.575
REMARK INTER + INTRA:         -14.502
REMARK INTER:                  -7.302
REMARK INTRA:                  -7.200
REMARK UNBOUND:                -6.277
REMARK SMILES CC(=O)N[C@@H]1[C@@H](O)C[C@](O)(C(=O)O)O[C@H]1C(O)[C@H](O)CNC(=O)OCc1cn(CCNS(C)(=O)=O)nn1
REMARK SMILES IDX 21 1 22 2 23 3 20 5 18 6 16 7 15 8 9 9 8 10 14 11 6 12 5 13
REMARK SMILES IDX 10 14 11 16 12 17 13 18 7 20 4 22 2 23 1 25 3 26 17 27 19 29
REMARK SMILES IDX 24 31 25 32 26 33 27 34 37 35 28 36 36 37 29 38 30 39 31 40
REMARK SMILES IDX 32 42 34 43 35 44 33 45
REMARK H PARENT 21 4 10 15 13 19 7 21 4 24 17 28 19 30 31 41
REMARK Flexibility Score: inf
ROOT
ATOM      1  N   UNL     1      30.387  31.814  18.554  1.00  0.00    -0.319 N 
ATOM      2  C   UNL     1      30.837  32.489  17.401  1.00  0.00     0.407 C 
ATOM      3  O   UNL     1      31.439  33.575  17.435  1.00  0.00    -0.225 OA
ATOM      4  H   UNL     1      29.892  30.885  18.400  1.00  0.00     0.167 HD
ENDROOT
BRANCH   1   5
ATOM      5  C   UNL     1      30.536  32.258  19.889  1.00  0.00     0.154 C 
BRANCH   5   6
ATOM      6  C   UNL     1      31.317  31.370  20.826  1.00  0.00     0.165 C 
BRANCH   6   7
ATOM      7  C   UNL     1      30.318  30.624  21.656  1.00  0.00     0.176 C 
BRANCH   7   8
ATOM      8  C   UNL     1      30.657  29.216  22.028  1.00  0.00     0.178 C 
ATOM      9  C   UNL     1      32.482  27.960  22.794  1.00  0.00     0.269 C 
ATOM     10  C   UNL     1      32.006  26.762  22.045  1.00  0.00     0.112 C 
ATOM     11  O   UNL     1      31.889  29.133  22.533  1.00  0.00    -0.332 OA
ATOM     12  C   UNL     1      31.248  27.098  20.790  1.00  0.00     0.145 C 
ATOM     13  C   UNL     1      30.260  28.192  21.010  1.00  0.00     0.142 C 
BRANCH   9  14
ATOM     14  O   UNL     1      33.859  28.092  22.578  1.00  0.00    -0.357 OA
ATOM     15  H   UNL     1      34.273  27.206  22.654  1.00  0.00     0.214 HD
ENDBRANCH   9  14
BRANCH   9  16
ATOM     16  C   UNL     1      32.322  27.680  24.250  1.00  0.00     0.364 C 
ATOM     17  O   UNL     1      31.236  27.401  24.792  1.00  0.00    -0.246 OA
BRANCH  16  18
ATOM     18  O   UNL     1      33.445  27.721  25.098  1.00  0.00    -0.477 OA
ATOM     19  H   UNL     1      33.449  27.242  25.990  1.00  0.00     0.296 HD
ENDBRANCH  16  18
ENDBRANCH   9  16
BRANCH  12  20
ATOM     20  O   UNL     1      32.163  27.353  19.776  1.00  0.00    -0.391 OA
ATOM     21  H   UNL     1      32.958  26.790  19.961  1.00  0.00     0.211 HD
ENDBRANCH  12  20
BRANCH  13  22
ATOM     22  N   UNL     1      28.982  27.577  21.321  1.00  0.00    -0.348 N 
ATOM     23  C   UNL     1      27.862  27.610  20.447  1.00  0.00     0.217 C 
ATOM     24  H   UNL     1      28.820  27.061  22.237  1.00  0.00     0.163 HD
ATOM     25  C   UNL     1      26.560  26.959  20.814  1.00  0.00     0.114 C 
ATOM     26  O   UNL     1      28.011  28.210  19.352  1.00  0.00    -0.275 OA
ENDBRANCH  13  22
ENDBRANCH   7   8
BRANCH   7  27
ATOM     27  O   UNL     1      29.119  30.660  20.885  1.00  0.00    -0.388 OA
ATOM     28  H   UNL     1      28.637  31.500  21.031  1.00  0.00     0.211 HD
ENDBRANCH   7  27
ENDBRANCH   6   7
BRANCH   6  29
ATOM     29  O   UNL     1      32.227  32.128  21.511  1.00  0.00    -0.388 OA
ATOM     30  H   UNL     1      32.372  31.813  22.412  1.00  0.00     0.211 HD
ENDBRANCH   6  29
ENDBRANCH   5   6
ENDBRANCH   1   5
BRANCH   2  31
ATOM     31  O   UNL     1      30.608  31.933  16.148  1.00  0.00    -0.443 OA
BRANCH  31  32
ATOM     32  C   UNL     1      29.448  32.164  15.389  1.00  0.00     0.294 C 
BRANCH  32  33
ATOM     33  C   UNL     1      28.410  31.162  15.698  1.00  0.00     0.120 A 
ATOM     34  C   UNL     1      27.038  31.317  15.721  1.00  0.00     0.138 A 
ATOM     35  N   UNL     1      28.637  29.891  16.018  1.00  0.00    -0.132 NA
ATOM     36  N   UNL     1      26.477  30.145  16.052  1.00  0.00    -0.251 N 
ATOM     37  N   UNL     1      27.481  29.293  16.227  1.00  0.00    -0.067 NA
BRANCH  36  38
ATOM     38  C   UNL     1      25.093  29.787  16.209  1.00  0.00     0.162 C 
BRANCH  38  39
ATOM     39  C   UNL     1      24.524  30.261  17.534  1.00  0.00     0.122 C 
BRANCH  39  40
ATOM     40  N   UNL     1      25.436  29.837  18.574  1.00  0.00    -0.214 NA
ATOM     41  H   UNL     1      26.261  29.350  18.195  1.00  0.00     0.141 HD
BRANCH  40  42
ATOM     42  S   UNL     1      25.923  31.138  19.585  1.00  0.00     0.208 S 
ATOM     43  O   UNL     1      26.064  30.592  20.982  1.00  0.00    -0.213 OA
ATOM     44  O   UNL     1      27.209  31.711  19.081  1.00  0.00    -0.213 OA
ATOM     45  C   UNL     1      24.683  32.412  19.618  1.00  0.00     0.176 C 
ENDBRANCH  40  42
ENDBRANCH  39  40
ENDBRANCH  38  39
ENDBRANCH  36  38
ENDBRANCH  32  33
ENDBRANCH  31  32
ENDBRANCH   2  31
TORSDOF 18
BEGIN_RES LYS A 131
REMARK  4 active torsions:
REMARK  status: ('A' for Active; 'I' for Inactive)
REMARK    1  A    between atoms: CA   and  CB  
REMARK    2  A    between atoms: CB   and  CG  
REMARK    3  A    between atoms: CG   and  CD  
REMARK    4  A    between atoms: CD   and  CE  
ROOT
ATOM      1  CA  LYS A 131      29.867  25.555  16.977  1.00 20.52     0.186 C 
ENDROOT
BRANCH   1   2
ATOM      2  CB  LYS A 131      28.345  25.722  17.026  1.00 20.94     0.034 C 
BRANCH   2   3
ATOM      3  CG  LYS A 131      27.601  24.402  16.890  1.00 22.96     0.005 C 
BRANCH   3   4
ATOM      4  CD  LYS A 131      26.235  24.455  17.516  1.00 24.33     0.041 C 
BRANCH   4   5
ATOM      5  CE  LYS A 131      25.662  23.044  17.608  1.00 26.91     0.338 C 
ATOM      6  NZ  LYS A 131      25.022  22.830  18.928  1.00 27.40     0.618 N 
ENDBRANCH   4   5
ENDBRANCH   3   4
ENDBRANCH   2   3
ENDBRANCH   1   2
END_RES LYS A 131
BEGIN_RES LYS A 135
REMARK  4 active torsions:
REMARK  status: ('A' for Active; 'I' for Inactive)
REMARK    5  A    between atoms: CA   and  CB  
REMARK    6  A    between atoms: CB   and  CG  
REMARK    7  A    between atoms: CG   and  CD  
REMARK    8  A    between atoms: CD   and  CE  
ROOT
ATOM      7  CA  LYS A 135      33.193  34.663   9.290  1.00 25.02     0.186 C 
ENDROOT
BRANCH   7   8
ATOM      8  CB  LYS A 135      32.060  35.360  10.034  1.00 26.63     0.034 C 
BRANCH   8   9
ATOM      9  CG  LYS A 135      30.726  34.676   9.878  1.00 29.45     0.005 C 
BRANCH   9  10
ATOM     10  CD  LYS A 135      30.338  34.586   8.410  1.00 32.00     0.041 C 
BRANCH  10  11
ATOM     11  CE  LYS A 135      28.829  34.591   8.256  1.00 34.25     0.338 C 
ATOM     12  NZ  LYS A 135      28.173  33.878   9.387  1.00 35.99     0.618 N 
ENDBRANCH  10  11
ENDBRANCH   9  10
ENDBRANCH   8   9
ENDBRANCH   7   8
END_RES LYS A 135
