REMARK VINA RESULT:    -4.714      3.811      6.864
REMARK INTER + INTRA:         -13.955
REMARK INTER:                  -7.501
REMARK INTRA:                  -6.454
REMARK UNBOUND:                -5.796
REMARK SMILES CC(=O)N[C@@H]1[C@@H](O)C[C@](O)(C(=O)O)O[C@H]1C(O)[C@H](O)CNC(=O)OCc1cn(C2CCCCC2)nn1
REMARK SMILES IDX 20 1 18 2 16 3 15 4 9 5 8 6 14 7 6 8 5 9 10 10 11 12 12 13
REMARK SMILES IDX 13 14 7 16 4 18 2 19 1 21 3 22 17 23 19 25 21 27 22 28 23 30
REMARK SMILES IDX 24 31 25 32 26 33 27 34 36 35 28 36 35 37 29 38 30 39 34 40
REMARK SMILES IDX 31 41 33 42 32 43
REMARK H PARENT 10 11 13 15 7 17 4 20 17 24 19 26 21 29
REMARK Flexibility Score: inf
ROOT
ATOM      1  C   UNL     1      26.158  34.035  15.956  1.00  0.00     0.154 C 
ENDROOT
BRANCH   1   2
ATOM      2  C   UNL     1      27.609  33.586  15.872  1.00  0.00     0.165 C 
BRANCH   2   3
ATOM      3  C   UNL     1      28.454  34.738  16.322  1.00  0.00     0.176 C 
BRANCH   3   4
ATOM      4  C   UNL     1      29.837  34.363  16.810  1.00  0.00     0.178 C 
ATOM      5  C   UNL     1      31.365  34.410  15.020  1.00  0.00     0.269 C 
ATOM      6  C   UNL     1      31.907  33.044  15.403  1.00  0.00     0.112 C 
ATOM      7  O   UNL     1      30.832  34.997  16.118  1.00  0.00    -0.332 OA
ATOM      8  C   UNL     1      30.830  32.179  16.002  1.00  0.00     0.145 C 
ATOM      9  C   UNL     1      30.042  32.911  17.069  1.00  0.00     0.142 C 
BRANCH   5  10
ATOM     10  O   UNL     1      30.519  34.315  13.916  1.00  0.00    -0.357 OA
ATOM     11  H   UNL     1      31.087  34.089  13.113  1.00  0.00     0.214 HD
ENDBRANCH   5  10
BRANCH   5  12
ATOM     12  C   UNL     1      32.558  35.205  14.616  1.00  0.00     0.364 C 
ATOM     13  O   UNL     1      33.623  34.624  14.310  1.00  0.00    -0.246 OA
BRANCH  12  14
ATOM     14  O   UNL     1      32.486  36.568  14.578  1.00  0.00    -0.477 OA
ATOM     15  H   UNL     1      33.168  37.193  14.990  1.00  0.00     0.296 HD
ENDBRANCH  12  14
ENDBRANCH   5  12
BRANCH   8  16
ATOM     16  O   UNL     1      30.003  31.655  15.017  1.00  0.00    -0.391 OA
ATOM     17  H   UNL     1      30.409  30.840  14.632  1.00  0.00     0.211 HD
ENDBRANCH   8  16
BRANCH   9  18
ATOM     18  N   UNL     1      30.680  32.689  18.368  1.00  0.00    -0.348 N 
ATOM     19  C   UNL     1      30.287  31.567  19.127  1.00  0.00     0.217 C 
ATOM     20  H   UNL     1      31.407  33.332  18.737  1.00  0.00     0.163 HD
ATOM     21  C   UNL     1      30.881  31.255  20.464  1.00  0.00     0.114 C 
ATOM     22  O   UNL     1      29.403  30.746  18.726  1.00  0.00    -0.275 OA
ENDBRANCH   9  18
ENDBRANCH   3   4
BRANCH   3  23
ATOM     23  O   UNL     1      28.403  35.815  15.477  1.00  0.00    -0.388 OA
ATOM     24  H   UNL     1      28.979  35.704  14.656  1.00  0.00     0.211 HD
ENDBRANCH   3  23
ENDBRANCH   2   3
BRANCH   2  25
ATOM     25  O   UNL     1      27.841  33.145  14.592  1.00  0.00    -0.388 OA
ATOM     26  H   UNL     1      28.284  32.283  14.621  1.00  0.00     0.211 HD
ENDBRANCH   2  25
ENDBRANCH   1   2
BRANCH   1  27
ATOM     27  N   UNL     1      25.840  34.760  14.748  1.00  0.00    -0.319 N 
ATOM     28  C   UNL     1      25.247  34.200  13.590  1.00  0.00     0.407 C 
ATOM     29  H   UNL     1      26.050  35.804  14.675  1.00  0.00     0.167 HD
ATOM     30  O   UNL     1      24.963  32.978  13.574  1.00  0.00    -0.225 OA
BRANCH  28  31
ATOM     31  O   UNL     1      24.971  34.974  12.467  1.00  0.00    -0.443 OA
BRANCH  31  32
ATOM     32  C   UNL     1      25.811  34.895  11.343  1.00  0.00     0.294 C 
BRANCH  32  33
ATOM     33  C   UNL     1      27.071  35.620  11.651  1.00  0.00     0.120 A 
ATOM     34  C   UNL     1      27.512  36.805  11.048  1.00  0.00     0.138 A 
ATOM     35  N   UNL     1      28.045  35.327  12.534  1.00  0.00    -0.132 NA
ATOM     36  N   UNL     1      28.694  37.164  11.578  1.00  0.00    -0.249 N 
ATOM     37  N   UNL     1      28.993  36.245  12.479  1.00  0.00    -0.067 NA
BRANCH  36  38
ATOM     38  C   UNL     1      29.488  38.334  11.227  1.00  0.00     0.109 C 
ATOM     39  C   UNL     1      30.859  38.208  11.852  1.00  0.00     0.027 C 
ATOM     40  C   UNL     1      29.660  38.408   9.726  1.00  0.00     0.027 C 
ATOM     41  C   UNL     1      31.908  37.824  10.825  1.00  0.00     0.002 C 
ATOM     42  C   UNL     1      30.686  39.495   9.456  1.00  0.00     0.002 C 
ATOM     43  C   UNL     1      32.044  38.916   9.799  1.00  0.00     0.000 C 
ENDBRANCH  36  38
ENDBRANCH  32  33
ENDBRANCH  31  32
ENDBRANCH  28  31
ENDBRANCH   1  27
TORSDOF 15
BEGIN_RES LYS A 131
REMARK  4 active torsions:
REMARK  status: ('A' for Active; 'I' for Inactive)
REMARK    1  A    between atoms: CA   and  CB  
REMARK    2  A    between atoms: CB   and  CG  
REMARK    3  A    between atoms: CG   and  CD  
REMARK    4  A    between atoms: CD   and  CE  
ROOT
ATOM      1  CA  LYS A 131      29.867  25.555  16.977  1.00 20.52     0.186 C 
ENDROOT
BRANCH   1   2
ATOM      2  CB  LYS A 131      28.345  25.722  17.026  1.00 20.94     0.034 C 
BRANCH   2   3
ATOM      3  CG  LYS A 131      27.601  24.401  16.906  1.00 22.96     0.005 C 
BRANCH   3   4
ATOM      4  CD  LYS A 131      26.158  24.525  17.307  1.00 24.33     0.041 C 
BRANCH   4   5
ATOM      5  CE  LYS A 131      25.798  23.398  18.270  1.00 26.91     0.338 C 
ATOM      6  NZ  LYS A 131      24.892  22.425  17.615  1.00 27.40     0.618 N 
ENDBRANCH   4   5
ENDBRANCH   3   4
ENDBRANCH   2   3
ENDBRANCH   1   2
END_RES LYS A 131
BEGIN_RES LYS A 135
REMARK  4 active torsions:
REMARK  status: ('A' for Active; 'I' for Inactive)
REMARK    5  A    between atoms: CA   and  CB  
REMARK    6  A    between atoms: CB   and  CG  
REMARK    7  A    between atoms: CG   and  CD  
REMARK    8  A    between atoms: CD   and  CE  
ROOT
ATOM      7  CA  LYS A 135      33.193  34.663   9.290  1.00 25.02     0.186 C 
ENDROOT
BRANCH   7   8
ATOM      8  CB  LYS A 135      32.060  35.360  10.034  1.00 26.63     0.034 C 
BRANCH   8   9
ATOM      9  CG  LYS A 135      30.711  34.727   9.807  1.00 29.45     0.005 C 
BRANCH   9  10
ATOM     10  CD  LYS A 135      30.406  34.633   8.320  1.00 32.00     0.041 C 
BRANCH  10  11
ATOM     11  CE  LYS A 135      29.023  35.182   8.025  1.00 34.25     0.338 C 
ATOM     12  NZ  LYS A 135      28.866  35.488   6.576  1.00 35.99     0.618 N 
ENDBRANCH  10  11
ENDBRANCH   9  10
ENDBRANCH   8   9
ENDBRANCH   7   8
END_RES LYS A 135
