REMARK VINA RESULT:    -4.601      3.783      6.450
REMARK INTER + INTRA:         -14.783
REMARK INTER:                  -8.007
REMARK INTRA:                  -6.776
REMARK UNBOUND:                -5.744
REMARK SMILES CC(=O)N[C@@H]1[C@@H](O)C[C@](O)(C(=O)O)O[C@H]1C(O)[C@H](O)CNC(=O)OCc1cn([C@@H](CC(=O)O)C(=O)O)nn1
REMARK SMILES IDX 21 1 22 2 23 3 20 5 18 6 16 7 15 8 9 9 8 10 14 11 6 12 5 13
REMARK SMILES IDX 10 14 11 16 12 17 13 18 7 20 4 22 2 23 1 25 3 26 17 27 19 29
REMARK SMILES IDX 24 31 25 32 26 33 27 34 38 35 28 36 37 37 29 38 30 39 31 40
REMARK SMILES IDX 32 41 33 42 34 44 35 45 36 46
REMARK H PARENT 21 4 10 15 13 19 7 21 4 24 17 28 19 30 33 43 36 47
REMARK Flexibility Score: inf
ROOT
ATOM      1  N   UNL     1      25.902  27.927  19.647  1.00  0.00    -0.319 N 
ATOM      2  C   UNL     1      25.097  29.093  19.481  1.00  0.00     0.407 C 
ATOM      3  O   UNL     1      25.227  30.023  20.285  1.00  0.00    -0.225 OA
ATOM      4  H   UNL     1      25.735  27.176  18.926  1.00  0.00     0.167 HD
ENDROOT
BRANCH   1   5
ATOM      5  C   UNL     1      26.865  27.745  20.687  1.00  0.00     0.154 C 
BRANCH   5   6
ATOM      6  C   UNL     1      28.261  27.604  20.114  1.00  0.00     0.165 C 
BRANCH   6   7
ATOM      7  C   UNL     1      29.119  28.807  20.459  1.00  0.00     0.176 C 
BRANCH   7   8
ATOM      8  C   UNL     1      29.721  28.761  21.817  1.00  0.00     0.178 C 
ATOM      9  C   UNL     1      31.379  30.302  21.296  1.00  0.00     0.269 C 
ATOM     10  C   UNL     1      32.223  29.228  20.752  1.00  0.00     0.112 C 
ATOM     11  O   UNL     1      30.362  29.958  22.149  1.00  0.00    -0.332 OA
ATOM     12  C   UNL     1      31.943  27.832  21.149  1.00  0.00     0.145 C 
ATOM     13  C   UNL     1      30.705  27.636  21.977  1.00  0.00     0.142 C 
BRANCH   9  14
ATOM     14  O   UNL     1      30.764  31.045  20.255  1.00  0.00    -0.357 OA
ATOM     15  H   UNL     1      30.505  31.906  20.679  1.00  0.00     0.214 HD
ENDBRANCH   9  14
BRANCH   9  16
ATOM     16  C   UNL     1      32.202  31.312  22.018  1.00  0.00     0.364 C 
ATOM     17  O   UNL     1      32.781  32.275  21.466  1.00  0.00    -0.246 OA
BRANCH  16  18
ATOM     18  O   UNL     1      32.331  31.171  23.391  1.00  0.00    -0.477 OA
ATOM     19  H   UNL     1      32.361  30.250  23.847  1.00  0.00     0.296 HD
ENDBRANCH  16  18
ENDBRANCH   9  16
BRANCH  12  20
ATOM     20  O   UNL     1      31.889  27.007  20.029  1.00  0.00    -0.391 OA
ATOM     21  H   UNL     1      31.850  27.479  19.180  1.00  0.00     0.211 HD
ENDBRANCH  12  20
BRANCH  13  22
ATOM     22  N   UNL     1      31.066  27.528  23.412  1.00  0.00    -0.348 N 
ATOM     23  C   UNL     1      30.458  26.560  24.243  1.00  0.00     0.217 C 
ATOM     24  H   UNL     1      31.772  28.161  23.844  1.00  0.00     0.163 HD
ATOM     25  C   UNL     1      30.788  26.416  25.691  1.00  0.00     0.114 C 
ATOM     26  O   UNL     1      29.608  25.795  23.739  1.00  0.00    -0.275 OA
ENDBRANCH  13  22
ENDBRANCH   7   8
BRANCH   7  27
ATOM     27  O   UNL     1      28.191  29.886  20.388  1.00  0.00    -0.388 OA
ATOM     28  H   UNL     1      28.141  30.237  19.468  1.00  0.00     0.211 HD
ENDBRANCH   7  27
ENDBRANCH   6   7
BRANCH   6  29
ATOM     29  O   UNL     1      28.147  27.373  18.749  1.00  0.00    -0.388 OA
ATOM     30  H   UNL     1      28.660  28.015  18.198  1.00  0.00     0.211 HD
ENDBRANCH   6  29
ENDBRANCH   5   6
ENDBRANCH   1   5
BRANCH   2  31
ATOM     31  O   UNL     1      24.176  29.219  18.454  1.00  0.00    -0.443 OA
BRANCH  31  32
ATOM     32  C   UNL     1      24.440  30.075  17.371  1.00  0.00     0.294 C 
BRANCH  32  33
ATOM     33  C   UNL     1      25.839  29.976  16.891  1.00  0.00     0.120 A 
ATOM     34  C   UNL     1      26.600  31.078  16.584  1.00  0.00     0.139 A 
ATOM     35  N   UNL     1      26.603  28.909  16.670  1.00  0.00    -0.132 NA
ATOM     36  N   UNL     1      27.820  30.640  16.181  1.00  0.00    -0.237 N 
ATOM     37  N   UNL     1      27.780  29.340  16.246  1.00  0.00    -0.066 NA
BRANCH  36  38
ATOM     38  C   UNL     1      28.888  31.550  15.776  1.00  0.00     0.229 C 
BRANCH  38  39
ATOM     39  C   UNL     1      28.406  32.970  15.885  1.00  0.00     0.161 C 
BRANCH  39  40
ATOM     40  C   UNL     1      28.580  33.722  14.633  1.00  0.00     0.306 C 
ATOM     41  O   UNL     1      29.706  33.724  14.078  1.00  0.00    -0.252 OA
BRANCH  40  42
ATOM     42  O   UNL     1      27.500  34.409  14.098  1.00  0.00    -0.481 OA
ATOM     43  H   UNL     1      27.035  35.130  14.670  1.00  0.00     0.296 HD
ENDBRANCH  40  42
ENDBRANCH  39  40
ENDBRANCH  38  39
BRANCH  38  44
ATOM     44  C   UNL     1      30.018  31.397  16.733  1.00  0.00     0.329 C 
ATOM     45  O   UNL     1      31.054  32.109  16.714  1.00  0.00    -0.250 OA
BRANCH  44  46
ATOM     46  O   UNL     1      29.925  30.411  17.700  1.00  0.00    -0.480 OA
ATOM     47  H   UNL     1      29.045  30.140  18.123  1.00  0.00     0.296 HD
ENDBRANCH  44  46
ENDBRANCH  38  44
ENDBRANCH  36  38
ENDBRANCH  32  33
ENDBRANCH  31  32
ENDBRANCH   2  31
TORSDOF 20
BEGIN_RES LYS A 131
REMARK  4 active torsions:
REMARK  status: ('A' for Active; 'I' for Inactive)
REMARK    1  A    between atoms: CA   and  CB  
REMARK    2  A    between atoms: CB   and  CG  
REMARK    3  A    between atoms: CG   and  CD  
REMARK    4  A    between atoms: CD   and  CE  
ROOT
ATOM      1  CA  LYS A 131      29.867  25.555  16.977  1.00 20.52     0.186 C 
ENDROOT
BRANCH   1   2
ATOM      2  CB  LYS A 131      28.345  25.722  17.026  1.00 20.94     0.034 C 
BRANCH   2   3
ATOM      3  CG  LYS A 131      27.601  24.404  16.875  1.00 22.96     0.005 C 
BRANCH   3   4
ATOM      4  CD  LYS A 131      26.165  24.511  17.308  1.00 24.33     0.041 C 
BRANCH   4   5
ATOM      5  CE  LYS A 131      25.756  23.235  18.036  1.00 26.91     0.338 C 
ATOM      6  NZ  LYS A 131      25.537  23.506  19.476  1.00 27.40     0.618 N 
ENDBRANCH   4   5
ENDBRANCH   3   4
ENDBRANCH   2   3
ENDBRANCH   1   2
END_RES LYS A 131
BEGIN_RES LYS A 135
REMARK  4 active torsions:
REMARK  status: ('A' for Active; 'I' for Inactive)
REMARK    5  A    between atoms: CA   and  CB  
REMARK    6  A    between atoms: CB   and  CG  
REMARK    7  A    between atoms: CG   and  CD  
REMARK    8  A    between atoms: CD   and  CE  
ROOT
ATOM      7  CA  LYS A 135      33.193  34.663   9.290  1.00 25.02     0.186 C 
ENDROOT
BRANCH   7   8
ATOM      8  CB  LYS A 135      32.060  35.360  10.034  1.00 26.63     0.034 C 
BRANCH   8   9
ATOM      9  CG  LYS A 135      30.791  35.473   9.229  1.00 29.45     0.005 C 
BRANCH   9  10
ATOM     10  CD  LYS A 135      30.208  34.097   8.950  1.00 32.00     0.041 C 
BRANCH  10  11
ATOM     11  CE  LYS A 135      28.739  34.055   9.324  1.00 34.25     0.338 C 
ATOM     12  NZ  LYS A 135      28.538  34.425  10.752  1.00 35.99     0.618 N 
ENDBRANCH  10  11
ENDBRANCH   9  10
ENDBRANCH   8   9
ENDBRANCH   7   8
END_RES LYS A 135
