REMARK VINA RESULT:    -4.842      4.001      7.466
REMARK INTER + INTRA:         -13.545
REMARK INTER:                  -8.444
REMARK INTRA:                  -5.101
REMARK UNBOUND:                -5.164
REMARK SMILES CC(=O)N[C@@H]1[C@@H](O)C[C@](O)(C(=O)O)O[C@H]1C(O)[C@H](O)CNC(=O)OCc1cn(-c2cccnc2)nn1
REMARK SMILES IDX 20 1 18 2 16 3 15 4 9 5 8 6 14 7 6 8 5 9 10 10 11 12 12 13
REMARK SMILES IDX 13 14 7 16 4 18 2 19 1 21 3 22 17 23 19 25 21 27 22 28 23 30
REMARK SMILES IDX 24 31 25 32 26 33 27 34 36 35 28 36 35 37 29 38 30 39 34 40
REMARK SMILES IDX 31 41 33 42 32 43
REMARK H PARENT 10 11 13 15 7 17 4 20 17 24 19 26 21 29
REMARK Flexibility Score: inf
ROOT
ATOM      1  C   UNL     1      30.072  31.302  16.528  1.00  0.00     0.154 C 
ENDROOT
BRANCH   1   2
ATOM      2  C   UNL     1      29.646  32.134  15.375  1.00  0.00     0.165 C 
BRANCH   2   3
ATOM      3  C   UNL     1      30.573  33.247  15.064  1.00  0.00     0.176 C 
BRANCH   3   4
ATOM      4  C   UNL     1      30.055  34.405  14.285  1.00  0.00     0.178 C 
ATOM      5  C   UNL     1      28.584  35.167  12.737  1.00  0.00     0.269 C 
ATOM      6  C   UNL     1      29.286  36.477  12.681  1.00  0.00     0.112 C 
ATOM      7  O   UNL     1      29.323  34.089  13.186  1.00  0.00    -0.332 OA
ATOM      8  C   UNL     1      30.342  36.723  13.700  1.00  0.00     0.145 C 
ATOM      9  C   UNL     1      31.127  35.402  13.945  1.00  0.00     0.142 C 
BRANCH   5  10
ATOM     10  O   UNL     1      28.264  34.855  11.377  1.00  0.00    -0.357 OA
ATOM     11  H   UNL     1      28.833  35.463  10.851  1.00  0.00     0.214 HD
ENDBRANCH   5  10
BRANCH   5  12
ATOM     12  C   UNL     1      27.283  35.236  13.440  1.00  0.00     0.364 C 
ATOM     13  O   UNL     1      26.649  34.178  13.678  1.00  0.00    -0.246 OA
BRANCH  12  14
ATOM     14  O   UNL     1      26.681  36.409  13.876  1.00  0.00    -0.477 OA
ATOM     15  H   UNL     1      25.834  36.291  14.443  1.00  0.00     0.296 HD
ENDBRANCH  12  14
ENDBRANCH   5  12
BRANCH   8  16
ATOM     16  O   UNL     1      31.296  37.623  13.223  1.00  0.00    -0.391 OA
ATOM     17  H   UNL     1      32.185  37.383  13.585  1.00  0.00     0.211 HD
ENDBRANCH   8  16
BRANCH   9  18
ATOM     18  N   UNL     1      31.919  35.651  15.120  1.00  0.00    -0.348 N 
ATOM     19  C   UNL     1      33.316  35.453  15.187  1.00  0.00     0.217 C 
ATOM     20  H   UNL     1      31.441  36.005  15.991  1.00  0.00     0.163 HD
ATOM     21  C   UNL     1      34.043  35.738  16.445  1.00  0.00     0.114 C 
ATOM     22  O   UNL     1      33.928  35.036  14.177  1.00  0.00    -0.275 OA
ENDBRANCH   9  18
ENDBRANCH   3   4
BRANCH   3  23
ATOM     23  O   UNL     1      31.859  32.854  14.744  1.00  0.00    -0.388 OA
ATOM     24  H   UNL     1      31.970  32.359  13.918  1.00  0.00     0.211 HD
ENDBRANCH   3  23
ENDBRANCH   2   3
BRANCH   2  25
ATOM     25  O   UNL     1      28.393  32.733  15.657  1.00  0.00    -0.388 OA
ATOM     26  H   UNL     1      27.756  32.381  15.003  1.00  0.00     0.211 HD
ENDBRANCH   2  25
ENDBRANCH   1   2
BRANCH   1  27
ATOM     27  N   UNL     1      29.162  30.284  16.963  1.00  0.00    -0.319 N 
ATOM     28  C   UNL     1      28.387  30.311  18.115  1.00  0.00     0.407 C 
ATOM     29  H   UNL     1      29.061  29.417  16.350  1.00  0.00     0.167 HD
ATOM     30  O   UNL     1      28.429  31.263  18.906  1.00  0.00    -0.225 OA
BRANCH  28  31
ATOM     31  O   UNL     1      27.507  29.272  18.468  1.00  0.00    -0.443 OA
BRANCH  31  32
ATOM     32  C   UNL     1      26.111  29.458  18.403  1.00  0.00     0.294 C 
BRANCH  32  33
ATOM     33  C   UNL     1      25.659  29.732  17.027  1.00  0.00     0.121 A 
ATOM     34  C   UNL     1      24.446  29.286  16.526  1.00  0.00     0.144 A 
ATOM     35  N   UNL     1      26.232  30.402  16.027  1.00  0.00    -0.131 NA
ATOM     36  N   UNL     1      24.329  29.697  15.252  1.00  0.00    -0.219 N 
ATOM     37  N   UNL     1      25.414  30.369  14.965  1.00  0.00    -0.062 NA
BRANCH  36  38
ATOM     38  C   UNL     1      23.234  29.455  14.362  1.00  0.00     0.085 A 
ATOM     39  C   UNL     1      23.099  30.158  13.178  1.00  0.00     0.031 A 
ATOM     40  C   UNL     1      22.285  28.506  14.681  1.00  0.00     0.139 A 
ATOM     41  C   UNL     1      22.013  29.887  12.342  1.00  0.00     0.022 A 
ATOM     42  N   UNL     1      21.235  28.263  13.848  1.00  0.00    -0.262 NA
ATOM     43  C   UNL     1      21.079  28.929  12.690  1.00  0.00     0.111 A 
ENDBRANCH  36  38
ENDBRANCH  32  33
ENDBRANCH  31  32
ENDBRANCH  28  31
ENDBRANCH   1  27
TORSDOF 15
BEGIN_RES LYS A 131
REMARK  4 active torsions:
REMARK  status: ('A' for Active; 'I' for Inactive)
REMARK    1  A    between atoms: CA   and  CB  
REMARK    2  A    between atoms: CB   and  CG  
REMARK    3  A    between atoms: CG   and  CD  
REMARK    4  A    between atoms: CD   and  CE  
ROOT
ATOM      1  CA  LYS A 131      29.867  25.555  16.977  1.00 20.52     0.186 C 
ENDROOT
BRANCH   1   2
ATOM      2  CB  LYS A 131      28.345  25.722  17.026  1.00 20.94     0.034 C 
BRANCH   2   3
ATOM      3  CG  LYS A 131      27.601  24.402  16.891  1.00 22.96     0.005 C 
BRANCH   3   4
ATOM      4  CD  LYS A 131      26.153  24.526  17.278  1.00 24.33     0.041 C 
BRANCH   4   5
ATOM      5  CE  LYS A 131      25.989  24.176  18.753  1.00 26.91     0.338 C 
ATOM      6  NZ  LYS A 131      25.651  25.387  19.539  1.00 27.40     0.618 N 
ENDBRANCH   4   5
ENDBRANCH   3   4
ENDBRANCH   2   3
ENDBRANCH   1   2
END_RES LYS A 131
BEGIN_RES LYS A 135
REMARK  4 active torsions:
REMARK  status: ('A' for Active; 'I' for Inactive)
REMARK    5  A    between atoms: CA   and  CB  
REMARK    6  A    between atoms: CB   and  CG  
REMARK    7  A    between atoms: CG   and  CD  
REMARK    8  A    between atoms: CD   and  CE  
ROOT
ATOM      7  CA  LYS A 135      33.193  34.663   9.290  1.00 25.02     0.186 C 
ENDROOT
BRANCH   7   8
ATOM      8  CB  LYS A 135      32.060  35.360  10.034  1.00 26.63     0.034 C 
BRANCH   8   9
ATOM      9  CG  LYS A 135      30.889  35.713   9.154  1.00 29.45     0.005 C 
BRANCH   9  10
ATOM     10  CD  LYS A 135      30.362  34.477   8.440  1.00 32.00     0.041 C 
BRANCH  10  11
ATOM     11  CE  LYS A 135      28.946  34.709   7.949  1.00 34.25     0.338 C 
ATOM     12  NZ  LYS A 135      28.936  35.549   6.720  1.00 35.99     0.618 N 
ENDBRANCH  10  11
ENDBRANCH   9  10
ENDBRANCH   8   9
ENDBRANCH   7   8
END_RES LYS A 135
