REMARK VINA RESULT:    -5.452      3.908      7.427
REMARK INTER + INTRA:         -17.950
REMARK INTER:                 -12.906
REMARK INTRA:                  -5.044
REMARK UNBOUND:                -7.717
REMARK SMILES CC(=O)N[C@@H]1[C@@H](O)C[C@](O)(C(=O)O)O[C@H]1C(O)[C@H](O)CNC(=O)OCc1cn(-c2ccc(-c3c4ccc(=O)cc-4oc4cc(O)ccc34)c(C(=O)[O-])c2)nn1
REMARK SMILES IDX 21 1 22 2 23 3 20 5 18 6 16 7 15 8 9 9 8 10 14 11 6 12 5 13
REMARK SMILES IDX 10 14 11 16 12 17 13 18 7 20 4 22 2 23 1 25 3 26 17 27 19 29
REMARK SMILES IDX 24 31 25 32 26 33 27 34 55 35 28 36 54 37 29 38 53 39 30 40
REMARK SMILES IDX 49 41 31 42 32 43 50 44 51 45 52 46 33 47 48 48 34 49 47 50
REMARK SMILES IDX 42 51 40 52 35 53 46 54 43 55 41 56 39 57 36 58 44 59 37 60
REMARK SMILES IDX 38 61 45 62
REMARK H PARENT 21 4 10 15 13 19 7 21 4 24 17 28 19 30 45 63
REMARK Flexibility Score: inf
ROOT
ATOM      1  N   UNL     1      30.527  30.281  19.711  1.00  0.00    -0.319 N 
ATOM      2  C   UNL     1      29.897  31.242  18.847  1.00  0.00     0.407 C 
ATOM      3  O   UNL     1      28.647  31.370  18.957  1.00  0.00    -0.225 OA
ATOM      4  H   UNL     1      31.552  30.135  19.663  1.00  0.00     0.167 HD
ENDROOT
BRANCH   1   5
ATOM      5  C   UNL     1      29.757  29.506  20.653  1.00  0.00     0.154 C 
BRANCH   5   6
ATOM      6  C   UNL     1      29.558  28.129  20.110  1.00  0.00     0.165 C 
BRANCH   6   7
ATOM      7  C   UNL     1      28.320  27.455  20.700  1.00  0.00     0.176 C 
BRANCH   7   8
ATOM      8  C   UNL     1      27.402  26.970  19.589  1.00  0.00     0.178 C 
ATOM      9  C   UNL     1      26.635  28.516  18.024  1.00  0.00     0.269 C 
ATOM     10  C   UNL     1      25.426  27.669  17.690  1.00  0.00     0.112 C 
ATOM     11  O   UNL     1      27.657  27.720  18.477  1.00  0.00    -0.332 OA
ATOM     12  C   UNL     1      25.009  26.855  18.860  1.00  0.00     0.145 C 
ATOM     13  C   UNL     1      25.977  26.909  20.016  1.00  0.00     0.142 C 
BRANCH   9  14
ATOM     14  O   UNL     1      26.234  29.487  18.906  1.00  0.00    -0.357 OA
ATOM     15  H   UNL     1      25.417  29.955  18.653  1.00  0.00     0.214 HD
ENDBRANCH   9  14
BRANCH   9  16
ATOM     16  C   UNL     1      27.079  29.148  16.758  1.00  0.00     0.364 C 
ATOM     17  O   UNL     1      26.293  29.889  16.118  1.00  0.00    -0.246 OA
BRANCH  16  18
ATOM     18  O   UNL     1      28.344  28.963  16.225  1.00  0.00    -0.477 OA
ATOM     19  H   UNL     1      28.691  28.025  15.970  1.00  0.00     0.296 HD
ENDBRANCH  16  18
ENDBRANCH   9  16
BRANCH  12  20
ATOM     20  O   UNL     1      23.753  27.227  19.335  1.00  0.00    -0.391 OA
ATOM     21  H   UNL     1      23.010  26.773  18.881  1.00  0.00     0.211 HD
ENDBRANCH  12  20
BRANCH  13  22
ATOM     22  N   UNL     1      25.735  25.687  20.798  1.00  0.00    -0.348 N 
ATOM     23  C   UNL     1      25.463  25.688  22.177  1.00  0.00     0.217 C 
ATOM     24  H   UNL     1      25.771  24.781  20.277  1.00  0.00     0.163 HD
ATOM     25  C   UNL     1      25.231  24.414  22.895  1.00  0.00     0.114 C 
ATOM     26  O   UNL     1      25.431  26.824  22.754  1.00  0.00    -0.275 OA
ENDBRANCH  13  22
ENDBRANCH   7   8
BRANCH   7  27
ATOM     27  O   UNL     1      27.690  28.432  21.479  1.00  0.00    -0.388 OA
ATOM     28  H   UNL     1      27.242  27.949  22.225  1.00  0.00     0.211 HD
ENDBRANCH   7  27
ENDBRANCH   6   7
BRANCH   6  29
ATOM     29  O   UNL     1      30.686  27.332  20.287  1.00  0.00    -0.388 OA
ATOM     30  H   UNL     1      31.243  27.628  21.045  1.00  0.00     0.211 HD
ENDBRANCH   6  29
ENDBRANCH   5   6
ENDBRANCH   1   5
BRANCH   2  31
ATOM     31  O   UNL     1      30.582  31.998  17.943  1.00  0.00    -0.443 OA
BRANCH  31  32
ATOM     32  C   UNL     1      30.451  31.792  16.557  1.00  0.00     0.294 C 
BRANCH  32  33
ATOM     33  C   UNL     1      29.883  33.009  15.945  1.00  0.00     0.121 A 
ATOM     34  C   UNL     1      29.730  33.273  14.582  1.00  0.00     0.144 A 
ATOM     35  N   UNL     1      29.412  34.098  16.569  1.00  0.00    -0.131 NA
ATOM     36  N   UNL     1      29.180  34.492  14.436  1.00  0.00    -0.220 N 
ATOM     37  N   UNL     1      29.000  34.963  15.652  1.00  0.00    -0.062 NA
BRANCH  36  38
ATOM     38  C   UNL     1      28.890  35.080  13.178  1.00  0.00     0.067 A 
ATOM     39  C   UNL     1      28.930  34.428  11.982  1.00  0.00     0.039 A 
ATOM     40  C   UNL     1      28.538  36.433  13.158  1.00  0.00     0.029 A 
ATOM     41  C   UNL     1      28.640  35.047  10.770  1.00  0.00     0.007 A 
ATOM     42  C   UNL     1      28.248  37.064  11.979  1.00  0.00     0.012 A 
ATOM     43  C   UNL     1      28.299  36.364  10.774  1.00  0.00    -0.008 A 
BRANCH  41  44
ATOM     44  C   UNL     1      28.693  34.314   9.507  1.00  0.00     0.072 C 
ATOM     45  O   UNL     1      29.766  34.250   8.829  1.00  0.00    -0.545 OA
ATOM     46  O   UNL     1      27.581  33.677   9.028  1.00  0.00    -0.545 OA
ENDBRANCH  41  44
BRANCH  43  47
ATOM     47  C   UNL     1      27.975  37.124   9.578  1.00  0.00     0.004 A 
ATOM     48  C   UNL     1      28.892  37.832   8.832  1.00  0.00     0.026 A 
ATOM     49  C   UNL     1      26.658  37.144   9.149  1.00  0.00     0.026 A 
ATOM     50  C   UNL     1      30.216  37.837   9.228  1.00  0.00     0.016 A 
ATOM     51  C   UNL     1      28.520  38.538   7.694  1.00  0.00     0.139 A 
ATOM     52  C   UNL     1      26.319  37.897   7.951  1.00  0.00     0.139 A 
ATOM     53  C   UNL     1      25.664  36.471   9.822  1.00  0.00     0.016 A 
ATOM     54  C   UNL     1      31.176  38.534   8.509  1.00  0.00     0.047 A 
ATOM     55  C   UNL     1      29.449  39.239   6.961  1.00  0.00     0.093 A 
ATOM     56  O   UNL     1      27.272  38.553   7.293  1.00  0.00    -0.456 OA
ATOM     57  C   UNL     1      25.025  37.921   7.521  1.00  0.00     0.099 A 
ATOM     58  C   UNL     1      24.383  36.526   9.351  1.00  0.00     0.053 A 
ATOM     59  C   UNL     1      30.776  39.226   7.384  1.00  0.00     0.119 A 
ATOM     60  C   UNL     1      24.046  37.240   8.211  1.00  0.00     0.182 A 
ATOM     61  O   UNL     1      22.850  37.259   7.817  1.00  0.00    -0.290 OA
BRANCH  59  62
ATOM     62  O   UNL     1      31.728  39.925   6.661  1.00  0.00    -0.508 OA
ATOM     63  H   UNL     1      31.544  40.399   5.797  1.00  0.00     0.293 HD
ENDBRANCH  59  62
ENDBRANCH  43  47
ENDBRANCH  36  38
ENDBRANCH  32  33
ENDBRANCH  31  32
ENDBRANCH   2  31
TORSDOF 18
BEGIN_RES LYS A 131
REMARK  4 active torsions:
REMARK  status: ('A' for Active; 'I' for Inactive)
REMARK    1  A    between atoms: CA   and  CB  
REMARK    2  A    between atoms: CB   and  CG  
REMARK    3  A    between atoms: CG   and  CD  
REMARK    4  A    between atoms: CD   and  CE  
ROOT
ATOM      1  CA  LYS A 131      29.867  25.555  16.977  1.00 20.52     0.186 C 
ENDROOT
BRANCH   1   2
ATOM      2  CB  LYS A 131      28.345  25.722  17.026  1.00 20.94     0.034 C 
BRANCH   2   3
ATOM      3  CG  LYS A 131      27.599  24.449  16.656  1.00 22.96     0.005 C 
BRANCH   3   4
ATOM      4  CD  LYS A 131      27.032  23.754  17.862  1.00 24.33     0.041 C 
BRANCH   4   5
ATOM      5  CE  LYS A 131      25.577  23.380  17.598  1.00 26.91     0.338 C 
ATOM      6  NZ  LYS A 131      24.954  22.823  18.822  1.00 27.40     0.618 N 
ENDBRANCH   4   5
ENDBRANCH   3   4
ENDBRANCH   2   3
ENDBRANCH   1   2
END_RES LYS A 131
BEGIN_RES LYS A 135
REMARK  4 active torsions:
REMARK  status: ('A' for Active; 'I' for Inactive)
REMARK    5  A    between atoms: CA   and  CB  
REMARK    6  A    between atoms: CB   and  CG  
REMARK    7  A    between atoms: CG   and  CD  
REMARK    8  A    between atoms: CD   and  CE  
ROOT
ATOM      7  CA  LYS A 135      33.193  34.663   9.290  1.00 25.02     0.186 C 
ENDROOT
BRANCH   7   8
ATOM      8  CB  LYS A 135      32.060  35.360  10.034  1.00 26.63     0.034 C 
BRANCH   8   9
ATOM      9  CG  LYS A 135      32.232  35.359  11.531  1.00 29.45     0.005 C 
BRANCH   9  10
ATOM     10  CD  LYS A 135      32.148  36.774  12.082  1.00 32.00     0.041 C 
BRANCH  10  11
ATOM     11  CE  LYS A 135      32.109  36.753  13.598  1.00 34.25     0.338 C 
ATOM     12  NZ  LYS A 135      32.593  35.449  14.130  1.00 35.99     0.618 N 
ENDBRANCH  10  11
ENDBRANCH   9  10
ENDBRANCH   8   9
ENDBRANCH   7   8
END_RES LYS A 135
