REMARK VINA RESULT:    -5.367      4.492      8.678
REMARK INTER + INTRA:         -15.555
REMARK INTER:                  -9.587
REMARK INTRA:                  -5.967
REMARK UNBOUND:                -5.794
REMARK SMILES CC(=O)N[C@@H]1[C@@H](O)C[C@](O)(C(=O)O)O[C@H]1C(O)[C@H](O)CNC(=O)OCc1cn(Cc2cc(Br)cc(Br)c2O)nn1
REMARK SMILES IDX 21 1 22 2 23 3 20 5 18 6 16 7 15 8 9 9 8 10 14 11 6 12 5 13
REMARK SMILES IDX 10 14 11 16 12 17 13 18 7 20 4 22 2 23 1 25 3 26 17 27 19 29
REMARK SMILES IDX 24 31 25 32 26 33 27 34 40 35 28 36 39 37 29 38 30 39 31 40
REMARK SMILES IDX 37 41 32 42 35 43 33 44 34 45 36 46 38 47
REMARK H PARENT 21 4 10 15 13 19 7 21 4 24 17 28 19 30 38 48
REMARK Flexibility Score: inf
ROOT
ATOM      1  N   UNL     1      29.058  31.159  17.140  1.00  0.00    -0.319 N 
ATOM      2  C   UNL     1      27.904  30.718  17.848  1.00  0.00     0.407 C 
ATOM      3  O   UNL     1      27.686  31.173  18.994  1.00  0.00    -0.225 OA
ATOM      4  H   UNL     1      29.216  30.768  16.195  1.00  0.00     0.167 HD
ENDROOT
BRANCH   1   5
ATOM      5  C   UNL     1      29.982  32.108  17.699  1.00  0.00     0.154 C 
BRANCH   5   6
ATOM      6  C   UNL     1      30.385  33.135  16.681  1.00  0.00     0.165 C 
BRANCH   6   7
ATOM      7  C   UNL     1      30.374  32.580  15.273  1.00  0.00     0.176 C 
BRANCH   7   8
ATOM      8  C   UNL     1      30.183  33.734  14.272  1.00  0.00     0.178 C 
ATOM      9  C   UNL     1      31.750  35.443  13.876  1.00  0.00     0.269 C 
ATOM     10  C   UNL     1      30.533  36.333  13.583  1.00  0.00     0.112 C 
ATOM     11  O   UNL     1      31.401  34.135  13.893  1.00  0.00    -0.332 OA
ATOM     12  C   UNL     1      29.654  36.141  14.810  1.00  0.00     0.145 C 
ATOM     13  C   UNL     1      29.214  34.706  14.797  1.00  0.00     0.142 C 
BRANCH   9  14
ATOM     14  O   UNL     1      32.285  35.922  15.055  1.00  0.00    -0.357 OA
ATOM     15  H   UNL     1      31.912  36.791  15.340  1.00  0.00     0.214 HD
ENDBRANCH   9  14
BRANCH   9  16
ATOM     16  C   UNL     1      32.753  35.633  12.798  1.00  0.00     0.364 C 
ATOM     17  O   UNL     1      32.629  36.616  12.025  1.00  0.00    -0.246 OA
BRANCH  16  18
ATOM     18  O   UNL     1      33.823  34.763  12.614  1.00  0.00    -0.477 OA
ATOM     19  H   UNL     1      33.995  34.107  13.390  1.00  0.00     0.296 HD
ENDBRANCH  16  18
ENDBRANCH   9  16
BRANCH  12  20
ATOM     20  O   UNL     1      30.348  36.472  15.972  1.00  0.00    -0.391 OA
ATOM     21  H   UNL     1      30.727  35.645  16.336  1.00  0.00     0.211 HD
ENDBRANCH  12  20
BRANCH  13  22
ATOM     22  N   UNL     1      27.926  34.666  14.105  1.00  0.00    -0.348 N 
ATOM     23  C   UNL     1      26.838  33.867  14.534  1.00  0.00     0.217 C 
ATOM     24  H   UNL     1      27.758  35.248  13.237  1.00  0.00     0.163 HD
ATOM     25  C   UNL     1      25.539  33.857  13.795  1.00  0.00     0.114 C 
ATOM     26  O   UNL     1      26.963  33.148  15.558  1.00  0.00    -0.275 OA
ENDBRANCH  13  22
ENDBRANCH   7   8
BRANCH   7  27
ATOM     27  O   UNL     1      31.462  31.798  14.970  1.00  0.00    -0.388 OA
ATOM     28  H   UNL     1      31.210  30.908  14.648  1.00  0.00     0.211 HD
ENDBRANCH   7  27
ENDBRANCH   6   7
BRANCH   6  29
ATOM     29  O   UNL     1      31.575  33.726  17.043  1.00  0.00    -0.388 OA
ATOM     30  H   UNL     1      32.243  33.761  16.333  1.00  0.00     0.211 HD
ENDBRANCH   6  29
ENDBRANCH   5   6
ENDBRANCH   1   5
BRANCH   2  31
ATOM     31  O   UNL     1      27.040  29.810  17.289  1.00  0.00    -0.443 OA
BRANCH  31  32
ATOM     32  C   UNL     1      25.673  29.749  17.655  1.00  0.00     0.294 C 
BRANCH  32  33
ATOM     33  C   UNL     1      24.857  30.296  16.539  1.00  0.00     0.120 A 
ATOM     34  C   UNL     1      24.954  29.962  15.194  1.00  0.00     0.138 A 
ATOM     35  N   UNL     1      23.869  31.208  16.577  1.00  0.00    -0.132 NA
ATOM     36  N   UNL     1      24.050  30.665  14.496  1.00  0.00    -0.248 N 
ATOM     37  N   UNL     1      23.386  31.433  15.375  1.00  0.00    -0.067 NA
BRANCH  36  38
ATOM     38  C   UNL     1      23.805  30.630  13.081  1.00  0.00     0.185 C 
BRANCH  38  39
ATOM     39  C   UNL     1      22.361  30.710  12.739  1.00  0.00     0.018 A 
ATOM     40  C   UNL     1      21.683  29.532  12.495  1.00  0.00     0.025 A 
ATOM     41  C   UNL     1      21.671  31.895  12.653  1.00  0.00     0.134 A 
ATOM     42  C   UNL     1      20.346  29.490  12.168  1.00  0.00     0.019 A 
ATOM     43  C   UNL     1      20.312  31.881  12.322  1.00  0.00     0.061 A 
ATOM     44  Br  UNL     1      19.437  27.853  11.839  1.00  0.00    -0.051 Br
ATOM     45  C   UNL     1      19.661  30.695  12.084  1.00  0.00     0.035 A 
ATOM     46  Br  UNL     1      19.425  33.580  12.223  1.00  0.00    -0.047 Br
BRANCH  41  47
ATOM     47  O   UNL     1      22.321  33.092  12.892  1.00  0.00    -0.506 OA
ATOM     48  H   UNL     1      23.251  33.078  13.286  1.00  0.00     0.293 HD
ENDBRANCH  41  47
ENDBRANCH  38  39
ENDBRANCH  36  38
ENDBRANCH  32  33
ENDBRANCH  31  32
ENDBRANCH   2  31
TORSDOF 17
BEGIN_RES LYS A 131
REMARK  4 active torsions:
REMARK  status: ('A' for Active; 'I' for Inactive)
REMARK    1  A    between atoms: CA   and  CB  
REMARK    2  A    between atoms: CB   and  CG  
REMARK    3  A    between atoms: CG   and  CD  
REMARK    4  A    between atoms: CD   and  CE  
ROOT
ATOM      1  CA  LYS A 131      29.867  25.555  16.977  1.00 20.52     0.186 C 
ENDROOT
BRANCH   1   2
ATOM      2  CB  LYS A 131      28.345  25.722  17.026  1.00 20.94     0.034 C 
BRANCH   2   3
ATOM      3  CG  LYS A 131      27.601  24.402  16.897  1.00 22.96     0.005 C 
BRANCH   3   4
ATOM      4  CD  LYS A 131      26.198  24.487  17.430  1.00 24.33     0.041 C 
BRANCH   4   5
ATOM      5  CE  LYS A 131      26.018  25.803  18.180  1.00 26.91     0.338 C 
ATOM      6  NZ  LYS A 131      25.602  25.550  19.580  1.00 27.40     0.618 N 
ENDBRANCH   4   5
ENDBRANCH   3   4
ENDBRANCH   2   3
ENDBRANCH   1   2
END_RES LYS A 131
BEGIN_RES LYS A 135
REMARK  4 active torsions:
REMARK  status: ('A' for Active; 'I' for Inactive)
REMARK    5  A    between atoms: CA   and  CB  
REMARK    6  A    between atoms: CB   and  CG  
REMARK    7  A    between atoms: CG   and  CD  
REMARK    8  A    between atoms: CD   and  CE  
ROOT
ATOM      7  CA  LYS A 135      33.193  34.663   9.290  1.00 25.02     0.186 C 
ENDROOT
BRANCH   7   8
ATOM      8  CB  LYS A 135      32.060  35.360  10.034  1.00 26.63     0.034 C 
BRANCH   8   9
ATOM      9  CG  LYS A 135      30.706  34.748   9.780  1.00 29.45     0.005 C 
BRANCH   9  10
ATOM     10  CD  LYS A 135      30.489  34.523   8.292  1.00 32.00     0.041 C 
BRANCH  10  11
ATOM     11  CE  LYS A 135      29.071  34.890   7.899  1.00 34.25     0.338 C 
ATOM     12  NZ  LYS A 135      28.082  34.285   8.834  1.00 35.99     0.618 N 
ENDBRANCH  10  11
ENDBRANCH   9  10
ENDBRANCH   8   9
ENDBRANCH   7   8
END_RES LYS A 135
