REMARK VINA RESULT:    -4.793      4.522      7.701
REMARK INTER + INTRA:         -15.325
REMARK INTER:                  -6.594
REMARK INTRA:                  -8.731
REMARK UNBOUND:                -5.909
REMARK SMILES CC(=O)N[C@@H]1[C@@H](O)C[C@](O)(C(=O)O)O[C@H]1C(O)[C@H](O)CNC(=O)OCc1cn(CCNC(=O)NCc2ccco2)nn1
REMARK SMILES IDX 24 1 22 2 21 3 23 5 20 6 18 7 16 8 15 9 9 10 8 11 14 12 6 13
REMARK SMILES IDX 5 14 10 15 11 17 12 18 13 19 7 21 4 23 2 24 1 26 3 27 17 28
REMARK SMILES IDX 19 30 25 32 26 33 27 34 42 35 28 36 41 37 29 38 30 39 31 40
REMARK SMILES IDX 32 41 33 43 34 44 35 46 36 47 37 48 40 49 38 50 39 51
REMARK H PARENT 21 4 10 16 13 20 7 22 4 25 17 29 19 31 31 42 34 45
REMARK Flexibility Score: inf
ROOT
ATOM      1  O   UNL     1      23.113  36.811  17.509  1.00  0.00    -0.443 OA
ENDROOT
BRANCH   1   2
ATOM      2  C   UNL     1      24.113  35.967  17.981  1.00  0.00     0.407 C 
ATOM      3  N   UNL     1      25.417  35.917  17.468  1.00  0.00    -0.319 N 
ATOM      4  H   UNL     1      25.687  36.534  16.689  1.00  0.00     0.167 HD
ATOM      5  O   UNL     1      23.818  35.199  18.934  1.00  0.00    -0.225 OA
BRANCH   3   6
ATOM      6  C   UNL     1      26.395  34.987  18.041  1.00  0.00     0.154 C 
BRANCH   6   7
ATOM      7  C   UNL     1      26.610  33.852  17.076  1.00  0.00     0.165 C 
BRANCH   7   8
ATOM      8  C   UNL     1      27.233  34.304  15.785  1.00  0.00     0.176 C 
BRANCH   8   9
ATOM      9  C   UNL     1      28.516  33.587  15.477  1.00  0.00     0.178 C 
ATOM     10  C   UNL     1      30.292  32.599  16.629  1.00  0.00     0.269 C 
ATOM     11  C   UNL     1      31.207  32.791  15.463  1.00  0.00     0.112 C 
ATOM     12  O   UNL     1      29.224  33.435  16.683  1.00  0.00    -0.332 OA
ATOM     13  C   UNL     1      30.601  33.404  14.266  1.00  0.00     0.145 C 
ATOM     14  C   UNL     1      29.463  34.355  14.587  1.00  0.00     0.142 C 
BRANCH  10  15
ATOM     15  O   UNL     1      31.079  32.890  17.774  1.00  0.00    -0.357 OA
ATOM     16  H   UNL     1      30.559  33.416  18.431  1.00  0.00     0.214 HD
ENDBRANCH  10  15
BRANCH  10  17
ATOM     17  C   UNL     1      29.837  31.195  16.782  1.00  0.00     0.364 C 
ATOM     18  O   UNL     1      29.300  30.566  15.826  1.00  0.00    -0.246 OA
BRANCH  17  19
ATOM     19  O   UNL     1      29.968  30.489  17.971  1.00  0.00    -0.477 OA
ATOM     20  H   UNL     1      29.164  30.361  18.576  1.00  0.00     0.296 HD
ENDBRANCH  17  19
ENDBRANCH  10  17
BRANCH  13  21
ATOM     21  O   UNL     1      31.590  34.085  13.526  1.00  0.00    -0.391 OA
ATOM     22  H   UNL     1      31.858  33.584  12.730  1.00  0.00     0.211 HD
ENDBRANCH  13  21
BRANCH  14  23
ATOM     23  N   UNL     1      28.899  34.887  13.395  1.00  0.00    -0.348 N 
ATOM     24  C   UNL     1      29.007  36.292  13.150  1.00  0.00     0.217 C 
ATOM     25  H   UNL     1      28.411  34.324  12.667  1.00  0.00     0.163 HD
ATOM     26  C   UNL     1      28.456  36.942  11.942  1.00  0.00     0.114 C 
ATOM     27  O   UNL     1      29.598  37.030  13.991  1.00  0.00    -0.275 OA
ENDBRANCH  14  23
ENDBRANCH   8   9
BRANCH   8  28
ATOM     28  O   UNL     1      26.345  34.354  14.726  1.00  0.00    -0.388 OA
ATOM     29  H   UNL     1      25.886  35.226  14.629  1.00  0.00     0.211 HD
ENDBRANCH   8  28
ENDBRANCH   7   8
BRANCH   7  30
ATOM     30  O   UNL     1      25.307  33.405  16.723  1.00  0.00    -0.388 OA
ATOM     31  H   UNL     1      25.189  33.738  15.781  1.00  0.00     0.211 HD
ENDBRANCH   7  30
ENDBRANCH   6   7
ENDBRANCH   3   6
ENDBRANCH   1   2
BRANCH   1  32
ATOM     32  C   UNL     1      21.987  36.306  16.823  1.00  0.00     0.294 C 
BRANCH  32  33
ATOM     33  C   UNL     1      22.460  35.348  15.800  1.00  0.00     0.120 A 
ATOM     34  C   UNL     1      21.960  34.100  15.543  1.00  0.00     0.138 A 
ATOM     35  N   UNL     1      23.472  35.543  14.940  1.00  0.00    -0.132 NA
ATOM     36  N   UNL     1      22.679  33.573  14.536  1.00  0.00    -0.250 N 
ATOM     37  N   UNL     1      23.597  34.453  14.172  1.00  0.00    -0.067 NA
BRANCH  36  38
ATOM     38  C   UNL     1      22.503  32.254  13.922  1.00  0.00     0.167 C 
BRANCH  38  39
ATOM     39  C   UNL     1      23.807  31.883  13.265  1.00  0.00     0.141 C 
BRANCH  39  40
ATOM     40  N   UNL     1      24.824  31.728  14.274  1.00  0.00    -0.336 N 
ATOM     41  C   UNL     1      25.067  30.528  14.983  1.00  0.00     0.315 C 
ATOM     42  H   UNL     1      25.446  32.549  14.521  1.00  0.00     0.165 HD
ATOM     43  O   UNL     1      24.347  29.519  14.717  1.00  0.00    -0.249 OA
ATOM     44  N   UNL     1      26.093  30.477  15.962  1.00  0.00    -0.331 N 
ATOM     45  H   UNL     1      26.695  31.286  16.198  1.00  0.00     0.165 HD
BRANCH  44  46
ATOM     46  C   UNL     1      26.311  29.233  16.666  1.00  0.00     0.193 C 
BRANCH  46  47
ATOM     47  C   UNL     1      26.570  29.540  18.089  1.00  0.00     0.122 A 
ATOM     48  C   UNL     1      26.487  28.602  19.112  1.00  0.00     0.047 A 
ATOM     49  O   UNL     1      26.902  30.684  18.598  1.00  0.00    -0.467 OA
ATOM     50  C   UNL     1      26.798  29.289  20.266  1.00  0.00     0.042 A 
ATOM     51  C   UNL     1      27.050  30.591  19.884  1.00  0.00     0.195 A 
ENDBRANCH  46  47
ENDBRANCH  44  46
ENDBRANCH  39  40
ENDBRANCH  38  39
ENDBRANCH  36  38
ENDBRANCH  32  33
ENDBRANCH   1  32
TORSDOF 19
BEGIN_RES LYS A 131
REMARK  4 active torsions:
REMARK  status: ('A' for Active; 'I' for Inactive)
REMARK    1  A    between atoms: CA   and  CB  
REMARK    2  A    between atoms: CB   and  CG  
REMARK    3  A    between atoms: CG   and  CD  
REMARK    4  A    between atoms: CD   and  CE  
ROOT
ATOM      1  CA  LYS A 131      29.867  25.555  16.977  1.00 20.52     0.186 C 
ENDROOT
BRANCH   1   2
ATOM      2  CB  LYS A 131      28.345  25.722  17.026  1.00 20.94     0.034 C 
BRANCH   2   3
ATOM      3  CG  LYS A 131      27.599  24.428  16.740  1.00 22.96     0.005 C 
BRANCH   3   4
ATOM      4  CD  LYS A 131      26.995  23.836  17.984  1.00 24.33     0.041 C 
BRANCH   4   5
ATOM      5  CE  LYS A 131      25.561  23.403  17.697  1.00 26.91     0.338 C 
ATOM      6  NZ  LYS A 131      24.857  24.436  16.900  1.00 27.40     0.618 N 
ENDBRANCH   4   5
ENDBRANCH   3   4
ENDBRANCH   2   3
ENDBRANCH   1   2
END_RES LYS A 131
BEGIN_RES LYS A 135
REMARK  4 active torsions:
REMARK  status: ('A' for Active; 'I' for Inactive)
REMARK    5  A    between atoms: CA   and  CB  
REMARK    6  A    between atoms: CB   and  CG  
REMARK    7  A    between atoms: CG   and  CD  
REMARK    8  A    between atoms: CD   and  CE  
ROOT
ATOM      7  CA  LYS A 135      33.193  34.663   9.290  1.00 25.02     0.186 C 
ENDROOT
BRANCH   7   8
ATOM      8  CB  LYS A 135      32.060  35.360  10.034  1.00 26.63     0.034 C 
BRANCH   8   9
ATOM      9  CG  LYS A 135      30.738  34.646   9.923  1.00 29.45     0.005 C 
BRANCH   9  10
ATOM     10  CD  LYS A 135      30.324  34.505   8.466  1.00 32.00     0.041 C 
BRANCH  10  11
ATOM     11  CE  LYS A 135      28.814  34.535   8.336  1.00 34.25     0.338 C 
ATOM     12  NZ  LYS A 135      28.163  33.822   9.470  1.00 35.99     0.618 N 
ENDBRANCH  10  11
ENDBRANCH   9  10
ENDBRANCH   8   9
ENDBRANCH   7   8
END_RES LYS A 135
