REMARK VINA RESULT:    -5.514      4.948      8.476
REMARK INTER + INTRA:         -15.942
REMARK INTER:                 -10.928
REMARK INTRA:                  -5.014
REMARK UNBOUND:                -5.110
REMARK SMILES CC(=O)N[C@@H]1[C@@H](O)C[C@](O)(C(=O)O)O[C@H]1C(O)[C@H](O)CNC(=O)OCc1cn([C@@H](C)C(=O)OCc2ccccc2)nn1
REMARK SMILES IDX 24 1 22 2 21 3 23 5 20 6 18 7 16 8 15 9 9 10 8 11 14 12 6 13
REMARK SMILES IDX 5 14 10 15 11 17 12 18 13 19 7 21 4 23 2 24 1 26 3 27 17 28
REMARK SMILES IDX 19 30 25 32 26 33 27 34 42 35 28 36 41 37 29 38 30 39 31 40
REMARK SMILES IDX 32 41 33 42 34 43 35 44 36 45 40 46 37 47 39 48 38 49
REMARK H PARENT 21 4 10 16 13 20 7 22 4 25 17 29 19 31
REMARK Flexibility Score: inf
ROOT
ATOM      1  O   UNL     1      27.490  35.011  12.742  1.00  0.00    -0.443 OA
ENDROOT
BRANCH   1   2
ATOM      2  C   UNL     1      27.647  34.565  11.409  1.00  0.00     0.407 C 
ATOM      3  N   UNL     1      28.921  34.561  10.802  1.00  0.00    -0.319 N 
ATOM      4  H   UNL     1      29.719  34.925  11.411  1.00  0.00     0.167 HD
ATOM      5  O   UNL     1      26.603  34.191  10.841  1.00  0.00    -0.225 OA
BRANCH   3   6
ATOM      6  C   UNL     1      29.157  34.109   9.468  1.00  0.00     0.154 C 
BRANCH   6   7
ATOM      7  C   UNL     1      29.388  35.238   8.521  1.00  0.00     0.165 C 
BRANCH   7   8
ATOM      8  C   UNL     1      28.118  35.516   7.719  1.00  0.00     0.176 C 
BRANCH   8   9
ATOM      9  C   UNL     1      27.577  36.897   7.919  1.00  0.00     0.178 C 
ATOM     10  C   UNL     1      28.671  37.954   6.137  1.00  0.00     0.269 C 
ATOM     11  C   UNL     1      29.651  38.524   7.112  1.00  0.00     0.112 C 
ATOM     12  O   UNL     1      27.473  37.580   6.694  1.00  0.00    -0.332 OA
ATOM     13  C   UNL     1      28.906  38.974   8.352  1.00  0.00     0.145 C 
ATOM     14  C   UNL     1      28.269  37.728   8.949  1.00  0.00     0.142 C 
BRANCH  10  15
ATOM     15  O   UNL     1      29.243  36.921   5.431  1.00  0.00    -0.357 OA
ATOM     16  H   UNL     1      29.584  36.190   6.017  1.00  0.00     0.214 HD
ENDBRANCH  10  15
BRANCH  10  17
ATOM     17  C   UNL     1      28.330  39.033   5.140  1.00  0.00     0.364 C 
ATOM     18  O   UNL     1      28.908  40.149   5.178  1.00  0.00    -0.246 OA
BRANCH  17  19
ATOM     19  O   UNL     1      27.377  38.844   4.149  1.00  0.00    -0.477 OA
ATOM     20  H   UNL     1      26.491  38.350   4.335  1.00  0.00     0.296 HD
ENDBRANCH  17  19
ENDBRANCH  10  17
BRANCH  13  21
ATOM     21  O   UNL     1      29.761  39.594   9.241  1.00  0.00    -0.391 OA
ATOM     22  H   UNL     1      30.673  39.210   9.236  1.00  0.00     0.211 HD
ENDBRANCH  13  21
BRANCH  14  23
ATOM     23  N   UNL     1      27.385  38.124  10.050  1.00  0.00    -0.348 N 
ATOM     24  C   UNL     1      27.809  38.131  11.412  1.00  0.00     0.217 C 
ATOM     25  H   UNL     1      26.390  38.419   9.865  1.00  0.00     0.163 HD
ATOM     26  C   UNL     1      26.860  38.545  12.491  1.00  0.00     0.114 C 
ATOM     27  O   UNL     1      28.981  37.791  11.696  1.00  0.00    -0.275 OA
ENDBRANCH  14  23
ENDBRANCH   8   9
BRANCH   8  28
ATOM     28  O   UNL     1      27.135  34.598   8.105  1.00  0.00    -0.388 OA
ATOM     29  H   UNL     1      27.336  33.715   7.691  1.00  0.00     0.211 HD
ENDBRANCH   8  28
ENDBRANCH   7   8
BRANCH   7  30
ATOM     30  O   UNL     1      30.427  34.916   7.648  1.00  0.00    -0.388 OA
ATOM     31  H   UNL     1      30.504  35.569   6.892  1.00  0.00     0.211 HD
ENDBRANCH   7  30
ENDBRANCH   6   7
ENDBRANCH   3   6
ENDBRANCH   1   2
BRANCH   1  32
ATOM     32  C   UNL     1      28.551  34.807  13.652  1.00  0.00     0.294 C 
BRANCH  32  33
ATOM     33  C   UNL     1      28.083  34.241  14.932  1.00  0.00     0.120 A 
ATOM     34  C   UNL     1      27.426  33.056  15.164  1.00  0.00     0.139 A 
ATOM     35  N   UNL     1      28.231  34.813  16.138  1.00  0.00    -0.132 NA
ATOM     36  N   UNL     1      27.190  32.936  16.492  1.00  0.00    -0.238 N 
ATOM     37  N   UNL     1      27.684  34.005  17.052  1.00  0.00    -0.066 NA
BRANCH  36  38
ATOM     38  C   UNL     1      26.522  31.833  17.130  1.00  0.00     0.215 C 
ATOM     39  C   UNL     1      26.288  30.718  16.135  1.00  0.00     0.046 C 
BRANCH  38  40
ATOM     40  C   UNL     1      27.301  31.400  18.298  1.00  0.00     0.331 C 
ATOM     41  O   UNL     1      26.965  31.797  19.454  1.00  0.00    -0.250 OA
BRANCH  40  42
ATOM     42  O   UNL     1      28.397  30.570  18.197  1.00  0.00    -0.459 OA
BRANCH  42  43
ATOM     43  C   UNL     1      29.687  30.835  18.649  1.00  0.00     0.268 C 
BRANCH  43  44
ATOM     44  C   UNL     1      30.364  31.748  17.686  1.00  0.00    -0.011 A 
ATOM     45  C   UNL     1      30.865  32.959  18.110  1.00  0.00     0.007 A 
ATOM     46  C   UNL     1      30.494  31.385  16.373  1.00  0.00     0.007 A 
ATOM     47  C   UNL     1      31.493  33.802  17.227  1.00  0.00     0.000 A 
ATOM     48  C   UNL     1      31.114  32.204  15.472  1.00  0.00     0.000 A 
ATOM     49  C   UNL     1      31.612  33.411  15.900  1.00  0.00     0.000 A 
ENDBRANCH  43  44
ENDBRANCH  42  43
ENDBRANCH  40  42
ENDBRANCH  38  40
ENDBRANCH  36  38
ENDBRANCH  32  33
ENDBRANCH   1  32
TORSDOF 19
BEGIN_RES LYS A 131
REMARK  4 active torsions:
REMARK  status: ('A' for Active; 'I' for Inactive)
REMARK    1  A    between atoms: CA   and  CB  
REMARK    2  A    between atoms: CB   and  CG  
REMARK    3  A    between atoms: CG   and  CD  
REMARK    4  A    between atoms: CD   and  CE  
ROOT
ATOM      1  CA  LYS A 131      29.867  25.555  16.977  1.00 20.52     0.186 C 
ENDROOT
BRANCH   1   2
ATOM      2  CB  LYS A 131      28.345  25.722  17.026  1.00 20.94     0.034 C 
BRANCH   2   3
ATOM      3  CG  LYS A 131      27.601  24.401  16.899  1.00 22.96     0.005 C 
BRANCH   3   4
ATOM      4  CD  LYS A 131      26.138  24.543  17.213  1.00 24.33     0.041 C 
BRANCH   4   5
ATOM      5  CE  LYS A 131      25.589  23.204  17.696  1.00 26.91     0.338 C 
ATOM      6  NZ  LYS A 131      25.474  23.192  19.173  1.00 27.40     0.618 N 
ENDBRANCH   4   5
ENDBRANCH   3   4
ENDBRANCH   2   3
ENDBRANCH   1   2
END_RES LYS A 131
BEGIN_RES LYS A 135
REMARK  4 active torsions:
REMARK  status: ('A' for Active; 'I' for Inactive)
REMARK    5  A    between atoms: CA   and  CB  
REMARK    6  A    between atoms: CB   and  CG  
REMARK    7  A    between atoms: CG   and  CD  
REMARK    8  A    between atoms: CD   and  CE  
ROOT
ATOM      7  CA  LYS A 135      33.193  34.663   9.290  1.00 25.02     0.186 C 
ENDROOT
BRANCH   7   8
ATOM      8  CB  LYS A 135      32.060  35.360  10.034  1.00 26.63     0.034 C 
BRANCH   8   9
ATOM      9  CG  LYS A 135      32.397  36.763  10.467  1.00 29.45     0.005 C 
BRANCH   9  10
ATOM     10  CD  LYS A 135      32.396  36.872  11.984  1.00 32.00     0.041 C 
BRANCH  10  11
ATOM     11  CE  LYS A 135      32.209  35.506  12.616  1.00 34.25     0.338 C 
ATOM     12  NZ  LYS A 135      33.445  35.069  13.323  1.00 35.99     0.618 N 
ENDBRANCH  10  11
ENDBRANCH   9  10
ENDBRANCH   8   9
ENDBRANCH   7   8
END_RES LYS A 135
