REMARK VINA RESULT:    -5.427      7.925     13.070
REMARK INTER + INTRA:         -15.198
REMARK INTER:                  -8.642
REMARK INTRA:                  -6.556
REMARK UNBOUND:                -5.012
REMARK SMILES CC(=O)N[C@@H]1[C@@H](O)C[C@](O)(C(=O)O)O[C@H]1C(O)[C@H](O)CNC(=O)OCc1cn(CC(O)c2ccccc2)nn1
REMARK SMILES IDX 21 1 22 2 23 3 20 5 18 6 16 7 15 8 9 9 8 10 14 11 6 12 5 13
REMARK SMILES IDX 10 14 11 16 12 17 13 18 7 20 4 22 2 23 1 25 3 26 17 27 19 29
REMARK SMILES IDX 24 31 25 32 26 33 27 34 39 35 28 36 38 37 29 38 30 39 31 40
REMARK SMILES IDX 32 42 33 43 37 44 34 45 36 46 35 47
REMARK H PARENT 21 4 10 15 13 19 7 21 4 24 17 28 19 30 31 41
REMARK Flexibility Score: inf
ROOT
ATOM      1  N   UNL     1      20.221  36.684   7.778  1.00  0.00    -0.319 N 
ATOM      2  C   UNL     1      19.190  35.725   7.933  1.00  0.00     0.407 C 
ATOM      3  O   UNL     1      19.392  34.554   7.540  1.00  0.00    -0.225 OA
ATOM      4  H   UNL     1      19.970  37.655   8.142  1.00  0.00     0.167 HD
ENDROOT
BRANCH   1   5
ATOM      5  C   UNL     1      21.513  36.422   7.188  1.00  0.00     0.154 C 
BRANCH   5   6
ATOM      6  C   UNL     1      22.606  37.269   7.805  1.00  0.00     0.165 C 
BRANCH   6   7
ATOM      7  C   UNL     1      23.180  36.574   9.041  1.00  0.00     0.176 C 
BRANCH   7   8
ATOM      8  C   UNL     1      24.666  36.343   8.973  1.00  0.00     0.178 C 
ATOM      9  C   UNL     1      24.974  36.181  11.288  1.00  0.00     0.269 C 
ATOM     10  C   UNL     1      24.923  37.654  11.359  1.00  0.00     0.112 C 
ATOM     11  O   UNL     1      25.029  35.573  10.080  1.00  0.00    -0.332 OA
ATOM     12  C   UNL     1      25.360  38.419  10.149  1.00  0.00     0.145 C 
ATOM     13  C   UNL     1      25.433  37.593   8.888  1.00  0.00     0.142 C 
BRANCH   9  14
ATOM     14  O   UNL     1      23.770  35.716  11.898  1.00  0.00    -0.357 OA
ATOM     15  H   UNL     1      24.049  34.988  12.495  1.00  0.00     0.214 HD
ENDBRANCH   9  14
BRANCH   9  16
ATOM     16  C   UNL     1      26.060  35.694  12.219  1.00  0.00     0.364 C 
ATOM     17  O   UNL     1      26.862  36.479  12.776  1.00  0.00    -0.246 OA
BRANCH  16  18
ATOM     18  O   UNL     1      26.187  34.333  12.478  1.00  0.00    -0.477 OA
ATOM     19  H   UNL     1      26.506  33.960  13.359  1.00  0.00     0.296 HD
ENDBRANCH  16  18
ENDBRANCH   9  16
BRANCH  12  20
ATOM     20  O   UNL     1      24.496  39.534   9.956  1.00  0.00    -0.391 OA
ATOM     21  H   UNL     1      24.443  39.995  10.815  1.00  0.00     0.211 HD
ENDBRANCH  12  20
BRANCH  13  22
ATOM     22  N   UNL     1      26.850  37.401   8.621  1.00  0.00    -0.348 N 
ATOM     23  C   UNL     1      27.574  38.115   7.635  1.00  0.00     0.217 C 
ATOM     24  H   UNL     1      27.323  36.686   9.214  1.00  0.00     0.163 HD
ATOM     25  C   UNL     1      29.020  37.896   7.388  1.00  0.00     0.114 C 
ATOM     26  O   UNL     1      26.914  38.957   6.971  1.00  0.00    -0.275 OA
ENDBRANCH  13  22
ENDBRANCH   7   8
BRANCH   7  27
ATOM     27  O   UNL     1      22.576  35.263   8.939  1.00  0.00    -0.388 OA
ATOM     28  H   UNL     1      21.631  35.327   8.730  1.00  0.00     0.211 HD
ENDBRANCH   7  27
ENDBRANCH   6   7
BRANCH   6  29
ATOM     29  O   UNL     1      22.105  38.522   8.069  1.00  0.00    -0.388 OA
ATOM     30  H   UNL     1      22.531  38.850   8.895  1.00  0.00     0.211 HD
ENDBRANCH   6  29
ENDBRANCH   5   6
ENDBRANCH   1   5
BRANCH   2  31
ATOM     31  O   UNL     1      17.961  36.021   8.504  1.00  0.00    -0.443 OA
BRANCH  31  32
ATOM     32  C   UNL     1      17.814  36.339   9.874  1.00  0.00     0.294 C 
BRANCH  32  33
ATOM     33  C   UNL     1      18.928  35.725  10.625  1.00  0.00     0.120 A 
ATOM     34  C   UNL     1      18.924  34.478  11.230  1.00  0.00     0.138 A 
ATOM     35  N   UNL     1      20.161  36.220  10.886  1.00  0.00    -0.132 NA
ATOM     36  N   UNL     1      20.113  34.260  11.820  1.00  0.00    -0.249 N 
ATOM     37  N   UNL     1      20.837  35.329  11.595  1.00  0.00    -0.067 NA
BRANCH  36  38
ATOM     38  C   UNL     1      20.484  33.046  12.559  1.00  0.00     0.182 C 
BRANCH  38  39
ATOM     39  C   UNL     1      21.987  32.908  12.545  1.00  0.00     0.166 C 
BRANCH  39  40
ATOM     40  O   UNL     1      22.469  33.550  13.708  1.00  0.00    -0.386 OA
ATOM     41  H   UNL     1      22.276  34.525  13.642  1.00  0.00     0.211 HD
ENDBRANCH  39  40
BRANCH  39  42
ATOM     42  C   UNL     1      22.359  31.482  12.631  1.00  0.00    -0.018 A 
ATOM     43  C   UNL     1      21.471  30.463  12.352  1.00  0.00     0.006 A 
ATOM     44  C   UNL     1      23.665  31.146  13.011  1.00  0.00     0.006 A 
ATOM     45  C   UNL     1      21.837  29.142  12.437  1.00  0.00     0.000 A 
ATOM     46  C   UNL     1      24.031  29.833  13.096  1.00  0.00     0.000 A 
ATOM     47  C   UNL     1      23.125  28.838  12.812  1.00  0.00     0.000 A 
ENDBRANCH  39  42
ENDBRANCH  38  39
ENDBRANCH  36  38
ENDBRANCH  32  33
ENDBRANCH  31  32
ENDBRANCH   2  31
TORSDOF 18
BEGIN_RES LYS A 131
REMARK  4 active torsions:
REMARK  status: ('A' for Active; 'I' for Inactive)
REMARK    1  A    between atoms: CA   and  CB  
REMARK    2  A    between atoms: CB   and  CG  
REMARK    3  A    between atoms: CG   and  CD  
REMARK    4  A    between atoms: CD   and  CE  
ROOT
ATOM      1  CA  LYS A 131      29.867  25.555  16.977  1.00 20.52     0.186 C 
ENDROOT
BRANCH   1   2
ATOM      2  CB  LYS A 131      28.345  25.722  17.026  1.00 20.94     0.034 C 
BRANCH   2   3
ATOM      3  CG  LYS A 131      27.601  24.403  16.888  1.00 22.96     0.005 C 
BRANCH   3   4
ATOM      4  CD  LYS A 131      26.495  24.268  17.898  1.00 24.33     0.041 C 
BRANCH   4   5
ATOM      5  CE  LYS A 131      25.156  24.561  17.228  1.00 26.91     0.338 C 
ATOM      6  NZ  LYS A 131      24.373  25.526  18.036  1.00 27.40     0.618 N 
ENDBRANCH   4   5
ENDBRANCH   3   4
ENDBRANCH   2   3
ENDBRANCH   1   2
END_RES LYS A 131
BEGIN_RES LYS A 135
REMARK  4 active torsions:
REMARK  status: ('A' for Active; 'I' for Inactive)
REMARK    5  A    between atoms: CA   and  CB  
REMARK    6  A    between atoms: CB   and  CG  
REMARK    7  A    between atoms: CG   and  CD  
REMARK    8  A    between atoms: CD   and  CE  
ROOT
ATOM      7  CA  LYS A 135      33.193  34.663   9.290  1.00 25.02     0.186 C 
ENDROOT
BRANCH   7   8
ATOM      8  CB  LYS A 135      32.060  35.360  10.034  1.00 26.63     0.034 C 
BRANCH   8   9
ATOM      9  CG  LYS A 135      30.742  34.636   9.939  1.00 29.45     0.005 C 
BRANCH   9  10
ATOM     10  CD  LYS A 135      30.328  34.463   8.485  1.00 32.00     0.041 C 
BRANCH  10  11
ATOM     11  CE  LYS A 135      28.818  34.407   8.364  1.00 34.25     0.338 C 
ATOM     12  NZ  LYS A 135      28.201  33.853   9.601  1.00 35.99     0.618 N 
ENDBRANCH  10  11
ENDBRANCH   9  10
ENDBRANCH   8   9
ENDBRANCH   7   8
END_RES LYS A 135
