REMARK VINA RESULT:    -4.388      7.422     12.745
REMARK INTER + INTRA:         -13.382
REMARK INTER:                  -7.340
REMARK INTRA:                  -6.041
REMARK UNBOUND:                -5.786
REMARK SMILES CC(=O)N[C@@H]1[C@@H](O)C[C@](O)(C(=O)O)O[C@H]1C(O)[C@H](O)CNC(=O)OCc1cn(C2CCN(C)CC2)nn1
REMARK SMILES IDX 20 1 18 2 16 3 15 4 9 5 8 6 14 7 6 8 5 9 10 10 11 12 12 13
REMARK SMILES IDX 13 14 7 16 4 18 2 19 1 21 3 22 17 23 19 25 21 27 22 28 23 30
REMARK SMILES IDX 24 31 25 32 26 33 27 34 37 35 28 36 36 37 29 38 30 39 35 40
REMARK SMILES IDX 31 41 34 42 32 43 33 44
REMARK H PARENT 10 11 13 15 7 17 4 20 17 24 19 26 21 29
REMARK Flexibility Score: inf
ROOT
ATOM      1  C   UNL     1      20.513  35.701   8.056  1.00  0.00     0.154 C 
ENDROOT
BRANCH   1   2
ATOM      2  C   UNL     1      21.899  36.241   7.931  1.00  0.00     0.165 C 
BRANCH   2   3
ATOM      3  C   UNL     1      22.675  36.159   9.229  1.00  0.00     0.176 C 
BRANCH   3   4
ATOM      4  C   UNL     1      23.954  36.959   9.107  1.00  0.00     0.178 C 
ATOM      5  C   UNL     1      25.659  37.582   7.638  1.00  0.00     0.269 C 
ATOM      6  C   UNL     1      26.696  37.299   8.682  1.00  0.00     0.112 C 
ATOM      7  O   UNL     1      24.437  37.011   7.838  1.00  0.00    -0.332 OA
ATOM      8  C   UNL     1      26.125  37.411  10.071  1.00  0.00     0.145 C 
ATOM      9  C   UNL     1      24.927  36.467  10.132  1.00  0.00     0.142 C 
BRANCH   5  10
ATOM     10  O   UNL     1      26.203  37.190   6.382  1.00  0.00    -0.357 OA
ATOM     11  H   UNL     1      25.523  36.736   5.828  1.00  0.00     0.214 HD
ENDBRANCH   5  10
BRANCH   5  12
ATOM     12  C   UNL     1      25.456  39.052   7.573  1.00  0.00     0.364 C 
ATOM     13  O   UNL     1      24.334  39.514   7.246  1.00  0.00    -0.246 OA
BRANCH  12  14
ATOM     14  O   UNL     1      26.436  39.991   7.854  1.00  0.00    -0.477 OA
ATOM     15  H   UNL     1      27.052  40.374   7.137  1.00  0.00     0.296 HD
ENDBRANCH  12  14
ENDBRANCH   5  12
BRANCH   8  16
ATOM     16  O   UNL     1      27.058  37.038  11.043  1.00  0.00    -0.391 OA
ATOM     17  H   UNL     1      26.633  36.680  11.853  1.00  0.00     0.211 HD
ENDBRANCH   8  16
BRANCH   9  18
ATOM     18  N   UNL     1      24.373  36.659  11.478  1.00  0.00    -0.348 N 
ATOM     19  C   UNL     1      24.641  35.767  12.535  1.00  0.00     0.217 C 
ATOM     20  H   UNL     1      23.775  37.485  11.616  1.00  0.00     0.163 HD
ATOM     21  C   UNL     1      24.065  35.979  13.909  1.00  0.00     0.114 C 
ATOM     22  O   UNL     1      25.380  34.775  12.308  1.00  0.00    -0.275 OA
ENDBRANCH   9  18
ENDBRANCH   3   4
BRANCH   3  23
ATOM     23  O   UNL     1      22.902  34.835   9.526  1.00  0.00    -0.388 OA
ATOM     24  H   UNL     1      22.893  34.283   8.704  1.00  0.00     0.211 HD
ENDBRANCH   3  23
ENDBRANCH   2   3
BRANCH   2  25
ATOM     25  O   UNL     1      21.806  37.607   7.577  1.00  0.00    -0.388 OA
ATOM     26  H   UNL     1      21.839  38.183   8.386  1.00  0.00     0.211 HD
ENDBRANCH   2  25
ENDBRANCH   1   2
BRANCH   1  27
ATOM     27  N   UNL     1      20.216  35.507   9.458  1.00  0.00    -0.319 N 
ATOM     28  C   UNL     1      18.990  34.989   9.956  1.00  0.00     0.407 C 
ATOM     29  H   UNL     1      20.922  35.749  10.218  1.00  0.00     0.167 HD
ATOM     30  O   UNL     1      18.098  34.672   9.155  1.00  0.00    -0.225 OA
BRANCH  28  31
ATOM     31  O   UNL     1      18.750  34.823  11.314  1.00  0.00    -0.443 OA
BRANCH  31  32
ATOM     32  C   UNL     1      18.799  33.538  11.901  1.00  0.00     0.294 C 
BRANCH  32  33
ATOM     33  C   UNL     1      20.205  33.119  12.134  1.00  0.00     0.120 A 
ATOM     34  C   UNL     1      20.677  31.883  12.470  1.00  0.00     0.138 A 
ATOM     35  N   UNL     1      21.288  33.914  12.053  1.00  0.00    -0.132 NA
ATOM     36  N   UNL     1      22.014  31.941  12.587  1.00  0.00    -0.249 N 
ATOM     37  N   UNL     1      22.354  33.206  12.322  1.00  0.00    -0.067 NA
BRANCH  36  38
ATOM     38  C   UNL     1      22.889  30.842  12.929  1.00  0.00     0.111 C 
ATOM     39  C   UNL     1      22.332  30.026  14.073  1.00  0.00     0.043 C 
ATOM     40  C   UNL     1      24.289  31.314  13.189  1.00  0.00     0.043 C 
ATOM     41  C   UNL     1      22.667  30.617  15.422  1.00  0.00     0.086 C 
ATOM     42  C   UNL     1      24.489  31.912  14.546  1.00  0.00     0.086 C 
ATOM     43  N   UNL     1      24.046  30.985  15.543  1.00  0.00    -0.306 NA
ATOM     44  C   UNL     1      24.932  29.856  15.587  1.00  0.00     0.105 C 
ENDBRANCH  36  38
ENDBRANCH  32  33
ENDBRANCH  31  32
ENDBRANCH  28  31
ENDBRANCH   1  27
TORSDOF 15
BEGIN_RES LYS A 131
REMARK  4 active torsions:
REMARK  status: ('A' for Active; 'I' for Inactive)
REMARK    1  A    between atoms: CA   and  CB  
REMARK    2  A    between atoms: CB   and  CG  
REMARK    3  A    between atoms: CG   and  CD  
REMARK    4  A    between atoms: CD   and  CE  
ROOT
ATOM      1  CA  LYS A 131      29.867  25.555  16.977  1.00 20.52     0.186 C 
ENDROOT
BRANCH   1   2
ATOM      2  CB  LYS A 131      28.345  25.722  17.026  1.00 20.94     0.034 C 
BRANCH   2   3
ATOM      3  CG  LYS A 131      27.601  24.404  16.877  1.00 22.96     0.005 C 
BRANCH   3   4
ATOM      4  CD  LYS A 131      26.157  24.519  17.282  1.00 24.33     0.041 C 
BRANCH   4   5
ATOM      5  CE  LYS A 131      25.976  25.741  18.177  1.00 26.91     0.338 C 
ATOM      6  NZ  LYS A 131      25.712  25.325  19.575  1.00 27.40     0.618 N 
ENDBRANCH   4   5
ENDBRANCH   3   4
ENDBRANCH   2   3
ENDBRANCH   1   2
END_RES LYS A 131
BEGIN_RES LYS A 135
REMARK  4 active torsions:
REMARK  status: ('A' for Active; 'I' for Inactive)
REMARK    5  A    between atoms: CA   and  CB  
REMARK    6  A    between atoms: CB   and  CG  
REMARK    7  A    between atoms: CG   and  CD  
REMARK    8  A    between atoms: CD   and  CE  
ROOT
ATOM      7  CA  LYS A 135      33.193  34.663   9.290  1.00 25.02     0.186 C 
ENDROOT
BRANCH   7   8
ATOM      8  CB  LYS A 135      32.060  35.360  10.034  1.00 26.63     0.034 C 
BRANCH   8   9
ATOM      9  CG  LYS A 135      30.796  35.488   9.224  1.00 29.45     0.005 C 
BRANCH   9  10
ATOM     10  CD  LYS A 135      30.131  34.131   9.050  1.00 32.00     0.041 C 
BRANCH  10  11
ATOM     11  CE  LYS A 135      28.679  34.298   8.644  1.00 34.25     0.338 C 
ATOM     12  NZ  LYS A 135      27.765  33.738   9.679  1.00 35.99     0.618 N 
ENDBRANCH  10  11
ENDBRANCH   9  10
ENDBRANCH   8   9
ENDBRANCH   7   8
END_RES LYS A 135
