REMARK VINA RESULT:    -5.212      2.891      5.073
REMARK INTER + INTRA:         -14.642
REMARK INTER:                  -8.874
REMARK INTRA:                  -5.768
REMARK UNBOUND:                -5.011
REMARK SMILES CC(=O)N[C@@H]1[C@@H](O)C[C@](O)(C(=O)O)O[C@H]1C(O)[C@H](O)CNC(=O)OCc1cn(CS(=O)(=O)c2ccccc2)nn1
REMARK SMILES IDX 21 1 22 2 23 3 20 5 18 6 16 7 15 8 9 9 8 10 14 11 6 12 5 13
REMARK SMILES IDX 10 14 11 16 12 17 13 18 7 20 4 22 2 23 1 25 3 26 17 27 19 29
REMARK SMILES IDX 24 31 25 32 26 33 27 34 40 35 28 36 39 37 29 38 30 39 31 40
REMARK SMILES IDX 32 41 33 42 34 43 38 44 35 45 37 46 36 47
REMARK H PARENT 21 4 10 15 13 19 7 21 4 24 17 28 19 30
REMARK Flexibility Score: inf
ROOT
ATOM      1  N   UNL     1      27.451  28.566  17.352  1.00  0.00    -0.319 N 
ATOM      2  C   UNL     1      26.743  29.682  16.778  1.00  0.00     0.407 C 
ATOM      3  O   UNL     1      25.637  29.993  17.243  1.00  0.00    -0.225 OA
ATOM      4  H   UNL     1      28.371  28.374  16.910  1.00  0.00     0.167 HD
ENDROOT
BRANCH   1   5
ATOM      5  C   UNL     1      26.876  27.819  18.457  1.00  0.00     0.154 C 
BRANCH   5   6
ATOM      6  C   UNL     1      27.780  27.756  19.641  1.00  0.00     0.165 C 
BRANCH   6   7
ATOM      7  C   UNL     1      28.554  29.005  19.894  1.00  0.00     0.176 C 
BRANCH   7   8
ATOM      8  C   UNL     1      29.146  29.170  21.247  1.00  0.00     0.178 C 
ATOM      9  C   UNL     1      30.879  30.573  20.540  1.00  0.00     0.269 C 
ATOM     10  C   UNL     1      31.712  29.365  20.260  1.00  0.00     0.112 C 
ATOM     11  O   UNL     1      29.790  30.400  21.356  1.00  0.00    -0.332 OA
ATOM     12  C   UNL     1      31.412  28.147  21.043  1.00  0.00     0.145 C 
ATOM     13  C   UNL     1      30.092  28.160  21.761  1.00  0.00     0.142 C 
BRANCH   9  14
ATOM     14  O   UNL     1      30.410  31.153  19.361  1.00  0.00    -0.357 OA
ATOM     15  H   UNL     1      30.034  32.040  19.475  1.00  0.00     0.214 HD
ENDBRANCH   9  14
BRANCH   9  16
ATOM     16  C   UNL     1      31.731  31.594  21.205  1.00  0.00     0.364 C 
ATOM     17  O   UNL     1      32.359  31.285  22.240  1.00  0.00    -0.246 OA
BRANCH  16  18
ATOM     18  O   UNL     1      31.869  32.892  20.730  1.00  0.00    -0.477 OA
ATOM     19  H   UNL     1      31.052  33.512  20.643  1.00  0.00     0.296 HD
ENDBRANCH  16  18
ENDBRANCH   9  16
BRANCH  12  20
ATOM     20  O   UNL     1      31.522  27.032  20.216  1.00  0.00    -0.391 OA
ATOM     21  H   UNL     1      32.324  27.045  19.662  1.00  0.00     0.211 HD
ENDBRANCH  12  20
BRANCH  13  22
ATOM     22  N   UNL     1      30.270  28.392  23.198  1.00  0.00    -0.348 N 
ATOM     23  C   UNL     1      30.197  27.341  24.138  1.00  0.00     0.217 C 
ATOM     24  H   UNL     1      30.456  29.352  23.548  1.00  0.00     0.163 HD
ATOM     25  C   UNL     1      30.376  27.561  25.605  1.00  0.00     0.114 C 
ATOM     26  O   UNL     1      29.971  26.189  23.695  1.00  0.00    -0.275 OA
ENDBRANCH  13  22
ENDBRANCH   7   8
BRANCH   7  27
ATOM     27  O   UNL     1      27.502  30.023  19.901  1.00  0.00    -0.388 OA
ATOM     28  H   UNL     1      27.966  30.875  19.976  1.00  0.00     0.211 HD
ENDBRANCH   7  27
ENDBRANCH   6   7
BRANCH   6  29
ATOM     29  O   UNL     1      28.535  26.607  19.763  1.00  0.00    -0.388 OA
ATOM     30  H   UNL     1      29.101  26.439  18.971  1.00  0.00     0.211 HD
ENDBRANCH   6  29
ENDBRANCH   5   6
ENDBRANCH   1   5
BRANCH   2  31
ATOM     31  O   UNL     1      27.275  30.404  15.727  1.00  0.00    -0.443 OA
BRANCH  31  32
ATOM     32  C   UNL     1      27.463  31.807  15.780  1.00  0.00     0.294 C 
BRANCH  32  33
ATOM     33  C   UNL     1      28.845  32.159  16.138  1.00  0.00     0.120 A 
ATOM     34  C   UNL     1      29.383  33.349  16.539  1.00  0.00     0.139 A 
ATOM     35  N   UNL     1      29.875  31.287  16.122  1.00  0.00    -0.132 NA
ATOM     36  N   UNL     1      30.711  33.168  16.752  1.00  0.00    -0.237 N 
ATOM     37  N   UNL     1      30.981  31.900  16.488  1.00  0.00    -0.066 NA
BRANCH  36  38
ATOM     38  C   UNL     1      31.619  34.196  17.186  1.00  0.00     0.287 C 
BRANCH  38  39
ATOM     39  S   UNL     1      32.263  35.091  15.779  1.00  0.00     0.198 S 
ATOM     40  O   UNL     1      31.114  35.816  15.128  1.00  0.00    -0.222 OA
ATOM     41  O   UNL     1      32.839  34.100  14.838  1.00  0.00    -0.222 OA
BRANCH  39  42
ATOM     42  C   UNL     1      33.471  36.229  16.349  1.00  0.00     0.069 A 
ATOM     43  C   UNL     1      33.054  37.518  16.664  1.00  0.00     0.020 A 
ATOM     44  C   UNL     1      34.784  35.844  16.474  1.00  0.00     0.020 A 
ATOM     45  C   UNL     1      34.001  38.408  17.110  1.00  0.00     0.001 A 
ATOM     46  C   UNL     1      35.694  36.775  16.925  1.00  0.00     0.001 A 
ATOM     47  C   UNL     1      35.341  38.062  17.251  1.00  0.00     0.000 A 
ENDBRANCH  39  42
ENDBRANCH  38  39
ENDBRANCH  36  38
ENDBRANCH  32  33
ENDBRANCH  31  32
ENDBRANCH   2  31
TORSDOF 17
BEGIN_RES LYS A 131
REMARK  4 active torsions:
REMARK  status: ('A' for Active; 'I' for Inactive)
REMARK    1  A    between atoms: CA   and  CB  
REMARK    2  A    between atoms: CB   and  CG  
REMARK    3  A    between atoms: CG   and  CD  
REMARK    4  A    between atoms: CD   and  CE  
ROOT
ATOM      1  CA  LYS A 131      29.867  25.555  16.977  1.00 20.52     0.186 C 
ENDROOT
BRANCH   1   2
ATOM      2  CB  LYS A 131      28.345  25.722  17.026  1.00 20.94     0.034 C 
BRANCH   2   3
ATOM      3  CG  LYS A 131      27.600  24.411  16.825  1.00 22.96     0.005 C 
BRANCH   3   4
ATOM      4  CD  LYS A 131      26.652  24.120  17.955  1.00 24.33     0.041 C 
BRANCH   4   5
ATOM      5  CE  LYS A 131      25.281  23.764  17.391  1.00 26.91     0.338 C 
ATOM      6  NZ  LYS A 131      24.492  24.992  17.130  1.00 27.40     0.618 N 
ENDBRANCH   4   5
ENDBRANCH   3   4
ENDBRANCH   2   3
ENDBRANCH   1   2
END_RES LYS A 131
BEGIN_RES LYS A 135
REMARK  4 active torsions:
REMARK  status: ('A' for Active; 'I' for Inactive)
REMARK    5  A    between atoms: CA   and  CB  
REMARK    6  A    between atoms: CB   and  CG  
REMARK    7  A    between atoms: CG   and  CD  
REMARK    8  A    between atoms: CD   and  CE  
ROOT
ATOM      7  CA  LYS A 135      33.193  34.663   9.290  1.00 25.02     0.186 C 
ENDROOT
BRANCH   7   8
ATOM      8  CB  LYS A 135      32.060  35.360  10.034  1.00 26.63     0.034 C 
BRANCH   8   9
ATOM      9  CG  LYS A 135      30.709  34.735   9.797  1.00 29.45     0.005 C 
BRANCH   9  10
ATOM     10  CD  LYS A 135      30.470  34.523   8.310  1.00 32.00     0.041 C 
BRANCH  10  11
ATOM     11  CE  LYS A 135      29.027  34.826   7.954  1.00 34.25     0.338 C 
ATOM     12  NZ  LYS A 135      28.934  35.533   6.646  1.00 35.99     0.618 N 
ENDBRANCH  10  11
ENDBRANCH   9  10
ENDBRANCH   8   9
ENDBRANCH   7   8
END_RES LYS A 135
