REMARK VINA RESULT:    -6.089      7.949     12.594
REMARK INTER + INTRA:         -15.071
REMARK INTER:                  -9.255
REMARK INTRA:                  -5.816
REMARK UNBOUND:                -4.533
REMARK SMILES CC(=O)N[C@@H]1[C@@H](O)C[C@](O)(C(=O)O)O[C@H]1C(O)[C@H](O)CNC(=O)OCc1cn(-c2cnc3ccccc3c2)nn1
REMARK SMILES IDX 20 1 18 2 16 3 15 4 9 5 8 6 14 7 6 8 5 9 10 10 11 12 12 13
REMARK SMILES IDX 13 14 7 16 4 18 2 19 1 21 3 22 17 23 19 25 21 27 22 28 23 30
REMARK SMILES IDX 24 31 25 32 26 33 27 34 40 35 28 36 39 37 29 38 30 39 38 40
REMARK SMILES IDX 31 41 37 42 32 43 36 44 33 45 35 46 34 47
REMARK H PARENT 10 11 13 15 7 17 4 20 17 24 19 26 21 29
REMARK Flexibility Score: inf
ROOT
ATOM      1  C   UNL     1      26.655  39.169   6.863  1.00  0.00     0.154 C 
ENDROOT
BRANCH   1   2
ATOM      2  C   UNL     1      27.617  38.080   6.477  1.00  0.00     0.165 C 
BRANCH   2   3
ATOM      3  C   UNL     1      29.031  38.557   6.286  1.00  0.00     0.176 C 
BRANCH   3   4
ATOM      4  C   UNL     1      29.851  38.592   7.543  1.00  0.00     0.178 C 
ATOM      5  C   UNL     1      29.617  39.397   9.705  1.00  0.00     0.269 C 
ATOM      6  C   UNL     1      31.065  39.062   9.961  1.00  0.00     0.112 C 
ATOM      7  O   UNL     1      29.066  38.665   8.684  1.00  0.00    -0.332 OA
ATOM      8  C   UNL     1      31.871  39.227   8.715  1.00  0.00     0.145 C 
ATOM      9  C   UNL     1      30.974  39.570   7.505  1.00  0.00     0.142 C 
BRANCH   5  10
ATOM     10  O   UNL     1      29.522  40.775   9.533  1.00  0.00    -0.357 OA
ATOM     11  H   UNL     1      28.752  41.045   8.999  1.00  0.00     0.214 HD
ENDBRANCH   5  10
BRANCH   5  12
ATOM     12  C   UNL     1      28.865  39.065  10.952  1.00  0.00     0.364 C 
ATOM     13  O   UNL     1      29.509  38.582  11.917  1.00  0.00    -0.246 OA
BRANCH  12  14
ATOM     14  O   UNL     1      27.502  39.267  11.077  1.00  0.00    -0.477 OA
ATOM     15  H   UNL     1      26.951  39.531  10.255  1.00  0.00     0.296 HD
ENDBRANCH  12  14
ENDBRANCH   5  12
BRANCH   8  16
ATOM     16  O   UNL     1      32.836  40.238   8.875  1.00  0.00    -0.391 OA
ATOM     17  H   UNL     1      33.027  40.657   8.002  1.00  0.00     0.211 HD
ENDBRANCH   8  16
BRANCH   9  18
ATOM     18  N   UNL     1      31.752  39.318   6.288  1.00  0.00    -0.348 N 
ATOM     19  C   UNL     1      32.492  40.326   5.618  1.00  0.00     0.217 C 
ATOM     20  H   UNL     1      31.774  38.366   5.881  1.00  0.00     0.163 HD
ATOM     21  C   UNL     1      33.272  40.052   4.380  1.00  0.00     0.114 C 
ATOM     22  O   UNL     1      32.510  41.502   6.060  1.00  0.00    -0.275 OA
ENDBRANCH   9  18
ENDBRANCH   3   4
BRANCH   3  23
ATOM     23  O   UNL     1      29.617  37.713   5.322  1.00  0.00    -0.388 OA
ATOM     24  H   UNL     1      29.028  37.745   4.528  1.00  0.00     0.211 HD
ENDBRANCH   3  23
ENDBRANCH   2   3
BRANCH   2  25
ATOM     25  O   UNL     1      27.159  37.391   5.336  1.00  0.00    -0.388 OA
ATOM     26  H   UNL     1      26.153  37.447   5.404  1.00  0.00     0.211 HD
ENDBRANCH   2  25
ENDBRANCH   1   2
BRANCH   1  27
ATOM     27  N   UNL     1      26.224  38.970   8.226  1.00  0.00    -0.319 N 
ATOM     28  C   UNL     1      25.549  37.813   8.664  1.00  0.00     0.407 C 
ATOM     29  H   UNL     1      26.401  39.701   8.971  1.00  0.00     0.167 HD
ATOM     30  O   UNL     1      25.279  36.876   7.884  1.00  0.00    -0.225 OA
BRANCH  28  31
ATOM     31  O   UNL     1      25.140  37.638   9.993  1.00  0.00    -0.443 OA
BRANCH  31  32
ATOM     32  C   UNL     1      24.550  36.395  10.403  1.00  0.00     0.294 C 
BRANCH  32  33
ATOM     33  C   UNL     1      25.358  35.771  11.471  1.00  0.00     0.121 A 
ATOM     34  C   UNL     1      26.709  35.796  11.629  1.00  0.00     0.144 A 
ATOM     35  N   UNL     1      24.850  35.060  12.483  1.00  0.00    -0.131 NA
ATOM     36  N   UNL     1      26.972  35.078  12.760  1.00  0.00    -0.219 N 
ATOM     37  N   UNL     1      25.838  34.644  13.258  1.00  0.00    -0.062 NA
BRANCH  36  38
ATOM     38  C   UNL     1      28.251  34.835  13.313  1.00  0.00     0.085 A 
ATOM     39  C   UNL     1      28.350  34.096  14.478  1.00  0.00     0.140 A 
ATOM     40  C   UNL     1      29.366  35.339  12.682  1.00  0.00     0.040 A 
ATOM     41  N   UNL     1      29.564  33.867  15.004  1.00  0.00    -0.254 NA
ATOM     42  C   UNL     1      30.615  35.090  13.243  1.00  0.00     0.002 A 
ATOM     43  C   UNL     1      30.688  34.350  14.405  1.00  0.00     0.070 A 
ATOM     44  C   UNL     1      31.735  35.576  12.640  1.00  0.00     0.010 A 
ATOM     45  C   UNL     1      31.926  34.101  14.963  1.00  0.00     0.029 A 
ATOM     46  C   UNL     1      32.989  35.328  13.197  1.00  0.00     0.001 A 
ATOM     47  C   UNL     1      33.075  34.593  14.355  1.00  0.00     0.002 A 
ENDBRANCH  36  38
ENDBRANCH  32  33
ENDBRANCH  31  32
ENDBRANCH  28  31
ENDBRANCH   1  27
TORSDOF 15
BEGIN_RES LYS A 131
REMARK  4 active torsions:
REMARK  status: ('A' for Active; 'I' for Inactive)
REMARK    1  A    between atoms: CA   and  CB  
REMARK    2  A    between atoms: CB   and  CG  
REMARK    3  A    between atoms: CG   and  CD  
REMARK    4  A    between atoms: CD   and  CE  
ROOT
ATOM      1  CA  LYS A 131      29.867  25.555  16.977  1.00 20.52     0.186 C 
ENDROOT
BRANCH   1   2
ATOM      2  CB  LYS A 131      28.345  25.722  17.026  1.00 20.94     0.034 C 
BRANCH   2   3
ATOM      3  CG  LYS A 131      27.601  24.401  16.903  1.00 22.96     0.005 C 
BRANCH   3   4
ATOM      4  CD  LYS A 131      26.583  24.220  17.994  1.00 24.33     0.041 C 
BRANCH   4   5
ATOM      5  CE  LYS A 131      25.189  24.492  17.439  1.00 26.91     0.338 C 
ATOM      6  NZ  LYS A 131      24.448  23.222  17.253  1.00 27.40     0.618 N 
ENDBRANCH   4   5
ENDBRANCH   3   4
ENDBRANCH   2   3
ENDBRANCH   1   2
END_RES LYS A 131
BEGIN_RES LYS A 135
REMARK  4 active torsions:
REMARK  status: ('A' for Active; 'I' for Inactive)
REMARK    5  A    between atoms: CA   and  CB  
REMARK    6  A    between atoms: CB   and  CG  
REMARK    7  A    between atoms: CG   and  CD  
REMARK    8  A    between atoms: CD   and  CE  
ROOT
ATOM      7  CA  LYS A 135      33.193  34.663   9.290  1.00 25.02     0.186 C 
ENDROOT
BRANCH   7   8
ATOM      8  CB  LYS A 135      32.060  35.360  10.034  1.00 26.63     0.034 C 
BRANCH   8   9
ATOM      9  CG  LYS A 135      30.784  35.455   9.237  1.00 29.45     0.005 C 
BRANCH   9  10
ATOM     10  CD  LYS A 135      30.226  34.069   8.952  1.00 32.00     0.041 C 
BRANCH  10  11
ATOM     11  CE  LYS A 135      28.726  34.043   9.178  1.00 34.25     0.338 C 
ATOM     12  NZ  LYS A 135      28.007  34.765   8.092  1.00 35.99     0.618 N 
ENDBRANCH  10  11
ENDBRANCH   9  10
ENDBRANCH   8   9
ENDBRANCH   7   8
END_RES LYS A 135
