REMARK VINA RESULT:    -5.025      3.060      4.523
REMARK INTER + INTRA:         -14.932
REMARK INTER:                  -7.788
REMARK INTRA:                  -7.144
REMARK UNBOUND:                -5.794
REMARK SMILES CC(=O)N[C@@H]1[C@@H](O)C[C@](O)(C(=O)O)O[C@H]1C(O)[C@H](O)CNC(=O)OCc1cn(Cc2cc(Br)cc(Br)c2O)nn1
REMARK SMILES IDX 21 1 22 2 23 3 20 5 18 6 16 7 15 8 9 9 8 10 14 11 6 12 5 13
REMARK SMILES IDX 10 14 11 16 12 17 13 18 7 20 4 22 2 23 1 25 3 26 17 27 19 29
REMARK SMILES IDX 24 31 25 32 26 33 27 34 40 35 28 36 39 37 29 38 30 39 31 40
REMARK SMILES IDX 37 41 32 42 35 43 33 44 34 45 36 46 38 47
REMARK H PARENT 21 4 10 15 13 19 7 21 4 24 17 28 19 30 38 48
REMARK Flexibility Score: inf
ROOT
ATOM      1  N   UNL     1      28.537  31.654  18.707  1.00  0.00    -0.319 N 
ATOM      2  C   UNL     1      29.058  32.051  17.442  1.00  0.00     0.407 C 
ATOM      3  O   UNL     1      29.323  31.170  16.592  1.00  0.00    -0.225 OA
ATOM      4  H   UNL     1      28.328  32.401  19.392  1.00  0.00     0.167 HD
ENDROOT
BRANCH   1   5
ATOM      5  C   UNL     1      28.307  30.274  19.040  1.00  0.00     0.154 C 
BRANCH   5   6
ATOM      6  C   UNL     1      29.449  29.712  19.837  1.00  0.00     0.165 C 
BRANCH   6   7
ATOM      7  C   UNL     1      29.406  30.151  21.284  1.00  0.00     0.176 C 
BRANCH   7   8
ATOM      8  C   UNL     1      30.236  29.174  22.137  1.00  0.00     0.178 C 
ATOM      9  C   UNL     1      32.571  28.920  22.000  1.00  0.00     0.269 C 
ATOM     10  C   UNL     1      32.319  27.455  22.389  1.00  0.00     0.112 C 
ATOM     11  O   UNL     1      31.472  29.677  22.226  1.00  0.00    -0.332 OA
ATOM     12  C   UNL     1      31.272  27.001  21.384  1.00  0.00     0.145 C 
ATOM     13  C   UNL     1      30.031  27.794  21.673  1.00  0.00     0.142 C 
BRANCH   9  14
ATOM     14  O   UNL     1      32.999  28.887  20.688  1.00  0.00    -0.357 OA
ATOM     15  H   UNL     1      33.007  29.772  20.248  1.00  0.00     0.214 HD
ENDBRANCH   9  14
BRANCH   9  16
ATOM     16  C   UNL     1      33.673  29.455  22.838  1.00  0.00     0.364 C 
ATOM     17  O   UNL     1      34.756  28.821  22.889  1.00  0.00    -0.246 OA
BRANCH  16  18
ATOM     18  O   UNL     1      33.549  30.633  23.568  1.00  0.00    -0.477 OA
ATOM     19  H   UNL     1      32.620  30.798  23.984  1.00  0.00     0.296 HD
ENDBRANCH  16  18
ENDBRANCH   9  16
BRANCH  12  20
ATOM     20  O   UNL     1      31.726  27.184  20.079  1.00  0.00    -0.391 OA
ATOM     21  H   UNL     1      32.020  28.115  19.996  1.00  0.00     0.211 HD
ENDBRANCH  12  20
BRANCH  13  22
ATOM     22  N   UNL     1      29.222  26.993  22.590  1.00  0.00    -0.348 N 
ATOM     23  C   UNL     1      27.809  26.920  22.519  1.00  0.00     0.217 C 
ATOM     24  H   UNL     1      29.675  26.423  23.359  1.00  0.00     0.163 HD
ATOM     25  C   UNL     1      27.022  26.088  23.479  1.00  0.00     0.114 C 
ATOM     26  O   UNL     1      27.199  27.570  21.632  1.00  0.00    -0.275 OA
ENDBRANCH  13  22
ENDBRANCH   7   8
BRANCH   7  27
ATOM     27  O   UNL     1      29.769  31.459  21.485  1.00  0.00    -0.388 OA
ATOM     28  H   UNL     1      30.135  31.879  20.679  1.00  0.00     0.211 HD
ENDBRANCH   7  27
ENDBRANCH   6   7
BRANCH   6  29
ATOM     29  O   UNL     1      30.645  29.970  19.206  1.00  0.00    -0.388 OA
ATOM     30  H   UNL     1      31.213  29.187  19.078  1.00  0.00     0.211 HD
ENDBRANCH   6  29
ENDBRANCH   5   6
ENDBRANCH   1   5
BRANCH   2  31
ATOM     31  O   UNL     1      29.269  33.376  17.154  1.00  0.00    -0.443 OA
BRANCH  31  32
ATOM     32  C   UNL     1      30.569  33.907  16.972  1.00  0.00     0.294 C 
BRANCH  32  33
ATOM     33  C   UNL     1      31.256  33.944  18.291  1.00  0.00     0.120 A 
ATOM     34  C   UNL     1      32.217  34.858  18.705  1.00  0.00     0.138 A 
ATOM     35  N   UNL     1      31.109  33.126  19.349  1.00  0.00    -0.132 NA
ATOM     36  N   UNL     1      32.599  34.565  19.956  1.00  0.00    -0.248 N 
ATOM     37  N   UNL     1      31.897  33.485  20.338  1.00  0.00    -0.067 NA
BRANCH  36  38
ATOM     38  C   UNL     1      33.565  35.249  20.769  1.00  0.00     0.185 C 
BRANCH  38  39
ATOM     39  C   UNL     1      34.932  34.679  20.651  1.00  0.00     0.018 A 
ATOM     40  C   UNL     1      35.828  35.303  19.807  1.00  0.00     0.025 A 
ATOM     41  C   UNL     1      35.346  33.563  21.339  1.00  0.00     0.134 A 
ATOM     42  C   UNL     1      37.119  34.859  19.621  1.00  0.00     0.019 A 
ATOM     43  C   UNL     1      36.651  33.090  21.169  1.00  0.00     0.061 A 
ATOM     44  Br  UNL     1      38.332  35.739  18.453  1.00  0.00    -0.051 Br
ATOM     45  C   UNL     1      37.523  33.730  20.322  1.00  0.00     0.035 A 
ATOM     46  Br  UNL     1      37.145  31.527  22.167  1.00  0.00    -0.047 Br
BRANCH  41  47
ATOM     47  O   UNL     1      34.472  32.915  22.193  1.00  0.00    -0.506 OA
ATOM     48  H   UNL     1      33.758  32.314  21.805  1.00  0.00     0.293 HD
ENDBRANCH  41  47
ENDBRANCH  38  39
ENDBRANCH  36  38
ENDBRANCH  32  33
ENDBRANCH  31  32
ENDBRANCH   2  31
TORSDOF 17
BEGIN_RES LYS A 131
REMARK  4 active torsions:
REMARK  status: ('A' for Active; 'I' for Inactive)
REMARK    1  A    between atoms: CA   and  CB  
REMARK    2  A    between atoms: CB   and  CG  
REMARK    3  A    between atoms: CG   and  CD  
REMARK    4  A    between atoms: CD   and  CE  
ROOT
ATOM      1  CA  LYS A 131      29.867  25.555  16.977  1.00 20.52     0.186 C 
ENDROOT
BRANCH   1   2
ATOM      2  CB  LYS A 131      28.345  25.722  17.026  1.00 20.94     0.034 C 
BRANCH   2   3
ATOM      3  CG  LYS A 131      27.601  24.406  16.858  1.00 22.96     0.005 C 
BRANCH   3   4
ATOM      4  CD  LYS A 131      26.620  24.165  17.972  1.00 24.33     0.041 C 
BRANCH   4   5
ATOM      5  CE  LYS A 131      25.323  23.606  17.396  1.00 26.91     0.338 C 
ATOM      6  NZ  LYS A 131      24.161  24.064  18.194  1.00 27.40     0.618 N 
ENDBRANCH   4   5
ENDBRANCH   3   4
ENDBRANCH   2   3
ENDBRANCH   1   2
END_RES LYS A 131
BEGIN_RES LYS A 135
REMARK  4 active torsions:
REMARK  status: ('A' for Active; 'I' for Inactive)
REMARK    5  A    between atoms: CA   and  CB  
REMARK    6  A    between atoms: CB   and  CG  
REMARK    7  A    between atoms: CG   and  CD  
REMARK    8  A    between atoms: CD   and  CE  
ROOT
ATOM      7  CA  LYS A 135      33.193  34.663   9.290  1.00 25.02     0.186 C 
ENDROOT
BRANCH   7   8
ATOM      8  CB  LYS A 135      32.060  35.360  10.034  1.00 26.63     0.034 C 
BRANCH   8   9
ATOM      9  CG  LYS A 135      30.803  35.506   9.217  1.00 29.45     0.005 C 
BRANCH   9  10
ATOM     10  CD  LYS A 135      30.145  34.152   8.997  1.00 32.00     0.041 C 
BRANCH  10  11
ATOM     11  CE  LYS A 135      28.681  34.323   8.639  1.00 34.25     0.338 C 
ATOM     12  NZ  LYS A 135      27.802  33.684   9.657  1.00 35.99     0.618 N 
ENDBRANCH  10  11
ENDBRANCH   9  10
ENDBRANCH   8   9
ENDBRANCH   7   8
END_RES LYS A 135
