REMARK VINA RESULT:    -4.177     10.064     15.372
REMARK INTER + INTRA:         -13.483
REMARK INTER:                  -9.448
REMARK INTRA:                  -4.035
REMARK UNBOUND:                -5.644
REMARK SMILES CC(=O)N[C@@H]1[C@@H](O)C[C@](O)(C(=O)O)O[C@H]1C(O)[C@H](O)CNC(=O)OCc1cn(CCC(=O)O)nn1
REMARK SMILES IDX 21 1 22 2 23 3 20 5 18 6 16 7 15 8 9 9 8 10 14 11 6 12 5 13
REMARK SMILES IDX 10 14 11 16 12 17 13 18 7 20 4 22 2 23 1 25 3 26 17 27 19 29
REMARK SMILES IDX 24 31 25 32 26 33 27 34 35 35 28 36 34 37 29 38 30 39 31 40
REMARK SMILES IDX 32 41 33 42
REMARK H PARENT 21 4 10 15 13 19 7 21 4 24 17 28 19 30 33 43
REMARK Flexibility Score: inf
ROOT
ATOM      1  N   UNL     1      21.874  36.578   8.235  1.00  0.00    -0.319 N 
ATOM      2  C   UNL     1      22.682  37.605   8.784  1.00  0.00     0.407 C 
ATOM      3  O   UNL     1      22.205  38.751   9.040  1.00  0.00    -0.225 OA
ATOM      4  H   UNL     1      22.301  35.652   8.040  1.00  0.00     0.167 HD
ENDROOT
BRANCH   1   5
ATOM      5  C   UNL     1      20.477  36.786   7.938  1.00  0.00     0.154 C 
BRANCH   5   6
ATOM      6  C   UNL     1      19.670  35.518   7.891  1.00  0.00     0.165 C 
BRANCH   6   7
ATOM      7  C   UNL     1      19.101  35.181   9.269  1.00  0.00     0.176 C 
BRANCH   7   8
ATOM      8  C   UNL     1      17.875  34.298   9.119  1.00  0.00     0.178 C 
ATOM      9  C   UNL     1      17.186  32.663   7.600  1.00  0.00     0.269 C 
ATOM     10  C   UNL     1      15.765  32.845   8.053  1.00  0.00     0.112 C 
ATOM     11  O   UNL     1      18.125  33.117   8.500  1.00  0.00    -0.332 OA
ATOM     12  C   UNL     1      15.491  34.115   8.776  1.00  0.00     0.145 C 
ATOM     13  C   UNL     1      16.696  35.041   8.548  1.00  0.00     0.142 C 
BRANCH   9  14
ATOM     14  O   UNL     1      17.324  33.239   6.342  1.00  0.00    -0.357 OA
ATOM     15  H   UNL     1      17.137  32.509   5.689  1.00  0.00     0.214 HD
ENDBRANCH   9  14
BRANCH   9  16
ATOM     16  C   UNL     1      17.400  31.205   7.454  1.00  0.00     0.364 C 
ATOM     17  O   UNL     1      17.291  30.391   8.397  1.00  0.00    -0.246 OA
BRANCH  16  18
ATOM     18  O   UNL     1      17.742  30.695   6.215  1.00  0.00    -0.477 OA
ATOM     19  H   UNL     1      18.174  31.245   5.483  1.00  0.00     0.296 HD
ENDBRANCH  16  18
ENDBRANCH   9  16
BRANCH  12  20
ATOM     20  O   UNL     1      14.314  34.737   8.369  1.00  0.00    -0.391 OA
ATOM     21  H   UNL     1      13.552  34.098   8.307  1.00  0.00     0.211 HD
ENDBRANCH  12  20
BRANCH  13  22
ATOM     22  N   UNL     1      16.487  36.312   9.214  1.00  0.00    -0.348 N 
ATOM     23  C   UNL     1      16.489  37.525   8.470  1.00  0.00     0.217 C 
ATOM     24  H   UNL     1      16.332  36.383  10.248  1.00  0.00     0.163 HD
ATOM     25  C   UNL     1      16.277  38.864   9.117  1.00  0.00     0.114 C 
ATOM     26  O   UNL     1      16.674  37.501   7.212  1.00  0.00    -0.275 OA
ENDBRANCH  13  22
ENDBRANCH   7   8
BRANCH   7  27
ATOM     27  O   UNL     1      20.077  34.486   9.979  1.00  0.00    -0.388 OA
ATOM     28  H   UNL     1      20.573  33.838   9.408  1.00  0.00     0.211 HD
ENDBRANCH   7  27
ENDBRANCH   6   7
BRANCH   6  29
ATOM     29  O   UNL     1      20.526  34.502   7.458  1.00  0.00    -0.388 OA
ATOM     30  H   UNL     1      19.989  33.691   7.276  1.00  0.00     0.211 HD
ENDBRANCH   6  29
ENDBRANCH   5   6
ENDBRANCH   1   5
BRANCH   2  31
ATOM     31  O   UNL     1      24.009  37.348   9.043  1.00  0.00    -0.443 OA
BRANCH  31  32
ATOM     32  C   UNL     1      24.486  36.096   9.503  1.00  0.00     0.294 C 
BRANCH  32  33
ATOM     33  C   UNL     1      25.709  35.693   8.729  1.00  0.00     0.120 A 
ATOM     34  C   UNL     1      26.360  36.427   7.774  1.00  0.00     0.138 A 
ATOM     35  N   UNL     1      26.356  34.518   8.858  1.00  0.00    -0.132 NA
ATOM     36  N   UNL     1      27.401  35.676   7.337  1.00  0.00    -0.252 N 
ATOM     37  N   UNL     1      27.371  34.534   8.009  1.00  0.00    -0.067 NA
BRANCH  36  38
ATOM     38  C   UNL     1      28.340  36.104   6.322  1.00  0.00     0.158 C 
BRANCH  38  39
ATOM     39  C   UNL     1      28.800  37.515   6.680  1.00  0.00     0.146 C 
BRANCH  39  40
ATOM     40  C   UNL     1      28.442  38.387   5.521  1.00  0.00     0.305 C 
ATOM     41  O   UNL     1      28.923  39.514   5.347  1.00  0.00    -0.252 OA
BRANCH  40  42
ATOM     42  O   UNL     1      27.517  37.868   4.614  1.00  0.00    -0.481 OA
ATOM     43  H   UNL     1      27.824  37.599   3.681  1.00  0.00     0.296 HD
ENDBRANCH  40  42
ENDBRANCH  39  40
ENDBRANCH  38  39
ENDBRANCH  36  38
ENDBRANCH  32  33
ENDBRANCH  31  32
ENDBRANCH   2  31
TORSDOF 18
BEGIN_RES LYS A 131
REMARK  4 active torsions:
REMARK  status: ('A' for Active; 'I' for Inactive)
REMARK    1  A    between atoms: CA   and  CB  
REMARK    2  A    between atoms: CB   and  CG  
REMARK    3  A    between atoms: CG   and  CD  
REMARK    4  A    between atoms: CD   and  CE  
ROOT
ATOM      1  CA  LYS A 131      29.867  25.555  16.977  1.00 20.52     0.186 C 
ENDROOT
BRANCH   1   2
ATOM      2  CB  LYS A 131      28.345  25.722  17.026  1.00 20.94     0.034 C 
BRANCH   2   3
ATOM      3  CG  LYS A 131      27.601  24.406  16.860  1.00 22.96     0.005 C 
BRANCH   3   4
ATOM      4  CD  LYS A 131      26.147  24.528  17.223  1.00 24.33     0.041 C 
BRANCH   4   5
ATOM      5  CE  LYS A 131      25.630  23.180  17.715  1.00 26.91     0.338 C 
ATOM      6  NZ  LYS A 131      25.493  23.185  19.191  1.00 27.40     0.618 N 
ENDBRANCH   4   5
ENDBRANCH   3   4
ENDBRANCH   2   3
ENDBRANCH   1   2
END_RES LYS A 131
BEGIN_RES LYS A 135
REMARK  4 active torsions:
REMARK  status: ('A' for Active; 'I' for Inactive)
REMARK    5  A    between atoms: CA   and  CB  
REMARK    6  A    between atoms: CB   and  CG  
REMARK    7  A    between atoms: CG   and  CD  
REMARK    8  A    between atoms: CD   and  CE  
ROOT
ATOM      7  CA  LYS A 135      33.193  34.663   9.290  1.00 25.02     0.186 C 
ENDROOT
BRANCH   7   8
ATOM      8  CB  LYS A 135      32.060  35.360  10.034  1.00 26.63     0.034 C 
BRANCH   8   9
ATOM      9  CG  LYS A 135      30.712  35.178   9.386  1.00 29.45     0.005 C 
BRANCH   9  10
ATOM     10  CD  LYS A 135      29.614  35.776  10.253  1.00 32.00     0.041 C 
BRANCH  10  11
ATOM     11  CE  LYS A 135      29.404  34.937  11.499  1.00 34.25     0.338 C 
ATOM     12  NZ  LYS A 135      27.965  34.897  11.881  1.00 35.99     0.618 N 
ENDBRANCH  10  11
ENDBRANCH   9  10
ENDBRANCH   8   9
ENDBRANCH   7   8
END_RES LYS A 135
