REMARK VINA RESULT:    -4.592      1.500      2.116
REMARK INTER + INTRA:         -15.020
REMARK INTER:                  -8.952
REMARK INTRA:                  -6.068
REMARK UNBOUND:                -6.804
REMARK SMILES CC(=O)N[C@@H]1[C@@H](O)C[C@](O)(C(=O)O)O[C@H]1C(O)[C@H](O)CNC(=O)OCc1cn(-c2ccccc2C(C)=O)nn1
REMARK SMILES IDX 21 1 22 2 23 3 20 5 18 6 16 7 15 8 9 9 8 10 14 11 6 12 5 13
REMARK SMILES IDX 10 14 11 16 12 17 13 18 7 20 4 22 2 23 1 25 3 26 17 27 19 29
REMARK SMILES IDX 24 31 25 32 26 33 27 34 39 35 28 36 38 37 29 38 34 39 30 40
REMARK SMILES IDX 33 41 31 42 32 43 35 44 37 45 36 46
REMARK H PARENT 21 4 10 15 13 19 7 21 4 24 17 28 19 30
REMARK Flexibility Score: inf
ROOT
ATOM      1  N   UNL     1      28.563  31.265  17.030  1.00  0.00    -0.319 N 
ATOM      2  C   UNL     1      27.557  30.250  17.185  1.00  0.00     0.407 C 
ATOM      3  O   UNL     1      27.640  29.205  16.496  1.00  0.00    -0.225 OA
ATOM      4  H   UNL     1      28.463  32.112  17.624  1.00  0.00     0.167 HD
ENDROOT
BRANCH   1   5
ATOM      5  C   UNL     1      29.627  31.079  16.088  1.00  0.00     0.154 C 
BRANCH   5   6
ATOM      6  C   UNL     1      30.384  32.302  15.686  1.00  0.00     0.165 C 
BRANCH   6   7
ATOM      7  C   UNL     1      29.661  33.185  14.713  1.00  0.00     0.176 C 
BRANCH   7   8
ATOM      8  C   UNL     1      30.468  34.352  14.208  1.00  0.00     0.178 C 
ATOM      9  C   UNL     1      32.465  35.485  14.460  1.00  0.00     0.269 C 
ATOM     10  C   UNL     1      31.794  36.826  14.689  1.00  0.00     0.112 C 
ATOM     11  O   UNL     1      31.652  34.483  14.849  1.00  0.00    -0.332 OA
ATOM     12  C   UNL     1      30.355  36.679  15.057  1.00  0.00     0.145 C 
ATOM     13  C   UNL     1      29.648  35.621  14.295  1.00  0.00     0.142 C 
BRANCH   9  14
ATOM     14  O   UNL     1      33.609  35.530  15.328  1.00  0.00    -0.357 OA
ATOM     15  H   UNL     1      34.372  35.064  14.865  1.00  0.00     0.214 HD
ENDBRANCH   9  14
BRANCH   9  16
ATOM     16  C   UNL     1      33.021  35.443  13.103  1.00  0.00     0.364 C 
ATOM     17  O   UNL     1      32.677  36.226  12.190  1.00  0.00    -0.246 OA
BRANCH  16  18
ATOM     18  O   UNL     1      33.992  34.502  12.751  1.00  0.00    -0.477 OA
ATOM     19  H   UNL     1      33.765  33.514  12.727  1.00  0.00     0.296 HD
ENDBRANCH  16  18
ENDBRANCH   9  16
BRANCH  12  20
ATOM     20  O   UNL     1      30.285  36.367  16.425  1.00  0.00    -0.391 OA
ATOM     21  H   UNL     1      30.020  35.430  16.588  1.00  0.00     0.211 HD
ENDBRANCH  12  20
BRANCH  13  22
ATOM     22  N   UNL     1      29.175  36.098  13.034  1.00  0.00    -0.348 N 
ATOM     23  C   UNL     1      27.815  36.003  12.630  1.00  0.00     0.217 C 
ATOM     24  H   UNL     1      29.842  36.540  12.374  1.00  0.00     0.163 HD
ATOM     25  C   UNL     1      27.374  36.516  11.307  1.00  0.00     0.114 C 
ATOM     26  O   UNL     1      26.945  35.485  13.376  1.00  0.00    -0.275 OA
ENDBRANCH  13  22
ENDBRANCH   7   8
BRANCH   7  27
ATOM     27  O   UNL     1      28.365  33.470  15.058  1.00  0.00    -0.388 OA
ATOM     28  H   UNL     1      27.783  32.798  14.594  1.00  0.00     0.211 HD
ENDBRANCH   7  27
ENDBRANCH   6   7
BRANCH   6  29
ATOM     29  O   UNL     1      31.540  31.806  14.953  1.00  0.00    -0.388 OA
ATOM     30  H   UNL     1      32.040  31.299  15.646  1.00  0.00     0.211 HD
ENDBRANCH   6  29
ENDBRANCH   5   6
ENDBRANCH   1   5
BRANCH   2  31
ATOM     31  O   UNL     1      26.501  30.370  18.057  1.00  0.00    -0.443 OA
BRANCH  31  32
ATOM     32  C   UNL     1      25.726  31.564  18.137  1.00  0.00     0.294 C 
BRANCH  32  33
ATOM     33  C   UNL     1      25.171  31.942  16.814  1.00  0.00     0.121 A 
ATOM     34  C   UNL     1      23.926  31.673  16.308  1.00  0.00     0.144 A 
ATOM     35  N   UNL     1      25.815  32.641  15.839  1.00  0.00    -0.131 NA
ATOM     36  N   UNL     1      23.856  32.214  15.047  1.00  0.00    -0.220 N 
ATOM     37  N   UNL     1      25.020  32.787  14.811  1.00  0.00    -0.062 NA
BRANCH  36  38
ATOM     38  C   UNL     1      22.783  32.150  14.122  1.00  0.00     0.077 A 
ATOM     39  C   UNL     1      22.492  31.084  13.342  1.00  0.00     0.043 A 
ATOM     40  C   UNL     1      21.993  33.320  14.073  1.00  0.00     0.029 A 
ATOM     41  C   UNL     1      21.392  31.158  12.483  1.00  0.00     0.014 A 
ATOM     42  C   UNL     1      20.915  33.378  13.225  1.00  0.00     0.002 A 
ATOM     43  C   UNL     1      20.634  32.289  12.442  1.00  0.00     0.001 A 
BRANCH  39  44
ATOM     44  C   UNL     1      23.255  29.856  13.326  1.00  0.00     0.161 C 
ATOM     45  O   UNL     1      24.395  29.894  12.707  1.00  0.00    -0.294 OA
ATOM     46  C   UNL     1      22.900  28.568  13.923  1.00  0.00     0.093 C 
ENDBRANCH  39  44
ENDBRANCH  36  38
ENDBRANCH  32  33
ENDBRANCH  31  32
ENDBRANCH   2  31
TORSDOF 16
BEGIN_RES LYS A 131
REMARK  4 active torsions:
REMARK  status: ('A' for Active; 'I' for Inactive)
REMARK    1  A    between atoms: CA   and  CB  
REMARK    2  A    between atoms: CB   and  CG  
REMARK    3  A    between atoms: CG   and  CD  
REMARK    4  A    between atoms: CD   and  CE  
ROOT
ATOM      1  CA  LYS A 131      29.867  25.555  16.977  1.00 20.52     0.186 C 
ENDROOT
BRANCH   1   2
ATOM      2  CB  LYS A 131      28.345  25.722  17.026  1.00 20.94     0.034 C 
BRANCH   2   3
ATOM      3  CG  LYS A 131      27.600  24.409  16.837  1.00 22.96     0.005 C 
BRANCH   3   4
ATOM      4  CD  LYS A 131      26.796  24.034  18.051  1.00 24.33     0.041 C 
BRANCH   4   5
ATOM      5  CE  LYS A 131      25.724  25.090  18.298  1.00 26.91     0.338 C 
ATOM      6  NZ  LYS A 131      25.830  25.625  19.676  1.00 27.40     0.618 N 
ENDBRANCH   4   5
ENDBRANCH   3   4
ENDBRANCH   2   3
ENDBRANCH   1   2
END_RES LYS A 131
BEGIN_RES LYS A 135
REMARK  4 active torsions:
REMARK  status: ('A' for Active; 'I' for Inactive)
REMARK    5  A    between atoms: CA   and  CB  
REMARK    6  A    between atoms: CB   and  CG  
REMARK    7  A    between atoms: CG   and  CD  
REMARK    8  A    between atoms: CD   and  CE  
ROOT
ATOM      7  CA  LYS A 135      33.193  34.663   9.290  1.00 25.02     0.186 C 
ENDROOT
BRANCH   7   8
ATOM      8  CB  LYS A 135      32.060  35.360  10.034  1.00 26.63     0.034 C 
BRANCH   8   9
ATOM      9  CG  LYS A 135      30.798  35.494   9.221  1.00 29.45     0.005 C 
BRANCH   9  10
ATOM     10  CD  LYS A 135      30.254  34.125   8.846  1.00 32.00     0.041 C 
BRANCH  10  11
ATOM     11  CE  LYS A 135      28.742  34.102   8.964  1.00 34.25     0.338 C 
ATOM     12  NZ  LYS A 135      28.107  34.907   7.883  1.00 35.99     0.618 N 
ENDBRANCH  10  11
ENDBRANCH   9  10
ENDBRANCH   8   9
ENDBRANCH   7   8
END_RES LYS A 135
