REMARK VINA RESULT:    -4.460      3.486      6.915
REMARK INTER + INTRA:         -14.733
REMARK INTER:                  -7.115
REMARK INTRA:                  -7.618
REMARK UNBOUND:                -6.624
REMARK SMILES CC(=O)N[C@@H]1[C@@H](O)C[C@](O)(C(=O)O)O[C@H]1C(O)[C@H](O)CNC(=O)OCc1cn(-c2cccc(S(N)(=O)=O)c2)nn1
REMARK SMILES IDX 21 1 22 2 23 3 20 5 18 6 16 7 15 8 9 9 8 10 14 11 6 12 5 13
REMARK SMILES IDX 10 14 11 16 12 17 13 18 7 20 4 22 2 23 1 25 3 26 17 27 19 29
REMARK SMILES IDX 24 31 25 32 26 33 27 34 40 35 28 36 39 37 29 38 38 39 30 40
REMARK SMILES IDX 33 41 31 42 32 43 34 44 36 45 37 46 35 47
REMARK H PARENT 21 4 10 15 13 19 7 21 4 24 17 28 19 30 35 48 35 49
REMARK Flexibility Score: inf
ROOT
ATOM      1  N   UNL     1      29.189  34.908  13.817  1.00  0.00    -0.319 N 
ATOM      2  C   UNL     1      30.376  35.681  13.901  1.00  0.00     0.407 C 
ATOM      3  O   UNL     1      30.726  36.353  12.916  1.00  0.00    -0.225 OA
ATOM      4  H   UNL     1      28.952  34.365  14.691  1.00  0.00     0.167 HD
ENDROOT
BRANCH   1   5
ATOM      5  C   UNL     1      28.367  34.864  12.635  1.00  0.00     0.154 C 
BRANCH   5   6
ATOM      6  C   UNL     1      26.951  35.301  12.942  1.00  0.00     0.165 C 
BRANCH   6   7
ATOM      7  C   UNL     1      26.057  34.072  13.031  1.00  0.00     0.176 C 
BRANCH   7   8
ATOM      8  C   UNL     1      25.534  33.959  14.461  1.00  0.00     0.178 C 
ATOM      9  C   UNL     1      27.029  33.625  16.201  1.00  0.00     0.269 C 
ATOM     10  C   UNL     1      26.043  32.811  17.006  1.00  0.00     0.112 C 
ATOM     11  O   UNL     1      26.415  34.511  15.339  1.00  0.00    -0.332 OA
ATOM     12  C   UNL     1      24.831  32.424  16.228  1.00  0.00     0.145 C 
ATOM     13  C   UNL     1      25.159  32.535  14.739  1.00  0.00     0.142 C 
BRANCH   9  14
ATOM     14  O   UNL     1      27.916  32.817  15.496  1.00  0.00    -0.357 OA
ATOM     15  H   UNL     1      28.856  33.079  15.747  1.00  0.00     0.214 HD
ENDBRANCH   9  14
BRANCH   9  16
ATOM     16  C   UNL     1      27.823  34.426  17.171  1.00  0.00     0.364 C 
ATOM     17  O   UNL     1      27.877  34.121  18.391  1.00  0.00    -0.246 OA
BRANCH  16  18
ATOM     18  O   UNL     1      28.546  35.553  16.777  1.00  0.00    -0.477 OA
ATOM     19  H   UNL     1      28.076  36.437  16.626  1.00  0.00     0.296 HD
ENDBRANCH  16  18
ENDBRANCH   9  16
BRANCH  12  20
ATOM     20  O   UNL     1      24.344  31.164  16.528  1.00  0.00    -0.391 OA
ATOM     21  H   UNL     1      23.470  31.183  17.010  1.00  0.00     0.211 HD
ENDBRANCH  12  20
BRANCH  13  22
ATOM     22  N   UNL     1      23.963  32.238  13.969  1.00  0.00    -0.348 N 
ATOM     23  C   UNL     1      23.721  30.955  13.397  1.00  0.00     0.217 C 
ATOM     24  H   UNL     1      23.246  33.003  13.829  1.00  0.00     0.163 HD
ATOM     25  C   UNL     1      22.463  30.765  12.630  1.00  0.00     0.114 C 
ATOM     26  O   UNL     1      24.573  30.067  13.571  1.00  0.00    -0.275 OA
ENDBRANCH  13  22
ENDBRANCH   7   8
BRANCH   7  27
ATOM     27  O   UNL     1      24.977  34.274  12.190  1.00  0.00    -0.388 OA
ATOM     28  H   UNL     1      24.573  33.419  11.911  1.00  0.00     0.211 HD
ENDBRANCH   7  27
ENDBRANCH   6   7
BRANCH   6  29
ATOM     29  O   UNL     1      26.514  36.131  11.895  1.00  0.00    -0.388 OA
ATOM     30  H   UNL     1      25.508  36.151  11.849  1.00  0.00     0.211 HD
ENDBRANCH   6  29
ENDBRANCH   5   6
ENDBRANCH   1   5
BRANCH   2  31
ATOM     31  O   UNL     1      31.152  35.701  15.064  1.00  0.00    -0.443 OA
BRANCH  31  32
ATOM     32  C   UNL     1      32.124  34.707  15.314  1.00  0.00     0.294 C 
BRANCH  32  33
ATOM     33  C   UNL     1      31.471  33.471  15.815  1.00  0.00     0.121 A 
ATOM     34  C   UNL     1      31.142  33.228  17.134  1.00  0.00     0.144 A 
ATOM     35  N   UNL     1      31.086  32.390  15.127  1.00  0.00    -0.131 NA
ATOM     36  N   UNL     1      30.578  32.011  17.148  1.00  0.00    -0.220 N 
ATOM     37  N   UNL     1      30.539  31.491  15.931  1.00  0.00    -0.062 NA
BRANCH  36  38
ATOM     38  C   UNL     1      30.081  31.346  18.308  1.00  0.00     0.068 A 
ATOM     39  C   UNL     1      28.939  30.575  18.294  1.00  0.00     0.050 A 
ATOM     40  C   UNL     1      30.747  31.457  19.517  1.00  0.00     0.028 A 
ATOM     41  C   UNL     1      28.460  29.928  19.432  1.00  0.00     0.084 A 
ATOM     42  C   UNL     1      30.297  30.831  20.648  1.00  0.00     0.004 A 
ATOM     43  C   UNL     1      29.154  30.069  20.602  1.00  0.00     0.022 A 
BRANCH  41  44
ATOM     44  S   UNL     1      27.022  28.959  19.407  1.00  0.00     0.238 S 
ATOM     45  O   UNL     1      27.396  27.570  18.957  1.00  0.00    -0.207 OA
ATOM     46  O   UNL     1      26.072  29.503  18.367  1.00  0.00    -0.207 OA
BRANCH  44  47
ATOM     47  N   UNL     1      26.286  28.871  20.955  1.00  0.00    -0.225 NA
ATOM     48  H   UNL     1      25.958  29.811  21.241  1.00  0.00     0.137 HD
ATOM     49  H   UNL     1      26.914  28.453  21.673  1.00  0.00     0.137 HD
ENDBRANCH  44  47
ENDBRANCH  41  44
ENDBRANCH  36  38
ENDBRANCH  32  33
ENDBRANCH  31  32
ENDBRANCH   2  31
TORSDOF 17
BEGIN_RES LYS A 131
REMARK  4 active torsions:
REMARK  status: ('A' for Active; 'I' for Inactive)
REMARK    1  A    between atoms: CA   and  CB  
REMARK    2  A    between atoms: CB   and  CG  
REMARK    3  A    between atoms: CG   and  CD  
REMARK    4  A    between atoms: CD   and  CE  
ROOT
ATOM      1  CA  LYS A 131      29.867  25.555  16.977  1.00 20.52     0.186 C 
ENDROOT
BRANCH   1   2
ATOM      2  CB  LYS A 131      28.345  25.722  17.026  1.00 20.94     0.034 C 
BRANCH   2   3
ATOM      3  CG  LYS A 131      27.601  24.401  16.903  1.00 22.96     0.005 C 
BRANCH   3   4
ATOM      4  CD  LYS A 131      26.155  24.526  17.295  1.00 24.33     0.041 C 
BRANCH   4   5
ATOM      5  CE  LYS A 131      25.678  23.214  17.908  1.00 26.91     0.338 C 
ATOM      6  NZ  LYS A 131      24.407  22.780  17.282  1.00 27.40     0.618 N 
ENDBRANCH   4   5
ENDBRANCH   3   4
ENDBRANCH   2   3
ENDBRANCH   1   2
END_RES LYS A 131
BEGIN_RES LYS A 135
REMARK  4 active torsions:
REMARK  status: ('A' for Active; 'I' for Inactive)
REMARK    5  A    between atoms: CA   and  CB  
REMARK    6  A    between atoms: CB   and  CG  
REMARK    7  A    between atoms: CG   and  CD  
REMARK    8  A    between atoms: CD   and  CE  
ROOT
ATOM      7  CA  LYS A 135      33.193  34.663   9.290  1.00 25.02     0.186 C 
ENDROOT
BRANCH   7   8
ATOM      8  CB  LYS A 135      32.060  35.360  10.034  1.00 26.63     0.034 C 
BRANCH   8   9
ATOM      9  CG  LYS A 135      30.708  34.741   9.789  1.00 29.45     0.005 C 
BRANCH   9  10
ATOM     10  CD  LYS A 135      30.479  34.524   8.301  1.00 32.00     0.041 C 
BRANCH  10  11
ATOM     11  CE  LYS A 135      29.046  34.854   7.929  1.00 34.25     0.338 C 
ATOM     12  NZ  LYS A 135      28.089  34.263   8.904  1.00 35.99     0.618 N 
ENDBRANCH  10  11
ENDBRANCH   9  10
ENDBRANCH   8   9
ENDBRANCH   7   8
END_RES LYS A 135
