REMARK VINA RESULT:    -3.383      2.957      7.196
REMARK INTER + INTRA:         -13.804
REMARK INTER:                  -6.647
REMARK INTRA:                  -7.158
REMARK UNBOUND:                -7.158
REMARK SMILES CCN(CC)CCn1cc(COC(=O)NC[C@@H](O)C(O)[C@@H]2O[C@@](O)(C(=O)O)C[C@H](O)[C@H]2NC(C)=O)nn1
REMARK SMILES IDX 15 1 13 2 14 3 16 5 17 6 19 7 21 8 23 9 28 10 22 11 29 12
REMARK SMILES IDX 31 13 24 14 25 16 26 17 27 18 30 20 32 22 33 23 34 25 35 26
REMARK SMILES IDX 20 27 18 29 12 31 11 32 10 33 9 34 36 35 8 36 37 37 7 38
REMARK SMILES IDX 6 39 3 40 2 41 1 42 4 43 5 44
REMARK H PARENT 15 4 24 15 27 19 30 21 32 24 20 28 18 30
REMARK Flexibility Score: inf
ROOT
ATOM      1  N   UNL     1      29.115  30.492  19.433  1.00  0.00    -0.319 N 
ATOM      2  C   UNL     1      29.268  29.270  20.157  1.00  0.00     0.407 C 
ATOM      3  O   UNL     1      30.393  28.911  20.544  1.00  0.00    -0.225 OA
ATOM      4  H   UNL     1      28.150  30.727  19.141  1.00  0.00     0.167 HD
ENDROOT
BRANCH   1   5
ATOM      5  C   UNL     1      30.199  31.367  19.110  1.00  0.00     0.154 C 
BRANCH   5   6
ATOM      6  C   UNL     1      29.927  32.270  17.940  1.00  0.00     0.165 C 
BRANCH   6   7
ATOM      7  C   UNL     1      28.519  32.059  17.428  1.00  0.00     0.176 C 
BRANCH   7   8
ATOM      8  C   UNL     1      27.887  33.352  16.998  1.00  0.00     0.178 C 
ATOM      9  C   UNL     1      25.672  32.770  17.536  1.00  0.00     0.269 C 
ATOM     10  C   UNL     1      25.427  32.467  16.064  1.00  0.00     0.112 C 
ATOM     11  O   UNL     1      26.758  33.569  17.746  1.00  0.00    -0.332 OA
ATOM     12  C   UNL     1      26.155  33.561  15.274  1.00  0.00     0.145 C 
ATOM     13  C   UNL     1      27.609  33.398  15.536  1.00  0.00     0.142 C 
BRANCH   9  14
ATOM     14  O   UNL     1      25.689  31.551  18.210  1.00  0.00    -0.357 OA
ATOM     15  H   UNL     1      25.195  31.615  19.076  1.00  0.00     0.214 HD
ENDBRANCH   9  14
BRANCH   9  16
ATOM     16  C   UNL     1      24.482  33.532  18.032  1.00  0.00     0.364 C 
ATOM     17  O   UNL     1      24.591  34.546  18.754  1.00  0.00    -0.246 OA
BRANCH  16  18
ATOM     18  O   UNL     1      23.222  33.099  17.678  1.00  0.00    -0.477 OA
ATOM     19  H   UNL     1      23.010  32.653  16.790  1.00  0.00     0.296 HD
ENDBRANCH  16  18
ENDBRANCH   9  16
BRANCH  12  20
ATOM     20  O   UNL     1      25.814  33.406  13.931  1.00  0.00    -0.391 OA
ATOM     21  H   UNL     1      26.006  32.440  13.709  1.00  0.00     0.211 HD
ENDBRANCH  12  20
BRANCH  13  22
ATOM     22  N   UNL     1      28.427  34.369  14.835  1.00  0.00    -0.348 N 
ATOM     23  C   UNL     1      29.693  34.055  14.265  1.00  0.00     0.217 C 
ATOM     24  H   UNL     1      28.109  35.373  14.714  1.00  0.00     0.163 HD
ATOM     25  C   UNL     1      30.496  35.099  13.552  1.00  0.00     0.114 C 
ATOM     26  O   UNL     1      30.152  32.901  14.355  1.00  0.00    -0.275 OA
ENDBRANCH  13  22
ENDBRANCH   7   8
BRANCH   7  27
ATOM     27  O   UNL     1      28.664  31.163  16.353  1.00  0.00    -0.388 OA
ATOM     28  H   UNL     1      29.362  30.517  16.641  1.00  0.00     0.211 HD
ENDBRANCH   7  27
ENDBRANCH   6   7
BRANCH   6  29
ATOM     29  O   UNL     1      30.907  32.147  16.997  1.00  0.00    -0.388 OA
ATOM     30  H   UNL     1      30.502  32.089  16.096  1.00  0.00     0.211 HD
ENDBRANCH   6  29
ENDBRANCH   5   6
ENDBRANCH   1   5
BRANCH   2  31
ATOM     31  O   UNL     1      28.197  28.445  20.456  1.00  0.00    -0.443 OA
BRANCH  31  32
ATOM     32  C   UNL     1      27.817  27.363  19.616  1.00  0.00     0.294 C 
BRANCH  32  33
ATOM     33  C   UNL     1      26.963  27.907  18.530  1.00  0.00     0.120 A 
ATOM     34  C   UNL     1      25.632  27.540  18.337  1.00  0.00     0.138 A 
ATOM     35  N   UNL     1      27.231  28.794  17.562  1.00  0.00    -0.132 NA
ATOM     36  N   UNL     1      25.170  28.211  17.285  1.00  0.00    -0.251 N 
ATOM     37  N   UNL     1      26.145  28.965  16.826  1.00  0.00    -0.067 NA
BRANCH  36  38
ATOM     38  C   UNL     1      23.842  28.129  16.739  1.00  0.00     0.161 C 
BRANCH  38  39
ATOM     39  C   UNL     1      23.540  29.419  15.998  1.00  0.00     0.108 C 
BRANCH  39  40
ATOM     40  N   UNL     1      22.538  29.279  14.992  1.00  0.00    -0.302 NA
BRANCH  40  41
ATOM     41  C   UNL     1      21.228  29.003  15.478  1.00  0.00     0.081 C 
ATOM     42  C   UNL     1      20.687  27.822  14.659  1.00  0.00     0.021 C 
ENDBRANCH  40  41
BRANCH  40  43
ATOM     43  C   UNL     1      22.967  28.539  13.853  1.00  0.00     0.081 C 
ATOM     44  C   UNL     1      23.630  29.367  12.796  1.00  0.00     0.021 C 
ENDBRANCH  40  43
ENDBRANCH  39  40
ENDBRANCH  38  39
ENDBRANCH  36  38
ENDBRANCH  32  33
ENDBRANCH  31  32
ENDBRANCH   2  31
TORSDOF 19
BEGIN_RES LYS A 131
REMARK  4 active torsions:
REMARK  status: ('A' for Active; 'I' for Inactive)
REMARK    1  A    between atoms: CA   and  CB  
REMARK    2  A    between atoms: CB   and  CG  
REMARK    3  A    between atoms: CG   and  CD  
REMARK    4  A    between atoms: CD   and  CE  
ROOT
ATOM      1  CA  LYS A 131      29.867  25.555  16.977  1.00 20.52     0.186 C 
ENDROOT
BRANCH   1   2
ATOM      2  CB  LYS A 131      28.345  25.722  17.026  1.00 20.94     0.034 C 
BRANCH   2   3
ATOM      3  CG  LYS A 131      27.600  24.416  16.795  1.00 22.96     0.005 C 
BRANCH   3   4
ATOM      4  CD  LYS A 131      26.807  23.996  18.002  1.00 24.33     0.041 C 
BRANCH   4   5
ATOM      5  CE  LYS A 131      25.501  23.349  17.552  1.00 26.91     0.338 C 
ATOM      6  NZ  LYS A 131      24.637  24.343  16.873  1.00 27.40     0.618 N 
ENDBRANCH   4   5
ENDBRANCH   3   4
ENDBRANCH   2   3
ENDBRANCH   1   2
END_RES LYS A 131
BEGIN_RES LYS A 135
REMARK  4 active torsions:
REMARK  status: ('A' for Active; 'I' for Inactive)
REMARK    5  A    between atoms: CA   and  CB  
REMARK    6  A    between atoms: CB   and  CG  
REMARK    7  A    between atoms: CG   and  CD  
REMARK    8  A    between atoms: CD   and  CE  
ROOT
ATOM      7  CA  LYS A 135      33.193  34.663   9.290  1.00 25.02     0.186 C 
ENDROOT
BRANCH   7   8
ATOM      8  CB  LYS A 135      32.060  35.360  10.034  1.00 26.63     0.034 C 
BRANCH   8   9
ATOM      9  CG  LYS A 135      30.711  34.727   9.807  1.00 29.45     0.005 C 
BRANCH   9  10
ATOM     10  CD  LYS A 135      30.389  34.670   8.322  1.00 32.00     0.041 C 
BRANCH  10  11
ATOM     11  CE  LYS A 135      29.272  35.638   7.981  1.00 34.25     0.338 C 
ATOM     12  NZ  LYS A 135      28.904  35.548   6.541  1.00 35.99     0.618 N 
ENDBRANCH  10  11
ENDBRANCH   9  10
ENDBRANCH   8   9
ENDBRANCH   7   8
END_RES LYS A 135
