REMARK VINA RESULT:    -4.112      6.909     13.417
REMARK INTER + INTRA:         -13.787
REMARK INTER:                  -6.199
REMARK INTRA:                  -7.588
REMARK UNBOUND:                -5.949
REMARK SMILES CCOC(=O)Cn1cc(COC(=O)NC[C@@H](O)C(O)[C@@H]2O[C@@](O)(C(=O)O)C[C@H](O)[C@H]2NC(C)=O)nn1
REMARK SMILES IDX 14 1 12 2 13 3 15 5 16 6 18 7 20 8 22 9 27 10 21 11 28 12
REMARK SMILES IDX 30 13 23 14 24 16 25 17 26 18 29 20 31 22 32 23 33 25 34 26
REMARK SMILES IDX 19 27 17 29 11 31 10 32 9 33 8 34 35 35 7 36 36 37 6 38 4 39
REMARK SMILES IDX 5 40 3 41 2 42 1 43
REMARK H PARENT 14 4 23 15 26 19 29 21 31 24 19 28 17 30
REMARK Flexibility Score: inf
ROOT
ATOM      1  N   UNL     1      25.455  39.638   6.393  1.00  0.00    -0.319 N 
ATOM      2  C   UNL     1      25.492  40.819   5.619  1.00  0.00     0.407 C 
ATOM      3  O   UNL     1      24.594  41.667   5.655  1.00  0.00    -0.225 OA
ATOM      4  H   UNL     1      26.312  39.008   6.253  1.00  0.00     0.167 HD
ENDROOT
BRANCH   1   5
ATOM      5  C   UNL     1      24.419  39.244   7.292  1.00  0.00     0.154 C 
BRANCH   5   6
ATOM      6  C   UNL     1      24.540  37.900   7.923  1.00  0.00     0.165 C 
BRANCH   6   7
ATOM      7  C   UNL     1      25.099  37.915   9.301  1.00  0.00     0.176 C 
BRANCH   7   8
ATOM      8  C   UNL     1      26.573  37.638   9.420  1.00  0.00     0.178 C 
ATOM      9  C   UNL     1      27.070  36.514  11.409  1.00  0.00     0.269 C 
ATOM     10  C   UNL     1      28.511  36.973  11.469  1.00  0.00     0.112 C 
ATOM     11  O   UNL     1      26.682  36.432  10.109  1.00  0.00    -0.332 OA
ATOM     12  C   UNL     1      28.683  38.176  10.616  1.00  0.00     0.145 C 
ATOM     13  C   UNL     1      27.355  38.737  10.082  1.00  0.00     0.142 C 
BRANCH   9  14
ATOM     14  O   UNL     1      26.343  37.370  12.216  1.00  0.00    -0.357 OA
ATOM     15  H   UNL     1      25.615  37.751  11.673  1.00  0.00     0.214 HD
ENDBRANCH   9  14
BRANCH   9  16
ATOM     16  C   UNL     1      27.039  35.153  11.993  1.00  0.00     0.364 C 
ATOM     17  O   UNL     1      28.085  34.696  12.500  1.00  0.00    -0.246 OA
BRANCH  16  18
ATOM     18  O   UNL     1      25.899  34.391  11.989  1.00  0.00    -0.477 OA
ATOM     19  H   UNL     1      25.068  34.658  11.460  1.00  0.00     0.296 HD
ENDBRANCH  16  18
ENDBRANCH   9  16
BRANCH  12  20
ATOM     20  O   UNL     1      29.379  39.208  11.239  1.00  0.00    -0.391 OA
ATOM     21  H   UNL     1      30.089  39.596  10.690  1.00  0.00     0.211 HD
ENDBRANCH  12  20
BRANCH  13  22
ATOM     22  N   UNL     1      27.763  39.751   9.133  1.00  0.00    -0.348 N 
ATOM     23  C   UNL     1      27.286  41.073   9.098  1.00  0.00     0.217 C 
ATOM     24  H   UNL     1      28.470  39.472   8.418  1.00  0.00     0.163 HD
ATOM     25  C   UNL     1      27.719  42.096   8.116  1.00  0.00     0.114 C 
ATOM     26  O   UNL     1      26.426  41.398   9.975  1.00  0.00    -0.275 OA
ENDBRANCH  13  22
ENDBRANCH   7   8
BRANCH   7  27
ATOM     27  O   UNL     1      24.710  39.038   9.991  1.00  0.00    -0.388 OA
ATOM     28  H   UNL     1      24.059  39.610   9.511  1.00  0.00     0.211 HD
ENDBRANCH   7  27
ENDBRANCH   6   7
BRANCH   6  29
ATOM     29  O   UNL     1      25.437  37.137   7.147  1.00  0.00    -0.388 OA
ATOM     30  H   UNL     1      25.009  36.878   6.279  1.00  0.00     0.211 HD
ENDBRANCH   6  29
ENDBRANCH   5   6
ENDBRANCH   1   5
BRANCH   2  31
ATOM     31  O   UNL     1      26.582  41.081   4.756  1.00  0.00    -0.443 OA
BRANCH  31  32
ATOM     32  C   UNL     1      27.344  40.025   4.205  1.00  0.00     0.294 C 
BRANCH  32  33
ATOM     33  C   UNL     1      28.353  39.645   5.230  1.00  0.00     0.120 A 
ATOM     34  C   UNL     1      29.588  40.207   5.454  1.00  0.00     0.139 A 
ATOM     35  N   UNL     1      28.251  38.655   6.159  1.00  0.00    -0.132 NA
ATOM     36  N   UNL     1      30.162  39.537   6.492  1.00  0.00    -0.241 N 
ATOM     37  N   UNL     1      29.323  38.600   6.897  1.00  0.00    -0.066 NA
BRANCH  36  38
ATOM     38  C   UNL     1      31.459  39.771   7.084  1.00  0.00     0.268 C 
BRANCH  38  39
ATOM     39  C   UNL     1      31.377  39.767   8.552  1.00  0.00     0.327 C 
ATOM     40  O   UNL     1      31.883  38.819   9.190  1.00  0.00    -0.250 OA
BRANCH  39  41
ATOM     41  O   UNL     1      30.731  40.830   9.185  1.00  0.00    -0.465 OA
BRANCH  41  42
ATOM     42  C   UNL     1      31.564  41.941   9.532  1.00  0.00     0.229 C 
ATOM     43  C   UNL     1      31.839  41.866  11.012  1.00  0.00     0.049 C 
ENDBRANCH  41  42
ENDBRANCH  39  41
ENDBRANCH  38  39
ENDBRANCH  36  38
ENDBRANCH  32  33
ENDBRANCH  31  32
ENDBRANCH   2  31
TORSDOF 18
BEGIN_RES LYS A 131
REMARK  4 active torsions:
REMARK  status: ('A' for Active; 'I' for Inactive)
REMARK    1  A    between atoms: CA   and  CB  
REMARK    2  A    between atoms: CB   and  CG  
REMARK    3  A    between atoms: CG   and  CD  
REMARK    4  A    between atoms: CD   and  CE  
ROOT
ATOM      1  CA  LYS A 131      29.867  25.555  16.977  1.00 20.52     0.186 C 
ENDROOT
BRANCH   1   2
ATOM      2  CB  LYS A 131      28.345  25.722  17.026  1.00 20.94     0.034 C 
BRANCH   2   3
ATOM      3  CG  LYS A 131      27.601  24.402  16.892  1.00 22.96     0.005 C 
BRANCH   3   4
ATOM      4  CD  LYS A 131      26.148  24.531  17.258  1.00 24.33     0.041 C 
BRANCH   4   5
ATOM      5  CE  LYS A 131      25.580  23.152  17.578  1.00 26.91     0.338 C 
ATOM      6  NZ  LYS A 131      24.444  23.266  18.523  1.00 27.40     0.618 N 
ENDBRANCH   4   5
ENDBRANCH   3   4
ENDBRANCH   2   3
ENDBRANCH   1   2
END_RES LYS A 131
BEGIN_RES LYS A 135
REMARK  4 active torsions:
REMARK  status: ('A' for Active; 'I' for Inactive)
REMARK    5  A    between atoms: CA   and  CB  
REMARK    6  A    between atoms: CB   and  CG  
REMARK    7  A    between atoms: CG   and  CD  
REMARK    8  A    between atoms: CD   and  CE  
ROOT
ATOM      7  CA  LYS A 135      33.193  34.663   9.290  1.00 25.02     0.186 C 
ENDROOT
BRANCH   7   8
ATOM      8  CB  LYS A 135      32.060  35.360  10.034  1.00 26.63     0.034 C 
BRANCH   8   9
ATOM      9  CG  LYS A 135      30.778  35.434   9.246  1.00 29.45     0.005 C 
BRANCH   9  10
ATOM     10  CD  LYS A 135      29.985  34.144   9.389  1.00 32.00     0.041 C 
BRANCH  10  11
ATOM     11  CE  LYS A 135      28.666  34.244   8.646  1.00 34.25     0.338 C 
ATOM     12  NZ  LYS A 135      28.743  35.249   7.549  1.00 35.99     0.618 N 
ENDBRANCH  10  11
ENDBRANCH   9  10
ENDBRANCH   8   9
ENDBRANCH   7   8
END_RES LYS A 135
