REMARK VINA RESULT:    -5.371      2.295      2.879
REMARK INTER + INTRA:         -16.672
REMARK INTER:                 -12.381
REMARK INTRA:                  -4.292
REMARK UNBOUND:                -6.121
REMARK SMILES CC(=O)N[C@@H]1[C@@H](O)C[C@](O)(C(=O)O)O[C@H]1C(O)[C@H](O)CNC(=O)OCc1cn(C[C@@H](C)CN2CCN(c3ccc(Cl)cc3)CC2)nn1
REMARK SMILES IDX 24 1 22 2 21 3 23 5 20 6 18 7 16 8 15 9 9 10 8 11 14 12 6 13
REMARK SMILES IDX 5 14 10 15 11 17 12 18 13 19 7 21 4 23 2 24 1 26 3 27 17 28
REMARK SMILES IDX 19 30 25 32 26 33 27 34 47 35 28 36 46 37 29 38 30 39 31 40
REMARK SMILES IDX 32 41 33 42 34 43 45 44 35 45 44 46 36 47 37 48 38 49 43 50
REMARK SMILES IDX 39 51 42 52 40 53 41 54
REMARK H PARENT 21 4 10 16 13 20 7 22 4 25 17 29 19 31
REMARK Flexibility Score: inf
ROOT
ATOM      1  O   UNL     1      24.330  35.327  14.665  1.00  0.00    -0.443 OA
ENDROOT
BRANCH   1   2
ATOM      2  C   UNL     1      25.298  36.118  14.065  1.00  0.00     0.407 C 
ATOM      3  N   UNL     1      26.546  35.629  13.589  1.00  0.00    -0.319 N 
ATOM      4  H   UNL     1      26.726  34.615  13.717  1.00  0.00     0.167 HD
ATOM      5  O   UNL     1      25.015  37.342  13.950  1.00  0.00    -0.225 OA
BRANCH   3   6
ATOM      6  C   UNL     1      27.424  36.576  12.983  1.00  0.00     0.154 C 
BRANCH   6   7
ATOM      7  C   UNL     1      27.874  36.280  11.609  1.00  0.00     0.165 C 
BRANCH   7   8
ATOM      8  C   UNL     1      26.877  36.600  10.509  1.00  0.00     0.176 C 
BRANCH   8   9
ATOM      9  C   UNL     1      27.563  36.113   9.231  1.00  0.00     0.178 C 
ATOM     10  C   UNL     1      29.699  36.131   8.290  1.00  0.00     0.269 C 
ATOM     11  C   UNL     1      29.100  36.404   6.940  1.00  0.00     0.112 C 
ATOM     12  O   UNL     1      28.883  36.453   9.341  1.00  0.00    -0.332 OA
ATOM     13  C   UNL     1      27.648  36.106   6.827  1.00  0.00     0.145 C 
ATOM     14  C   UNL     1      26.951  36.766   8.037  1.00  0.00     0.142 C 
BRANCH  10  15
ATOM     15  O   UNL     1      30.817  37.001   8.372  1.00  0.00    -0.357 OA
ATOM     16  H   UNL     1      31.544  36.696   7.799  1.00  0.00     0.214 HD
ENDBRANCH  10  15
BRANCH  10  17
ATOM     17  C   UNL     1      30.250  34.749   8.412  1.00  0.00     0.364 C 
ATOM     18  O   UNL     1      29.604  33.861   9.024  1.00  0.00    -0.246 OA
BRANCH  17  19
ATOM     19  O   UNL     1      31.471  34.374   7.871  1.00  0.00    -0.477 OA
ATOM     20  H   UNL     1      31.758  33.416   7.712  1.00  0.00     0.296 HD
ENDBRANCH  17  19
ENDBRANCH  10  17
BRANCH  13  21
ATOM     21  O   UNL     1      27.156  36.702   5.666  1.00  0.00    -0.391 OA
ATOM     22  H   UNL     1      26.525  37.436   5.888  1.00  0.00     0.211 HD
ENDBRANCH  13  21
BRANCH  14  23
ATOM     23  N   UNL     1      25.528  36.572   7.949  1.00  0.00    -0.348 N 
ATOM     24  C   UNL     1      24.642  37.668   7.849  1.00  0.00     0.217 C 
ATOM     25  H   UNL     1      25.149  35.610   7.961  1.00  0.00     0.163 HD
ATOM     26  C   UNL     1      23.185  37.353   7.765  1.00  0.00     0.114 C 
ATOM     27  O   UNL     1      25.021  38.857   7.827  1.00  0.00    -0.275 OA
ENDBRANCH  14  23
ENDBRANCH   8   9
BRANCH   8  28
ATOM     28  O   UNL     1      25.698  35.875  10.748  1.00  0.00    -0.388 OA
ATOM     29  H   UNL     1      24.998  36.549  10.944  1.00  0.00     0.211 HD
ENDBRANCH   8  28
ENDBRANCH   7   8
BRANCH   7  30
ATOM     30  O   UNL     1      28.018  34.867  11.526  1.00  0.00    -0.388 OA
ATOM     31  H   UNL     1      28.891  34.688  11.977  1.00  0.00     0.211 HD
ENDBRANCH   7  30
ENDBRANCH   6   7
ENDBRANCH   3   6
ENDBRANCH   1   2
BRANCH   1  32
ATOM     32  C   UNL     1      23.254  34.797  13.909  1.00  0.00     0.294 C 
BRANCH  32  33
ATOM     33  C   UNL     1      23.406  33.334  13.748  1.00  0.00     0.120 A 
ATOM     34  C   UNL     1      24.183  32.534  14.590  1.00  0.00     0.138 A 
ATOM     35  N   UNL     1      22.891  32.471  12.862  1.00  0.00    -0.132 NA
ATOM     36  N   UNL     1      24.119  31.252  14.205  1.00  0.00    -0.252 N 
ATOM     37  N   UNL     1      23.307  31.245  13.124  1.00  0.00    -0.067 NA
BRANCH  36  38
ATOM     38  C   UNL     1      24.739  30.076  14.789  1.00  0.00     0.150 C 
BRANCH  38  39
ATOM     39  C   UNL     1      24.912  30.294  16.298  1.00  0.00     0.022 C 
ATOM     40  C   UNL     1      23.645  30.088  17.038  1.00  0.00     0.011 C 
BRANCH  39  41
ATOM     41  C   UNL     1      26.153  29.682  16.800  1.00  0.00     0.089 C 
BRANCH  41  42
ATOM     42  N   UNL     1      27.292  30.542  16.725  1.00  0.00    -0.299 NA
ATOM     43  C   UNL     1      27.957  30.613  18.054  1.00  0.00     0.106 C 
ATOM     44  C   UNL     1      28.311  29.938  15.872  1.00  0.00     0.106 C 
ATOM     45  C   UNL     1      29.238  31.366  17.984  1.00  0.00     0.132 C 
ATOM     46  C   UNL     1      29.215  31.115  15.474  1.00  0.00     0.132 C 
ATOM     47  N   UNL     1      29.689  31.734  16.678  1.00  0.00    -0.369 N 
BRANCH  47  48
ATOM     48  C   UNL     1      30.663  32.763  16.549  1.00  0.00     0.037 A 
ATOM     49  C   UNL     1      30.927  33.583  17.623  1.00  0.00     0.027 A 
ATOM     50  C   UNL     1      31.342  32.957  15.354  1.00  0.00     0.027 A 
ATOM     51  C   UNL     1      31.864  34.581  17.489  1.00  0.00     0.022 A 
ATOM     52  C   UNL     1      32.272  33.955  15.232  1.00  0.00     0.022 A 
ATOM     53  C   UNL     1      32.533  34.775  16.319  1.00  0.00     0.041 A 
ATOM     54  Cl  UNL     1      33.714  36.046  16.144  1.00  0.00    -0.084 Cl
ENDBRANCH  47  48
ENDBRANCH  41  42
ENDBRANCH  39  41
ENDBRANCH  38  39
ENDBRANCH  36  38
ENDBRANCH  32  33
ENDBRANCH   1  32
TORSDOF 19
BEGIN_RES LYS A 131
REMARK  4 active torsions:
REMARK  status: ('A' for Active; 'I' for Inactive)
REMARK    1  A    between atoms: CA   and  CB  
REMARK    2  A    between atoms: CB   and  CG  
REMARK    3  A    between atoms: CG   and  CD  
REMARK    4  A    between atoms: CD   and  CE  
ROOT
ATOM      1  CA  LYS A 131      29.867  25.555  16.977  1.00 20.52     0.186 C 
ENDROOT
BRANCH   1   2
ATOM      2  CB  LYS A 131      28.345  25.722  17.026  1.00 20.94     0.034 C 
BRANCH   2   3
ATOM      3  CG  LYS A 131      27.602  24.399  16.922  1.00 22.96     0.005 C 
BRANCH   3   4
ATOM      4  CD  LYS A 131      26.569  24.243  18.004  1.00 24.33     0.041 C 
BRANCH   4   5
ATOM      5  CE  LYS A 131      26.471  25.537  18.804  1.00 26.91     0.338 C 
ATOM      6  NZ  LYS A 131      25.426  25.423  19.849  1.00 27.40     0.618 N 
ENDBRANCH   4   5
ENDBRANCH   3   4
ENDBRANCH   2   3
ENDBRANCH   1   2
END_RES LYS A 131
BEGIN_RES LYS A 135
REMARK  4 active torsions:
REMARK  status: ('A' for Active; 'I' for Inactive)
REMARK    5  A    between atoms: CA   and  CB  
REMARK    6  A    between atoms: CB   and  CG  
REMARK    7  A    between atoms: CG   and  CD  
REMARK    8  A    between atoms: CD   and  CE  
ROOT
ATOM      7  CA  LYS A 135      33.193  34.663   9.290  1.00 25.02     0.186 C 
ENDROOT
BRANCH   7   8
ATOM      8  CB  LYS A 135      32.060  35.360  10.034  1.00 26.63     0.034 C 
BRANCH   8   9
ATOM      9  CG  LYS A 135      32.496  36.014  11.320  1.00 29.45     0.005 C 
BRANCH   9  10
ATOM     10  CD  LYS A 135      31.340  36.081  12.306  1.00 32.00     0.041 C 
BRANCH  10  11
ATOM     11  CE  LYS A 135      31.557  37.201  13.305  1.00 34.25     0.338 C 
ATOM     12  NZ  LYS A 135      30.659  38.355  13.021  1.00 35.99     0.618 N 
ENDBRANCH  10  11
ENDBRANCH   9  10
ENDBRANCH   8   9
ENDBRANCH   7   8
END_RES LYS A 135
