REMARK VINA RESULT:    -4.847      6.139     10.162
REMARK INTER + INTRA:         -13.899
REMARK INTER:                  -8.603
REMARK INTRA:                  -5.295
REMARK UNBOUND:                -5.226
REMARK SMILES COc1ccc(-n2cc(COC(=O)NC[C@@H](O)C(O)[C@@H]3O[C@@](O)(C(=O)O)C[C@H](O)[C@H]3NC(C)=O)nn2)cc1
REMARK SMILES IDX 14 1 12 2 13 3 15 5 16 6 18 7 20 8 22 9 27 10 21 11 28 12
REMARK SMILES IDX 30 13 23 14 24 16 25 17 26 18 29 20 31 22 32 23 33 25 34 26
REMARK SMILES IDX 19 27 17 29 11 31 10 32 9 33 8 34 35 35 7 36 36 37 6 38 5 39
REMARK SMILES IDX 37 40 4 41 38 42 3 43 2 44 1 45
REMARK H PARENT 14 4 23 15 26 19 29 21 31 24 19 28 17 30
REMARK Flexibility Score: inf
ROOT
ATOM      1  N   UNL     1      30.632  31.860  15.333  1.00  0.00    -0.319 N 
ATOM      2  C   UNL     1      29.421  31.593  16.008  1.00  0.00     0.407 C 
ATOM      3  O   UNL     1      29.056  32.245  16.998  1.00  0.00    -0.225 OA
ATOM      4  H   UNL     1      30.834  31.202  14.513  1.00  0.00     0.167 HD
ENDROOT
BRANCH   1   5
ATOM      5  C   UNL     1      31.588  32.859  15.592  1.00  0.00     0.154 C 
BRANCH   5   6
ATOM      6  C   UNL     1      31.725  33.997  14.686  1.00  0.00     0.165 C 
BRANCH   6   7
ATOM      7  C   UNL     1      30.785  34.182  13.602  1.00  0.00     0.176 C 
BRANCH   7   8
ATOM      8  C   UNL     1      29.642  35.189  13.853  1.00  0.00     0.178 C 
ATOM      9  C   UNL     1      29.589  37.059  15.288  1.00  0.00     0.269 C 
ATOM     10  C   UNL     1      28.810  36.260  16.345  1.00  0.00     0.112 C 
ATOM     11  O   UNL     1      30.291  36.178  14.570  1.00  0.00    -0.332 OA
ATOM     12  C   UNL     1      27.825  35.448  15.596  1.00  0.00     0.145 C 
ATOM     13  C   UNL     1      28.444  34.618  14.456  1.00  0.00     0.142 C 
BRANCH   9  14
ATOM     14  O   UNL     1      30.547  37.762  16.069  1.00  0.00    -0.357 OA
ATOM     15  H   UNL     1      31.261  37.156  16.383  1.00  0.00     0.214 HD
ENDBRANCH   9  14
BRANCH   9  16
ATOM     16  C   UNL     1      28.786  38.041  14.587  1.00  0.00     0.364 C 
ATOM     17  O   UNL     1      28.116  38.889  15.228  1.00  0.00    -0.246 OA
BRANCH  16  18
ATOM     18  O   UNL     1      28.669  38.153  13.201  1.00  0.00    -0.477 OA
ATOM     19  H   UNL     1      28.667  39.058  12.723  1.00  0.00     0.296 HD
ENDBRANCH  16  18
ENDBRANCH   9  16
BRANCH  12  20
ATOM     20  O   UNL     1      27.114  34.542  16.398  1.00  0.00    -0.391 OA
ATOM     21  H   UNL     1      27.736  34.338  17.165  1.00  0.00     0.211 HD
ENDBRANCH  12  20
BRANCH  13  22
ATOM     22  N   UNL     1      27.314  34.389  13.609  1.00  0.00    -0.348 N 
ATOM     23  C   UNL     1      27.011  35.018  12.402  1.00  0.00     0.217 C 
ATOM     24  H   UNL     1      26.636  33.648  13.959  1.00  0.00     0.163 HD
ATOM     25  C   UNL     1      25.780  34.674  11.625  1.00  0.00     0.114 C 
ATOM     26  O   UNL     1      27.803  35.877  11.997  1.00  0.00    -0.275 OA
ENDBRANCH  13  22
ENDBRANCH   7   8
BRANCH   7  27
ATOM     27  O   UNL     1      31.459  34.495  12.426  1.00  0.00    -0.388 OA
ATOM     28  H   UNL     1      32.363  34.862  12.597  1.00  0.00     0.211 HD
ENDBRANCH   7  27
ENDBRANCH   6   7
BRANCH   6  29
ATOM     29  O   UNL     1      33.083  34.120  14.276  1.00  0.00    -0.388 OA
ATOM     30  H   UNL     1      33.671  34.180  15.074  1.00  0.00     0.211 HD
ENDBRANCH   6  29
ENDBRANCH   5   6
ENDBRANCH   1   5
BRANCH   2  31
ATOM     31  O   UNL     1      28.562  30.560  15.581  1.00  0.00    -0.443 OA
BRANCH  31  32
ATOM     32  C   UNL     1      27.331  30.365  16.232  1.00  0.00     0.294 C 
BRANCH  32  33
ATOM     33  C   UNL     1      26.246  30.949  15.429  1.00  0.00     0.121 A 
ATOM     34  C   UNL     1      25.174  30.206  14.922  1.00  0.00     0.144 A 
ATOM     35  N   UNL     1      26.024  32.195  15.020  1.00  0.00    -0.131 NA
ATOM     36  N   UNL     1      24.366  31.038  14.239  1.00  0.00    -0.220 N 
ATOM     37  N   UNL     1      24.921  32.245  14.324  1.00  0.00    -0.062 NA
BRANCH  36  38
ATOM     38  C   UNL     1      23.162  30.707  13.562  1.00  0.00     0.067 A 
ATOM     39  C   UNL     1      22.131  31.602  13.383  1.00  0.00     0.032 A 
ATOM     40  C   UNL     1      22.976  29.426  13.037  1.00  0.00     0.032 A 
ATOM     41  C   UNL     1      20.961  31.260  12.716  1.00  0.00     0.048 A 
ATOM     42  C   UNL     1      21.812  29.089  12.374  1.00  0.00     0.048 A 
ATOM     43  C   UNL     1      20.792  29.995  12.203  1.00  0.00     0.119 A 
BRANCH  43  44
ATOM     44  O   UNL     1      19.644  29.665  11.550  1.00  0.00    -0.497 OA
ATOM     45  C   UNL     1      18.428  29.576  12.262  1.00  0.00     0.278 C 
ENDBRANCH  43  44
ENDBRANCH  36  38
ENDBRANCH  32  33
ENDBRANCH  31  32
ENDBRANCH   2  31
TORSDOF 16
BEGIN_RES LYS A 131
REMARK  4 active torsions:
REMARK  status: ('A' for Active; 'I' for Inactive)
REMARK    1  A    between atoms: CA   and  CB  
REMARK    2  A    between atoms: CB   and  CG  
REMARK    3  A    between atoms: CG   and  CD  
REMARK    4  A    between atoms: CD   and  CE  
ROOT
ATOM      1  CA  LYS A 131      29.867  25.555  16.977  1.00 20.52     0.186 C 
ENDROOT
BRANCH   1   2
ATOM      2  CB  LYS A 131      28.345  25.722  17.026  1.00 20.94     0.034 C 
BRANCH   2   3
ATOM      3  CG  LYS A 131      27.602  24.400  16.913  1.00 22.96     0.005 C 
BRANCH   3   4
ATOM      4  CD  LYS A 131      26.428  24.328  17.849  1.00 24.33     0.041 C 
BRANCH   4   5
ATOM      5  CE  LYS A 131      25.985  25.740  18.220  1.00 26.91     0.338 C 
ATOM      6  NZ  LYS A 131      26.001  25.919  19.691  1.00 27.40     0.618 N 
ENDBRANCH   4   5
ENDBRANCH   3   4
ENDBRANCH   2   3
ENDBRANCH   1   2
END_RES LYS A 131
BEGIN_RES LYS A 135
REMARK  4 active torsions:
REMARK  status: ('A' for Active; 'I' for Inactive)
REMARK    5  A    between atoms: CA   and  CB  
REMARK    6  A    between atoms: CB   and  CG  
REMARK    7  A    between atoms: CG   and  CD  
REMARK    8  A    between atoms: CD   and  CE  
ROOT
ATOM      7  CA  LYS A 135      33.193  34.663   9.290  1.00 25.02     0.186 C 
ENDROOT
BRANCH   7   8
ATOM      8  CB  LYS A 135      32.060  35.360  10.034  1.00 26.63     0.034 C 
BRANCH   8   9
ATOM      9  CG  LYS A 135      30.792  35.475   9.229  1.00 29.45     0.005 C 
BRANCH   9  10
ATOM     10  CD  LYS A 135      30.229  34.098   8.914  1.00 32.00     0.041 C 
BRANCH  10  11
ATOM     11  CE  LYS A 135      28.721  34.088   9.080  1.00 34.25     0.338 C 
ATOM     12  NZ  LYS A 135      28.121  35.369   8.613  1.00 35.99     0.618 N 
ENDBRANCH  10  11
ENDBRANCH   9  10
ENDBRANCH   8   9
ENDBRANCH   7   8
END_RES LYS A 135
