REMARK VINA RESULT:    -4.518      0.000      0.000
REMARK INTER + INTRA:         -15.527
REMARK INTER:                  -8.796
REMARK INTRA:                  -6.731
REMARK UNBOUND:                -7.311
REMARK SMILES CC(=O)N[C@@H]1[C@@H](O)C[C@](O)(C(=O)O)O[C@H]1C(O)[C@H](O)CNC(=O)OCc1cn(-c2ccc(O)c([N+](=O)[O-])c2)nn1
REMARK SMILES IDX 21 1 22 2 23 3 20 5 18 6 16 7 15 8 9 9 8 10 14 11 6 12 5 13
REMARK SMILES IDX 10 14 11 16 12 17 13 18 7 20 4 22 2 23 1 25 3 26 17 27 19 29
REMARK SMILES IDX 24 31 25 32 26 33 27 34 40 35 28 36 39 37 29 38 30 39 38 40
REMARK SMILES IDX 31 41 34 42 32 43 35 44 36 45 37 46 33 47
REMARK H PARENT 21 4 10 15 13 19 7 21 4 24 17 28 19 30 33 48
REMARK Flexibility Score: inf
ROOT
ATOM      1  N   UNL     1      27.736  28.140  18.477  1.00  0.00    -0.319 N 
ATOM      2  C   UNL     1      27.796  27.871  19.871  1.00  0.00     0.407 C 
ATOM      3  O   UNL     1      26.752  27.579  20.544  1.00  0.00    -0.225 OA
ATOM      4  H   UNL     1      28.605  28.366  17.968  1.00  0.00     0.167 HD
ENDROOT
BRANCH   1   5
ATOM      5  C   UNL     1      26.470  28.081  17.807  1.00  0.00     0.154 C 
BRANCH   5   6
ATOM      6  C   UNL     1      25.946  29.359  17.259  1.00  0.00     0.165 C 
BRANCH   6   7
ATOM      7  C   UNL     1      26.679  29.901  16.059  1.00  0.00     0.176 C 
BRANCH   7   8
ATOM      8  C   UNL     1      26.284  31.289  15.662  1.00  0.00     0.178 C 
ATOM      9  C   UNL     1      26.508  33.524  16.143  1.00  0.00     0.269 C 
ATOM     10  C   UNL     1      25.942  33.600  14.743  1.00  0.00     0.112 C 
ATOM     11  O   UNL     1      26.706  32.229  16.588  1.00  0.00    -0.332 OA
ATOM     12  C   UNL     1      24.657  32.845  14.687  1.00  0.00     0.145 C 
ATOM     13  C   UNL     1      24.879  31.419  15.205  1.00  0.00     0.142 C 
BRANCH   9  14
ATOM     14  O   UNL     1      25.602  34.158  16.981  1.00  0.00    -0.357 OA
ATOM     15  H   UNL     1      24.696  34.006  16.594  1.00  0.00     0.214 HD
ENDBRANCH   9  14
BRANCH   9  16
ATOM     16  C   UNL     1      27.774  34.298  16.150  1.00  0.00     0.364 C 
ATOM     17  O   UNL     1      28.462  34.436  15.105  1.00  0.00    -0.246 OA
BRANCH  16  18
ATOM     18  O   UNL     1      28.225  34.889  17.315  1.00  0.00    -0.477 OA
ATOM     19  H   UNL     1      28.012  34.547  18.232  1.00  0.00     0.296 HD
ENDBRANCH  16  18
ENDBRANCH   9  16
BRANCH  12  20
ATOM     20  O   UNL     1      23.735  33.540  15.492  1.00  0.00    -0.391 OA
ATOM     21  H   UNL     1      22.853  33.075  15.359  1.00  0.00     0.211 HD
ENDBRANCH  12  20
BRANCH  13  22
ATOM     22  N   UNL     1      24.722  30.518  14.053  1.00  0.00    -0.348 N 
ATOM     23  C   UNL     1      23.564  29.740  13.843  1.00  0.00     0.217 C 
ATOM     24  H   UNL     1      25.506  30.454  13.361  1.00  0.00     0.163 HD
ATOM     25  C   UNL     1      23.446  28.842  12.669  1.00  0.00     0.114 C 
ATOM     26  O   UNL     1      22.629  29.805  14.651  1.00  0.00    -0.275 OA
ENDBRANCH  13  22
ENDBRANCH   7   8
BRANCH   7  27
ATOM     27  O   UNL     1      28.059  29.887  16.260  1.00  0.00    -0.388 OA
ATOM     28  H   UNL     1      28.575  29.882  15.437  1.00  0.00     0.211 HD
ENDBRANCH   7  27
ENDBRANCH   6   7
BRANCH   6  29
ATOM     29  O   UNL     1      25.996  30.294  18.305  1.00  0.00    -0.388 OA
ATOM     30  H   UNL     1      26.857  30.794  18.212  1.00  0.00     0.211 HD
ENDBRANCH   6  29
ENDBRANCH   5   6
ENDBRANCH   1   5
BRANCH   2  31
ATOM     31  O   UNL     1      29.021  27.935  20.492  1.00  0.00    -0.443 OA
BRANCH  31  32
ATOM     32  C   UNL     1      29.477  29.148  21.006  1.00  0.00     0.294 C 
BRANCH  32  33
ATOM     33  C   UNL     1      29.446  30.259  20.017  1.00  0.00     0.121 A 
ATOM     34  C   UNL     1      30.436  30.638  19.122  1.00  0.00     0.144 A 
ATOM     35  N   UNL     1      28.441  31.126  19.794  1.00  0.00    -0.131 NA
ATOM     36  N   UNL     1      30.023  31.691  18.399  1.00  0.00    -0.220 N 
ATOM     37  N   UNL     1      28.804  31.971  18.827  1.00  0.00    -0.062 NA
BRANCH  36  38
ATOM     38  C   UNL     1      30.712  32.398  17.374  1.00  0.00     0.073 A 
ATOM     39  C   UNL     1      30.778  31.878  16.098  1.00  0.00     0.033 A 
ATOM     40  C   UNL     1      31.336  33.608  17.592  1.00  0.00     0.118 A 
ATOM     41  C   UNL     1      31.444  32.550  15.086  1.00  0.00     0.056 A 
ATOM     42  C   UNL     1      32.014  34.316  16.612  1.00  0.00     0.312 A 
ATOM     43  C   UNL     1      32.054  33.755  15.339  1.00  0.00     0.194 A 
BRANCH  42  44
ATOM     44  N   UNL     1      32.647  35.552  16.852  1.00  0.00     0.066 N 
ATOM     45  O   UNL     1      32.199  36.575  16.332  1.00  0.00    -0.258 OA
ATOM     46  O   UNL     1      33.743  35.611  17.654  1.00  0.00    -0.258 OA
ENDBRANCH  42  44
BRANCH  43  47
ATOM     47  O   UNL     1      32.737  34.468  14.356  1.00  0.00    -0.502 OA
ATOM     48  H   UNL     1      32.609  34.179  13.375  1.00  0.00     0.293 HD
ENDBRANCH  43  47
ENDBRANCH  36  38
ENDBRANCH  32  33
ENDBRANCH  31  32
ENDBRANCH   2  31
TORSDOF 17
BEGIN_RES LYS A 131
REMARK  4 active torsions:
REMARK  status: ('A' for Active; 'I' for Inactive)
REMARK    1  A    between atoms: CA   and  CB  
REMARK    2  A    between atoms: CB   and  CG  
REMARK    3  A    between atoms: CG   and  CD  
REMARK    4  A    between atoms: CD   and  CE  
ROOT
ATOM      1  CA  LYS A 131      29.867  25.555  16.977  1.00 20.52     0.186 C 
ENDROOT
BRANCH   1   2
ATOM      2  CB  LYS A 131      28.345  25.722  17.026  1.00 20.94     0.034 C 
BRANCH   2   3
ATOM      3  CG  LYS A 131      27.601  24.404  16.877  1.00 22.96     0.005 C 
BRANCH   3   4
ATOM      4  CD  LYS A 131      26.152  24.525  17.260  1.00 24.33     0.041 C 
BRANCH   4   5
ATOM      5  CE  LYS A 131      26.021  24.480  18.779  1.00 26.91     0.338 C 
ATOM      6  NZ  LYS A 131      25.533  23.151  19.219  1.00 27.40     0.618 N 
ENDBRANCH   4   5
ENDBRANCH   3   4
ENDBRANCH   2   3
ENDBRANCH   1   2
END_RES LYS A 131
BEGIN_RES LYS A 135
REMARK  4 active torsions:
REMARK  status: ('A' for Active; 'I' for Inactive)
REMARK    5  A    between atoms: CA   and  CB  
REMARK    6  A    between atoms: CB   and  CG  
REMARK    7  A    between atoms: CG   and  CD  
REMARK    8  A    between atoms: CD   and  CE  
ROOT
ATOM      7  CA  LYS A 135      33.193  34.663   9.290  1.00 25.02     0.186 C 
ENDROOT
BRANCH   7   8
ATOM      8  CB  LYS A 135      32.060  35.360  10.034  1.00 26.63     0.034 C 
BRANCH   8   9
ATOM      9  CG  LYS A 135      30.762  35.384   9.269  1.00 29.45     0.005 C 
BRANCH   9  10
ATOM     10  CD  LYS A 135      30.130  34.001   9.242  1.00 32.00     0.041 C 
BRANCH  10  11
ATOM     11  CE  LYS A 135      28.635  34.103   9.003  1.00 34.25     0.338 C 
ATOM     12  NZ  LYS A 135      28.336  34.991   7.846  1.00 35.99     0.618 N 
ENDBRANCH  10  11
ENDBRANCH   9  10
ENDBRANCH   8   9
ENDBRANCH   7   8
END_RES LYS A 135
