REMARK VINA RESULT:    -4.892      0.000      0.000
REMARK INTER + INTRA:         -14.802
REMARK INTER:                  -7.318
REMARK INTRA:                  -7.484
REMARK UNBOUND:                -5.477
REMARK SMILES CC(=O)N[C@@H]1[C@@H](O)C[C@](O)(C(=O)O)O[C@H]1C(O)[C@H](O)CNC(=O)OCc1cn(CC(O)CO)nn1
REMARK SMILES IDX 21 1 22 2 23 3 20 5 18 6 16 7 15 8 9 9 8 10 14 11 6 12 5 13
REMARK SMILES IDX 10 14 11 16 12 17 13 18 7 20 4 22 2 23 1 25 3 26 17 27 19 29
REMARK SMILES IDX 24 31 25 32 26 33 27 34 35 35 28 36 34 37 29 38 30 39 31 40
REMARK SMILES IDX 32 42 33 43
REMARK H PARENT 21 4 10 15 13 19 7 21 4 24 17 28 19 30 31 41 33 44
REMARK Flexibility Score: inf
ROOT
ATOM      1  N   UNL     1      27.806  28.000  18.583  1.00  0.00    -0.319 N 
ATOM      2  C   UNL     1      26.830  28.151  17.567  1.00  0.00     0.407 C 
ATOM      3  O   UNL     1      25.686  27.684  17.696  1.00  0.00    -0.225 OA
ATOM      4  H   UNL     1      28.756  28.434  18.377  1.00  0.00     0.167 HD
ENDROOT
BRANCH   1   5
ATOM      5  C   UNL     1      27.524  27.309  19.795  1.00  0.00     0.154 C 
BRANCH   5   6
ATOM      6  C   UNL     1      28.282  27.844  20.990  1.00  0.00     0.165 C 
BRANCH   6   7
ATOM      7  C   UNL     1      29.095  29.030  20.487  1.00  0.00     0.176 C 
BRANCH   7   8
ATOM      8  C   UNL     1      29.274  30.060  21.608  1.00  0.00     0.178 C 
ATOM      9  C   UNL     1      29.874  32.190  20.901  1.00  0.00     0.269 C 
ATOM     10  C   UNL     1      30.450  32.521  22.264  1.00  0.00     0.112 C 
ATOM     11  O   UNL     1      28.877  31.268  21.107  1.00  0.00    -0.332 OA
ATOM     12  C   UNL     1      31.130  31.297  22.771  1.00  0.00     0.145 C 
ATOM     13  C   UNL     1      30.674  30.011  22.132  1.00  0.00     0.142 C 
BRANCH   9  14
ATOM     14  O   UNL     1      30.928  31.712  20.126  1.00  0.00    -0.357 OA
ATOM     15  H   UNL     1      31.447  31.010  20.582  1.00  0.00     0.214 HD
ENDBRANCH   9  14
BRANCH   9  16
ATOM     16  C   UNL     1      29.284  33.392  20.256  1.00  0.00     0.364 C 
ATOM     17  O   UNL     1      28.847  34.314  20.990  1.00  0.00    -0.246 OA
BRANCH  16  18
ATOM     18  O   UNL     1      29.225  33.478  18.886  1.00  0.00    -0.477 OA
ATOM     19  H   UNL     1      29.664  32.772  18.303  1.00  0.00     0.296 HD
ENDBRANCH  16  18
ENDBRANCH   9  16
BRANCH  12  20
ATOM     20  O   UNL     1      32.499  31.426  22.508  1.00  0.00    -0.391 OA
ATOM     21  H   UNL     1      32.628  31.995  21.728  1.00  0.00     0.211 HD
ENDBRANCH  12  20
BRANCH  13  22
ATOM     22  N   UNL     1      30.801  28.985  23.145  1.00  0.00    -0.348 N 
ATOM     23  C   UNL     1      31.882  28.068  23.073  1.00  0.00     0.217 C 
ATOM     24  H   UNL     1      30.126  28.885  23.937  1.00  0.00     0.163 HD
ATOM     25  C   UNL     1      32.063  26.980  24.097  1.00  0.00     0.114 C 
ATOM     26  O   UNL     1      32.748  28.100  22.162  1.00  0.00    -0.275 OA
ENDBRANCH  13  22
ENDBRANCH   7   8
BRANCH   7  27
ATOM     27  O   UNL     1      30.293  28.581  19.985  1.00  0.00    -0.388 OA
ATOM     28  H   UNL     1      30.938  28.363  20.714  1.00  0.00     0.211 HD
ENDBRANCH   7  27
ENDBRANCH   6   7
BRANCH   6  29
ATOM     29  O   UNL     1      29.113  26.858  21.522  1.00  0.00    -0.388 OA
ATOM     30  H   UNL     1      28.678  25.997  21.368  1.00  0.00     0.211 HD
ENDBRANCH   6  29
ENDBRANCH   5   6
ENDBRANCH   1   5
BRANCH   2  31
ATOM     31  O   UNL     1      27.126  28.838  16.378  1.00  0.00    -0.443 OA
BRANCH  31  32
ATOM     32  C   UNL     1      27.129  30.236  16.405  1.00  0.00     0.294 C 
BRANCH  32  33
ATOM     33  C   UNL     1      28.503  30.786  16.529  1.00  0.00     0.120 A 
ATOM     34  C   UNL     1      29.192  31.493  15.588  1.00  0.00     0.138 A 
ATOM     35  N   UNL     1      29.306  30.681  17.591  1.00  0.00    -0.132 NA
ATOM     36  N   UNL     1      30.403  31.792  16.130  1.00  0.00    -0.249 N 
ATOM     37  N   UNL     1      30.458  31.289  17.355  1.00  0.00    -0.067 NA
BRANCH  36  38
ATOM     38  C   UNL     1      31.455  32.546  15.450  1.00  0.00     0.180 C 
BRANCH  38  39
ATOM     39  C   UNL     1      31.400  33.950  16.017  1.00  0.00     0.161 C 
BRANCH  39  40
ATOM     40  O   UNL     1      31.744  33.917  17.363  1.00  0.00    -0.389 OA
ATOM     41  H   UNL     1      31.059  33.378  17.841  1.00  0.00     0.211 HD
ENDBRANCH  39  40
BRANCH  39  42
ATOM     42  C   UNL     1      32.371  34.862  15.260  1.00  0.00     0.189 C 
BRANCH  42  43
ATOM     43  O   UNL     1      33.102  34.099  14.348  1.00  0.00    -0.394 OA
ATOM     44  H   UNL     1      32.498  33.813  13.599  1.00  0.00     0.210 HD
ENDBRANCH  42  43
ENDBRANCH  39  42
ENDBRANCH  38  39
ENDBRANCH  36  38
ENDBRANCH  32  33
ENDBRANCH  31  32
ENDBRANCH   2  31
TORSDOF 19
BEGIN_RES LYS A 131
REMARK  4 active torsions:
REMARK  status: ('A' for Active; 'I' for Inactive)
REMARK    1  A    between atoms: CA   and  CB  
REMARK    2  A    between atoms: CB   and  CG  
REMARK    3  A    between atoms: CG   and  CD  
REMARK    4  A    between atoms: CD   and  CE  
ROOT
ATOM      1  CA  LYS A 131      29.867  25.555  16.977  1.00 20.52     0.186 C 
ENDROOT
BRANCH   1   2
ATOM      2  CB  LYS A 131      28.345  25.722  17.026  1.00 20.94     0.034 C 
BRANCH   2   3
ATOM      3  CG  LYS A 131      27.601  24.405  16.872  1.00 22.96     0.005 C 
BRANCH   3   4
ATOM      4  CD  LYS A 131      26.631  24.167  17.996  1.00 24.33     0.041 C 
BRANCH   4   5
ATOM      5  CE  LYS A 131      25.578  23.156  17.554  1.00 26.91     0.338 C 
ATOM      6  NZ  LYS A 131      24.438  23.844  16.904  1.00 27.40     0.618 N 
ENDBRANCH   4   5
ENDBRANCH   3   4
ENDBRANCH   2   3
ENDBRANCH   1   2
END_RES LYS A 131
BEGIN_RES LYS A 135
REMARK  4 active torsions:
REMARK  status: ('A' for Active; 'I' for Inactive)
REMARK    5  A    between atoms: CA   and  CB  
REMARK    6  A    between atoms: CB   and  CG  
REMARK    7  A    between atoms: CG   and  CD  
REMARK    8  A    between atoms: CD   and  CE  
ROOT
ATOM      7  CA  LYS A 135      33.193  34.663   9.290  1.00 25.02     0.186 C 
ENDROOT
BRANCH   7   8
ATOM      8  CB  LYS A 135      32.060  35.360  10.034  1.00 26.63     0.034 C 
BRANCH   8   9
ATOM      9  CG  LYS A 135      30.810  35.528   9.208  1.00 29.45     0.005 C 
BRANCH   9  10
ATOM     10  CD  LYS A 135      30.155  34.180   8.947  1.00 32.00     0.041 C 
BRANCH  10  11
ATOM     11  CE  LYS A 135      28.758  34.144   9.537  1.00 34.25     0.338 C 
ATOM     12  NZ  LYS A 135      28.260  35.519   9.819  1.00 35.99     0.618 N 
ENDBRANCH  10  11
ENDBRANCH   9  10
ENDBRANCH   8   9
ENDBRANCH   7   8
END_RES LYS A 135
