REMARK VINA RESULT:    -4.683      4.983     11.625
REMARK INTER + INTRA:         -15.488
REMARK INTER:                 -10.264
REMARK INTRA:                  -5.224
REMARK UNBOUND:                -7.109
REMARK SMILES CC(=O)N[C@@H]1[C@@H](O)C[C@](O)(C(=O)O)O[C@H]1C(O)[C@H](O)CNC(=O)OCc1cn(-c2ncn3c2c(=O)n(C(C)C)c2ccccc23)nn1
REMARK SMILES IDX 21 1 22 2 23 3 20 5 18 6 16 7 15 8 9 9 8 10 14 11 6 12 5 13
REMARK SMILES IDX 10 14 11 16 12 17 13 18 7 20 4 22 2 23 1 25 3 26 17 27 19 29
REMARK SMILES IDX 24 31 25 32 26 33 27 34 47 35 28 36 46 37 29 38 30 39 33 40
REMARK SMILES IDX 31 41 32 42 34 43 45 44 36 45 35 46 44 47 40 48 43 49 41 50
REMARK SMILES IDX 42 51 37 52 38 53 39 54
REMARK H PARENT 21 4 10 15 13 19 7 21 4 24 17 28 19 30
REMARK Flexibility Score: inf
ROOT
ATOM      1  N   UNL     1      21.275  34.879  10.130  1.00  0.00    -0.319 N 
ATOM      2  C   UNL     1      21.358  35.103  11.504  1.00  0.00     0.407 C 
ATOM      3  O   UNL     1      21.333  36.220  12.023  1.00  0.00    -0.225 OA
ATOM      4  H   UNL     1      21.277  33.828   9.822  1.00  0.00     0.167 HD
ENDROOT
BRANCH   1   5
ATOM      5  C   UNL     1      21.190  35.859   9.116  1.00  0.00     0.154 C 
BRANCH   5   6
ATOM      6  C   UNL     1      22.409  36.134   8.354  1.00  0.00     0.165 C 
BRANCH   6   7
ATOM      7  C   UNL     1      23.640  36.665   8.965  1.00  0.00     0.176 C 
BRANCH   7   8
ATOM      8  C   UNL     1      24.189  37.718   7.958  1.00  0.00     0.178 C 
ATOM      9  C   UNL     1      26.368  36.984   7.476  1.00  0.00     0.269 C 
ATOM     10  C   UNL     1      26.921  38.277   7.976  1.00  0.00     0.112 C 
ATOM     11  O   UNL     1      25.059  37.101   7.139  1.00  0.00    -0.332 OA
ATOM     12  C   UNL     1      26.084  38.941   9.040  1.00  0.00     0.145 C 
ATOM     13  C   UNL     1      24.619  38.949   8.665  1.00  0.00     0.142 C 
BRANCH   9  14
ATOM     14  O   UNL     1      26.480  35.991   8.482  1.00  0.00    -0.357 OA
ATOM     15  H   UNL     1      25.592  35.543   8.499  1.00  0.00     0.214 HD
ENDBRANCH   9  14
BRANCH   9  16
ATOM     16  C   UNL     1      27.222  36.583   6.308  1.00  0.00     0.364 C 
ATOM     17  O   UNL     1      27.869  35.529   6.356  1.00  0.00    -0.246 OA
BRANCH  16  18
ATOM     18  O   UNL     1      27.281  37.385   5.194  1.00  0.00    -0.477 OA
ATOM     19  H   UNL     1      26.423  37.731   4.754  1.00  0.00     0.296 HD
ENDBRANCH  16  18
ENDBRANCH   9  16
BRANCH  12  20
ATOM     20  O   UNL     1      26.260  38.362  10.298  1.00  0.00    -0.391 OA
ATOM     21  H   UNL     1      25.989  37.412  10.262  1.00  0.00     0.211 HD
ENDBRANCH  12  20
BRANCH  13  22
ATOM     22  N   UNL     1      24.397  40.152   7.852  1.00  0.00    -0.348 N 
ATOM     23  C   UNL     1      23.109  40.636   7.547  1.00  0.00     0.217 C 
ATOM     24  H   UNL     1      25.217  40.699   7.464  1.00  0.00     0.163 HD
ATOM     25  C   UNL     1      22.889  41.854   6.724  1.00  0.00     0.114 C 
ATOM     26  O   UNL     1      22.085  40.027   7.981  1.00  0.00    -0.275 OA
ENDBRANCH  13  22
ENDBRANCH   7   8
BRANCH   7  27
ATOM     27  O   UNL     1      23.468  37.295  10.200  1.00  0.00    -0.388 OA
ATOM     28  H   UNL     1      24.363  37.480  10.624  1.00  0.00     0.211 HD
ENDBRANCH   7  27
ENDBRANCH   6   7
BRANCH   6  29
ATOM     29  O   UNL     1      22.003  37.020   7.285  1.00  0.00    -0.388 OA
ATOM     30  H   UNL     1      22.024  37.946   7.583  1.00  0.00     0.211 HD
ENDBRANCH   6  29
ENDBRANCH   5   6
ENDBRANCH   1   5
BRANCH   2  31
ATOM     31  O   UNL     1      21.481  34.022  12.406  1.00  0.00    -0.443 OA
BRANCH  31  32
ATOM     32  C   UNL     1      22.625  33.218  12.437  1.00  0.00     0.294 C 
BRANCH  32  33
ATOM     33  C   UNL     1      23.757  33.981  13.019  1.00  0.00     0.121 A 
ATOM     34  C   UNL     1      25.031  34.132  12.479  1.00  0.00     0.146 A 
ATOM     35  N   UNL     1      23.797  34.682  14.167  1.00  0.00    -0.131 NA
ATOM     36  N   UNL     1      25.796  34.907  13.299  1.00  0.00    -0.200 N 
ATOM     37  N   UNL     1      25.000  35.206  14.293  1.00  0.00    -0.060 NA
BRANCH  36  38
ATOM     38  C   UNL     1      27.150  35.249  13.021  1.00  0.00     0.186 A 
ATOM     39  N   UNL     1      27.569  36.110  12.046  1.00  0.00    -0.216 NA
ATOM     40  C   UNL     1      28.294  34.817  13.640  1.00  0.00     0.158 A 
ATOM     41  C   UNL     1      28.906  36.185  12.085  1.00  0.00     0.207 A 
ATOM     42  N   UNL     1      29.391  35.395  13.061  1.00  0.00    -0.291 N 
ATOM     43  C   UNL     1      28.510  33.960  14.673  1.00  0.00     0.279 A 
ATOM     44  C   UNL     1      30.643  35.139  13.483  1.00  0.00     0.071 A 
ATOM     45  N   UNL     1      29.730  33.678  15.122  1.00  0.00    -0.302 N 
ATOM     46  O   UNL     1      27.552  33.390  15.253  1.00  0.00    -0.267 OA
ATOM     47  C   UNL     1      31.724  35.741  12.874  1.00  0.00     0.029 A 
ATOM     48  C   UNL     1      30.797  34.261  14.535  1.00  0.00     0.068 A 
ATOM     49  C   UNL     1      33.024  35.496  13.287  1.00  0.00     0.002 A 
ATOM     50  C   UNL     1      32.107  34.032  14.930  1.00  0.00     0.028 A 
ATOM     51  C   UNL     1      33.199  34.628  14.329  1.00  0.00     0.002 A 
BRANCH  45  52
ATOM     52  C   UNL     1      30.029  32.780  16.215  1.00  0.00     0.085 C 
ATOM     53  C   UNL     1      29.627  31.389  15.773  1.00  0.00     0.031 C 
ATOM     54  C   UNL     1      29.302  33.080  17.487  1.00  0.00     0.031 C 
ENDBRANCH  45  52
ENDBRANCH  36  38
ENDBRANCH  32  33
ENDBRANCH  31  32
ENDBRANCH   2  31
TORSDOF 16
BEGIN_RES LYS A 131
REMARK  4 active torsions:
REMARK  status: ('A' for Active; 'I' for Inactive)
REMARK    1  A    between atoms: CA   and  CB  
REMARK    2  A    between atoms: CB   and  CG  
REMARK    3  A    between atoms: CG   and  CD  
REMARK    4  A    between atoms: CD   and  CE  
ROOT
ATOM      1  CA  LYS A 131      29.867  25.555  16.977  1.00 20.52     0.186 C 
ENDROOT
BRANCH   1   2
ATOM      2  CB  LYS A 131      28.345  25.722  17.026  1.00 20.94     0.034 C 
BRANCH   2   3
ATOM      3  CG  LYS A 131      27.602  24.397  16.950  1.00 22.96     0.005 C 
BRANCH   3   4
ATOM      4  CD  LYS A 131      26.154  24.536  17.330  1.00 24.33     0.041 C 
BRANCH   4   5
ATOM      5  CE  LYS A 131      25.531  23.152  17.479  1.00 26.91     0.338 C 
ATOM      6  NZ  LYS A 131      24.105  23.179  17.080  1.00 27.40     0.618 N 
ENDBRANCH   4   5
ENDBRANCH   3   4
ENDBRANCH   2   3
ENDBRANCH   1   2
END_RES LYS A 131
BEGIN_RES LYS A 135
REMARK  4 active torsions:
REMARK  status: ('A' for Active; 'I' for Inactive)
REMARK    5  A    between atoms: CA   and  CB  
REMARK    6  A    between atoms: CB   and  CG  
REMARK    7  A    between atoms: CG   and  CD  
REMARK    8  A    between atoms: CD   and  CE  
ROOT
ATOM      7  CA  LYS A 135      33.193  34.663   9.290  1.00 25.02     0.186 C 
ENDROOT
BRANCH   7   8
ATOM      8  CB  LYS A 135      32.060  35.360  10.034  1.00 26.63     0.034 C 
BRANCH   8   9
ATOM      9  CG  LYS A 135      30.949  35.834   9.133  1.00 29.45     0.005 C 
BRANCH   9  10
ATOM     10  CD  LYS A 135      30.240  34.653   8.488  1.00 32.00     0.041 C 
BRANCH  10  11
ATOM     11  CE  LYS A 135      29.724  33.699   9.547  1.00 34.25     0.338 C 
ATOM     12  NZ  LYS A 135      28.235  33.670   9.563  1.00 35.99     0.618 N 
ENDBRANCH  10  11
ENDBRANCH   9  10
ENDBRANCH   8   9
ENDBRANCH   7   8
END_RES LYS A 135
