REMARK VINA RESULT:    -4.628      2.339      4.257
REMARK INTER + INTRA:         -14.299
REMARK INTER:                  -9.194
REMARK INTRA:                  -5.106
REMARK UNBOUND:                -5.477
REMARK SMILES CC(=O)N[C@@H]1[C@@H](O)C[C@](O)(C(=O)O)O[C@H]1C(O)[C@H](O)CNC(=O)OCc1cn(CC(O)CO)nn1
REMARK SMILES IDX 21 1 22 2 23 3 20 5 18 6 16 7 15 8 9 9 8 10 14 11 6 12 5 13
REMARK SMILES IDX 10 14 11 16 12 17 13 18 7 20 4 22 2 23 1 25 3 26 17 27 19 29
REMARK SMILES IDX 24 31 25 32 26 33 27 34 35 35 28 36 34 37 29 38 30 39 31 40
REMARK SMILES IDX 32 42 33 43
REMARK H PARENT 21 4 10 15 13 19 7 21 4 24 17 28 19 30 31 41 33 44
REMARK Flexibility Score: inf
ROOT
ATOM      1  N   UNL     1      28.044  30.962  17.403  1.00  0.00    -0.319 N 
ATOM      2  C   UNL     1      29.004  30.799  16.373  1.00  0.00     0.407 C 
ATOM      3  O   UNL     1      28.802  30.031  15.417  1.00  0.00    -0.225 OA
ATOM      4  H   UNL     1      28.312  31.640  18.178  1.00  0.00     0.167 HD
ENDROOT
BRANCH   1   5
ATOM      5  C   UNL     1      26.807  30.259  17.390  1.00  0.00     0.154 C 
BRANCH   5   6
ATOM      6  C   UNL     1      26.474  29.591  18.706  1.00  0.00     0.165 C 
BRANCH   6   7
ATOM      7  C   UNL     1      27.643  28.666  19.025  1.00  0.00     0.176 C 
BRANCH   7   8
ATOM      8  C   UNL     1      28.151  28.930  20.447  1.00  0.00     0.178 C 
ATOM      9  C   UNL     1      30.170  27.911  20.977  1.00  0.00     0.269 C 
ATOM     10  C   UNL     1      29.862  27.984  22.460  1.00  0.00     0.112 C 
ATOM     11  O   UNL     1      29.515  28.963  20.385  1.00  0.00    -0.332 OA
ATOM     12  C   UNL     1      28.409  27.704  22.628  1.00  0.00     0.145 C 
ATOM     13  C   UNL     1      27.575  27.924  21.393  1.00  0.00     0.142 C 
BRANCH   9  14
ATOM     14  O   UNL     1      29.735  26.662  20.539  1.00  0.00    -0.357 OA
ATOM     15  H   UNL     1      29.134  26.223  21.182  1.00  0.00     0.214 HD
ENDBRANCH   9  14
BRANCH   9  16
ATOM     16  C   UNL     1      31.626  28.052  20.719  1.00  0.00     0.364 C 
ATOM     17  O   UNL     1      32.276  28.897  21.386  1.00  0.00    -0.246 OA
BRANCH  16  18
ATOM     18  O   UNL     1      32.236  27.268  19.769  1.00  0.00    -0.477 OA
ATOM     19  H   UNL     1      32.658  27.685  18.946  1.00  0.00     0.296 HD
ENDBRANCH  16  18
ENDBRANCH   9  16
BRANCH  12  20
ATOM     20  O   UNL     1      28.271  26.357  22.986  1.00  0.00    -0.391 OA
ATOM     21  H   UNL     1      28.712  26.201  23.841  1.00  0.00     0.211 HD
ENDBRANCH  12  20
BRANCH  13  22
ATOM     22  N   UNL     1      26.269  28.346  21.852  1.00  0.00    -0.348 N 
ATOM     23  C   UNL     1      25.133  27.558  21.533  1.00  0.00     0.217 C 
ATOM     24  H   UNL     1      26.121  29.215  22.414  1.00  0.00     0.163 HD
ATOM     25  C   UNL     1      23.751  27.949  21.982  1.00  0.00     0.114 C 
ATOM     26  O   UNL     1      25.201  26.497  20.862  1.00  0.00    -0.275 OA
ENDBRANCH  13  22
ENDBRANCH   7   8
BRANCH   7  27
ATOM     27  O   UNL     1      27.257  27.362  18.835  1.00  0.00    -0.388 OA
ATOM     28  H   UNL     1      26.271  27.251  18.939  1.00  0.00     0.211 HD
ENDBRANCH   7  27
ENDBRANCH   6   7
BRANCH   6  29
ATOM     29  O   UNL     1      25.283  28.872  18.602  1.00  0.00    -0.388 OA
ATOM     30  H   UNL     1      24.956  28.984  17.689  1.00  0.00     0.211 HD
ENDBRANCH   6  29
ENDBRANCH   5   6
ENDBRANCH   1   5
BRANCH   2  31
ATOM     31  O   UNL     1      30.219  31.503  16.400  1.00  0.00    -0.443 OA
BRANCH  31  32
ATOM     32  C   UNL     1      30.518  32.263  17.535  1.00  0.00     0.294 C 
BRANCH  32  33
ATOM     33  C   UNL     1      31.388  33.423  17.213  1.00  0.00     0.120 A 
ATOM     34  C   UNL     1      31.876  33.768  15.987  1.00  0.00     0.138 A 
ATOM     35  N   UNL     1      31.848  34.332  18.077  1.00  0.00    -0.132 NA
ATOM     36  N   UNL     1      32.622  34.891  16.163  1.00  0.00    -0.249 N 
ATOM     37  N   UNL     1      32.595  35.224  17.446  1.00  0.00    -0.067 NA
BRANCH  36  38
ATOM     38  C   UNL     1      33.327  35.597  15.095  1.00  0.00     0.180 C 
BRANCH  38  39
ATOM     39  C   UNL     1      32.263  36.048  14.114  1.00  0.00     0.161 C 
BRANCH  39  40
ATOM     40  O   UNL     1      32.081  37.420  14.231  1.00  0.00    -0.389 OA
ATOM     41  H   UNL     1      31.831  37.773  13.335  1.00  0.00     0.211 HD
ENDBRANCH  39  40
BRANCH  39  42
ATOM     42  C   UNL     1      32.690  35.705  12.682  1.00  0.00     0.189 C 
BRANCH  42  43
ATOM     43  O   UNL     1      33.654  34.697  12.718  1.00  0.00    -0.394 OA
ATOM     44  H   UNL     1      33.496  34.063  11.956  1.00  0.00     0.210 HD
ENDBRANCH  42  43
ENDBRANCH  39  42
ENDBRANCH  38  39
ENDBRANCH  36  38
ENDBRANCH  32  33
ENDBRANCH  31  32
ENDBRANCH   2  31
TORSDOF 19
BEGIN_RES LYS A 131
REMARK  4 active torsions:
REMARK  status: ('A' for Active; 'I' for Inactive)
REMARK    1  A    between atoms: CA   and  CB  
REMARK    2  A    between atoms: CB   and  CG  
REMARK    3  A    between atoms: CG   and  CD  
REMARK    4  A    between atoms: CD   and  CE  
ROOT
ATOM      1  CA  LYS A 131      29.867  25.555  16.977  1.00 20.52     0.186 C 
ENDROOT
BRANCH   1   2
ATOM      2  CB  LYS A 131      28.345  25.722  17.026  1.00 20.94     0.034 C 
BRANCH   2   3
ATOM      3  CG  LYS A 131      27.602  24.400  16.911  1.00 22.96     0.005 C 
BRANCH   3   4
ATOM      4  CD  LYS A 131      26.135  24.548  17.207  1.00 24.33     0.041 C 
BRANCH   4   5
ATOM      5  CE  LYS A 131      25.580  23.218  17.709  1.00 26.91     0.338 C 
ATOM      6  NZ  LYS A 131      25.550  23.195  19.190  1.00 27.40     0.618 N 
ENDBRANCH   4   5
ENDBRANCH   3   4
ENDBRANCH   2   3
ENDBRANCH   1   2
END_RES LYS A 131
BEGIN_RES LYS A 135
REMARK  4 active torsions:
REMARK  status: ('A' for Active; 'I' for Inactive)
REMARK    5  A    between atoms: CA   and  CB  
REMARK    6  A    between atoms: CB   and  CG  
REMARK    7  A    between atoms: CG   and  CD  
REMARK    8  A    between atoms: CD   and  CE  
ROOT
ATOM      7  CA  LYS A 135      33.193  34.663   9.290  1.00 25.02     0.186 C 
ENDROOT
BRANCH   7   8
ATOM      8  CB  LYS A 135      32.060  35.360  10.034  1.00 26.63     0.034 C 
BRANCH   8   9
ATOM      9  CG  LYS A 135      30.850  35.626   9.176  1.00 29.45     0.005 C 
BRANCH   9  10
ATOM     10  CD  LYS A 135      30.315  34.331   8.586  1.00 32.00     0.041 C 
BRANCH  10  11
ATOM     11  CE  LYS A 135      28.931  34.030   9.128  1.00 34.25     0.338 C 
ATOM     12  NZ  LYS A 135      28.431  35.149   9.973  1.00 35.99     0.618 N 
ENDBRANCH  10  11
ENDBRANCH   9  10
ENDBRANCH   8   9
ENDBRANCH   7   8
END_RES LYS A 135
