REMARK VINA RESULT:    -4.357      8.032     12.752
REMARK INTER + INTRA:         -13.822
REMARK INTER:                  -8.125
REMARK INTRA:                  -5.697
REMARK UNBOUND:                -5.644
REMARK SMILES CC(=O)N[C@@H]1[C@@H](O)C[C@](O)(C(=O)O)O[C@H]1C(O)[C@H](O)CNC(=O)OCc1cn(CCC(=O)O)nn1
REMARK SMILES IDX 21 1 22 2 23 3 20 5 18 6 16 7 15 8 9 9 8 10 14 11 6 12 5 13
REMARK SMILES IDX 10 14 11 16 12 17 13 18 7 20 4 22 2 23 1 25 3 26 17 27 19 29
REMARK SMILES IDX 24 31 25 32 26 33 27 34 35 35 28 36 34 37 29 38 30 39 31 40
REMARK SMILES IDX 32 41 33 42
REMARK H PARENT 21 4 10 15 13 19 7 21 4 24 17 28 19 30 33 43
REMARK Flexibility Score: inf
ROOT
ATOM      1  N   UNL     1      26.370  38.350  13.013  1.00  0.00    -0.319 N 
ATOM      2  C   UNL     1      25.090  38.961  12.992  1.00  0.00     0.407 C 
ATOM      3  O   UNL     1      24.787  39.822  12.113  1.00  0.00    -0.225 OA
ATOM      4  H   UNL     1      26.579  37.648  13.748  1.00  0.00     0.167 HD
ENDROOT
BRANCH   1   5
ATOM      5  C   UNL     1      27.385  38.681  12.043  1.00  0.00     0.154 C 
BRANCH   5   6
ATOM      6  C   UNL     1      27.608  37.612  11.008  1.00  0.00     0.165 C 
BRANCH   6   7
ATOM      7  C   UNL     1      26.816  37.910   9.735  1.00  0.00     0.176 C 
BRANCH   7   8
ATOM      8  C   UNL     1      27.204  36.927   8.644  1.00  0.00     0.178 C 
ATOM      9  C   UNL     1      29.192  35.907   7.964  1.00  0.00     0.269 C 
ATOM     10  C   UNL     1      28.578  35.609   6.625  1.00  0.00     0.112 C 
ATOM     11  O   UNL     1      28.274  36.156   8.961  1.00  0.00    -0.332 OA
ATOM     12  C   UNL     1      27.375  36.416   6.290  1.00  0.00     0.145 C 
ATOM     13  C   UNL     1      27.309  37.580   7.291  1.00  0.00     0.142 C 
BRANCH   9  14
ATOM     14  O   UNL     1      30.109  36.940   7.807  1.00  0.00    -0.357 OA
ATOM     15  H   UNL     1      29.567  37.771   7.706  1.00  0.00     0.214 HD
ENDBRANCH   9  14
BRANCH   9  16
ATOM     16  C   UNL     1      29.943  34.695   8.364  1.00  0.00     0.364 C 
ATOM     17  O   UNL     1      31.115  34.455   8.002  1.00  0.00    -0.246 OA
BRANCH  16  18
ATOM     18  O   UNL     1      29.331  33.763   9.183  1.00  0.00    -0.477 OA
ATOM     19  H   UNL     1      29.778  32.907   9.487  1.00  0.00     0.296 HD
ENDBRANCH  16  18
ENDBRANCH   9  16
BRANCH  12  20
ATOM     20  O   UNL     1      27.382  36.897   4.984  1.00  0.00    -0.391 OA
ATOM     21  H   UNL     1      26.507  37.298   4.725  1.00  0.00     0.211 HD
ENDBRANCH  12  20
BRANCH  13  22
ATOM     22  N   UNL     1      26.164  38.423   7.009  1.00  0.00    -0.348 N 
ATOM     23  C   UNL     1      26.346  39.762   6.563  1.00  0.00     0.217 C 
ATOM     24  H   UNL     1      25.179  38.085   7.123  1.00  0.00     0.163 HD
ATOM     25  C   UNL     1      25.190  40.671   6.260  1.00  0.00     0.114 C 
ATOM     26  O   UNL     1      27.520  40.228   6.408  1.00  0.00    -0.275 OA
ENDBRANCH  13  22
ENDBRANCH   7   8
BRANCH   7  27
ATOM     27  O   UNL     1      25.463  37.756  10.025  1.00  0.00    -0.388 OA
ATOM     28  H   UNL     1      24.930  37.494   9.225  1.00  0.00     0.211 HD
ENDBRANCH   7  27
ENDBRANCH   6   7
BRANCH   6  29
ATOM     29  O   UNL     1      27.189  36.404  11.569  1.00  0.00    -0.388 OA
ATOM     30  H   UNL     1      26.705  36.596  12.411  1.00  0.00     0.211 HD
ENDBRANCH   6  29
ENDBRANCH   5   6
ENDBRANCH   1   5
BRANCH   2  31
ATOM     31  O   UNL     1      24.162  38.607  13.945  1.00  0.00    -0.443 OA
BRANCH  31  32
ATOM     32  C   UNL     1      23.718  37.276  14.145  1.00  0.00     0.294 C 
BRANCH  32  33
ATOM     33  C   UNL     1      23.658  36.548  12.833  1.00  0.00     0.120 A 
ATOM     34  C   UNL     1      22.658  36.610  11.899  1.00  0.00     0.138 A 
ATOM     35  N   UNL     1      24.598  35.698  12.374  1.00  0.00    -0.132 NA
ATOM     36  N   UNL     1      23.014  35.790  10.880  1.00  0.00    -0.252 N 
ATOM     37  N   UNL     1      24.186  35.256  11.196  1.00  0.00    -0.067 NA
BRANCH  36  38
ATOM     38  C   UNL     1      22.218  35.582   9.690  1.00  0.00     0.158 C 
BRANCH  38  39
ATOM     39  C   UNL     1      21.740  36.948   9.206  1.00  0.00     0.146 C 
BRANCH  39  40
ATOM     40  C   UNL     1      22.416  37.197   7.897  1.00  0.00     0.305 C 
ATOM     41  O   UNL     1      23.467  37.841   7.789  1.00  0.00    -0.252 OA
BRANCH  40  42
ATOM     42  O   UNL     1      21.799  36.659   6.767  1.00  0.00    -0.481 OA
ATOM     43  H   UNL     1      22.366  36.210   6.049  1.00  0.00     0.296 HD
ENDBRANCH  40  42
ENDBRANCH  39  40
ENDBRANCH  38  39
ENDBRANCH  36  38
ENDBRANCH  32  33
ENDBRANCH  31  32
ENDBRANCH   2  31
TORSDOF 18
BEGIN_RES LYS A 131
REMARK  4 active torsions:
REMARK  status: ('A' for Active; 'I' for Inactive)
REMARK    1  A    between atoms: CA   and  CB  
REMARK    2  A    between atoms: CB   and  CG  
REMARK    3  A    between atoms: CG   and  CD  
REMARK    4  A    between atoms: CD   and  CE  
ROOT
ATOM      1  CA  LYS A 131      29.867  25.555  16.977  1.00 20.52     0.186 C 
ENDROOT
BRANCH   1   2
ATOM      2  CB  LYS A 131      28.345  25.722  17.026  1.00 20.94     0.034 C 
BRANCH   2   3
ATOM      3  CG  LYS A 131      27.602  24.397  16.945  1.00 22.96     0.005 C 
BRANCH   3   4
ATOM      4  CD  LYS A 131      26.144  24.544  17.280  1.00 24.33     0.041 C 
BRANCH   4   5
ATOM      5  CE  LYS A 131      25.966  24.528  18.795  1.00 26.91     0.338 C 
ATOM      6  NZ  LYS A 131      25.524  23.189  19.252  1.00 27.40     0.618 N 
ENDBRANCH   4   5
ENDBRANCH   3   4
ENDBRANCH   2   3
ENDBRANCH   1   2
END_RES LYS A 131
BEGIN_RES LYS A 135
REMARK  4 active torsions:
REMARK  status: ('A' for Active; 'I' for Inactive)
REMARK    5  A    between atoms: CA   and  CB  
REMARK    6  A    between atoms: CB   and  CG  
REMARK    7  A    between atoms: CG   and  CD  
REMARK    8  A    between atoms: CD   and  CE  
ROOT
ATOM      7  CA  LYS A 135      33.193  34.663   9.290  1.00 25.02     0.186 C 
ENDROOT
BRANCH   7   8
ATOM      8  CB  LYS A 135      32.060  35.360  10.034  1.00 26.63     0.034 C 
BRANCH   8   9
ATOM      9  CG  LYS A 135      32.533  36.422  10.993  1.00 29.45     0.005 C 
BRANCH   9  10
ATOM     10  CD  LYS A 135      31.654  36.453  12.235  1.00 32.00     0.041 C 
BRANCH  10  11
ATOM     11  CE  LYS A 135      32.109  35.406  13.235  1.00 34.25     0.338 C 
ATOM     12  NZ  LYS A 135      32.580  36.040  14.497  1.00 35.99     0.618 N 
ENDBRANCH  10  11
ENDBRANCH   9  10
ENDBRANCH   8   9
ENDBRANCH   7   8
END_RES LYS A 135
