REMARK VINA RESULT:    -4.544      3.166      7.037
REMARK INTER + INTRA:         -15.244
REMARK INTER:                  -8.839
REMARK INTRA:                  -6.405
REMARK UNBOUND:                -5.918
REMARK SMILES CC(=O)N[C@@H]1[C@@H](O)C[C@](O)(C(=O)O)O[C@H]1C(O)[C@H](O)CNC(=O)OCc1cn(CCCCCC(=O)O)nn1
REMARK SMILES IDX 25 1 24 2 22 3 21 4 23 6 20 7 18 8 16 9 15 10 9 11 8 12
REMARK SMILES IDX 14 13 6 14 5 15 10 16 11 18 12 19 13 20 7 22 4 24 2 25 1 27
REMARK SMILES IDX 3 28 17 29 19 31 26 33 27 34 38 35 28 36 37 37 29 38 30 39
REMARK SMILES IDX 31 40 32 41 33 42 34 43 35 44 36 45
REMARK H PARENT 21 5 10 17 13 21 7 23 4 26 17 30 19 32 36 46
REMARK Flexibility Score: inf
ROOT
ATOM      1  C   UNL     1      16.175  31.538  10.377  1.00  0.00     0.294 C 
ENDROOT
BRANCH   1   2
ATOM      2  O   UNL     1      16.393  32.941  10.473  1.00  0.00    -0.443 OA
BRANCH   2   3
ATOM      3  C   UNL     1      16.870  33.603   9.335  1.00  0.00     0.407 C 
ATOM      4  N   UNL     1      17.400  34.915   9.494  1.00  0.00    -0.319 N 
ATOM      5  H   UNL     1      17.410  35.323  10.466  1.00  0.00     0.167 HD
ATOM      6  O   UNL     1      16.806  33.007   8.232  1.00  0.00    -0.225 OA
BRANCH   4   7
ATOM      7  C   UNL     1      17.888  35.612   8.348  1.00  0.00     0.154 C 
BRANCH   7   8
ATOM      8  C   UNL     1      19.283  35.227   7.920  1.00  0.00     0.165 C 
BRANCH   8   9
ATOM      9  C   UNL     1      20.062  36.499   7.646  1.00  0.00     0.176 C 
BRANCH   9  10
ATOM     10  C   UNL     1      20.721  37.097   8.844  1.00  0.00     0.178 C 
ATOM     11  C   UNL     1      22.801  37.282   7.783  1.00  0.00     0.269 C 
ATOM     12  C   UNL     1      23.200  36.000   8.532  1.00  0.00     0.112 C 
ATOM     13  O   UNL     1      21.761  37.897   8.420  1.00  0.00    -0.332 OA
ATOM     14  C   UNL     1      22.720  36.206   9.948  1.00  0.00     0.145 C 
ATOM     15  C   UNL     1      21.181  36.159   9.901  1.00  0.00     0.142 C 
BRANCH  11  16
ATOM     16  O   UNL     1      22.591  36.999   6.436  1.00  0.00    -0.357 OA
ATOM     17  H   UNL     1      23.436  36.671   5.993  1.00  0.00     0.214 HD
ENDBRANCH  11  16
BRANCH  11  18
ATOM     18  C   UNL     1      23.977  38.185   7.873  1.00  0.00     0.364 C 
ATOM     19  O   UNL     1      23.910  39.242   8.570  1.00  0.00    -0.246 OA
BRANCH  18  20
ATOM     20  O   UNL     1      25.131  37.850   7.188  1.00  0.00    -0.477 OA
ATOM     21  H   UNL     1      25.467  36.886   7.319  1.00  0.00     0.296 HD
ENDBRANCH  18  20
ENDBRANCH  11  18
BRANCH  14  22
ATOM     22  O   UNL     1      23.207  35.228  10.814  1.00  0.00    -0.391 OA
ATOM     23  H   UNL     1      22.416  34.827  11.262  1.00  0.00     0.211 HD
ENDBRANCH  14  22
BRANCH  15  24
ATOM     24  N   UNL     1      20.656  36.506  11.214  1.00  0.00    -0.348 N 
ATOM     25  C   UNL     1      19.879  35.622  11.988  1.00  0.00     0.217 C 
ATOM     26  H   UNL     1      20.874  37.468  11.601  1.00  0.00     0.163 HD
ATOM     27  C   UNL     1      19.347  36.013  13.344  1.00  0.00     0.114 C 
ATOM     28  O   UNL     1      19.626  34.470  11.519  1.00  0.00    -0.275 OA
ENDBRANCH  15  24
ENDBRANCH   9  10
BRANCH   9  29
ATOM     29  O   UNL     1      19.055  37.434   7.269  1.00  0.00    -0.388 OA
ATOM     30  H   UNL     1      18.223  37.105   7.682  1.00  0.00     0.211 HD
ENDBRANCH   9  29
ENDBRANCH   8   9
BRANCH   8  31
ATOM     31  O   UNL     1      19.184  34.397   6.826  1.00  0.00    -0.388 OA
ATOM     32  H   UNL     1      18.650  34.812   6.103  1.00  0.00     0.211 HD
ENDBRANCH   8  31
ENDBRANCH   7   8
ENDBRANCH   4   7
ENDBRANCH   2   3
ENDBRANCH   1   2
BRANCH   1  33
ATOM     33  C   UNL     1      17.139  30.907  11.308  1.00  0.00     0.120 A 
ATOM     34  C   UNL     1      18.242  30.188  10.896  1.00  0.00     0.138 A 
ATOM     35  N   UNL     1      17.133  30.909  12.640  1.00  0.00    -0.132 NA
ATOM     36  N   UNL     1      18.855  29.786  12.031  1.00  0.00    -0.252 N 
ATOM     37  N   UNL     1      18.183  30.223  13.073  1.00  0.00    -0.067 NA
BRANCH  36  38
ATOM     38  C   UNL     1      20.079  28.983  12.001  1.00  0.00     0.146 C 
BRANCH  38  39
ATOM     39  C   UNL     1      21.212  29.856  12.473  1.00  0.00     0.024 C 
BRANCH  39  40
ATOM     40  C   UNL     1      22.561  29.178  12.369  1.00  0.00     0.002 C 
BRANCH  40  41
ATOM     41  C   UNL     1      23.678  30.041  12.844  1.00  0.00     0.012 C 
BRANCH  41  42
ATOM     42  C   UNL     1      23.230  31.257  13.608  1.00  0.00     0.122 C 
BRANCH  42  43
ATOM     43  C   UNL     1      23.367  32.515  12.859  1.00  0.00     0.303 C 
ATOM     44  O   UNL     1      24.461  33.094  12.766  1.00  0.00    -0.252 OA
BRANCH  43  45
ATOM     45  O   UNL     1      22.254  33.097  12.227  1.00  0.00    -0.481 OA
ATOM     46  H   UNL     1      22.242  33.209  11.208  1.00  0.00     0.296 HD
ENDBRANCH  43  45
ENDBRANCH  42  43
ENDBRANCH  41  42
ENDBRANCH  40  41
ENDBRANCH  39  40
ENDBRANCH  38  39
ENDBRANCH  36  38
ENDBRANCH   1  33
TORSDOF 21
BEGIN_RES LYS A 131
REMARK  4 active torsions:
REMARK  status: ('A' for Active; 'I' for Inactive)
REMARK    1  A    between atoms: CA   and  CB  
REMARK    2  A    between atoms: CB   and  CG  
REMARK    3  A    between atoms: CG   and  CD  
REMARK    4  A    between atoms: CD   and  CE  
ROOT
ATOM      1  CA  LYS A 131      29.867  25.555  16.977  1.00 20.52     0.186 C 
ENDROOT
BRANCH   1   2
ATOM      2  CB  LYS A 131      28.345  25.722  17.026  1.00 20.94     0.034 C 
BRANCH   2   3
ATOM      3  CG  LYS A 131      27.600  24.413  16.816  1.00 22.96     0.005 C 
BRANCH   3   4
ATOM      4  CD  LYS A 131      26.787  24.024  18.019  1.00 24.33     0.041 C 
BRANCH   4   5
ATOM      5  CE  LYS A 131      25.484  23.375  17.565  1.00 26.91     0.338 C 
ATOM      6  NZ  LYS A 131      24.622  24.366  16.878  1.00 27.40     0.618 N 
ENDBRANCH   4   5
ENDBRANCH   3   4
ENDBRANCH   2   3
ENDBRANCH   1   2
END_RES LYS A 131
BEGIN_RES LYS A 135
REMARK  4 active torsions:
REMARK  status: ('A' for Active; 'I' for Inactive)
REMARK    5  A    between atoms: CA   and  CB  
REMARK    6  A    between atoms: CB   and  CG  
REMARK    7  A    between atoms: CG   and  CD  
REMARK    8  A    between atoms: CD   and  CE  
ROOT
ATOM      7  CA  LYS A 135      33.193  34.663   9.290  1.00 25.02     0.186 C 
ENDROOT
BRANCH   7   8
ATOM      8  CB  LYS A 135      32.060  35.360  10.034  1.00 26.63     0.034 C 
BRANCH   8   9
ATOM      9  CG  LYS A 135      30.825  35.566   9.195  1.00 29.45     0.005 C 
BRANCH   9  10
ATOM     10  CD  LYS A 135      30.067  34.258   9.026  1.00 32.00     0.041 C 
BRANCH  10  11
ATOM     11  CE  LYS A 135      28.700  34.509   8.419  1.00 34.25     0.338 C 
ATOM     12  NZ  LYS A 135      28.808  35.304   7.165  1.00 35.99     0.618 N 
ENDBRANCH  10  11
ENDBRANCH   9  10
ENDBRANCH   8   9
ENDBRANCH   7   8
END_RES LYS A 135
