REMARK VINA RESULT:    -5.600      5.174      9.274
REMARK INTER + INTRA:         -16.111
REMARK INTER:                 -12.075
REMARK INTRA:                  -4.036
REMARK UNBOUND:                -5.110
REMARK SMILES CC(=O)N[C@@H]1[C@@H](O)C[C@](O)(C(=O)O)O[C@H]1C(O)[C@H](O)CNC(=O)OCc1cn([C@@H](C)C(=O)OCc2ccccc2)nn1
REMARK SMILES IDX 24 1 22 2 21 3 23 5 20 6 18 7 16 8 15 9 9 10 8 11 14 12 6 13
REMARK SMILES IDX 5 14 10 15 11 17 12 18 13 19 7 21 4 23 2 24 1 26 3 27 17 28
REMARK SMILES IDX 19 30 25 32 26 33 27 34 42 35 28 36 41 37 29 38 30 39 31 40
REMARK SMILES IDX 32 41 33 42 34 43 35 44 36 45 40 46 37 47 39 48 38 49
REMARK H PARENT 21 4 10 16 13 20 7 22 4 25 17 29 19 31
REMARK Flexibility Score: inf
ROOT
ATOM      1  O   UNL     1      28.635  36.178  11.750  1.00  0.00    -0.443 OA
ENDROOT
BRANCH   1   2
ATOM      2  C   UNL     1      28.389  35.514  12.975  1.00  0.00     0.407 C 
ATOM      3  N   UNL     1      29.296  34.547  13.457  1.00  0.00    -0.319 N 
ATOM      4  H   UNL     1      30.141  34.359  12.831  1.00  0.00     0.167 HD
ATOM      5  O   UNL     1      27.344  35.846  13.565  1.00  0.00    -0.225 OA
BRANCH   3   6
ATOM      6  C   UNL     1      29.122  33.850  14.692  1.00  0.00     0.154 C 
BRANCH   6   7
ATOM      7  C   UNL     1      29.790  32.516  14.687  1.00  0.00     0.165 C 
BRANCH   7   8
ATOM      8  C   UNL     1      29.420  31.742  15.950  1.00  0.00     0.176 C 
BRANCH   8   9
ATOM      9  C   UNL     1      30.420  31.889  17.054  1.00  0.00     0.178 C 
ATOM     10  C   UNL     1      29.141  30.983  18.796  1.00  0.00     0.269 C 
ATOM     11  C   UNL     1      28.860  32.371  19.275  1.00  0.00     0.112 C 
ATOM     12  O   UNL     1      30.264  30.873  18.013  1.00  0.00    -0.332 OA
ATOM     13  C   UNL     1      30.127  33.194  19.169  1.00  0.00     0.145 C 
ATOM     14  C   UNL     1      30.494  33.236  17.694  1.00  0.00     0.142 C 
BRANCH  10  15
ATOM     15  O   UNL     1      28.035  30.460  18.166  1.00  0.00    -0.357 OA
ATOM     16  H   UNL     1      28.254  30.005  17.307  1.00  0.00     0.214 HD
ENDBRANCH  10  15
BRANCH  10  17
ATOM     17  C   UNL     1      29.407  30.122  20.004  1.00  0.00     0.364 C 
ATOM     18  O   UNL     1      28.902  30.407  21.120  1.00  0.00    -0.246 OA
BRANCH  17  19
ATOM     19  O   UNL     1      30.210  28.992  19.940  1.00  0.00    -0.477 OA
ATOM     20  H   UNL     1      31.176  28.990  20.303  1.00  0.00     0.296 HD
ENDBRANCH  17  19
ENDBRANCH  10  17
BRANCH  13  21
ATOM     21  O   UNL     1      29.937  34.458  19.691  1.00  0.00    -0.391 OA
ATOM     22  H   UNL     1      30.785  34.938  19.868  1.00  0.00     0.211 HD
ENDBRANCH  13  21
BRANCH  14  23
ATOM     23  N   UNL     1      31.810  33.866  17.547  1.00  0.00    -0.348 N 
ATOM     24  C   UNL     1      31.971  35.230  17.165  1.00  0.00     0.217 C 
ATOM     25  H   UNL     1      32.693  33.318  17.720  1.00  0.00     0.163 HD
ATOM     26  C   UNL     1      33.340  35.815  17.030  1.00  0.00     0.114 C 
ATOM     27  O   UNL     1      30.958  35.934  16.944  1.00  0.00    -0.275 OA
ENDBRANCH  14  23
ENDBRANCH   8   9
BRANCH   8  28
ATOM     28  O   UNL     1      29.317  30.383  15.628  1.00  0.00    -0.388 OA
ATOM     29  H   UNL     1      28.811  29.918  16.348  1.00  0.00     0.211 HD
ENDBRANCH   8  28
ENDBRANCH   7   8
BRANCH   7  30
ATOM     30  O   UNL     1      31.173  32.682  14.632  1.00  0.00    -0.388 OA
ATOM     31  H   UNL     1      31.443  33.645  14.685  1.00  0.00     0.211 HD
ENDBRANCH   7  30
ENDBRANCH   6   7
ENDBRANCH   3   6
ENDBRANCH   1   2
BRANCH   1  32
ATOM     32  C   UNL     1      28.222  37.522  11.614  1.00  0.00     0.294 C 
BRANCH  32  33
ATOM     33  C   UNL     1      27.300  37.707  10.476  1.00  0.00     0.120 A 
ATOM     34  C   UNL     1      27.529  38.328   9.271  1.00  0.00     0.139 A 
ATOM     35  N   UNL     1      26.029  37.278  10.426  1.00  0.00    -0.132 NA
ATOM     36  N   UNL     1      26.403  38.265   8.523  1.00  0.00    -0.238 N 
ATOM     37  N   UNL     1      25.518  37.629   9.241  1.00  0.00    -0.066 NA
BRANCH  36  38
ATOM     38  C   UNL     1      26.243  38.803   7.198  1.00  0.00     0.215 C 
ATOM     39  C   UNL     1      26.288  40.314   7.239  1.00  0.00     0.046 C 
BRANCH  38  40
ATOM     40  C   UNL     1      27.261  38.226   6.310  1.00  0.00     0.331 C 
ATOM     41  O   UNL     1      28.124  38.984   5.774  1.00  0.00    -0.250 OA
BRANCH  40  42
ATOM     42  O   UNL     1      27.324  36.878   6.026  1.00  0.00    -0.459 OA
BRANCH  42  43
ATOM     43  C   UNL     1      28.462  36.074   6.048  1.00  0.00     0.268 C 
BRANCH  43  44
ATOM     44  C   UNL     1      28.461  35.262   7.296  1.00  0.00    -0.011 A 
ATOM     45  C   UNL     1      29.650  34.896   7.889  1.00  0.00     0.007 A 
ATOM     46  C   UNL     1      27.277  34.876   7.862  1.00  0.00     0.007 A 
ATOM     47  C   UNL     1      29.654  34.150   9.042  1.00  0.00     0.000 A 
ATOM     48  C   UNL     1      27.250  34.133   9.009  1.00  0.00     0.000 A 
ATOM     49  C   UNL     1      28.439  33.771   9.597  1.00  0.00     0.000 A 
ENDBRANCH  43  44
ENDBRANCH  42  43
ENDBRANCH  40  42
ENDBRANCH  38  40
ENDBRANCH  36  38
ENDBRANCH  32  33
ENDBRANCH   1  32
TORSDOF 19
BEGIN_RES LYS A 131
REMARK  4 active torsions:
REMARK  status: ('A' for Active; 'I' for Inactive)
REMARK    1  A    between atoms: CA   and  CB  
REMARK    2  A    between atoms: CB   and  CG  
REMARK    3  A    between atoms: CG   and  CD  
REMARK    4  A    between atoms: CD   and  CE  
ROOT
ATOM      1  CA  LYS A 131      29.867  25.555  16.977  1.00 20.52     0.186 C 
ENDROOT
BRANCH   1   2
ATOM      2  CB  LYS A 131      28.345  25.722  17.026  1.00 20.94     0.034 C 
BRANCH   2   3
ATOM      3  CG  LYS A 131      27.601  24.402  16.896  1.00 22.96     0.005 C 
BRANCH   3   4
ATOM      4  CD  LYS A 131      26.564  24.228  17.971  1.00 24.33     0.041 C 
BRANCH   4   5
ATOM      5  CE  LYS A 131      25.656  23.055  17.617  1.00 26.91     0.338 C 
ATOM      6  NZ  LYS A 131      24.373  23.542  17.056  1.00 27.40     0.618 N 
ENDBRANCH   4   5
ENDBRANCH   3   4
ENDBRANCH   2   3
ENDBRANCH   1   2
END_RES LYS A 131
BEGIN_RES LYS A 135
REMARK  4 active torsions:
REMARK  status: ('A' for Active; 'I' for Inactive)
REMARK    5  A    between atoms: CA   and  CB  
REMARK    6  A    between atoms: CB   and  CG  
REMARK    7  A    between atoms: CG   and  CD  
REMARK    8  A    between atoms: CD   and  CE  
ROOT
ATOM      7  CA  LYS A 135      33.193  34.663   9.290  1.00 25.02     0.186 C 
ENDROOT
BRANCH   7   8
ATOM      8  CB  LYS A 135      32.060  35.360  10.034  1.00 26.63     0.034 C 
BRANCH   8   9
ATOM      9  CG  LYS A 135      32.536  36.325  11.089  1.00 29.45     0.005 C 
BRANCH   9  10
ATOM     10  CD  LYS A 135      32.627  35.638  12.443  1.00 32.00     0.041 C 
BRANCH  10  11
ATOM     11  CE  LYS A 135      32.123  36.556  13.540  1.00 34.25     0.338 C 
ATOM     12  NZ  LYS A 135      31.513  37.789  12.971  1.00 35.99     0.618 N 
ENDBRANCH  10  11
ENDBRANCH   9  10
ENDBRANCH   8   9
ENDBRANCH   7   8
END_RES LYS A 135
