REMARK VINA RESULT:    -4.680      4.159      7.824
REMARK INTER + INTRA:         -14.018
REMARK INTER:                  -7.907
REMARK INTRA:                  -6.111
REMARK UNBOUND:                -5.917
REMARK SMILES CC(=O)N[C@@H]1[C@@H](O)C[C@](O)(C(=O)O)O[C@H]1C(O)[C@H](O)CNC(=O)OCc1cn(-c2c(C)cc(C)cc2C)nn1
REMARK SMILES IDX 20 1 18 2 16 3 15 4 9 5 8 6 14 7 6 8 5 9 10 10 11 12 12 13
REMARK SMILES IDX 13 14 7 16 4 18 2 19 1 21 3 22 17 23 19 25 21 27 22 28 23 30
REMARK SMILES IDX 24 31 25 32 26 33 27 34 39 35 28 36 38 37 29 38 30 39 36 40
REMARK SMILES IDX 31 41 32 42 35 43 37 44 33 45 34 46
REMARK H PARENT 10 11 13 15 7 17 4 20 17 24 19 26 21 29
REMARK Flexibility Score: inf
ROOT
ATOM      1  C   UNL     1      29.962  31.107  18.728  1.00  0.00     0.154 C 
ENDROOT
BRANCH   1   2
ATOM      2  C   UNL     1      30.116  31.947  17.512  1.00  0.00     0.165 C 
BRANCH   2   3
ATOM      3  C   UNL     1      29.197  33.122  17.418  1.00  0.00     0.176 C 
BRANCH   3   4
ATOM      4  C   UNL     1      29.679  34.267  16.610  1.00  0.00     0.178 C 
ATOM      5  C   UNL     1      30.933  34.559  14.657  1.00  0.00     0.269 C 
ATOM      6  C   UNL     1      31.133  36.013  14.977  1.00  0.00     0.112 C 
ATOM      7  O   UNL     1      29.885  33.966  15.296  1.00  0.00    -0.332 OA
ATOM      8  C   UNL     1      30.871  36.359  16.403  1.00  0.00     0.145 C 
ATOM      9  C   UNL     1      30.805  35.052  17.213  1.00  0.00     0.142 C 
BRANCH   5  10
ATOM     10  O   UNL     1      32.123  33.894  14.938  1.00  0.00    -0.357 OA
ATOM     11  H   UNL     1      32.812  34.222  14.291  1.00  0.00     0.214 HD
ENDBRANCH   5  10
BRANCH   5  12
ATOM     12  C   UNL     1      30.682  34.472  13.194  1.00  0.00     0.364 C 
ATOM     13  O   UNL     1      29.518  34.384  12.754  1.00  0.00    -0.246 OA
BRANCH  12  14
ATOM     14  O   UNL     1      31.746  34.487  12.282  1.00  0.00    -0.477 OA
ATOM     15  H   UNL     1      32.298  35.351  12.190  1.00  0.00     0.296 HD
ENDBRANCH  12  14
ENDBRANCH   5  12
BRANCH   8  16
ATOM     16  O   UNL     1      31.765  37.256  16.950  1.00  0.00    -0.391 OA
ATOM     17  H   UNL     1      31.927  36.972  17.899  1.00  0.00     0.211 HD
ENDBRANCH   8  16
BRANCH   9  18
ATOM     18  N   UNL     1      30.518  35.466  18.562  1.00  0.00    -0.348 N 
ATOM     19  C   UNL     1      31.321  34.947  19.612  1.00  0.00     0.217 C 
ATOM     20  H   UNL     1      29.743  36.134  18.796  1.00  0.00     0.163 HD
ATOM     21  C   UNL     1      31.106  35.310  21.038  1.00  0.00     0.114 C 
ATOM     22  O   UNL     1      32.258  34.147  19.362  1.00  0.00    -0.275 OA
ENDBRANCH   9  18
ENDBRANCH   3   4
BRANCH   3  23
ATOM     23  O   UNL     1      27.980  32.673  16.911  1.00  0.00    -0.388 OA
ATOM     24  H   UNL     1      27.506  33.453  16.530  1.00  0.00     0.211 HD
ENDBRANCH   3  23
ENDBRANCH   2   3
BRANCH   2  25
ATOM     25  O   UNL     1      30.113  31.169  16.352  1.00  0.00    -0.388 OA
ATOM     26  H   UNL     1      30.524  31.643  15.587  1.00  0.00     0.211 HD
ENDBRANCH   2  25
ENDBRANCH   1   2
BRANCH   1  27
ATOM     27  N   UNL     1      29.031  30.011  18.547  1.00  0.00    -0.319 N 
ATOM     28  C   UNL     1      27.675  30.064  18.976  1.00  0.00     0.407 C 
ATOM     29  H   UNL     1      29.312  29.099  18.079  1.00  0.00     0.167 HD
ATOM     30  O   UNL     1      27.234  31.084  19.537  1.00  0.00    -0.225 OA
BRANCH  28  31
ATOM     31  O   UNL     1      26.813  28.982  18.779  1.00  0.00    -0.443 OA
BRANCH  31  32
ATOM     32  C   UNL     1      26.742  28.377  17.478  1.00  0.00     0.294 C 
BRANCH  32  33
ATOM     33  C   UNL     1      26.386  29.431  16.495  1.00  0.00     0.121 A 
ATOM     34  C   UNL     1      25.098  29.786  16.128  1.00  0.00     0.144 A 
ATOM     35  N   UNL     1      27.191  30.218  15.796  1.00  0.00    -0.131 NA
ATOM     36  N   UNL     1      25.150  30.768  15.225  1.00  0.00    -0.220 N 
ATOM     37  N   UNL     1      26.462  31.001  15.052  1.00  0.00    -0.062 NA
BRANCH  36  38
ATOM     38  C   UNL     1      24.101  31.456  14.559  1.00  0.00     0.072 A 
ATOM     39  C   UNL     1      23.515  30.911  13.438  1.00  0.00    -0.025 A 
ATOM     40  C   UNL     1      23.634  32.684  15.001  1.00  0.00    -0.025 A 
ATOM     41  C   UNL     1      23.994  29.600  12.945  1.00  0.00     0.047 C 
ATOM     42  C   UNL     1      22.481  31.593  12.783  1.00  0.00     0.009 A 
ATOM     43  C   UNL     1      22.614  33.348  14.348  1.00  0.00     0.009 A 
ATOM     44  C   UNL     1      24.287  33.264  16.228  1.00  0.00     0.047 C 
ATOM     45  C   UNL     1      22.018  32.814  13.226  1.00  0.00    -0.050 A 
ATOM     46  C   UNL     1      20.914  33.520  12.510  1.00  0.00     0.044 C 
ENDBRANCH  36  38
ENDBRANCH  32  33
ENDBRANCH  31  32
ENDBRANCH  28  31
ENDBRANCH   1  27
TORSDOF 15
BEGIN_RES LYS A 131
REMARK  4 active torsions:
REMARK  status: ('A' for Active; 'I' for Inactive)
REMARK    1  A    between atoms: CA   and  CB  
REMARK    2  A    between atoms: CB   and  CG  
REMARK    3  A    between atoms: CG   and  CD  
REMARK    4  A    between atoms: CD   and  CE  
ROOT
ATOM      1  CA  LYS A 131      29.867  25.555  16.977  1.00 20.52     0.186 C 
ENDROOT
BRANCH   1   2
ATOM      2  CB  LYS A 131      28.345  25.722  17.026  1.00 20.94     0.034 C 
BRANCH   2   3
ATOM      3  CG  LYS A 131      27.601  24.401  16.903  1.00 22.96     0.005 C 
BRANCH   3   4
ATOM      4  CD  LYS A 131      26.561  24.234  17.976  1.00 24.33     0.041 C 
BRANCH   4   5
ATOM      5  CE  LYS A 131      25.218  23.902  17.335  1.00 26.91     0.338 C 
ATOM      6  NZ  LYS A 131      24.857  22.487  17.590  1.00 27.40     0.618 N 
ENDBRANCH   4   5
ENDBRANCH   3   4
ENDBRANCH   2   3
ENDBRANCH   1   2
END_RES LYS A 131
BEGIN_RES LYS A 135
REMARK  4 active torsions:
REMARK  status: ('A' for Active; 'I' for Inactive)
REMARK    5  A    between atoms: CA   and  CB  
REMARK    6  A    between atoms: CB   and  CG  
REMARK    7  A    between atoms: CG   and  CD  
REMARK    8  A    between atoms: CD   and  CE  
ROOT
ATOM      7  CA  LYS A 135      33.193  34.663   9.290  1.00 25.02     0.186 C 
ENDROOT
BRANCH   7   8
ATOM      8  CB  LYS A 135      32.060  35.360  10.034  1.00 26.63     0.034 C 
BRANCH   8   9
ATOM      9  CG  LYS A 135      30.800  35.500   9.219  1.00 29.45     0.005 C 
BRANCH   9  10
ATOM     10  CD  LYS A 135      29.984  34.217   9.269  1.00 32.00     0.041 C 
BRANCH  10  11
ATOM     11  CE  LYS A 135      28.600  34.444   8.690  1.00 34.25     0.338 C 
ATOM     12  NZ  LYS A 135      27.570  33.679   9.446  1.00 35.99     0.618 N 
ENDBRANCH  10  11
ENDBRANCH   9  10
ENDBRANCH   8   9
ENDBRANCH   7   8
END_RES LYS A 135
