REMARK VINA RESULT:    -4.257      5.244      9.813
REMARK INTER + INTRA:         -15.855
REMARK INTER:                  -8.247
REMARK INTRA:                  -7.608
REMARK UNBOUND:                -7.118
REMARK SMILES CC(=O)N[C@@H]1[C@@H](O)C[C@](O)(C(=O)O)O[C@H]1C(O)[C@H](O)CNC(=O)OCc1cn(C[C@H](CC(=O)O)CC(C)C)nn1
REMARK SMILES IDX 24 1 22 2 21 3 23 5 20 6 18 7 16 8 15 9 9 10 8 11 14 12 6 13
REMARK SMILES IDX 5 14 10 15 11 17 12 18 13 19 7 21 4 23 2 24 1 26 3 27 17 28
REMARK SMILES IDX 19 30 25 32 26 33 27 34 40 35 28 36 39 37 29 38 30 39 31 40
REMARK SMILES IDX 32 41 33 42 34 43 35 45 36 46 37 47 38 48
REMARK H PARENT 21 4 10 16 13 20 7 22 4 25 17 29 19 31 34 44
REMARK Flexibility Score: inf
ROOT
ATOM      1  O   UNL     1      29.899  41.194   8.905  1.00  0.00    -0.443 OA
ENDROOT
BRANCH   1   2
ATOM      2  C   UNL     1      30.729  40.458   9.769  1.00  0.00     0.407 C 
ATOM      3  N   UNL     1      30.355  40.204  11.110  1.00  0.00    -0.319 N 
ATOM      4  H   UNL     1      29.412  40.602  11.416  1.00  0.00     0.167 HD
ATOM      5  O   UNL     1      31.816  40.031   9.311  1.00  0.00    -0.225 OA
BRANCH   3   6
ATOM      6  C   UNL     1      31.171  39.458  12.041  1.00  0.00     0.154 C 
BRANCH   6   7
ATOM      7  C   UNL     1      30.399  38.295  12.559  1.00  0.00     0.165 C 
BRANCH   7   8
ATOM      8  C   UNL     1      31.271  37.182  13.117  1.00  0.00     0.176 C 
BRANCH   8   9
ATOM      9  C   UNL     1      30.508  35.903  13.262  1.00  0.00     0.178 C 
ATOM     10  C   UNL     1      28.874  35.622  14.888  1.00  0.00     0.269 C 
ATOM     11  C   UNL     1      29.215  34.174  15.139  1.00  0.00     0.112 C 
ATOM     12  O   UNL     1      29.194  36.032  13.603  1.00  0.00    -0.332 OA
ATOM     13  C   UNL     1      30.332  33.694  14.236  1.00  0.00     0.145 C 
ATOM     14  C   UNL     1      31.281  34.893  14.106  1.00  0.00     0.142 C 
BRANCH  10  15
ATOM     15  O   UNL     1      29.450  36.446  15.859  1.00  0.00    -0.357 OA
ATOM     16  H   UNL     1      28.928  37.248  16.047  1.00  0.00     0.214 HD
ENDBRANCH  10  15
BRANCH  10  17
ATOM     17  C   UNL     1      27.400  35.758  15.030  1.00  0.00     0.364 C 
ATOM     18  O   UNL     1      26.934  36.301  16.078  1.00  0.00    -0.246 OA
BRANCH  17  19
ATOM     19  O   UNL     1      26.498  35.327  14.080  1.00  0.00    -0.477 OA
ATOM     20  H   UNL     1      26.777  34.576  13.429  1.00  0.00     0.296 HD
ENDBRANCH  17  19
ENDBRANCH  10  17
BRANCH  13  21
ATOM     21  O   UNL     1      30.969  32.574  14.706  1.00  0.00    -0.391 OA
ATOM     22  H   UNL     1      30.492  32.303  15.551  1.00  0.00     0.211 HD
ENDBRANCH  13  21
BRANCH  14  23
ATOM     23  N   UNL     1      32.483  34.521  13.403  1.00  0.00    -0.348 N 
ATOM     24  C   UNL     1      33.767  34.715  14.001  1.00  0.00     0.217 C 
ATOM     25  H   UNL     1      32.483  34.100  12.441  1.00  0.00     0.163 HD
ATOM     26  C   UNL     1      35.016  34.345  13.309  1.00  0.00     0.114 C 
ATOM     27  O   UNL     1      33.842  35.215  15.151  1.00  0.00    -0.275 OA
ENDBRANCH  14  23
ENDBRANCH   8   9
BRANCH   8  28
ATOM     28  O   UNL     1      31.920  37.593  14.258  1.00  0.00    -0.388 OA
ATOM     29  H   UNL     1      31.347  37.416  15.032  1.00  0.00     0.211 HD
ENDBRANCH   8  28
ENDBRANCH   7   8
BRANCH   7  30
ATOM     30  O   UNL     1      29.665  37.738  11.484  1.00  0.00    -0.388 OA
ATOM     31  H   UNL     1      29.649  38.349  10.713  1.00  0.00     0.211 HD
ENDBRANCH   7  30
ENDBRANCH   6   7
ENDBRANCH   3   6
ENDBRANCH   1   2
BRANCH   1  32
ATOM     32  C   UNL     1      29.309  40.507   7.830  1.00  0.00     0.294 C 
BRANCH  32  33
ATOM     33  C   UNL     1      28.330  39.499   8.275  1.00  0.00     0.120 A 
ATOM     34  C   UNL     1      27.586  38.591   7.536  1.00  0.00     0.138 A 
ATOM     35  N   UNL     1      27.978  39.279   9.547  1.00  0.00    -0.132 NA
ATOM     36  N   UNL     1      26.823  37.867   8.373  1.00  0.00    -0.252 N 
ATOM     37  N   UNL     1      27.078  38.302   9.581  1.00  0.00    -0.067 NA
BRANCH  36  38
ATOM     38  C   UNL     1      25.886  36.790   7.953  1.00  0.00     0.150 C 
BRANCH  38  39
ATOM     39  C   UNL     1      25.303  36.136   9.157  1.00  0.00     0.022 C 
BRANCH  39  40
ATOM     40  C   UNL     1      26.071  34.849   9.403  1.00  0.00     0.128 C 
BRANCH  40  41
ATOM     41  C   UNL     1      26.519  34.810  10.818  1.00  0.00     0.303 C 
ATOM     42  O   UNL     1      25.980  34.049  11.641  1.00  0.00    -0.252 OA
BRANCH  41  43
ATOM     43  O   UNL     1      27.565  35.662  11.184  1.00  0.00    -0.481 OA
ATOM     44  H   UNL     1      27.475  36.231  12.002  1.00  0.00     0.296 HD
ENDBRANCH  41  43
ENDBRANCH  40  41
ENDBRANCH  39  40
BRANCH  39  45
ATOM     45  C   UNL     1      23.840  35.976   9.091  1.00  0.00     0.009 C 
BRANCH  45  46
ATOM     46  C   UNL     1      23.033  36.411  10.255  1.00  0.00    -0.017 C 
ATOM     47  C   UNL     1      22.625  35.102  10.989  1.00  0.00     0.007 C 
ATOM     48  C   UNL     1      23.700  37.281  11.264  1.00  0.00     0.007 C 
ENDBRANCH  45  46
ENDBRANCH  39  45
ENDBRANCH  38  39
ENDBRANCH  36  38
ENDBRANCH  32  33
ENDBRANCH   1  32
TORSDOF 21
BEGIN_RES LYS A 131
REMARK  4 active torsions:
REMARK  status: ('A' for Active; 'I' for Inactive)
REMARK    1  A    between atoms: CA   and  CB  
REMARK    2  A    between atoms: CB   and  CG  
REMARK    3  A    between atoms: CG   and  CD  
REMARK    4  A    between atoms: CD   and  CE  
ROOT
ATOM      1  CA  LYS A 131      29.867  25.555  16.977  1.00 20.52     0.186 C 
ENDROOT
BRANCH   1   2
ATOM      2  CB  LYS A 131      28.345  25.722  17.026  1.00 20.94     0.034 C 
BRANCH   2   3
ATOM      3  CG  LYS A 131      27.602  24.400  16.915  1.00 22.96     0.005 C 
BRANCH   3   4
ATOM      4  CD  LYS A 131      26.553  24.248  17.981  1.00 24.33     0.041 C 
BRANCH   4   5
ATOM      5  CE  LYS A 131      25.214  24.754  17.454  1.00 26.91     0.338 C 
ATOM      6  NZ  LYS A 131      24.125  24.426  18.404  1.00 27.40     0.618 N 
ENDBRANCH   4   5
ENDBRANCH   3   4
ENDBRANCH   2   3
ENDBRANCH   1   2
END_RES LYS A 131
BEGIN_RES LYS A 135
REMARK  4 active torsions:
REMARK  status: ('A' for Active; 'I' for Inactive)
REMARK    5  A    between atoms: CA   and  CB  
REMARK    6  A    between atoms: CB   and  CG  
REMARK    7  A    between atoms: CG   and  CD  
REMARK    8  A    between atoms: CD   and  CE  
ROOT
ATOM      7  CA  LYS A 135      33.193  34.663   9.290  1.00 25.02     0.186 C 
ENDROOT
BRANCH   7   8
ATOM      8  CB  LYS A 135      32.060  35.360  10.034  1.00 26.63     0.034 C 
BRANCH   8   9
ATOM      9  CG  LYS A 135      30.705  34.755   9.772  1.00 29.45     0.005 C 
BRANCH   9  10
ATOM     10  CD  LYS A 135      30.503  34.517   8.283  1.00 32.00     0.041 C 
BRANCH  10  11
ATOM     11  CE  LYS A 135      29.098  34.908   7.868  1.00 34.25     0.338 C 
ATOM     12  NZ  LYS A 135      29.094  35.544   6.521  1.00 35.99     0.618 N 
ENDBRANCH  10  11
ENDBRANCH   9  10
ENDBRANCH   8   9
ENDBRANCH   7   8
END_RES LYS A 135
