REMARK VINA RESULT:    -4.359      4.667      8.135
REMARK INTER + INTRA:         -14.694
REMARK INTER:                  -7.420
REMARK INTRA:                  -7.274
REMARK UNBOUND:                -5.875
REMARK SMILES CC[N+](C)(CC)CCCn1cc(COC(=O)NC[C@@H](O)C(O)[C@@H]2O[C@@](O)(C(=O)O)C[C@H](O)[C@H]2NC(C)=O)nn1
REMARK SMILES IDX 14 1 15 2 17 3 16 5 18 6 19 7 21 8 23 9 25 10 30 11 24 12
REMARK SMILES IDX 31 13 33 14 26 15 27 17 28 18 29 19 32 21 34 23 35 24 36 26
REMARK SMILES IDX 37 27 22 28 20 30 13 32 12 33 11 34 38 35 10 36 39 37 9 38
REMARK SMILES IDX 8 39 7 40 3 41 4 42 2 43 1 44 5 45 6 46
REMARK H PARENT 17 4 26 16 29 20 32 22 34 25 22 29 20 31
REMARK Flexibility Score: inf
ROOT
ATOM      1  O   UNL     1      27.537  29.187  18.506  1.00  0.00    -0.443 OA
ENDROOT
BRANCH   1   2
ATOM      2  C   UNL     1      28.424  30.243  18.545  1.00  0.00     0.407 C 
ATOM      3  N   UNL     1      29.537  30.336  17.650  1.00  0.00    -0.319 N 
ATOM      4  H   UNL     1      29.632  29.575  16.969  1.00  0.00     0.167 HD
ATOM      5  O   UNL     1      28.248  31.147  19.394  1.00  0.00    -0.225 OA
BRANCH   3   6
ATOM      6  C   UNL     1      30.405  31.451  17.752  1.00  0.00     0.154 C 
BRANCH   6   7
ATOM      7  C   UNL     1      30.384  32.426  16.622  1.00  0.00     0.165 C 
BRANCH   7   8
ATOM      8  C   UNL     1      29.538  33.643  16.830  1.00  0.00     0.176 C 
BRANCH   8   9
ATOM      9  C   UNL     1      29.513  34.603  15.678  1.00  0.00     0.178 C 
ATOM     10  C   UNL     1      28.610  34.907  13.586  1.00  0.00     0.269 C 
ATOM     11  C   UNL     1      29.170  36.291  13.856  1.00  0.00     0.112 C 
ATOM     12  O   UNL     1      28.735  34.078  14.675  1.00  0.00    -0.332 OA
ATOM     13  C   UNL     1      30.622  36.213  14.215  1.00  0.00     0.145 C 
ATOM     14  C   UNL     1      30.841  35.023  15.151  1.00  0.00     0.142 C 
BRANCH  10  15
ATOM     15  O   UNL     1      29.357  34.361  12.527  1.00  0.00    -0.357 OA
ATOM     16  H   UNL     1      29.417  33.388  12.713  1.00  0.00     0.214 HD
ENDBRANCH  10  15
BRANCH  10  17
ATOM     17  C   UNL     1      27.205  35.012  13.163  1.00  0.00     0.364 C 
ATOM     18  O   UNL     1      26.914  35.483  12.028  1.00  0.00    -0.246 OA
BRANCH  17  19
ATOM     19  O   UNL     1      26.170  34.604  13.980  1.00  0.00    -0.477 OA
ATOM     20  H   UNL     1      26.154  33.684  14.379  1.00  0.00     0.296 HD
ENDBRANCH  17  19
ENDBRANCH  10  17
BRANCH  13  21
ATOM     21  O   UNL     1      31.367  36.051  13.038  1.00  0.00    -0.391 OA
ATOM     22  H   UNL     1      31.900  36.859  12.875  1.00  0.00     0.211 HD
ENDBRANCH  13  21
BRANCH  14  23
ATOM     23  N   UNL     1      31.704  35.554  16.211  1.00  0.00    -0.348 N 
ATOM     24  C   UNL     1      33.110  35.577  16.047  1.00  0.00     0.217 C 
ATOM     25  H   UNL     1      31.266  35.914  17.089  1.00  0.00     0.163 HD
ATOM     26  C   UNL     1      33.979  36.119  17.140  1.00  0.00     0.114 C 
ATOM     27  O   UNL     1      33.694  35.156  15.001  1.00  0.00    -0.275 OA
ENDBRANCH  14  23
ENDBRANCH   8   9
BRANCH   8  28
ATOM     28  O   UNL     1      28.235  33.239  17.158  1.00  0.00    -0.388 OA
ATOM     29  H   UNL     1      28.071  32.374  16.691  1.00  0.00     0.211 HD
ENDBRANCH   8  28
ENDBRANCH   7   8
BRANCH   7  30
ATOM     30  O   UNL     1      29.936  31.717  15.486  1.00  0.00    -0.388 OA
ATOM     31  H   UNL     1      29.747  30.778  15.682  1.00  0.00     0.211 HD
ENDBRANCH   7  30
ENDBRANCH   6   7
ENDBRANCH   3   6
ENDBRANCH   1   2
BRANCH   1  32
ATOM     32  C   UNL     1      26.910  28.860  17.274  1.00  0.00     0.294 C 
BRANCH  32  33
ATOM     33  C   UNL     1      26.355  30.084  16.651  1.00  0.00     0.120 A 
ATOM     34  C   UNL     1      25.125  30.681  16.819  1.00  0.00     0.138 A 
ATOM     35  N   UNL     1      26.994  30.868  15.757  1.00  0.00    -0.132 NA
ATOM     36  N   UNL     1      25.039  31.784  16.049  1.00  0.00    -0.252 N 
ATOM     37  N   UNL     1      26.194  31.860  15.422  1.00  0.00    -0.067 NA
BRANCH  36  38
ATOM     38  C   UNL     1      23.957  32.701  15.902  1.00  0.00     0.152 C 
BRANCH  38  39
ATOM     39  C   UNL     1      23.248  32.604  14.606  1.00  0.00     0.085 C 
BRANCH  39  40
ATOM     40  C   UNL     1      22.079  31.716  14.502  1.00  0.00     0.265 C 
BRANCH  40  41
ATOM     41  N   UNL     1      22.206  30.405  14.015  1.00  0.00    -0.326 N 
ATOM     42  C   UNL     1      22.097  29.338  14.973  1.00  0.00     0.334 C 
BRANCH  41  43
ATOM     43  C   UNL     1      21.061  30.201  13.104  1.00  0.00     0.260 C 
ATOM     44  C   UNL     1      20.573  31.435  12.450  1.00  0.00     0.071 C 
ENDBRANCH  41  43
BRANCH  41  45
ATOM     45  C   UNL     1      23.385  30.185  13.225  1.00  0.00     0.260 C 
ATOM     46  C   UNL     1      23.458  28.861  12.555  1.00  0.00     0.071 C 
ENDBRANCH  41  45
ENDBRANCH  40  41
ENDBRANCH  39  40
ENDBRANCH  38  39
ENDBRANCH  36  38
ENDBRANCH  32  33
ENDBRANCH   1  32
TORSDOF 20
BEGIN_RES LYS A 131
REMARK  4 active torsions:
REMARK  status: ('A' for Active; 'I' for Inactive)
REMARK    1  A    between atoms: CA   and  CB  
REMARK    2  A    between atoms: CB   and  CG  
REMARK    3  A    between atoms: CG   and  CD  
REMARK    4  A    between atoms: CD   and  CE  
ROOT
ATOM      1  CA  LYS A 131      29.867  25.555  16.977  1.00 20.52     0.186 C 
ENDROOT
BRANCH   1   2
ATOM      2  CB  LYS A 131      28.345  25.722  17.026  1.00 20.94     0.034 C 
BRANCH   2   3
ATOM      3  CG  LYS A 131      27.601  24.402  16.897  1.00 22.96     0.005 C 
BRANCH   3   4
ATOM      4  CD  LYS A 131      26.154  24.526  17.285  1.00 24.33     0.041 C 
BRANCH   4   5
ATOM      5  CE  LYS A 131      25.610  23.155  17.671  1.00 26.91     0.338 C 
ATOM      6  NZ  LYS A 131      25.383  23.079  19.133  1.00 27.40     0.618 N 
ENDBRANCH   4   5
ENDBRANCH   3   4
ENDBRANCH   2   3
ENDBRANCH   1   2
END_RES LYS A 131
BEGIN_RES LYS A 135
REMARK  4 active torsions:
REMARK  status: ('A' for Active; 'I' for Inactive)
REMARK    5  A    between atoms: CA   and  CB  
REMARK    6  A    between atoms: CB   and  CG  
REMARK    7  A    between atoms: CG   and  CD  
REMARK    8  A    between atoms: CD   and  CE  
ROOT
ATOM      7  CA  LYS A 135      33.193  34.663   9.290  1.00 25.02     0.186 C 
ENDROOT
BRANCH   7   8
ATOM      8  CB  LYS A 135      32.060  35.360  10.034  1.00 26.63     0.034 C 
BRANCH   8   9
ATOM      9  CG  LYS A 135      30.700  34.783   9.738  1.00 29.45     0.005 C 
BRANCH   9  10
ATOM     10  CD  LYS A 135      30.498  34.627   8.239  1.00 32.00     0.041 C 
BRANCH  10  11
ATOM     11  CE  LYS A 135      29.050  34.886   7.867  1.00 34.25     0.338 C 
ATOM     12  NZ  LYS A 135      28.951  35.611   6.570  1.00 35.99     0.618 N 
ENDBRANCH  10  11
ENDBRANCH   9  10
ENDBRANCH   8   9
ENDBRANCH   7   8
END_RES LYS A 135
