REMARK VINA RESULT:    -6.026      0.000      0.000
REMARK INTER + INTRA:         -16.195
REMARK INTER:                  -8.836
REMARK INTRA:                  -7.359
REMARK UNBOUND:                -5.414
REMARK SMILES CC(=O)N[C@@H]1[C@@H](O)C[C@](O)(C(=O)O)O[C@H]1C(O)[C@H](O)CNC(=O)OCc1cn(-c2ccccc2C(N)=O)nn1
REMARK SMILES IDX 21 1 22 2 23 3 20 5 18 6 16 7 15 8 9 9 8 10 14 11 6 12 5 13
REMARK SMILES IDX 10 14 11 16 12 17 13 18 7 20 4 22 2 23 1 25 3 26 17 27 19 29
REMARK SMILES IDX 24 31 25 32 26 33 27 34 39 35 28 36 38 37 29 38 34 39 30 40
REMARK SMILES IDX 33 41 31 42 32 43 35 44 37 45 36 46
REMARK H PARENT 21 4 10 15 13 19 7 21 4 24 17 28 19 30 36 47 36 48
REMARK Flexibility Score: inf
ROOT
ATOM      1  N   UNL     1      25.235  28.024  17.791  1.00  0.00    -0.319 N 
ATOM      2  C   UNL     1      24.631  29.278  17.511  1.00  0.00     0.407 C 
ATOM      3  O   UNL     1      24.445  30.081  18.442  1.00  0.00    -0.225 OA
ATOM      4  H   UNL     1      25.364  27.387  16.953  1.00  0.00     0.167 HD
ENDROOT
BRANCH   1   5
ATOM      5  C   UNL     1      25.664  27.591  19.098  1.00  0.00     0.154 C 
BRANCH   5   6
ATOM      6  C   UNL     1      27.131  27.887  19.356  1.00  0.00     0.165 C 
BRANCH   6   7
ATOM      7  C   UNL     1      27.313  28.932  20.416  1.00  0.00     0.176 C 
BRANCH   7   8
ATOM      8  C   UNL     1      28.417  28.668  21.367  1.00  0.00     0.178 C 
ATOM      9  C   UNL     1      30.496  27.593  21.368  1.00  0.00     0.269 C 
ATOM     10  C   UNL     1      30.584  28.241  22.718  1.00  0.00     0.112 C 
ATOM     11  O   UNL     1      29.399  27.939  20.644  1.00  0.00    -0.332 OA
ATOM     12  C   UNL     1      29.339  28.137  23.531  1.00  0.00     0.145 C 
ATOM     13  C   UNL     1      28.155  27.901  22.599  1.00  0.00     0.142 C 
BRANCH   9  14
ATOM     14  O   UNL     1      30.625  26.192  21.520  1.00  0.00    -0.357 OA
ATOM     15  H   UNL     1      29.709  25.797  21.435  1.00  0.00     0.214 HD
ENDBRANCH   9  14
BRANCH   9  16
ATOM     16  C   UNL     1      31.703  28.024  20.605  1.00  0.00     0.364 C 
ATOM     17  O   UNL     1      32.218  29.148  20.890  1.00  0.00    -0.246 OA
BRANCH  16  18
ATOM     18  O   UNL     1      32.290  27.272  19.611  1.00  0.00    -0.477 OA
ATOM     19  H   UNL     1      33.265  27.379  19.382  1.00  0.00     0.296 HD
ENDBRANCH  16  18
ENDBRANCH   9  16
BRANCH  12  20
ATOM     20  O   UNL     1      29.480  27.103  24.442  1.00  0.00    -0.391 OA
ATOM     21  H   UNL     1      29.593  26.214  24.020  1.00  0.00     0.211 HD
ENDBRANCH  12  20
BRANCH  13  22
ATOM     22  N   UNL     1      26.908  28.037  23.248  1.00  0.00    -0.348 N 
ATOM     23  C   UNL     1      25.910  27.044  23.175  1.00  0.00     0.217 C 
ATOM     24  H   UNL     1      26.694  28.875  23.824  1.00  0.00     0.163 HD
ATOM     25  C   UNL     1      24.589  27.134  23.833  1.00  0.00     0.114 C 
ATOM     26  O   UNL     1      26.158  26.016  22.508  1.00  0.00    -0.275 OA
ENDBRANCH  13  22
ENDBRANCH   7   8
BRANCH   7  27
ATOM     27  O   UNL     1      27.130  30.232  20.005  1.00  0.00    -0.388 OA
ATOM     28  H   UNL     1      26.362  30.644  20.506  1.00  0.00     0.211 HD
ENDBRANCH   7  27
ENDBRANCH   6   7
BRANCH   6  29
ATOM     29  O   UNL     1      27.840  28.073  18.203  1.00  0.00    -0.388 OA
ATOM     30  H   UNL     1      27.470  28.828  17.668  1.00  0.00     0.211 HD
ENDBRANCH   6  29
ENDBRANCH   5   6
ENDBRANCH   1   5
BRANCH   2  31
ATOM     31  O   UNL     1      24.239  29.644  16.229  1.00  0.00    -0.443 OA
BRANCH  31  32
ATOM     32  C   UNL     1      24.836  30.727  15.537  1.00  0.00     0.294 C 
BRANCH  32  33
ATOM     33  C   UNL     1      26.322  30.679  15.684  1.00  0.00     0.121 A 
ATOM     34  C   UNL     1      27.156  31.778  15.766  1.00  0.00     0.144 A 
ATOM     35  N   UNL     1      27.113  29.598  15.763  1.00  0.00    -0.131 NA
ATOM     36  N   UNL     1      28.435  31.312  15.893  1.00  0.00    -0.220 N 
ATOM     37  N   UNL     1      28.374  30.012  15.889  1.00  0.00    -0.062 NA
BRANCH  36  38
ATOM     38  C   UNL     1      29.600  32.138  15.999  1.00  0.00     0.079 A 
ATOM     39  C   UNL     1      30.257  32.323  17.193  1.00  0.00     0.065 A 
ATOM     40  C   UNL     1      30.064  32.762  14.846  1.00  0.00     0.029 A 
ATOM     41  C   UNL     1      31.389  33.145  17.215  1.00  0.00     0.016 A 
ATOM     42  C   UNL     1      31.177  33.565  14.888  1.00  0.00     0.002 A 
ATOM     43  C   UNL     1      31.831  33.750  16.077  1.00  0.00     0.001 A 
BRANCH  39  44
ATOM     44  C   UNL     1      29.826  31.700  18.434  1.00  0.00     0.250 C 
ATOM     45  O   UNL     1      29.193  32.428  19.266  1.00  0.00    -0.269 OA
ATOM     46  N   UNL     1      30.081  30.337  18.744  1.00  0.00    -0.366 N 
ATOM     47  H   UNL     1      29.595  29.559  18.270  1.00  0.00     0.159 HD
ATOM     48  H   UNL     1      30.803  30.154  19.505  1.00  0.00     0.159 HD
ENDBRANCH  39  44
ENDBRANCH  36  38
ENDBRANCH  32  33
ENDBRANCH  31  32
ENDBRANCH   2  31
TORSDOF 16
BEGIN_RES LYS A 131
REMARK  4 active torsions:
REMARK  status: ('A' for Active; 'I' for Inactive)
REMARK    1  A    between atoms: CA   and  CB  
REMARK    2  A    between atoms: CB   and  CG  
REMARK    3  A    between atoms: CG   and  CD  
REMARK    4  A    between atoms: CD   and  CE  
ROOT
ATOM      1  CA  LYS A 131      29.867  25.555  16.977  1.00 20.52     0.186 C 
ENDROOT
BRANCH   1   2
ATOM      2  CB  LYS A 131      28.345  25.722  17.026  1.00 20.94     0.034 C 
BRANCH   2   3
ATOM      3  CG  LYS A 131      27.600  24.408  16.845  1.00 22.96     0.005 C 
BRANCH   3   4
ATOM      4  CD  LYS A 131      26.596  24.171  17.939  1.00 24.33     0.041 C 
BRANCH   4   5
ATOM      5  CE  LYS A 131      25.205  24.024  17.330  1.00 26.91     0.338 C 
ATOM      6  NZ  LYS A 131      24.713  22.636  17.489  1.00 27.40     0.618 N 
ENDBRANCH   4   5
ENDBRANCH   3   4
ENDBRANCH   2   3
ENDBRANCH   1   2
END_RES LYS A 131
BEGIN_RES LYS A 135
REMARK  4 active torsions:
REMARK  status: ('A' for Active; 'I' for Inactive)
REMARK    5  A    between atoms: CA   and  CB  
REMARK    6  A    between atoms: CB   and  CG  
REMARK    7  A    between atoms: CG   and  CD  
REMARK    8  A    between atoms: CD   and  CE  
ROOT
ATOM      7  CA  LYS A 135      33.193  34.663   9.290  1.00 25.02     0.186 C 
ENDROOT
BRANCH   7   8
ATOM      8  CB  LYS A 135      32.060  35.360  10.034  1.00 26.63     0.034 C 
BRANCH   8   9
ATOM      9  CG  LYS A 135      30.706  34.751   9.776  1.00 29.45     0.005 C 
BRANCH   9  10
ATOM     10  CD  LYS A 135      30.521  34.462   8.294  1.00 32.00     0.041 C 
BRANCH  10  11
ATOM     11  CE  LYS A 135      29.350  35.251   7.740  1.00 34.25     0.338 C 
ATOM     12  NZ  LYS A 135      28.053  34.674   8.191  1.00 35.99     0.618 N 
ENDBRANCH  10  11
ENDBRANCH   9  10
ENDBRANCH   8   9
ENDBRANCH   7   8
END_RES LYS A 135
