REMARK VINA RESULT:    -4.806      4.807     10.168
REMARK INTER + INTRA:         -15.351
REMARK INTER:                  -8.138
REMARK INTRA:                  -7.213
REMARK UNBOUND:                -5.909
REMARK SMILES CC(=O)N[C@@H]1[C@@H](O)C[C@](O)(C(=O)O)O[C@H]1C(O)[C@H](O)CNC(=O)OCc1cn(CCNC(=O)NCc2ccco2)nn1
REMARK SMILES IDX 24 1 22 2 21 3 23 5 20 6 18 7 16 8 15 9 9 10 8 11 14 12 6 13
REMARK SMILES IDX 5 14 10 15 11 17 12 18 13 19 7 21 4 23 2 24 1 26 3 27 17 28
REMARK SMILES IDX 19 30 25 32 26 33 27 34 42 35 28 36 41 37 29 38 30 39 31 40
REMARK SMILES IDX 32 41 33 43 34 44 35 46 36 47 37 48 40 49 38 50 39 51
REMARK H PARENT 21 4 10 16 13 20 7 22 4 25 17 29 19 31 31 42 34 45
REMARK Flexibility Score: inf
ROOT
ATOM      1  O   UNL     1      30.321  32.923  17.492  1.00  0.00    -0.443 OA
ENDROOT
BRANCH   1   2
ATOM      2  C   UNL     1      28.947  32.710  17.463  1.00  0.00     0.407 C 
ATOM      3  N   UNL     1      28.282  31.943  16.496  1.00  0.00    -0.319 N 
ATOM      4  H   UNL     1      28.817  31.491  15.740  1.00  0.00     0.167 HD
ATOM      5  O   UNL     1      28.261  33.248  18.372  1.00  0.00    -0.225 OA
BRANCH   3   6
ATOM      6  C   UNL     1      26.826  31.785  16.560  1.00  0.00     0.154 C 
BRANCH   6   7
ATOM      7  C   UNL     1      26.180  32.907  15.792  1.00  0.00     0.165 C 
BRANCH   7   8
ATOM      8  C   UNL     1      25.070  32.430  14.898  1.00  0.00     0.176 C 
BRANCH   8   9
ATOM      9  C   UNL     1      24.747  33.403  13.802  1.00  0.00     0.178 C 
ATOM     10  C   UNL     1      24.618  35.716  13.493  1.00  0.00     0.269 C 
ATOM     11  C   UNL     1      23.665  35.550  12.355  1.00  0.00     0.112 C 
ATOM     12  O   UNL     1      24.666  34.685  14.375  1.00  0.00    -0.332 OA
ATOM     13  C   UNL     1      23.336  34.160  11.990  1.00  0.00     0.145 C 
ATOM     14  C   UNL     1      23.396  33.199  13.163  1.00  0.00     0.142 C 
BRANCH  10  15
ATOM     15  O   UNL     1      24.142  36.836  14.221  1.00  0.00    -0.357 OA
ATOM     16  H   UNL     1      24.247  36.693  15.194  1.00  0.00     0.214 HD
ENDBRANCH  10  15
BRANCH  10  17
ATOM     17  C   UNL     1      25.992  36.060  13.050  1.00  0.00     0.364 C 
ATOM     18  O   UNL     1      26.223  36.493  11.886  1.00  0.00    -0.246 OA
BRANCH  17  19
ATOM     19  O   UNL     1      27.102  35.927  13.876  1.00  0.00    -0.477 OA
ATOM     20  H   UNL     1      26.982  35.657  14.847  1.00  0.00     0.296 HD
ENDBRANCH  17  19
ENDBRANCH  10  17
BRANCH  13  21
ATOM     21  O   UNL     1      22.053  34.110  11.404  1.00  0.00    -0.391 OA
ATOM     22  H   UNL     1      22.087  34.277  10.441  1.00  0.00     0.211 HD
ENDBRANCH  13  21
BRANCH  14  23
ATOM     23  N   UNL     1      23.102  31.872  12.743  1.00  0.00    -0.348 N 
ATOM     24  C   UNL     1      21.767  31.382  12.892  1.00  0.00     0.217 C 
ATOM     25  H   UNL     1      23.794  31.217  12.321  1.00  0.00     0.163 HD
ATOM     26  C   UNL     1      21.361  30.019  12.486  1.00  0.00     0.114 C 
ATOM     27  O   UNL     1      20.877  32.131  13.389  1.00  0.00    -0.275 OA
ENDBRANCH  14  23
ENDBRANCH   8   9
BRANCH   8  28
ATOM     28  O   UNL     1      25.226  31.125  14.467  1.00  0.00    -0.388 OA
ATOM     29  H   UNL     1      26.169  30.825  14.427  1.00  0.00     0.211 HD
ENDBRANCH   8  28
ENDBRANCH   7   8
BRANCH   7  30
ATOM     30  O   UNL     1      27.186  33.390  14.911  1.00  0.00    -0.388 OA
ATOM     31  H   UNL     1      27.225  32.689  14.190  1.00  0.00     0.211 HD
ENDBRANCH   7  30
ENDBRANCH   6   7
ENDBRANCH   3   6
ENDBRANCH   1   2
BRANCH   1  32
ATOM     32  C   UNL     1      31.142  32.585  16.393  1.00  0.00     0.294 C 
BRANCH  32  33
ATOM     33  C   UNL     1      30.882  33.555  15.307  1.00  0.00     0.120 A 
ATOM     34  C   UNL     1      31.555  34.721  15.063  1.00  0.00     0.138 A 
ATOM     35  N   UNL     1      29.932  33.453  14.364  1.00  0.00    -0.132 NA
ATOM     36  N   UNL     1      30.997  35.295  13.982  1.00  0.00    -0.250 N 
ATOM     37  N   UNL     1      30.011  34.520  13.559  1.00  0.00    -0.067 NA
BRANCH  36  38
ATOM     38  C   UNL     1      31.388  36.559  13.352  1.00  0.00     0.167 C 
BRANCH  38  39
ATOM     39  C   UNL     1      30.239  37.519  13.513  1.00  0.00     0.141 C 
BRANCH  39  40
ATOM     40  N   UNL     1      29.295  37.318  12.443  1.00  0.00    -0.336 N 
ATOM     41  C   UNL     1      29.233  38.113  11.274  1.00  0.00     0.315 C 
ATOM     42  H   UNL     1      28.590  36.530  12.508  1.00  0.00     0.165 HD
ATOM     43  O   UNL     1      30.062  39.065  11.153  1.00  0.00    -0.249 OA
ATOM     44  N   UNL     1      28.263  37.836  10.276  1.00  0.00    -0.331 N 
ATOM     45  H   UNL     1      27.575  37.064  10.350  1.00  0.00     0.165 HD
BRANCH  44  46
ATOM     46  C   UNL     1      28.231  38.670   9.096  1.00  0.00     0.193 C 
BRANCH  46  47
ATOM     47  C   UNL     1      28.144  37.796   7.907  1.00  0.00     0.122 A 
ATOM     48  C   UNL     1      27.033  37.018   7.596  1.00  0.00     0.047 A 
ATOM     49  O   UNL     1      29.048  37.614   6.996  1.00  0.00    -0.467 OA
ATOM     50  C   UNL     1      27.358  36.365   6.427  1.00  0.00     0.042 A 
ATOM     51  C   UNL     1      28.633  36.777   6.096  1.00  0.00     0.195 A 
ENDBRANCH  46  47
ENDBRANCH  44  46
ENDBRANCH  39  40
ENDBRANCH  38  39
ENDBRANCH  36  38
ENDBRANCH  32  33
ENDBRANCH   1  32
TORSDOF 19
BEGIN_RES LYS A 131
REMARK  4 active torsions:
REMARK  status: ('A' for Active; 'I' for Inactive)
REMARK    1  A    between atoms: CA   and  CB  
REMARK    2  A    between atoms: CB   and  CG  
REMARK    3  A    between atoms: CG   and  CD  
REMARK    4  A    between atoms: CD   and  CE  
ROOT
ATOM      1  CA  LYS A 131      29.867  25.555  16.977  1.00 20.52     0.186 C 
ENDROOT
BRANCH   1   2
ATOM      2  CB  LYS A 131      28.345  25.722  17.026  1.00 20.94     0.034 C 
BRANCH   2   3
ATOM      3  CG  LYS A 131      27.601  24.403  16.886  1.00 22.96     0.005 C 
BRANCH   3   4
ATOM      4  CD  LYS A 131      26.557  24.225  17.953  1.00 24.33     0.041 C 
BRANCH   4   5
ATOM      5  CE  LYS A 131      25.207  23.942  17.303  1.00 26.91     0.338 C 
ATOM      6  NZ  LYS A 131      24.798  22.539  17.546  1.00 27.40     0.618 N 
ENDBRANCH   4   5
ENDBRANCH   3   4
ENDBRANCH   2   3
ENDBRANCH   1   2
END_RES LYS A 131
BEGIN_RES LYS A 135
REMARK  4 active torsions:
REMARK  status: ('A' for Active; 'I' for Inactive)
REMARK    5  A    between atoms: CA   and  CB  
REMARK    6  A    between atoms: CB   and  CG  
REMARK    7  A    between atoms: CG   and  CD  
REMARK    8  A    between atoms: CD   and  CE  
ROOT
ATOM      7  CA  LYS A 135      33.193  34.663   9.290  1.00 25.02     0.186 C 
ENDROOT
BRANCH   7   8
ATOM      8  CB  LYS A 135      32.060  35.360  10.034  1.00 26.63     0.034 C 
BRANCH   8   9
ATOM      9  CG  LYS A 135      30.817  35.544   9.203  1.00 29.45     0.005 C 
BRANCH   9  10
ATOM     10  CD  LYS A 135      30.285  34.201   8.728  1.00 32.00     0.041 C 
BRANCH  10  11
ATOM     11  CE  LYS A 135      28.799  34.087   9.009  1.00 34.25     0.338 C 
ATOM     12  NZ  LYS A 135      28.507  34.314  10.451  1.00 35.99     0.618 N 
ENDBRANCH  10  11
ENDBRANCH   9  10
ENDBRANCH   8   9
ENDBRANCH   7   8
END_RES LYS A 135
