REMARK VINA RESULT:    -4.360      5.521     10.407
REMARK INTER + INTRA:         -13.831
REMARK INTER:                  -8.208
REMARK INTRA:                  -5.623
REMARK UNBOUND:                -6.285
REMARK SMILES CC(=O)N[C@@H]1[C@@H](O)C[C@](O)(C(=O)O)O[C@H]1C(O)[C@H](O)CNC(=O)OCc1cn(-c2ccccc2I)nn1
REMARK SMILES IDX 20 1 18 2 16 3 15 4 9 5 8 6 14 7 6 8 5 9 10 10 11 12 12 13
REMARK SMILES IDX 13 14 7 16 4 18 2 19 1 21 3 22 17 23 19 25 21 27 22 28 23 30
REMARK SMILES IDX 24 31 25 32 26 33 27 34 37 35 28 36 36 37 29 38 30 39 34 40
REMARK SMILES IDX 31 41 33 42 35 43 32 44
REMARK H PARENT 10 11 13 15 7 17 4 20 17 24 19 26 21 29
REMARK Flexibility Score: inf
ROOT
ATOM      1  C   UNL     1      24.554  37.963   9.295  1.00  0.00     0.154 C 
ENDROOT
BRANCH   1   2
ATOM      2  C   UNL     1      24.482  37.522   7.851  1.00  0.00     0.165 C 
BRANCH   2   3
ATOM      3  C   UNL     1      25.840  37.229   7.319  1.00  0.00     0.176 C 
BRANCH   3   4
ATOM      4  C   UNL     1      26.856  38.332   7.466  1.00  0.00     0.178 C 
ATOM      5  C   UNL     1      27.755  38.970   5.383  1.00  0.00     0.269 C 
ATOM      6  C   UNL     1      29.164  38.751   5.893  1.00  0.00     0.112 C 
ATOM      7  O   UNL     1      26.810  39.081   6.338  1.00  0.00    -0.332 OA
ATOM      8  C   UNL     1      29.111  37.583   6.843  1.00  0.00     0.145 C 
ATOM      9  C   UNL     1      28.186  37.946   7.977  1.00  0.00     0.142 C 
BRANCH   5  10
ATOM     10  O   UNL     1      27.462  37.858   4.594  1.00  0.00    -0.357 OA
ATOM     11  H   UNL     1      27.157  38.212   3.706  1.00  0.00     0.214 HD
ENDBRANCH   5  10
BRANCH   5  12
ATOM     12  C   UNL     1      27.805  40.157   4.472  1.00  0.00     0.364 C 
ATOM     13  O   UNL     1      28.815  40.885   4.352  1.00  0.00    -0.246 OA
BRANCH  12  14
ATOM     14  O   UNL     1      26.682  40.459   3.732  1.00  0.00    -0.477 OA
ATOM     15  H   UNL     1      26.185  39.768   3.167  1.00  0.00     0.296 HD
ENDBRANCH  12  14
ENDBRANCH   5  12
BRANCH   8  16
ATOM     16  O   UNL     1      28.659  36.487   6.105  1.00  0.00    -0.391 OA
ATOM     17  H   UNL     1      27.941  36.733   5.471  1.00  0.00     0.211 HD
ENDBRANCH   8  16
BRANCH   9  18
ATOM     18  N   UNL     1      28.810  39.087   8.672  1.00  0.00    -0.348 N 
ATOM     19  C   UNL     1      28.545  39.370  10.034  1.00  0.00     0.217 C 
ATOM     20  H   UNL     1      29.464  39.711   8.160  1.00  0.00     0.163 HD
ATOM     21  C   UNL     1      29.212  40.535  10.659  1.00  0.00     0.114 C 
ATOM     22  O   UNL     1      27.755  38.648  10.712  1.00  0.00    -0.275 OA
ENDBRANCH   9  18
ENDBRANCH   3   4
BRANCH   3  23
ATOM     23  O   UNL     1      26.308  35.976   7.690  1.00  0.00    -0.388 OA
ATOM     24  H   UNL     1      25.889  35.665   8.541  1.00  0.00     0.211 HD
ENDBRANCH   3  23
ENDBRANCH   2   3
BRANCH   2  25
ATOM     25  O   UNL     1      23.878  38.604   7.159  1.00  0.00    -0.388 OA
ATOM     26  H   UNL     1      24.365  39.444   7.384  1.00  0.00     0.211 HD
ENDBRANCH   2  25
ENDBRANCH   1   2
BRANCH   1  27
ATOM     27  N   UNL     1      25.247  37.032  10.156  1.00  0.00    -0.319 N 
ATOM     28  C   UNL     1      24.479  36.122  10.949  1.00  0.00     0.407 C 
ATOM     29  H   UNL     1      26.281  37.043  10.171  1.00  0.00     0.167 HD
ATOM     30  O   UNL     1      23.240  36.167  10.867  1.00  0.00    -0.225 OA
BRANCH  28  31
ATOM     31  O   UNL     1      25.168  35.240  11.764  1.00  0.00    -0.443 OA
BRANCH  31  32
ATOM     32  C   UNL     1      25.148  35.445  13.153  1.00  0.00     0.294 C 
BRANCH  32  33
ATOM     33  C   UNL     1      26.500  35.889  13.572  1.00  0.00     0.121 A 
ATOM     34  C   UNL     1      27.662  35.682  12.820  1.00  0.00     0.144 A 
ATOM     35  N   UNL     1      26.890  36.535  14.677  1.00  0.00    -0.131 NA
ATOM     36  N   UNL     1      28.651  36.224  13.538  1.00  0.00    -0.219 N 
ATOM     37  N   UNL     1      28.196  36.741  14.663  1.00  0.00    -0.062 NA
BRANCH  36  38
ATOM     38  C   UNL     1      30.014  36.244  13.151  1.00  0.00     0.080 A 
ATOM     39  C   UNL     1      30.488  37.327  12.412  1.00  0.00     0.029 A 
ATOM     40  C   UNL     1      30.830  35.207  13.510  1.00  0.00     0.039 A 
ATOM     41  C   UNL     1      31.813  37.355  12.031  1.00  0.00     0.002 A 
ATOM     42  C   UNL     1      32.156  35.254  13.118  1.00  0.00     0.017 A 
ATOM     43  I   UNL     1      30.159  33.551  14.625  1.00  0.00    -0.042 I 
ATOM     44  C   UNL     1      32.648  36.318  12.384  1.00  0.00     0.001 A 
ENDBRANCH  36  38
ENDBRANCH  32  33
ENDBRANCH  31  32
ENDBRANCH  28  31
ENDBRANCH   1  27
TORSDOF 15
BEGIN_RES LYS A 131
REMARK  4 active torsions:
REMARK  status: ('A' for Active; 'I' for Inactive)
REMARK    1  A    between atoms: CA   and  CB  
REMARK    2  A    between atoms: CB   and  CG  
REMARK    3  A    between atoms: CG   and  CD  
REMARK    4  A    between atoms: CD   and  CE  
ROOT
ATOM      1  CA  LYS A 131      29.867  25.555  16.977  1.00 20.52     0.186 C 
ENDROOT
BRANCH   1   2
ATOM      2  CB  LYS A 131      28.345  25.722  17.026  1.00 20.94     0.034 C 
BRANCH   2   3
ATOM      3  CG  LYS A 131      27.600  24.410  16.830  1.00 22.96     0.005 C 
BRANCH   3   4
ATOM      4  CD  LYS A 131      26.328  24.357  17.630  1.00 24.33     0.041 C 
BRANCH   4   5
ATOM      5  CE  LYS A 131      26.044  25.731  18.228  1.00 26.91     0.338 C 
ATOM      6  NZ  LYS A 131      25.813  25.624  19.687  1.00 27.40     0.618 N 
ENDBRANCH   4   5
ENDBRANCH   3   4
ENDBRANCH   2   3
ENDBRANCH   1   2
END_RES LYS A 131
BEGIN_RES LYS A 135
REMARK  4 active torsions:
REMARK  status: ('A' for Active; 'I' for Inactive)
REMARK    5  A    between atoms: CA   and  CB  
REMARK    6  A    between atoms: CB   and  CG  
REMARK    7  A    between atoms: CG   and  CD  
REMARK    8  A    between atoms: CD   and  CE  
ROOT
ATOM      7  CA  LYS A 135      33.193  34.663   9.290  1.00 25.02     0.186 C 
ENDROOT
BRANCH   7   8
ATOM      8  CB  LYS A 135      32.060  35.360  10.034  1.00 26.63     0.034 C 
BRANCH   8   9
ATOM      9  CG  LYS A 135      30.773  35.420   9.252  1.00 29.45     0.005 C 
BRANCH   9  10
ATOM     10  CD  LYS A 135      30.153  34.036   9.133  1.00 32.00     0.041 C 
BRANCH  10  11
ATOM     11  CE  LYS A 135      28.700  34.138   8.709  1.00 34.25     0.338 C 
ATOM     12  NZ  LYS A 135      27.791  33.688   9.799  1.00 35.99     0.618 N 
ENDBRANCH  10  11
ENDBRANCH   9  10
ENDBRANCH   8   9
ENDBRANCH   7   8
END_RES LYS A 135
