REMARK VINA RESULT:    -3.630      3.112      6.952
REMARK INTER + INTRA:         -14.289
REMARK INTER:                  -7.646
REMARK INTRA:                  -6.644
REMARK UNBOUND:                -7.158
REMARK SMILES CCN(CC)CCn1cc(COC(=O)NC[C@@H](O)C(O)[C@@H]2O[C@@](O)(C(=O)O)C[C@H](O)[C@H]2NC(C)=O)nn1
REMARK SMILES IDX 15 1 13 2 14 3 16 5 17 6 19 7 21 8 23 9 28 10 22 11 29 12
REMARK SMILES IDX 31 13 24 14 25 16 26 17 27 18 30 20 32 22 33 23 34 25 35 26
REMARK SMILES IDX 20 27 18 29 12 31 11 32 10 33 9 34 36 35 8 36 37 37 7 38
REMARK SMILES IDX 6 39 3 40 2 41 1 42 4 43 5 44
REMARK H PARENT 15 4 24 15 27 19 30 21 32 24 20 28 18 30
REMARK Flexibility Score: inf
ROOT
ATOM      1  N   UNL     1      28.451  29.628  16.343  1.00  0.00    -0.319 N 
ATOM      2  C   UNL     1      27.036  29.527  16.505  1.00  0.00     0.407 C 
ATOM      3  O   UNL     1      26.277  30.237  15.824  1.00  0.00    -0.225 OA
ATOM      4  H   UNL     1      29.021  29.008  16.944  1.00  0.00     0.167 HD
ENDROOT
BRANCH   1   5
ATOM      5  C   UNL     1      29.084  30.519  15.421  1.00  0.00     0.154 C 
BRANCH   5   6
ATOM      6  C   UNL     1      29.966  31.547  16.073  1.00  0.00     0.165 C 
BRANCH   6   7
ATOM      7  C   UNL     1      29.212  32.846  16.257  1.00  0.00     0.176 C 
BRANCH   7   8
ATOM      8  C   UNL     1      28.594  33.314  14.971  1.00  0.00     0.178 C 
ATOM      9  C   UNL     1      30.268  34.868  14.408  1.00  0.00     0.269 C 
ATOM     10  C   UNL     1      29.371  35.979  14.936  1.00  0.00     0.112 C 
ATOM     11  O   UNL     1      29.589  33.722  14.118  1.00  0.00    -0.332 OA
ATOM     12  C   UNL     1      27.947  35.630  14.487  1.00  0.00     0.145 C 
ATOM     13  C   UNL     1      27.566  34.370  15.177  1.00  0.00     0.142 C 
BRANCH   9  14
ATOM     14  O   UNL     1      31.321  34.726  15.309  1.00  0.00    -0.357 OA
ATOM     15  H   UNL     1      31.456  33.767  15.553  1.00  0.00     0.214 HD
ENDBRANCH   9  14
BRANCH   9  16
ATOM     16  C   UNL     1      30.854  35.352  13.118  1.00  0.00     0.364 C 
ATOM     17  O   UNL     1      30.653  36.506  12.683  1.00  0.00    -0.246 OA
BRANCH  16  18
ATOM     18  O   UNL     1      31.645  34.493  12.384  1.00  0.00    -0.477 OA
ATOM     19  H   UNL     1      32.343  33.881  12.797  1.00  0.00     0.296 HD
ENDBRANCH  16  18
ENDBRANCH   9  16
BRANCH  12  20
ATOM     20  O   UNL     1      27.127  36.710  14.813  1.00  0.00    -0.391 OA
ATOM     21  H   UNL     1      26.700  36.474  15.697  1.00  0.00     0.211 HD
ENDBRANCH  12  20
BRANCH  13  22
ATOM     22  N   UNL     1      26.224  33.925  14.851  1.00  0.00    -0.348 N 
ATOM     23  C   UNL     1      25.245  33.614  15.837  1.00  0.00     0.217 C 
ATOM     24  H   UNL     1      25.910  33.812  13.846  1.00  0.00     0.163 HD
ATOM     25  C   UNL     1      23.874  33.158  15.443  1.00  0.00     0.114 C 
ATOM     26  O   UNL     1      25.520  33.717  17.048  1.00  0.00    -0.275 OA
ENDBRANCH  13  22
ENDBRANCH   7   8
BRANCH   7  27
ATOM     27  O   UNL     1      28.240  32.556  17.231  1.00  0.00    -0.388 OA
ATOM     28  H   UNL     1      27.467  32.184  16.729  1.00  0.00     0.211 HD
ENDBRANCH   7  27
ENDBRANCH   6   7
BRANCH   6  29
ATOM     29  O   UNL     1      31.152  31.659  15.407  1.00  0.00    -0.388 OA
ATOM     30  H   UNL     1      31.210  30.965  14.704  1.00  0.00     0.211 HD
ENDBRANCH   6  29
ENDBRANCH   5   6
ENDBRANCH   1   5
BRANCH   2  31
ATOM     31  O   UNL     1      26.453  28.652  17.406  1.00  0.00    -0.443 OA
BRANCH  31  32
ATOM     32  C   UNL     1      25.751  29.105  18.556  1.00  0.00     0.294 C 
BRANCH  32  33
ATOM     33  C   UNL     1      26.629  30.058  19.281  1.00  0.00     0.120 A 
ATOM     34  C   UNL     1      27.751  29.669  20.013  1.00  0.00     0.138 A 
ATOM     35  N   UNL     1      26.572  31.391  19.401  1.00  0.00    -0.132 NA
ATOM     36  N   UNL     1      28.304  30.764  20.528  1.00  0.00    -0.251 N 
ATOM     37  N   UNL     1      27.582  31.797  20.150  1.00  0.00    -0.067 NA
BRANCH  36  38
ATOM     38  C   UNL     1      29.480  30.816  21.353  1.00  0.00     0.161 C 
BRANCH  38  39
ATOM     39  C   UNL     1      30.696  30.543  20.486  1.00  0.00     0.108 C 
BRANCH  39  40
ATOM     40  N   UNL     1      31.708  29.782  21.144  1.00  0.00    -0.302 NA
BRANCH  40  41
ATOM     41  C   UNL     1      31.257  28.577  21.756  1.00  0.00     0.081 C 
ATOM     42  C   UNL     1      31.590  27.432  20.788  1.00  0.00     0.021 C 
ENDBRANCH  40  41
BRANCH  40  43
ATOM     43  C   UNL     1      32.627  30.573  21.890  1.00  0.00     0.081 C 
ATOM     44  C   UNL     1      34.008  30.001  21.969  1.00  0.00     0.021 C 
ENDBRANCH  40  43
ENDBRANCH  39  40
ENDBRANCH  38  39
ENDBRANCH  36  38
ENDBRANCH  32  33
ENDBRANCH  31  32
ENDBRANCH   2  31
TORSDOF 19
BEGIN_RES LYS A 131
REMARK  4 active torsions:
REMARK  status: ('A' for Active; 'I' for Inactive)
REMARK    1  A    between atoms: CA   and  CB  
REMARK    2  A    between atoms: CB   and  CG  
REMARK    3  A    between atoms: CG   and  CD  
REMARK    4  A    between atoms: CD   and  CE  
ROOT
ATOM      1  CA  LYS A 131      29.867  25.555  16.977  1.00 20.52     0.186 C 
ENDROOT
BRANCH   1   2
ATOM      2  CB  LYS A 131      28.345  25.722  17.026  1.00 20.94     0.034 C 
BRANCH   2   3
ATOM      3  CG  LYS A 131      27.601  24.403  16.887  1.00 22.96     0.005 C 
BRANCH   3   4
ATOM      4  CD  LYS A 131      26.186  24.495  17.385  1.00 24.33     0.041 C 
BRANCH   4   5
ATOM      5  CE  LYS A 131      26.154  25.295  18.684  1.00 26.91     0.338 C 
ATOM      6  NZ  LYS A 131      24.760  25.648  19.042  1.00 27.40     0.618 N 
ENDBRANCH   4   5
ENDBRANCH   3   4
ENDBRANCH   2   3
ENDBRANCH   1   2
END_RES LYS A 131
BEGIN_RES LYS A 135
REMARK  4 active torsions:
REMARK  status: ('A' for Active; 'I' for Inactive)
REMARK    5  A    between atoms: CA   and  CB  
REMARK    6  A    between atoms: CB   and  CG  
REMARK    7  A    between atoms: CG   and  CD  
REMARK    8  A    between atoms: CD   and  CE  
ROOT
ATOM      7  CA  LYS A 135      33.193  34.663   9.290  1.00 25.02     0.186 C 
ENDROOT
BRANCH   7   8
ATOM      8  CB  LYS A 135      32.060  35.360  10.034  1.00 26.63     0.034 C 
BRANCH   8   9
ATOM      9  CG  LYS A 135      30.817  35.546   9.202  1.00 29.45     0.005 C 
BRANCH   9  10
ATOM     10  CD  LYS A 135      30.214  34.200   8.830  1.00 32.00     0.041 C 
BRANCH  10  11
ATOM     11  CE  LYS A 135      28.725  34.335   8.577  1.00 34.25     0.338 C 
ATOM     12  NZ  LYS A 135      27.936  33.684   9.659  1.00 35.99     0.618 N 
ENDBRANCH  10  11
ENDBRANCH   9  10
ENDBRANCH   8   9
ENDBRANCH   7   8
END_RES LYS A 135
