REMARK VINA RESULT:    -4.821      0.000      0.000
REMARK INTER + INTRA:         -15.430
REMARK INTER:                  -8.709
REMARK INTRA:                  -6.721
REMARK UNBOUND:                -6.804
REMARK SMILES CC(=O)N[C@@H]1[C@@H](O)C[C@](O)(C(=O)O)O[C@H]1C(O)[C@H](O)CNC(=O)OCc1cn(-c2ccccc2C(C)=O)nn1
REMARK SMILES IDX 21 1 22 2 23 3 20 5 18 6 16 7 15 8 9 9 8 10 14 11 6 12 5 13
REMARK SMILES IDX 10 14 11 16 12 17 13 18 7 20 4 22 2 23 1 25 3 26 17 27 19 29
REMARK SMILES IDX 24 31 25 32 26 33 27 34 39 35 28 36 38 37 29 38 34 39 30 40
REMARK SMILES IDX 33 41 31 42 32 43 35 44 37 45 36 46
REMARK H PARENT 21 4 10 15 13 19 7 21 4 24 17 28 19 30
REMARK Flexibility Score: inf
ROOT
ATOM      1  N   UNL     1      29.356  31.844  18.085  1.00  0.00    -0.319 N 
ATOM      2  C   UNL     1      28.245  32.709  18.371  1.00  0.00     0.407 C 
ATOM      3  O   UNL     1      28.309  33.912  18.019  1.00  0.00    -0.225 OA
ATOM      4  H   UNL     1      29.262  30.853  18.385  1.00  0.00     0.167 HD
ENDROOT
BRANCH   1   5
ATOM      5  C   UNL     1      30.516  32.365  17.423  1.00  0.00     0.154 C 
BRANCH   5   6
ATOM      6  C   UNL     1      30.765  31.880  16.033  1.00  0.00     0.165 C 
BRANCH   6   7
ATOM      7  C   UNL     1      30.037  32.648  14.970  1.00  0.00     0.176 C 
BRANCH   7   8
ATOM      8  C   UNL     1      30.743  33.894  14.503  1.00  0.00     0.178 C 
ATOM      9  C   UNL     1      32.685  35.125  14.715  1.00  0.00     0.269 C 
ATOM     10  C   UNL     1      31.956  36.405  15.080  1.00  0.00     0.112 C 
ATOM     11  O   UNL     1      31.956  34.052  15.079  1.00  0.00    -0.332 OA
ATOM     12  C   UNL     1      30.555  36.146  15.523  1.00  0.00     0.145 C 
ATOM     13  C   UNL     1      29.860  35.102  14.730  1.00  0.00     0.142 C 
BRANCH   9  14
ATOM     14  O   UNL     1      33.878  35.179  15.514  1.00  0.00    -0.357 OA
ATOM     15  H   UNL     1      34.541  34.525  15.132  1.00  0.00     0.214 HD
ENDBRANCH   9  14
BRANCH   9  16
ATOM     16  C   UNL     1      33.154  35.210  13.328  1.00  0.00     0.364 C 
ATOM     17  O   UNL     1      32.673  35.997  12.482  1.00  0.00    -0.246 OA
BRANCH  16  18
ATOM     18  O   UNL     1      34.192  34.397  12.867  1.00  0.00    -0.477 OA
ATOM     19  H   UNL     1      34.846  34.743  12.174  1.00  0.00     0.296 HD
ENDBRANCH  16  18
ENDBRANCH   9  16
BRANCH  12  20
ATOM     20  O   UNL     1      30.591  35.737  16.867  1.00  0.00    -0.391 OA
ATOM     21  H   UNL     1      31.490  35.821  17.265  1.00  0.00     0.211 HD
ENDBRANCH  12  20
BRANCH  13  22
ATOM     22  N   UNL     1      29.282  35.635  13.538  1.00  0.00    -0.348 N 
ATOM     23  C   UNL     1      27.922  36.045  13.453  1.00  0.00     0.217 C 
ATOM     24  H   UNL     1      29.868  35.738  12.689  1.00  0.00     0.163 HD
ATOM     25  C   UNL     1      27.368  36.593  12.188  1.00  0.00     0.114 C 
ATOM     26  O   UNL     1      27.148  35.957  14.441  1.00  0.00    -0.275 OA
ENDBRANCH  13  22
ENDBRANCH   7   8
BRANCH   7  27
ATOM     27  O   UNL     1      28.690  32.781  15.188  1.00  0.00    -0.388 OA
ATOM     28  H   UNL     1      28.272  33.017  14.307  1.00  0.00     0.211 HD
ENDBRANCH   7  27
ENDBRANCH   6   7
BRANCH   6  29
ATOM     29  O   UNL     1      30.187  30.545  15.989  1.00  0.00    -0.388 OA
ATOM     30  H   UNL     1      29.256  30.696  16.304  1.00  0.00     0.211 HD
ENDBRANCH   6  29
ENDBRANCH   5   6
ENDBRANCH   1   5
BRANCH   2  31
ATOM     31  O   UNL     1      27.110  32.281  19.016  1.00  0.00    -0.443 OA
BRANCH  31  32
ATOM     32  C   UNL     1      26.549  30.992  18.776  1.00  0.00     0.294 C 
BRANCH  32  33
ATOM     33  C   UNL     1      26.199  30.812  17.345  1.00  0.00     0.121 A 
ATOM     34  C   UNL     1      24.956  30.818  16.768  1.00  0.00     0.144 A 
ATOM     35  N   UNL     1      27.072  30.601  16.322  1.00  0.00    -0.131 NA
ATOM     36  N   UNL     1      25.114  30.611  15.419  1.00  0.00    -0.220 N 
ATOM     37  N   UNL     1      26.408  30.486  15.201  1.00  0.00    -0.062 NA
BRANCH  36  38
ATOM     38  C   UNL     1      24.110  30.494  14.425  1.00  0.00     0.077 A 
ATOM     39  C   UNL     1      23.654  31.509  13.657  1.00  0.00     0.043 A 
ATOM     40  C   UNL     1      23.600  29.185  14.272  1.00  0.00     0.029 A 
ATOM     41  C   UNL     1      22.666  31.244  12.704  1.00  0.00     0.014 A 
ATOM     42  C   UNL     1      22.630  28.939  13.332  1.00  0.00     0.002 A 
ATOM     43  C   UNL     1      22.180  29.979  12.562  1.00  0.00     0.001 A 
BRANCH  39  44
ATOM     44  C   UNL     1      24.117  32.876  13.758  1.00  0.00     0.161 C 
ATOM     45  O   UNL     1      23.634  33.576  14.737  1.00  0.00    -0.294 OA
ATOM     46  C   UNL     1      25.066  33.571  12.888  1.00  0.00     0.093 C 
ENDBRANCH  39  44
ENDBRANCH  36  38
ENDBRANCH  32  33
ENDBRANCH  31  32
ENDBRANCH   2  31
TORSDOF 16
BEGIN_RES LYS A 131
REMARK  4 active torsions:
REMARK  status: ('A' for Active; 'I' for Inactive)
REMARK    1  A    between atoms: CA   and  CB  
REMARK    2  A    between atoms: CB   and  CG  
REMARK    3  A    between atoms: CG   and  CD  
REMARK    4  A    between atoms: CD   and  CE  
ROOT
ATOM      1  CA  LYS A 131      29.867  25.555  16.977  1.00 20.52     0.186 C 
ENDROOT
BRANCH   1   2
ATOM      2  CB  LYS A 131      28.345  25.722  17.026  1.00 20.94     0.034 C 
BRANCH   2   3
ATOM      3  CG  LYS A 131      27.602  24.398  16.931  1.00 22.96     0.005 C 
BRANCH   3   4
ATOM      4  CD  LYS A 131      26.150  24.536  17.294  1.00 24.33     0.041 C 
BRANCH   4   5
ATOM      5  CE  LYS A 131      26.005  24.559  18.813  1.00 26.91     0.338 C 
ATOM      6  NZ  LYS A 131      25.522  23.248  19.307  1.00 27.40     0.618 N 
ENDBRANCH   4   5
ENDBRANCH   3   4
ENDBRANCH   2   3
ENDBRANCH   1   2
END_RES LYS A 131
BEGIN_RES LYS A 135
REMARK  4 active torsions:
REMARK  status: ('A' for Active; 'I' for Inactive)
REMARK    5  A    between atoms: CA   and  CB  
REMARK    6  A    between atoms: CB   and  CG  
REMARK    7  A    between atoms: CG   and  CD  
REMARK    8  A    between atoms: CD   and  CE  
ROOT
ATOM      7  CA  LYS A 135      33.193  34.663   9.290  1.00 25.02     0.186 C 
ENDROOT
BRANCH   7   8
ATOM      8  CB  LYS A 135      32.060  35.360  10.034  1.00 26.63     0.034 C 
BRANCH   8   9
ATOM      9  CG  LYS A 135      30.701  34.779   9.742  1.00 29.45     0.005 C 
BRANCH   9  10
ATOM     10  CD  LYS A 135      30.541  34.507   8.255  1.00 32.00     0.041 C 
BRANCH  10  11
ATOM     11  CE  LYS A 135      29.150  34.892   7.789  1.00 34.25     0.338 C 
ATOM     12  NZ  LYS A 135      28.317  35.371   8.926  1.00 35.99     0.618 N 
ENDBRANCH  10  11
ENDBRANCH   9  10
ENDBRANCH   8   9
ENDBRANCH   7   8
END_RES LYS A 135
