REMARK VINA RESULT:    -4.567      7.488     12.996
REMARK INTER + INTRA:         -14.980
REMARK INTER:                  -8.828
REMARK INTRA:                  -6.152
REMARK UNBOUND:                -6.275
REMARK SMILES CC(=O)N[C@@H]1[C@@H](O)C[C@](O)(C(=O)O)O[C@H]1C(O)[C@H](O)CNC(=O)OCc1cn(Cc2ccccc2OC(C)=O)nn1
REMARK SMILES IDX 21 1 22 2 23 3 20 5 18 6 16 7 15 8 9 9 8 10 14 11 6 12 5 13
REMARK SMILES IDX 10 14 11 16 12 17 13 18 7 20 4 22 2 23 1 25 3 26 17 27 19 29
REMARK SMILES IDX 24 31 25 32 26 33 27 34 41 35 28 36 40 37 29 38 30 39 35 40
REMARK SMILES IDX 31 41 34 42 32 43 33 44 36 45 37 46 39 47 38 48
REMARK H PARENT 21 4 10 15 13 19 7 21 4 24 17 28 19 30
REMARK Flexibility Score: inf
ROOT
ATOM      1  N   UNL     1      30.156  30.762  17.927  1.00  0.00    -0.319 N 
ATOM      2  C   UNL     1      29.180  30.541  18.944  1.00  0.00     0.407 C 
ATOM      3  O   UNL     1      27.976  30.698  18.651  1.00  0.00    -0.225 OA
ATOM      4  H   UNL     1      31.154  30.630  18.183  1.00  0.00     0.167 HD
ENDROOT
BRANCH   1   5
ATOM      5  C   UNL     1      29.765  31.159  16.601  1.00  0.00     0.154 C 
BRANCH   5   6
ATOM      6  C   UNL     1      30.879  32.036  16.018  1.00  0.00     0.165 C 
BRANCH   6   7
ATOM      7  C   UNL     1      30.802  33.402  16.642  1.00  0.00     0.176 C 
BRANCH   7   8
ATOM      8  C   UNL     1      31.310  34.422  15.660  1.00  0.00     0.178 C 
ATOM      9  C   UNL     1      33.076  34.808  14.196  1.00  0.00     0.269 C 
ATOM     10  C   UNL     1      33.618  35.922  15.060  1.00  0.00     0.112 C 
ATOM     11  O   UNL     1      32.420  33.933  15.046  1.00  0.00    -0.332 OA
ATOM     12  C   UNL     1      32.468  36.649  15.669  1.00  0.00     0.145 C 
ATOM     13  C   UNL     1      31.456  35.747  16.319  1.00  0.00     0.142 C 
BRANCH   9  14
ATOM     14  O   UNL     1      34.210  34.115  13.722  1.00  0.00    -0.357 OA
ATOM     15  H   UNL     1      34.103  33.843  12.783  1.00  0.00     0.214 HD
ENDBRANCH   9  14
BRANCH   9  16
ATOM     16  C   UNL     1      32.255  35.281  13.064  1.00  0.00     0.364 C 
ATOM     17  O   UNL     1      31.144  34.790  12.748  1.00  0.00    -0.246 OA
BRANCH  16  18
ATOM     18  O   UNL     1      32.717  36.328  12.289  1.00  0.00    -0.477 OA
ATOM     19  H   UNL     1      32.107  36.961  11.767  1.00  0.00     0.296 HD
ENDBRANCH  16  18
ENDBRANCH   9  16
BRANCH  12  20
ATOM     20  O   UNL     1      33.004  37.544  16.622  1.00  0.00    -0.391 OA
ATOM     21  H   UNL     1      32.278  37.781  17.271  1.00  0.00     0.211 HD
ENDBRANCH  12  20
BRANCH  13  22
ATOM     22  N   UNL     1      30.171  36.421  16.293  1.00  0.00    -0.348 N 
ATOM     23  C   UNL     1      29.379  36.588  17.469  1.00  0.00     0.217 C 
ATOM     24  H   UNL     1      29.791  36.805  15.402  1.00  0.00     0.163 HD
ATOM     25  C   UNL     1      28.076  37.284  17.385  1.00  0.00     0.114 C 
ATOM     26  O   UNL     1      29.793  36.146  18.562  1.00  0.00    -0.275 OA
ENDBRANCH  13  22
ENDBRANCH   7   8
BRANCH   7  27
ATOM     27  O   UNL     1      31.536  33.470  17.833  1.00  0.00    -0.388 OA
ATOM     28  H   UNL     1      31.206  34.233  18.362  1.00  0.00     0.211 HD
ENDBRANCH   7  27
ENDBRANCH   6   7
BRANCH   6  29
ATOM     29  O   UNL     1      30.726  32.032  14.650  1.00  0.00    -0.388 OA
ATOM     30  H   UNL     1      31.567  32.105  14.152  1.00  0.00     0.211 HD
ENDBRANCH   6  29
ENDBRANCH   5   6
ENDBRANCH   1   5
BRANCH   2  31
ATOM     31  O   UNL     1      29.579  30.160  20.215  1.00  0.00    -0.443 OA
BRANCH  31  32
ATOM     32  C   UNL     1      30.933  29.937  20.536  1.00  0.00     0.294 C 
BRANCH  32  33
ATOM     33  C   UNL     1      31.557  31.222  20.885  1.00  0.00     0.120 A 
ATOM     34  C   UNL     1      32.615  31.418  21.777  1.00  0.00     0.138 A 
ATOM     35  N   UNL     1      31.251  32.465  20.434  1.00  0.00    -0.132 NA
ATOM     36  N   UNL     1      32.875  32.719  21.810  1.00  0.00    -0.248 N 
ATOM     37  N   UNL     1      32.049  33.351  20.995  1.00  0.00    -0.067 NA
BRANCH  36  38
ATOM     38  C   UNL     1      33.904  33.360  22.604  1.00  0.00     0.185 C 
BRANCH  38  39
ATOM     39  C   UNL     1      35.161  33.299  21.785  1.00  0.00     0.016 A 
ATOM     40  C   UNL     1      35.497  34.388  21.023  1.00  0.00     0.135 A 
ATOM     41  C   UNL     1      35.938  32.170  21.814  1.00  0.00     0.009 A 
ATOM     42  C   UNL     1      36.634  34.380  20.258  1.00  0.00     0.047 A 
ATOM     43  C   UNL     1      37.102  32.148  21.038  1.00  0.00     0.001 A 
ATOM     44  C   UNL     1      37.418  33.246  20.285  1.00  0.00     0.004 A 
BRANCH  40  45
ATOM     45  O   UNL     1      34.684  35.511  21.022  1.00  0.00    -0.426 OA
BRANCH  45  46
ATOM     46  C   UNL     1      34.410  36.104  19.790  1.00  0.00     0.308 C 
ATOM     47  O   UNL     1      33.668  35.512  18.972  1.00  0.00    -0.252 OA
ATOM     48  C   UNL     1      34.984  37.425  19.437  1.00  0.00     0.139 C 
ENDBRANCH  45  46
ENDBRANCH  40  45
ENDBRANCH  38  39
ENDBRANCH  36  38
ENDBRANCH  32  33
ENDBRANCH  31  32
ENDBRANCH   2  31
TORSDOF 18
BEGIN_RES LYS A 131
REMARK  4 active torsions:
REMARK  status: ('A' for Active; 'I' for Inactive)
REMARK    1  A    between atoms: CA   and  CB  
REMARK    2  A    between atoms: CB   and  CG  
REMARK    3  A    between atoms: CG   and  CD  
REMARK    4  A    between atoms: CD   and  CE  
ROOT
ATOM      1  CA  LYS A 131      29.867  25.555  16.977  1.00 20.52     0.186 C 
ENDROOT
BRANCH   1   2
ATOM      2  CB  LYS A 131      28.345  25.722  17.026  1.00 20.94     0.034 C 
BRANCH   2   3
ATOM      3  CG  LYS A 131      27.601  24.401  16.897  1.00 22.96     0.005 C 
BRANCH   3   4
ATOM      4  CD  LYS A 131      26.409  24.332  17.811  1.00 24.33     0.041 C 
BRANCH   4   5
ATOM      5  CE  LYS A 131      26.327  25.609  18.640  1.00 26.91     0.338 C 
ATOM      6  NZ  LYS A 131      25.016  26.271  18.445  1.00 27.40     0.618 N 
ENDBRANCH   4   5
ENDBRANCH   3   4
ENDBRANCH   2   3
ENDBRANCH   1   2
END_RES LYS A 131
BEGIN_RES LYS A 135
REMARK  4 active torsions:
REMARK  status: ('A' for Active; 'I' for Inactive)
REMARK    5  A    between atoms: CA   and  CB  
REMARK    6  A    between atoms: CB   and  CG  
REMARK    7  A    between atoms: CG   and  CD  
REMARK    8  A    between atoms: CD   and  CE  
ROOT
ATOM      7  CA  LYS A 135      33.193  34.663   9.290  1.00 25.02     0.186 C 
ENDROOT
BRANCH   7   8
ATOM      8  CB  LYS A 135      32.060  35.360  10.034  1.00 26.63     0.034 C 
BRANCH   8   9
ATOM      9  CG  LYS A 135      30.808  35.522   9.210  1.00 29.45     0.005 C 
BRANCH   9  10
ATOM     10  CD  LYS A 135      29.852  34.365   9.454  1.00 32.00     0.041 C 
BRANCH  10  11
ATOM     11  CE  LYS A 135      28.756  34.350   8.405  1.00 34.25     0.338 C 
ATOM     12  NZ  LYS A 135      29.064  35.294   7.295  1.00 35.99     0.618 N 
ENDBRANCH  10  11
ENDBRANCH   9  10
ENDBRANCH   8   9
ENDBRANCH   7   8
END_RES LYS A 135
