REMARK VINA RESULT:    -5.142      7.561     14.231
REMARK INTER + INTRA:         -14.615
REMARK INTER:                  -9.143
REMARK INTRA:                  -5.472
REMARK UNBOUND:                -5.414
REMARK SMILES CC(=O)N[C@@H]1[C@@H](O)C[C@](O)(C(=O)O)O[C@H]1C(O)[C@H](O)CNC(=O)OCc1cn(-c2ccccc2C(N)=O)nn1
REMARK SMILES IDX 21 1 22 2 23 3 20 5 18 6 16 7 15 8 9 9 8 10 14 11 6 12 5 13
REMARK SMILES IDX 10 14 11 16 12 17 13 18 7 20 4 22 2 23 1 25 3 26 17 27 19 29
REMARK SMILES IDX 24 31 25 32 26 33 27 34 39 35 28 36 38 37 29 38 34 39 30 40
REMARK SMILES IDX 33 41 31 42 32 43 35 44 37 45 36 46
REMARK H PARENT 21 4 10 15 13 19 7 21 4 24 17 28 19 30 36 47 36 48
REMARK Flexibility Score: inf
ROOT
ATOM      1  N   UNL     1      27.954  38.855  10.031  1.00  0.00    -0.319 N 
ATOM      2  C   UNL     1      29.091  38.852  10.882  1.00  0.00     0.407 C 
ATOM      3  O   UNL     1      28.952  38.532  12.075  1.00  0.00    -0.225 OA
ATOM      4  H   UNL     1      28.143  39.139   9.027  1.00  0.00     0.167 HD
ENDROOT
BRANCH   1   5
ATOM      5  C   UNL     1      26.617  38.508  10.443  1.00  0.00     0.154 C 
BRANCH   5   6
ATOM      6  C   UNL     1      26.318  37.030  10.261  1.00  0.00     0.165 C 
BRANCH   6   7
ATOM      7  C   UNL     1      25.891  36.713   8.859  1.00  0.00     0.176 C 
BRANCH   7   8
ATOM      8  C   UNL     1      26.997  36.383   7.931  1.00  0.00     0.178 C 
ATOM      9  C   UNL     1      29.258  35.795   8.057  1.00  0.00     0.269 C 
ATOM     10  C   UNL     1      29.051  35.557   6.590  1.00  0.00     0.112 C 
ATOM     11  O   UNL     1      28.130  36.110   8.744  1.00  0.00    -0.332 OA
ATOM     12  C   UNL     1      28.273  36.624   5.900  1.00  0.00     0.145 C 
ATOM     13  C   UNL     1      27.434  37.373   6.929  1.00  0.00     0.142 C 
BRANCH   9  14
ATOM     14  O   UNL     1      30.284  36.755   8.227  1.00  0.00    -0.357 OA
ATOM     15  H   UNL     1      29.928  37.467   8.835  1.00  0.00     0.214 HD
ENDBRANCH   9  14
BRANCH   9  16
ATOM     16  C   UNL     1      29.802  34.527   8.625  1.00  0.00     0.364 C 
ATOM     17  O   UNL     1      28.998  33.749   9.223  1.00  0.00    -0.246 OA
BRANCH  16  18
ATOM     18  O   UNL     1      31.125  34.153   8.536  1.00  0.00    -0.477 OA
ATOM     19  H   UNL     1      31.437  33.499   7.836  1.00  0.00     0.296 HD
ENDBRANCH  16  18
ENDBRANCH   9  16
BRANCH  12  20
ATOM     20  O   UNL     1      29.151  37.474   5.247  1.00  0.00    -0.391 OA
ATOM     21  H   UNL     1      29.750  37.013   4.608  1.00  0.00     0.211 HD
ENDBRANCH  12  20
BRANCH  13  22
ATOM     22  N   UNL     1      26.479  38.232   6.342  1.00  0.00    -0.348 N 
ATOM     23  C   UNL     1      26.442  39.615   6.618  1.00  0.00     0.217 C 
ATOM     24  H   UNL     1      25.779  37.870   5.665  1.00  0.00     0.163 HD
ATOM     25  C   UNL     1      25.467  40.559   6.033  1.00  0.00     0.114 C 
ATOM     26  O   UNL     1      27.293  40.074   7.411  1.00  0.00    -0.275 OA
ENDBRANCH  13  22
ENDBRANCH   7   8
BRANCH   7  27
ATOM     27  O   UNL     1      24.730  35.986   8.743  1.00  0.00    -0.388 OA
ATOM     28  H   UNL     1      24.947  35.024   8.547  1.00  0.00     0.211 HD
ENDBRANCH   7  27
ENDBRANCH   6   7
BRANCH   6  29
ATOM     29  O   UNL     1      25.529  36.527  11.256  1.00  0.00    -0.388 OA
ATOM     30  H   UNL     1      25.052  37.255  11.743  1.00  0.00     0.211 HD
ENDBRANCH   6  29
ENDBRANCH   5   6
ENDBRANCH   1   5
BRANCH   2  31
ATOM     31  O   UNL     1      30.359  39.195  10.428  1.00  0.00    -0.443 OA
BRANCH  31  32
ATOM     32  C   UNL     1      30.605  40.386   9.701  1.00  0.00     0.294 C 
BRANCH  32  33
ATOM     33  C   UNL     1      31.089  40.062   8.325  1.00  0.00     0.121 A 
ATOM     34  C   UNL     1      32.356  40.324   7.838  1.00  0.00     0.144 A 
ATOM     35  N   UNL     1      30.415  39.474   7.326  1.00  0.00    -0.131 NA
ATOM     36  N   UNL     1      32.397  39.877   6.547  1.00  0.00    -0.220 N 
ATOM     37  N   UNL     1      31.227  39.378   6.274  1.00  0.00    -0.062 NA
BRANCH  36  38
ATOM     38  C   UNL     1      33.537  39.971   5.684  1.00  0.00     0.079 A 
ATOM     39  C   UNL     1      33.632  40.929   4.702  1.00  0.00     0.065 A 
ATOM     40  C   UNL     1      34.567  39.054   5.863  1.00  0.00     0.029 A 
ATOM     41  C   UNL     1      34.777  40.956   3.901  1.00  0.00     0.016 A 
ATOM     42  C   UNL     1      35.684  39.096   5.065  1.00  0.00     0.002 A 
ATOM     43  C   UNL     1      35.778  40.050   4.087  1.00  0.00     0.001 A 
BRANCH  39  44
ATOM     44  C   UNL     1      32.592  41.918   4.463  1.00  0.00     0.250 C 
ATOM     45  O   UNL     1      32.807  43.104   4.875  1.00  0.00    -0.269 OA
ATOM     46  N   UNL     1      31.373  41.613   3.801  1.00  0.00    -0.366 N 
ATOM     47  H   UNL     1      31.323  41.423   2.788  1.00  0.00     0.159 HD
ATOM     48  H   UNL     1      30.499  41.597   4.408  1.00  0.00     0.159 HD
ENDBRANCH  39  44
ENDBRANCH  36  38
ENDBRANCH  32  33
ENDBRANCH  31  32
ENDBRANCH   2  31
TORSDOF 16
BEGIN_RES LYS A 131
REMARK  4 active torsions:
REMARK  status: ('A' for Active; 'I' for Inactive)
REMARK    1  A    between atoms: CA   and  CB  
REMARK    2  A    between atoms: CB   and  CG  
REMARK    3  A    between atoms: CG   and  CD  
REMARK    4  A    between atoms: CD   and  CE  
ROOT
ATOM      1  CA  LYS A 131      29.867  25.555  16.977  1.00 20.52     0.186 C 
ENDROOT
BRANCH   1   2
ATOM      2  CB  LYS A 131      28.345  25.722  17.026  1.00 20.94     0.034 C 
BRANCH   2   3
ATOM      3  CG  LYS A 131      27.600  24.410  16.835  1.00 22.96     0.005 C 
BRANCH   3   4
ATOM      4  CD  LYS A 131      26.662  24.120  17.973  1.00 24.33     0.041 C 
BRANCH   4   5
ATOM      5  CE  LYS A 131      25.642  23.073  17.538  1.00 26.91     0.338 C 
ATOM      6  NZ  LYS A 131      24.284  23.450  17.996  1.00 27.40     0.618 N 
ENDBRANCH   4   5
ENDBRANCH   3   4
ENDBRANCH   2   3
ENDBRANCH   1   2
END_RES LYS A 131
BEGIN_RES LYS A 135
REMARK  4 active torsions:
REMARK  status: ('A' for Active; 'I' for Inactive)
REMARK    5  A    between atoms: CA   and  CB  
REMARK    6  A    between atoms: CB   and  CG  
REMARK    7  A    between atoms: CG   and  CD  
REMARK    8  A    between atoms: CD   and  CE  
ROOT
ATOM      7  CA  LYS A 135      33.193  34.663   9.290  1.00 25.02     0.186 C 
ENDROOT
BRANCH   7   8
ATOM      8  CB  LYS A 135      32.060  35.360  10.034  1.00 26.63     0.034 C 
BRANCH   8   9
ATOM      9  CG  LYS A 135      32.486  35.974  11.343  1.00 29.45     0.005 C 
BRANCH   9  10
ATOM     10  CD  LYS A 135      31.295  36.134  12.274  1.00 32.00     0.041 C 
BRANCH  10  11
ATOM     11  CE  LYS A 135      30.658  34.787  12.560  1.00 34.25     0.338 C 
ATOM     12  NZ  LYS A 135      29.183  34.839  12.368  1.00 35.99     0.618 N 
ENDBRANCH  10  11
ENDBRANCH   9  10
ENDBRANCH   8   9
ENDBRANCH   7   8
END_RES LYS A 135
