REMARK VINA RESULT:    -4.000      3.553     10.843
REMARK INTER + INTRA:         -14.377
REMARK INTER:                  -8.220
REMARK INTRA:                  -6.158
REMARK UNBOUND:                -6.753
REMARK SMILES COCC(C(N)=O)n1cc(COC(=O)NC[C@@H](O)C(O)[C@@H]2O[C@@](O)(C(=O)O)C[C@H](O)[C@H]2NC(C)=O)nn1
REMARK SMILES IDX 15 1 13 2 14 3 16 5 17 6 19 7 21 8 23 9 28 10 22 11 29 12
REMARK SMILES IDX 31 13 24 14 25 16 26 17 27 18 30 20 32 22 33 23 34 25 35 26
REMARK SMILES IDX 20 27 18 29 12 31 11 32 10 33 9 34 36 35 8 36 37 37 4 38
REMARK SMILES IDX 3 39 2 40 1 41 5 42 7 43 6 44
REMARK H PARENT 15 4 24 15 27 19 30 21 32 24 20 28 18 30 6 45 6 46
REMARK Flexibility Score: inf
ROOT
ATOM      1  N   UNL     1      30.482  38.916  12.088  1.00  0.00    -0.319 N 
ATOM      2  C   UNL     1      31.538  37.986  12.007  1.00  0.00     0.407 C 
ATOM      3  O   UNL     1      32.276  37.903  10.999  1.00  0.00    -0.225 OA
ATOM      4  H   UNL     1      29.922  38.913  12.978  1.00  0.00     0.167 HD
ENDROOT
BRANCH   1   5
ATOM      5  C   UNL     1      30.107  39.851  11.084  1.00  0.00     0.154 C 
BRANCH   5   6
ATOM      6  C   UNL     1      29.290  39.352   9.949  1.00  0.00     0.165 C 
BRANCH   6   7
ATOM      7  C   UNL     1      28.339  38.243  10.344  1.00  0.00     0.176 C 
BRANCH   7   8
ATOM      8  C   UNL     1      27.534  37.674   9.219  1.00  0.00     0.178 C 
ATOM      9  C   UNL     1      26.867  38.224   7.073  1.00  0.00     0.269 C 
ATOM     10  C   UNL     1      26.448  36.780   7.161  1.00  0.00     0.112 C 
ATOM     11  O   UNL     1      27.522  38.661   8.211  1.00  0.00    -0.332 OA
ATOM     12  C   UNL     1      25.623  36.466   8.358  1.00  0.00     0.145 C 
ATOM     13  C   UNL     1      26.113  37.342   9.521  1.00  0.00     0.142 C 
BRANCH   9  14
ATOM     14  O   UNL     1      25.761  38.992   6.755  1.00  0.00    -0.357 OA
ATOM     15  H   UNL     1      25.804  39.913   7.113  1.00  0.00     0.214 HD
ENDBRANCH   9  14
BRANCH   9  16
ATOM     16  C   UNL     1      27.827  38.334   5.941  1.00  0.00     0.364 C 
ATOM     17  O   UNL     1      29.040  38.633   6.124  1.00  0.00    -0.246 OA
BRANCH  16  18
ATOM     18  O   UNL     1      27.440  38.112   4.615  1.00  0.00    -0.477 OA
ATOM     19  H   UNL     1      27.159  37.196   4.290  1.00  0.00     0.296 HD
ENDBRANCH  16  18
ENDBRANCH   9  16
BRANCH  12  20
ATOM     20  O   UNL     1      24.257  36.653   8.151  1.00  0.00    -0.391 OA
ATOM     21  H   UNL     1      24.084  36.435   7.195  1.00  0.00     0.211 HD
ENDBRANCH  12  20
BRANCH  13  22
ATOM     22  N   UNL     1      25.849  36.601  10.706  1.00  0.00    -0.348 N 
ATOM     23  C   UNL     1      24.630  36.756  11.469  1.00  0.00     0.217 C 
ATOM     24  H   UNL     1      26.509  35.894  11.094  1.00  0.00     0.163 HD
ATOM     25  C   UNL     1      24.398  35.962  12.697  1.00  0.00     0.114 C 
ATOM     26  O   UNL     1      23.769  37.560  11.091  1.00  0.00    -0.275 OA
ENDBRANCH  13  22
ENDBRANCH   7   8
BRANCH   7  27
ATOM     27  O   UNL     1      27.383  38.901  11.179  1.00  0.00    -0.388 OA
ATOM     28  H   UNL     1      26.786  39.458  10.653  1.00  0.00     0.211 HD
ENDBRANCH   7  27
ENDBRANCH   6   7
BRANCH   6  29
ATOM     29  O   UNL     1      30.115  38.818   8.962  1.00  0.00    -0.388 OA
ATOM     30  H   UNL     1      29.580  38.587   8.166  1.00  0.00     0.211 HD
ENDBRANCH   6  29
ENDBRANCH   5   6
ENDBRANCH   1   5
BRANCH   2  31
ATOM     31  O   UNL     1      31.807  37.113  13.057  1.00  0.00    -0.443 OA
BRANCH  31  32
ATOM     32  C   UNL     1      32.446  35.881  12.848  1.00  0.00     0.294 C 
BRANCH  32  33
ATOM     33  C   UNL     1      31.994  34.879  13.829  1.00  0.00     0.120 A 
ATOM     34  C   UNL     1      30.842  34.117  13.787  1.00  0.00     0.139 A 
ATOM     35  N   UNL     1      32.659  34.545  14.956  1.00  0.00    -0.132 NA
ATOM     36  N   UNL     1      30.849  33.356  14.875  1.00  0.00    -0.237 N 
ATOM     37  N   UNL     1      31.923  33.611  15.564  1.00  0.00    -0.066 NA
BRANCH  36  38
ATOM     38  C   UNL     1      29.824  32.386  15.252  1.00  0.00     0.223 C 
BRANCH  38  39
ATOM     39  C   UNL     1      30.383  31.494  16.324  1.00  0.00     0.197 C 
BRANCH  39  40
ATOM     40  O   UNL     1      29.427  31.204  17.270  1.00  0.00    -0.382 OA
ATOM     41  C   UNL     1      29.919  30.985  18.539  1.00  0.00     0.195 C 
ENDBRANCH  39  40
ENDBRANCH  38  39
BRANCH  38  42
ATOM     42  C   UNL     1      28.646  33.125  15.814  1.00  0.00     0.244 C 
ATOM     43  O   UNL     1      27.506  32.934  15.368  1.00  0.00    -0.273 OA
ATOM     44  N   UNL     1      28.888  34.045  16.869  1.00  0.00    -0.368 N 
ATOM     45  H   UNL     1      28.103  34.273  17.522  1.00  0.00     0.159 HD
ATOM     46  H   UNL     1      29.811  34.478  16.992  1.00  0.00     0.159 HD
ENDBRANCH  38  42
ENDBRANCH  36  38
ENDBRANCH  32  33
ENDBRANCH  31  32
ENDBRANCH   2  31
TORSDOF 18
BEGIN_RES LYS A 131
REMARK  4 active torsions:
REMARK  status: ('A' for Active; 'I' for Inactive)
REMARK    1  A    between atoms: CA   and  CB  
REMARK    2  A    between atoms: CB   and  CG  
REMARK    3  A    between atoms: CG   and  CD  
REMARK    4  A    between atoms: CD   and  CE  
ROOT
ATOM      1  CA  LYS A 131      29.867  25.555  16.977  1.00 20.52     0.186 C 
ENDROOT
BRANCH   1   2
ATOM      2  CB  LYS A 131      28.345  25.722  17.026  1.00 20.94     0.034 C 
BRANCH   2   3
ATOM      3  CG  LYS A 131      27.600  24.412  16.822  1.00 22.96     0.005 C 
BRANCH   3   4
ATOM      4  CD  LYS A 131      26.171  24.495  17.283  1.00 24.33     0.041 C 
BRANCH   4   5
ATOM      5  CE  LYS A 131      25.704  23.118  17.743  1.00 26.91     0.338 C 
ATOM      6  NZ  LYS A 131      24.344  22.832  17.228  1.00 27.40     0.618 N 
ENDBRANCH   4   5
ENDBRANCH   3   4
ENDBRANCH   2   3
ENDBRANCH   1   2
END_RES LYS A 131
BEGIN_RES LYS A 135
REMARK  4 active torsions:
REMARK  status: ('A' for Active; 'I' for Inactive)
REMARK    5  A    between atoms: CA   and  CB  
REMARK    6  A    between atoms: CB   and  CG  
REMARK    7  A    between atoms: CG   and  CD  
REMARK    8  A    between atoms: CD   and  CE  
ROOT
ATOM      7  CA  LYS A 135      33.193  34.663   9.290  1.00 25.02     0.186 C 
ENDROOT
BRANCH   7   8
ATOM      8  CB  LYS A 135      32.060  35.360  10.034  1.00 26.63     0.034 C 
BRANCH   8   9
ATOM      9  CG  LYS A 135      30.790  35.470   9.231  1.00 29.45     0.005 C 
BRANCH   9  10
ATOM     10  CD  LYS A 135      30.160  34.100   9.031  1.00 32.00     0.041 C 
BRANCH  10  11
ATOM     11  CE  LYS A 135      28.702  34.236   8.639  1.00 34.25     0.338 C 
ATOM     12  NZ  LYS A 135      27.807  33.738   9.721  1.00 35.99     0.618 N 
ENDBRANCH  10  11
ENDBRANCH   9  10
ENDBRANCH   8   9
ENDBRANCH   7   8
END_RES LYS A 135
