REMARK VINA RESULT:    -5.791      4.050      7.442
REMARK INTER + INTRA:         -15.477
REMARK INTER:                  -8.440
REMARK INTRA:                  -7.037
REMARK UNBOUND:                -4.777
REMARK SMILES CC(=O)N[C@@H]1[C@@H](O)C[C@](O)(C(=O)O)O[C@H]1C(O)[C@H](O)CNC(=O)OCc1cn(C(C)(C)C(=O)c2c[nH]c3ccccc23)nn1
REMARK SMILES IDX 21 1 22 2 23 3 20 5 18 6 16 7 15 8 9 9 8 10 14 11 6 12 5 13
REMARK SMILES IDX 10 14 11 16 12 17 13 18 7 20 4 22 2 23 1 25 3 26 17 27 19 29
REMARK SMILES IDX 24 31 25 32 26 33 27 34 44 35 28 36 43 37 29 38 30 39 31 40
REMARK SMILES IDX 32 41 33 42 34 43 35 44 42 45 36 46 37 47 41 48 38 50 40 51
REMARK SMILES IDX 39 52
REMARK H PARENT 21 4 10 15 13 19 7 21 4 24 17 28 19 30 36 49
REMARK Flexibility Score: inf
ROOT
ATOM      1  N   UNL     1      21.379  40.611   9.099  1.00  0.00    -0.319 N 
ATOM      2  C   UNL     1      22.436  41.137   8.319  1.00  0.00     0.407 C 
ATOM      3  O   UNL     1      22.333  41.245   7.095  1.00  0.00    -0.225 OA
ATOM      4  H   UNL     1      21.572  40.568  10.157  1.00  0.00     0.167 HD
ENDROOT
BRANCH   1   5
ATOM      5  C   UNL     1      20.112  40.146   8.604  1.00  0.00     0.154 C 
BRANCH   5   6
ATOM      6  C   UNL     1      19.891  38.680   8.661  1.00  0.00     0.165 C 
BRANCH   6   7
ATOM      7  C   UNL     1      21.178  37.869   8.659  1.00  0.00     0.176 C 
BRANCH   7   8
ATOM      8  C   UNL     1      21.378  37.139   9.962  1.00  0.00     0.178 C 
ATOM      9  C   UNL     1      23.461  36.170  10.263  1.00  0.00     0.269 C 
ATOM     10  C   UNL     1      22.916  34.913  10.905  1.00  0.00     0.112 C 
ATOM     11  O   UNL     1      22.634  37.265  10.481  1.00  0.00    -0.332 OA
ATOM     12  C   UNL     1      21.421  35.006  11.127  1.00  0.00     0.145 C 
ATOM     13  C   UNL     1      20.867  35.716   9.891  1.00  0.00     0.142 C 
BRANCH   9  14
ATOM     14  O   UNL     1      23.721  36.006   8.903  1.00  0.00    -0.357 OA
ATOM     15  H   UNL     1      24.244  35.169   8.740  1.00  0.00     0.214 HD
ENDBRANCH   9  14
BRANCH   9  16
ATOM     16  C   UNL     1      24.762  36.466  10.920  1.00  0.00     0.364 C 
ATOM     17  O   UNL     1      24.812  36.571  12.186  1.00  0.00    -0.246 OA
BRANCH  16  18
ATOM     18  O   UNL     1      25.939  36.637  10.229  1.00  0.00    -0.477 OA
ATOM     19  H   UNL     1      26.395  37.534  10.121  1.00  0.00     0.296 HD
ENDBRANCH  16  18
ENDBRANCH   9  16
BRANCH  12  20
ATOM     20  O   UNL     1      20.836  33.774  11.306  1.00  0.00    -0.391 OA
ATOM     21  H   UNL     1      19.903  33.817  10.924  1.00  0.00     0.211 HD
ENDBRANCH  12  20
BRANCH  13  22
ATOM     22  N   UNL     1      19.429  35.715   9.881  1.00  0.00    -0.348 N 
ATOM     23  C   UNL     1      18.674  35.052   8.850  1.00  0.00     0.217 C 
ATOM     24  H   UNL     1      18.846  36.191  10.612  1.00  0.00     0.163 HD
ATOM     25  C   UNL     1      17.212  35.027   8.803  1.00  0.00     0.114 C 
ATOM     26  O   UNL     1      19.357  34.466   7.949  1.00  0.00    -0.275 OA
ENDBRANCH  13  22
ENDBRANCH   7   8
BRANCH   7  27
ATOM     27  O   UNL     1      21.034  36.944   7.621  1.00  0.00    -0.388 OA
ATOM     28  H   UNL     1      21.503  36.105   7.791  1.00  0.00     0.211 HD
ENDBRANCH   7  27
ENDBRANCH   6   7
BRANCH   6  29
ATOM     29  O   UNL     1      19.155  38.249   7.574  1.00  0.00    -0.388 OA
ATOM     30  H   UNL     1      19.793  37.895   6.900  1.00  0.00     0.211 HD
ENDBRANCH   6  29
ENDBRANCH   5   6
ENDBRANCH   1   5
BRANCH   2  31
ATOM     31  O   UNL     1      23.638  41.556   8.892  1.00  0.00    -0.443 OA
BRANCH  31  32
ATOM     32  C   UNL     1      24.474  40.651   9.552  1.00  0.00     0.294 C 
BRANCH  32  33
ATOM     33  C   UNL     1      25.282  39.881   8.572  1.00  0.00     0.120 A 
ATOM     34  C   UNL     1      26.343  40.370   7.824  1.00  0.00     0.139 A 
ATOM     35  N   UNL     1      25.175  38.588   8.205  1.00  0.00    -0.132 NA
ATOM     36  N   UNL     1      26.831  39.383   7.047  1.00  0.00    -0.239 N 
ATOM     37  N   UNL     1      26.099  38.313   7.302  1.00  0.00    -0.066 NA
BRANCH  36  38
ATOM     38  C   UNL     1      27.961  39.498   6.105  1.00  0.00     0.122 C 
ATOM     39  C   UNL     1      27.442  39.450   4.710  1.00  0.00     0.046 C 
ATOM     40  C   UNL     1      28.552  40.885   6.421  1.00  0.00     0.046 C 
BRANCH  38  41
ATOM     41  C   UNL     1      28.943  38.481   6.476  1.00  0.00     0.192 C 
ATOM     42  O   UNL     1      28.896  37.305   5.972  1.00  0.00    -0.291 OA
BRANCH  41  43
ATOM     43  C   UNL     1      30.036  38.676   7.422  1.00  0.00     0.045 A 
ATOM     44  C   UNL     1      31.315  39.115   7.083  1.00  0.00     0.095 A 
ATOM     45  C   UNL     1      29.974  38.431   8.770  1.00  0.00     0.010 A 
ATOM     46  N   UNL     1      32.015  39.133   8.216  1.00  0.00    -0.360 N 
ATOM     47  C   UNL     1      31.251  38.731   9.254  1.00  0.00     0.046 A 
ATOM     48  C   UNL     1      28.983  37.999   9.646  1.00  0.00     0.011 A 
ATOM     49  H   UNL     1      33.003  39.413   8.305  1.00  0.00     0.166 HD
ATOM     50  C   UNL     1      31.486  38.581  10.607  1.00  0.00     0.027 A 
ATOM     51  C   UNL     1      29.251  37.862  10.976  1.00  0.00     0.001 A 
ATOM     52  C   UNL     1      30.495  38.151  11.455  1.00  0.00     0.002 A 
ENDBRANCH  41  43
ENDBRANCH  38  41
ENDBRANCH  36  38
ENDBRANCH  32  33
ENDBRANCH  31  32
ENDBRANCH   2  31
TORSDOF 17
BEGIN_RES LYS A 131
REMARK  4 active torsions:
REMARK  status: ('A' for Active; 'I' for Inactive)
REMARK    1  A    between atoms: CA   and  CB  
REMARK    2  A    between atoms: CB   and  CG  
REMARK    3  A    between atoms: CG   and  CD  
REMARK    4  A    between atoms: CD   and  CE  
ROOT
ATOM      1  CA  LYS A 131      29.867  25.555  16.977  1.00 20.52     0.186 C 
ENDROOT
BRANCH   1   2
ATOM      2  CB  LYS A 131      28.345  25.722  17.026  1.00 20.94     0.034 C 
BRANCH   2   3
ATOM      3  CG  LYS A 131      27.599  24.423  16.764  1.00 22.96     0.005 C 
BRANCH   3   4
ATOM      4  CD  LYS A 131      26.898  23.914  17.993  1.00 24.33     0.041 C 
BRANCH   4   5
ATOM      5  CE  LYS A 131      25.556  23.307  17.599  1.00 26.91     0.338 C 
ATOM      6  NZ  LYS A 131      24.725  24.306  16.886  1.00 27.40     0.618 N 
ENDBRANCH   4   5
ENDBRANCH   3   4
ENDBRANCH   2   3
ENDBRANCH   1   2
END_RES LYS A 131
BEGIN_RES LYS A 135
REMARK  4 active torsions:
REMARK  status: ('A' for Active; 'I' for Inactive)
REMARK    5  A    between atoms: CA   and  CB  
REMARK    6  A    between atoms: CB   and  CG  
REMARK    7  A    between atoms: CG   and  CD  
REMARK    8  A    between atoms: CD   and  CE  
ROOT
ATOM      7  CA  LYS A 135      33.193  34.663   9.290  1.00 25.02     0.186 C 
ENDROOT
BRANCH   7   8
ATOM      8  CB  LYS A 135      32.060  35.360  10.034  1.00 26.63     0.034 C 
BRANCH   8   9
ATOM      9  CG  LYS A 135      30.726  34.677   9.877  1.00 29.45     0.005 C 
BRANCH   9  10
ATOM     10  CD  LYS A 135      30.332  34.599   8.410  1.00 32.00     0.041 C 
BRANCH  10  11
ATOM     11  CE  LYS A 135      28.823  34.617   8.262  1.00 34.25     0.338 C 
ATOM     12  NZ  LYS A 135      28.166  33.886   9.381  1.00 35.99     0.618 N 
ENDBRANCH  10  11
ENDBRANCH   9  10
ENDBRANCH   8   9
ENDBRANCH   7   8
END_RES LYS A 135
