REMARK VINA RESULT:    -5.714      5.087      7.684
REMARK INTER + INTRA:         -15.051
REMARK INTER:                  -9.031
REMARK INTRA:                  -6.020
REMARK UNBOUND:                -5.161
REMARK SMILES CC(=O)N[C@@H]1[C@@H](O)C[C@](O)(C(=O)O)O[C@H]1C(O)[C@H](O)CNC(=O)OCc1cn(-c2ccc(Br)cc2)nn1
REMARK SMILES IDX 20 1 18 2 16 3 15 4 9 5 8 6 14 7 6 8 5 9 10 10 11 12 12 13
REMARK SMILES IDX 13 14 7 16 4 18 2 19 1 21 3 22 17 23 19 25 21 27 22 28 23 30
REMARK SMILES IDX 24 31 25 32 26 33 27 34 37 35 28 36 36 37 29 38 30 39 35 40
REMARK SMILES IDX 31 41 34 42 32 43 33 44
REMARK H PARENT 10 11 13 15 7 17 4 20 17 24 19 26 21 29
REMARK Flexibility Score: inf
ROOT
ATOM      1  C   UNL     1      30.354  31.131  16.964  1.00  0.00     0.154 C 
ENDROOT
BRANCH   1   2
ATOM      2  C   UNL     1      30.852  32.314  16.189  1.00  0.00     0.165 C 
BRANCH   2   3
ATOM      3  C   UNL     1      29.824  33.335  15.850  1.00  0.00     0.176 C 
BRANCH   3   4
ATOM      4  C   UNL     1      30.386  34.616  15.268  1.00  0.00     0.178 C 
ATOM      5  C   UNL     1      31.174  35.315  13.171  1.00  0.00     0.269 C 
ATOM      6  C   UNL     1      32.138  36.171  13.945  1.00  0.00     0.112 C 
ATOM      7  O   UNL     1      30.656  34.329  13.935  1.00  0.00    -0.332 OA
ATOM      8  C   UNL     1      32.756  35.314  15.026  1.00  0.00     0.145 C 
ATOM      9  C   UNL     1      31.639  34.967  16.020  1.00  0.00     0.142 C 
BRANCH   5  10
ATOM     10  O   UNL     1      31.878  34.683  12.109  1.00  0.00    -0.357 OA
ATOM     11  H   UNL     1      32.760  35.138  12.086  1.00  0.00     0.214 HD
ENDBRANCH   5  10
BRANCH   5  12
ATOM     12  C   UNL     1      30.072  36.126  12.583  1.00  0.00     0.364 C 
ATOM     13  O   UNL     1      29.013  35.635  12.156  1.00  0.00    -0.246 OA
BRANCH  12  14
ATOM     14  O   UNL     1      30.226  37.499  12.502  1.00  0.00    -0.477 OA
ATOM     15  H   UNL     1      30.927  37.945  11.909  1.00  0.00     0.296 HD
ENDBRANCH  12  14
ENDBRANCH   5  12
BRANCH   8  16
ATOM     16  O   UNL     1      33.138  34.110  14.436  1.00  0.00    -0.391 OA
ATOM     17  H   UNL     1      34.032  34.135  14.043  1.00  0.00     0.211 HD
ENDBRANCH   8  16
BRANCH   9  18
ATOM     18  N   UNL     1      31.420  36.168  16.775  1.00  0.00    -0.348 N 
ATOM     19  C   UNL     1      31.107  36.194  18.156  1.00  0.00     0.217 C 
ATOM     20  H   UNL     1      31.489  37.106  16.302  1.00  0.00     0.163 HD
ATOM     21  C   UNL     1      30.884  37.471  18.898  1.00  0.00     0.114 C 
ATOM     22  O   UNL     1      31.015  35.116  18.775  1.00  0.00    -0.275 OA
ENDBRANCH   9  18
ENDBRANCH   3   4
BRANCH   3  23
ATOM     23  O   UNL     1      29.093  33.627  17.028  1.00  0.00    -0.388 OA
ATOM     24  H   UNL     1      29.744  33.898  17.711  1.00  0.00     0.211 HD
ENDBRANCH   3  23
ENDBRANCH   2   3
BRANCH   2  25
ATOM     25  O   UNL     1      31.413  31.825  14.990  1.00  0.00    -0.388 OA
ATOM     26  H   UNL     1      31.582  32.564  14.354  1.00  0.00     0.211 HD
ENDBRANCH   2  25
ENDBRANCH   1   2
BRANCH   1  27
ATOM     27  N   UNL     1      29.351  30.348  16.321  1.00  0.00    -0.319 N 
ATOM     28  C   UNL     1      27.997  30.362  16.817  1.00  0.00     0.407 C 
ATOM     29  H   UNL     1      29.489  29.731  15.495  1.00  0.00     0.167 HD
ATOM     30  O   UNL     1      27.751  31.077  17.817  1.00  0.00    -0.225 OA
BRANCH  28  31
ATOM     31  O   UNL     1      27.000  29.612  16.212  1.00  0.00    -0.443 OA
BRANCH  31  32
ATOM     32  C   UNL     1      25.663  29.997  16.502  1.00  0.00     0.294 C 
BRANCH  32  33
ATOM     33  C   UNL     1      25.106  30.596  15.254  1.00  0.00     0.121 A 
ATOM     34  C   UNL     1      25.218  31.913  14.852  1.00  0.00     0.144 A 
ATOM     35  N   UNL     1      24.398  29.987  14.284  1.00  0.00    -0.131 NA
ATOM     36  N   UNL     1      24.587  32.063  13.675  1.00  0.00    -0.220 N 
ATOM     37  N   UNL     1      24.108  30.880  13.369  1.00  0.00    -0.062 NA
BRANCH  36  38
ATOM     38  C   UNL     1      24.430  33.228  12.870  1.00  0.00     0.066 A 
ATOM     39  C   UNL     1      25.502  34.013  12.488  1.00  0.00     0.029 A 
ATOM     40  C   UNL     1      23.182  33.622  12.432  1.00  0.00     0.029 A 
ATOM     41  C   UNL     1      25.334  35.140  11.705  1.00  0.00     0.018 A 
ATOM     42  C   UNL     1      23.008  34.754  11.645  1.00  0.00     0.018 A 
ATOM     43  C   UNL     1      24.080  35.530  11.270  1.00  0.00     0.018 A 
ATOM     44  Br  UNL     1      23.905  37.092  10.193  1.00  0.00    -0.051 Br
ENDBRANCH  36  38
ENDBRANCH  32  33
ENDBRANCH  31  32
ENDBRANCH  28  31
ENDBRANCH   1  27
TORSDOF 15
BEGIN_RES LYS A 131
REMARK  4 active torsions:
REMARK  status: ('A' for Active; 'I' for Inactive)
REMARK    1  A    between atoms: CA   and  CB  
REMARK    2  A    between atoms: CB   and  CG  
REMARK    3  A    between atoms: CG   and  CD  
REMARK    4  A    between atoms: CD   and  CE  
ROOT
ATOM      1  CA  LYS A 131      29.867  25.555  16.977  1.00 20.52     0.186 C 
ENDROOT
BRANCH   1   2
ATOM      2  CB  LYS A 131      28.345  25.722  17.026  1.00 20.94     0.034 C 
BRANCH   2   3
ATOM      3  CG  LYS A 131      27.601  24.405  16.865  1.00 22.96     0.005 C 
BRANCH   3   4
ATOM      4  CD  LYS A 131      26.561  24.208  17.932  1.00 24.33     0.041 C 
BRANCH   4   5
ATOM      5  CE  LYS A 131      25.218  23.889  17.283  1.00 26.91     0.338 C 
ATOM      6  NZ  LYS A 131      24.867  22.464  17.490  1.00 27.40     0.618 N 
ENDBRANCH   4   5
ENDBRANCH   3   4
ENDBRANCH   2   3
ENDBRANCH   1   2
END_RES LYS A 131
BEGIN_RES LYS A 135
REMARK  4 active torsions:
REMARK  status: ('A' for Active; 'I' for Inactive)
REMARK    5  A    between atoms: CA   and  CB  
REMARK    6  A    between atoms: CB   and  CG  
REMARK    7  A    between atoms: CG   and  CD  
REMARK    8  A    between atoms: CD   and  CE  
ROOT
ATOM      7  CA  LYS A 135      33.193  34.663   9.290  1.00 25.02     0.186 C 
ENDROOT
BRANCH   7   8
ATOM      8  CB  LYS A 135      32.060  35.360  10.034  1.00 26.63     0.034 C 
BRANCH   8   9
ATOM      9  CG  LYS A 135      30.831  35.580   9.191  1.00 29.45     0.005 C 
BRANCH   9  10
ATOM     10  CD  LYS A 135      30.143  34.257   8.890  1.00 32.00     0.041 C 
BRANCH  10  11
ATOM     11  CE  LYS A 135      28.692  34.485   8.511  1.00 34.25     0.338 C 
ATOM     12  NZ  LYS A 135      27.778  33.723   9.406  1.00 35.99     0.618 N 
ENDBRANCH  10  11
ENDBRANCH   9  10
ENDBRANCH   8   9
ENDBRANCH   7   8
END_RES LYS A 135
