REMARK VINA RESULT:    -4.321      4.147      8.816
REMARK INTER + INTRA:         -14.963
REMARK INTER:                  -8.647
REMARK INTRA:                  -6.316
REMARK UNBOUND:                -6.980
REMARK SMILES CC(=O)N[C@@H]1[C@@H](O)C[C@](O)(C(=O)O)O[C@H]1C(O)[C@H](O)CNC(=O)OCc1cn(Cc2ccc(C#N)cc2)nn1
REMARK SMILES IDX 21 1 22 2 23 3 20 5 18 6 16 7 15 8 9 9 8 10 14 11 6 12 5 13
REMARK SMILES IDX 10 14 11 16 12 17 13 18 7 20 4 22 2 23 1 25 3 26 17 27 19 29
REMARK SMILES IDX 24 31 25 32 26 33 27 34 39 35 28 36 38 37 29 38 30 39 31 40
REMARK SMILES IDX 37 41 32 42 36 43 33 44 34 45 35 46
REMARK H PARENT 21 4 10 15 13 19 7 21 4 24 17 28 19 30
REMARK Flexibility Score: inf
ROOT
ATOM      1  N   UNL     1      28.227  30.802  17.825  1.00  0.00    -0.319 N 
ATOM      2  C   UNL     1      27.236  31.746  18.226  1.00  0.00     0.407 C 
ATOM      3  O   UNL     1      27.596  32.940  18.512  1.00  0.00    -0.225 OA
ATOM      4  H   UNL     1      27.909  29.842  17.595  1.00  0.00     0.167 HD
ENDROOT
BRANCH   1   5
ATOM      5  C   UNL     1      29.585  31.201  17.755  1.00  0.00     0.154 C 
BRANCH   5   6
ATOM      6  C   UNL     1      30.254  31.067  16.408  1.00  0.00     0.165 C 
BRANCH   6   7
ATOM      7  C   UNL     1      30.964  32.331  15.965  1.00  0.00     0.176 C 
BRANCH   7   8
ATOM      8  C   UNL     1      30.097  33.540  16.043  1.00  0.00     0.178 C 
ATOM      9  C   UNL     1      28.385  34.631  14.903  1.00  0.00     0.269 C 
ATOM     10  C   UNL     1      28.452  35.557  16.097  1.00  0.00     0.112 C 
ATOM     11  O   UNL     1      29.094  33.479  15.068  1.00  0.00    -0.332 OA
ATOM     12  C   UNL     1      29.843  35.916  16.482  1.00  0.00     0.145 C 
ATOM     13  C   UNL     1      30.783  34.859  15.875  1.00  0.00     0.142 C 
BRANCH   9  14
ATOM     14  O   UNL     1      28.792  35.353  13.760  1.00  0.00    -0.357 OA
ATOM     15  H   UNL     1      29.781  35.229  13.666  1.00  0.00     0.214 HD
ENDBRANCH   9  14
BRANCH   9  16
ATOM     16  C   UNL     1      26.961  34.281  14.714  1.00  0.00     0.364 C 
ATOM     17  O   UNL     1      26.457  34.350  13.571  1.00  0.00    -0.246 OA
BRANCH  16  18
ATOM     18  O   UNL     1      26.194  33.881  15.783  1.00  0.00    -0.477 OA
ATOM     19  H   UNL     1      25.309  33.410  15.716  1.00  0.00     0.296 HD
ENDBRANCH  16  18
ENDBRANCH   9  16
BRANCH  12  20
ATOM     20  O   UNL     1      30.226  37.190  16.110  1.00  0.00    -0.391 OA
ATOM     21  H   UNL     1      29.482  37.810  16.386  1.00  0.00     0.211 HD
ENDBRANCH  12  20
BRANCH  13  22
ATOM     22  N   UNL     1      32.092  34.968  16.441  1.00  0.00    -0.348 N 
ATOM     23  C   UNL     1      33.108  35.771  15.817  1.00  0.00     0.217 C 
ATOM     24  H   UNL     1      32.366  34.475  17.337  1.00  0.00     0.163 HD
ATOM     25  C   UNL     1      34.472  35.876  16.417  1.00  0.00     0.114 C 
ATOM     26  O   UNL     1      32.872  36.398  14.757  1.00  0.00    -0.275 OA
ENDBRANCH  13  22
ENDBRANCH   7   8
BRANCH   7  27
ATOM     27  O   UNL     1      31.598  32.134  14.782  1.00  0.00    -0.388 OA
ATOM     28  H   UNL     1      32.320  31.504  14.778  1.00  0.00     0.211 HD
ENDBRANCH   7  27
ENDBRANCH   6   7
BRANCH   6  29
ATOM     29  O   UNL     1      29.183  30.804  15.515  1.00  0.00    -0.388 OA
ATOM     30  H   UNL     1      28.600  30.095  15.843  1.00  0.00     0.211 HD
ENDBRANCH   6  29
ENDBRANCH   5   6
ENDBRANCH   1   5
BRANCH   2  31
ATOM     31  O   UNL     1      25.885  31.469  18.332  1.00  0.00    -0.443 OA
BRANCH  31  32
ATOM     32  C   UNL     1      25.348  30.402  17.582  1.00  0.00     0.294 C 
BRANCH  32  33
ATOM     33  C   UNL     1      25.161  30.763  16.157  1.00  0.00     0.120 A 
ATOM     34  C   UNL     1      24.006  31.204  15.530  1.00  0.00     0.138 A 
ATOM     35  N   UNL     1      26.107  30.725  15.211  1.00  0.00    -0.132 NA
ATOM     36  N   UNL     1      24.287  31.418  14.242  1.00  0.00    -0.248 N 
ATOM     37  N   UNL     1      25.559  31.120  14.081  1.00  0.00    -0.067 NA
BRANCH  36  38
ATOM     38  C   UNL     1      23.387  31.890  13.212  1.00  0.00     0.181 C 
BRANCH  38  39
ATOM     39  C   UNL     1      22.378  30.910  12.808  1.00  0.00    -0.026 A 
ATOM     40  C   UNL     1      22.740  29.608  12.574  1.00  0.00     0.007 A 
ATOM     41  C   UNL     1      21.057  31.300  12.657  1.00  0.00     0.007 A 
ATOM     42  C   UNL     1      21.799  28.673  12.187  1.00  0.00     0.020 A 
ATOM     43  C   UNL     1      20.092  30.380  12.270  1.00  0.00     0.020 A 
ATOM     44  C   UNL     1      20.485  29.060  12.037  1.00  0.00     0.052 A 
BRANCH  44  45
ATOM     45  C   UNL     1      19.501  28.099  11.633  1.00  0.00     0.099 C 
ATOM     46  N   UNL     1      18.707  27.300  11.311  1.00  0.00    -0.192 NA
ENDBRANCH  44  45
ENDBRANCH  38  39
ENDBRANCH  36  38
ENDBRANCH  32  33
ENDBRANCH  31  32
ENDBRANCH   2  31
TORSDOF 17
BEGIN_RES LYS A 131
REMARK  4 active torsions:
REMARK  status: ('A' for Active; 'I' for Inactive)
REMARK    1  A    between atoms: CA   and  CB  
REMARK    2  A    between atoms: CB   and  CG  
REMARK    3  A    between atoms: CG   and  CD  
REMARK    4  A    between atoms: CD   and  CE  
ROOT
ATOM      1  CA  LYS A 131      29.867  25.555  16.977  1.00 20.52     0.186 C 
ENDROOT
BRANCH   1   2
ATOM      2  CB  LYS A 131      28.345  25.722  17.026  1.00 20.94     0.034 C 
BRANCH   2   3
ATOM      3  CG  LYS A 131      27.601  24.401  16.900  1.00 22.96     0.005 C 
BRANCH   3   4
ATOM      4  CD  LYS A 131      26.561  24.232  17.972  1.00 24.33     0.041 C 
BRANCH   4   5
ATOM      5  CE  LYS A 131      25.202  23.978  17.328  1.00 26.91     0.338 C 
ATOM      6  NZ  LYS A 131      24.803  22.561  17.500  1.00 27.40     0.618 N 
ENDBRANCH   4   5
ENDBRANCH   3   4
ENDBRANCH   2   3
ENDBRANCH   1   2
END_RES LYS A 131
BEGIN_RES LYS A 135
REMARK  4 active torsions:
REMARK  status: ('A' for Active; 'I' for Inactive)
REMARK    5  A    between atoms: CA   and  CB  
REMARK    6  A    between atoms: CB   and  CG  
REMARK    7  A    between atoms: CG   and  CD  
REMARK    8  A    between atoms: CD   and  CE  
ROOT
ATOM      7  CA  LYS A 135      33.193  34.663   9.290  1.00 25.02     0.186 C 
ENDROOT
BRANCH   7   8
ATOM      8  CB  LYS A 135      32.060  35.360  10.034  1.00 26.63     0.034 C 
BRANCH   8   9
ATOM      9  CG  LYS A 135      30.710  34.732   9.801  1.00 29.45     0.005 C 
BRANCH   9  10
ATOM     10  CD  LYS A 135      30.473  34.504   8.316  1.00 32.00     0.041 C 
BRANCH  10  11
ATOM     11  CE  LYS A 135      29.047  34.861   7.943  1.00 34.25     0.338 C 
ATOM     12  NZ  LYS A 135      28.987  36.184   7.262  1.00 35.99     0.618 N 
ENDBRANCH  10  11
ENDBRANCH   9  10
ENDBRANCH   8   9
ENDBRANCH   7   8
END_RES LYS A 135
