REMARK VINA RESULT:    -4.302      2.648      5.800
REMARK INTER + INTRA:         -14.196
REMARK INTER:                  -7.017
REMARK INTRA:                  -7.179
REMARK UNBOUND:                -5.744
REMARK SMILES CC(=O)N[C@@H]1[C@@H](O)C[C@](O)(C(=O)O)O[C@H]1C(O)[C@H](O)CNC(=O)OCc1cn([C@@H](CC(=O)O)C(=O)O)nn1
REMARK SMILES IDX 21 1 22 2 23 3 20 5 18 6 16 7 15 8 9 9 8 10 14 11 6 12 5 13
REMARK SMILES IDX 10 14 11 16 12 17 13 18 7 20 4 22 2 23 1 25 3 26 17 27 19 29
REMARK SMILES IDX 24 31 25 32 26 33 27 34 38 35 28 36 37 37 29 38 30 39 31 40
REMARK SMILES IDX 32 41 33 42 34 44 35 45 36 46
REMARK H PARENT 21 4 10 15 13 19 7 21 4 24 17 28 19 30 33 43 36 47
REMARK Flexibility Score: inf
ROOT
ATOM      1  N   UNL     1      27.013  31.340  16.764  1.00  0.00    -0.319 N 
ATOM      2  C   UNL     1      27.481  30.013  17.003  1.00  0.00     0.407 C 
ATOM      3  O   UNL     1      28.151  29.454  16.128  1.00  0.00    -0.225 OA
ATOM      4  H   UNL     1      26.449  31.752  17.553  1.00  0.00     0.167 HD
ENDROOT
BRANCH   1   5
ATOM      5  C   UNL     1      27.262  32.088  15.572  1.00  0.00     0.154 C 
BRANCH   5   6
ATOM      6  C   UNL     1      28.085  33.325  15.870  1.00  0.00     0.165 C 
BRANCH   6   7
ATOM      7  C   UNL     1      29.467  33.226  15.250  1.00  0.00     0.176 C 
BRANCH   7   8
ATOM      8  C   UNL     1      29.665  34.089  14.057  1.00  0.00     0.178 C 
ATOM      9  C   UNL     1      31.903  34.491  14.534  1.00  0.00     0.269 C 
ATOM     10  C   UNL     1      31.525  35.599  15.424  1.00  0.00     0.112 C 
ATOM     11  O   UNL     1      30.988  34.066  13.605  1.00  0.00    -0.332 OA
ATOM     12  C   UNL     1      30.187  36.207  15.277  1.00  0.00     0.145 C 
ATOM     13  C   UNL     1      29.273  35.519  14.303  1.00  0.00     0.142 C 
BRANCH   9  14
ATOM     14  O   UNL     1      32.249  33.334  15.279  1.00  0.00    -0.357 OA
ATOM     15  H   UNL     1      31.462  32.732  15.191  1.00  0.00     0.214 HD
ENDBRANCH   9  14
BRANCH   9  16
ATOM     16  C   UNL     1      33.143  34.814  13.777  1.00  0.00     0.364 C 
ATOM     17  O   UNL     1      34.293  34.810  14.272  1.00  0.00    -0.246 OA
BRANCH  16  18
ATOM     18  O   UNL     1      33.010  35.140  12.437  1.00  0.00    -0.477 OA
ATOM     19  H   UNL     1      32.469  34.560  11.783  1.00  0.00     0.296 HD
ENDBRANCH  16  18
ENDBRANCH   9  16
BRANCH  12  20
ATOM     20  O   UNL     1      29.557  36.308  16.514  1.00  0.00    -0.391 OA
ATOM     21  H   UNL     1      28.648  36.650  16.478  1.00  0.00     0.211 HD
ENDBRANCH  12  20
BRANCH  13  22
ATOM     22  N   UNL     1      29.280  36.238  13.005  1.00  0.00    -0.348 N 
ATOM     23  C   UNL     1      28.099  36.366  12.239  1.00  0.00     0.217 C 
ATOM     24  H   UNL     1      30.151  36.664  12.625  1.00  0.00     0.163 HD
ATOM     25  C   UNL     1      28.060  37.078  10.929  1.00  0.00     0.114 C 
ATOM     26  O   UNL     1      27.047  35.859  12.682  1.00  0.00    -0.275 OA
ENDBRANCH  13  22
ENDBRANCH   7   8
BRANCH   7  27
ATOM     27  O   UNL     1      29.541  31.857  14.864  1.00  0.00    -0.388 OA
ATOM     28  H   UNL     1      29.044  31.293  15.501  1.00  0.00     0.211 HD
ENDBRANCH   7  27
ENDBRANCH   6   7
BRANCH   6  29
ATOM     29  O   UNL     1      28.103  33.511  17.246  1.00  0.00    -0.388 OA
ATOM     30  H   UNL     1      27.305  33.983  17.589  1.00  0.00     0.211 HD
ENDBRANCH   6  29
ENDBRANCH   5   6
ENDBRANCH   1   5
BRANCH   2  31
ATOM     31  O   UNL     1      27.212  29.332  18.179  1.00  0.00    -0.443 OA
BRANCH  31  32
ATOM     32  C   UNL     1      28.160  29.310  19.216  1.00  0.00     0.294 C 
BRANCH  32  33
ATOM     33  C   UNL     1      28.502  30.667  19.706  1.00  0.00     0.120 A 
ATOM     34  C   UNL     1      29.726  30.974  20.252  1.00  0.00     0.139 A 
ATOM     35  N   UNL     1      27.781  31.785  19.730  1.00  0.00    -0.132 NA
ATOM     36  N   UNL     1      29.709  32.287  20.594  1.00  0.00    -0.237 N 
ATOM     37  N   UNL     1      28.530  32.734  20.266  1.00  0.00    -0.066 NA
BRANCH  36  38
ATOM     38  C   UNL     1      30.854  32.956  21.205  1.00  0.00     0.229 C 
BRANCH  38  39
ATOM     39  C   UNL     1      31.765  33.477  20.127  1.00  0.00     0.161 C 
BRANCH  39  40
ATOM     40  C   UNL     1      31.042  33.801  18.888  1.00  0.00     0.306 C 
ATOM     41  O   UNL     1      31.159  33.037  17.898  1.00  0.00    -0.252 OA
BRANCH  40  42
ATOM     42  O   UNL     1      30.252  34.940  18.841  1.00  0.00    -0.481 OA
ATOM     43  H   UNL     1      29.789  35.189  17.953  1.00  0.00     0.296 HD
ENDBRANCH  40  42
ENDBRANCH  39  40
ENDBRANCH  38  39
BRANCH  38  44
ATOM     44  C   UNL     1      30.356  34.135  21.964  1.00  0.00     0.329 C 
ATOM     45  O   UNL     1      30.834  35.292  21.855  1.00  0.00    -0.250 OA
BRANCH  44  46
ATOM     46  O   UNL     1      29.304  33.948  22.844  1.00  0.00    -0.480 OA
ATOM     47  H   UNL     1      28.363  33.732  22.534  1.00  0.00     0.296 HD
ENDBRANCH  44  46
ENDBRANCH  38  44
ENDBRANCH  36  38
ENDBRANCH  32  33
ENDBRANCH  31  32
ENDBRANCH   2  31
TORSDOF 20
BEGIN_RES LYS A 131
REMARK  4 active torsions:
REMARK  status: ('A' for Active; 'I' for Inactive)
REMARK    1  A    between atoms: CA   and  CB  
REMARK    2  A    between atoms: CB   and  CG  
REMARK    3  A    between atoms: CG   and  CD  
REMARK    4  A    between atoms: CD   and  CE  
ROOT
ATOM      1  CA  LYS A 131      29.867  25.555  16.977  1.00 20.52     0.186 C 
ENDROOT
BRANCH   1   2
ATOM      2  CB  LYS A 131      28.345  25.722  17.026  1.00 20.94     0.034 C 
BRANCH   2   3
ATOM      3  CG  LYS A 131      27.602  24.400  16.914  1.00 22.96     0.005 C 
BRANCH   3   4
ATOM      4  CD  LYS A 131      26.228  24.469  17.522  1.00 24.33     0.041 C 
BRANCH   4   5
ATOM      5  CE  LYS A 131      25.985  25.871  18.072  1.00 26.91     0.338 C 
ATOM      6  NZ  LYS A 131      24.742  25.903  18.879  1.00 27.40     0.618 N 
ENDBRANCH   4   5
ENDBRANCH   3   4
ENDBRANCH   2   3
ENDBRANCH   1   2
END_RES LYS A 131
BEGIN_RES LYS A 135
REMARK  4 active torsions:
REMARK  status: ('A' for Active; 'I' for Inactive)
REMARK    5  A    between atoms: CA   and  CB  
REMARK    6  A    between atoms: CB   and  CG  
REMARK    7  A    between atoms: CG   and  CD  
REMARK    8  A    between atoms: CD   and  CE  
ROOT
ATOM      7  CA  LYS A 135      33.193  34.663   9.290  1.00 25.02     0.186 C 
ENDROOT
BRANCH   7   8
ATOM      8  CB  LYS A 135      32.060  35.360  10.034  1.00 26.63     0.034 C 
BRANCH   8   9
ATOM      9  CG  LYS A 135      30.709  34.737   9.794  1.00 29.45     0.005 C 
BRANCH   9  10
ATOM     10  CD  LYS A 135      30.488  34.490   8.310  1.00 32.00     0.041 C 
BRANCH  10  11
ATOM     11  CE  LYS A 135      29.230  35.190   7.834  1.00 34.25     0.338 C 
ATOM     12  NZ  LYS A 135      28.010  34.516   8.360  1.00 35.99     0.618 N 
ENDBRANCH  10  11
ENDBRANCH   9  10
ENDBRANCH   8   9
ENDBRANCH   7   8
END_RES LYS A 135
