REMARK VINA RESULT:    -5.342      3.488      8.183
REMARK INTER + INTRA:         -14.881
REMARK INTER:                  -9.839
REMARK INTRA:                  -5.042
REMARK UNBOUND:                -5.011
REMARK SMILES CC(=O)N[C@@H]1[C@@H](O)C[C@](O)(C(=O)O)O[C@H]1C(O)[C@H](O)CNC(=O)OCc1cn(CS(=O)(=O)c2ccccc2)nn1
REMARK SMILES IDX 21 1 22 2 23 3 20 5 18 6 16 7 15 8 9 9 8 10 14 11 6 12 5 13
REMARK SMILES IDX 10 14 11 16 12 17 13 18 7 20 4 22 2 23 1 25 3 26 17 27 19 29
REMARK SMILES IDX 24 31 25 32 26 33 27 34 40 35 28 36 39 37 29 38 30 39 31 40
REMARK SMILES IDX 32 41 33 42 34 43 38 44 35 45 37 46 36 47
REMARK H PARENT 21 4 10 15 13 19 7 21 4 24 17 28 19 30
REMARK Flexibility Score: inf
ROOT
ATOM      1  N   UNL     1      30.005  31.240  17.195  1.00  0.00    -0.319 N 
ATOM      2  C   UNL     1      28.580  31.056  17.078  1.00  0.00     0.407 C 
ATOM      3  O   UNL     1      27.858  32.052  16.926  1.00  0.00    -0.225 OA
ATOM      4  H   UNL     1      30.537  30.358  17.313  1.00  0.00     0.167 HD
ENDROOT
BRANCH   1   5
ATOM      5  C   UNL     1      30.582  32.571  17.137  1.00  0.00     0.154 C 
BRANCH   5   6
ATOM      6  C   UNL     1      31.217  32.866  15.820  1.00  0.00     0.165 C 
BRANCH   6   7
ATOM      7  C   UNL     1      30.641  34.040  15.105  1.00  0.00     0.176 C 
BRANCH   7   8
ATOM      8  C   UNL     1      31.295  35.356  15.331  1.00  0.00     0.178 C 
ATOM      9  C   UNL     1      31.012  36.102  13.133  1.00  0.00     0.269 C 
ATOM     10  C   UNL     1      32.308  35.454  12.770  1.00  0.00     0.112 C 
ATOM     11  O   UNL     1      30.778  36.318  14.467  1.00  0.00    -0.332 OA
ATOM     12  C   UNL     1      33.302  35.291  13.851  1.00  0.00     0.145 C 
ATOM     13  C   UNL     1      32.765  35.467  15.244  1.00  0.00     0.142 C 
BRANCH   9  14
ATOM     14  O   UNL     1      29.926  35.374  12.646  1.00  0.00    -0.357 OA
ATOM     15  H   UNL     1      30.170  34.609  12.101  1.00  0.00     0.214 HD
ENDBRANCH   9  14
BRANCH   9  16
ATOM     16  C   UNL     1      30.952  37.438  12.484  1.00  0.00     0.364 C 
ATOM     17  O   UNL     1      31.899  37.809  11.759  1.00  0.00    -0.246 OA
BRANCH  16  18
ATOM     18  O   UNL     1      29.882  38.311  12.644  1.00  0.00    -0.477 OA
ATOM     19  H   UNL     1      29.154  38.390  11.920  1.00  0.00     0.296 HD
ENDBRANCH  16  18
ENDBRANCH   9  16
BRANCH  12  20
ATOM     20  O   UNL     1      33.936  34.058  13.711  1.00  0.00    -0.391 OA
ATOM     21  H   UNL     1      33.861  33.498  14.505  1.00  0.00     0.211 HD
ENDBRANCH  12  20
BRANCH  13  22
ATOM     22  N   UNL     1      33.158  36.763  15.806  1.00  0.00    -0.348 N 
ATOM     23  C   UNL     1      34.298  36.905  16.627  1.00  0.00     0.217 C 
ATOM     24  H   UNL     1      32.590  37.608  15.604  1.00  0.00     0.163 HD
ATOM     25  C   UNL     1      34.712  38.218  17.208  1.00  0.00     0.114 C 
ATOM     26  O   UNL     1      34.971  35.871  16.860  1.00  0.00    -0.275 OA
ENDBRANCH  13  22
ENDBRANCH   7   8
BRANCH   7  27
ATOM     27  O   UNL     1      29.362  34.221  15.794  1.00  0.00    -0.388 OA
ATOM     28  H   UNL     1      29.576  34.684  16.622  1.00  0.00     0.211 HD
ENDBRANCH   7  27
ENDBRANCH   6   7
BRANCH   6  29
ATOM     29  O   UNL     1      31.437  31.777  15.001  1.00  0.00    -0.388 OA
ATOM     30  H   UNL     1      32.323  31.366  15.146  1.00  0.00     0.211 HD
ENDBRANCH   6  29
ENDBRANCH   5   6
ENDBRANCH   1   5
BRANCH   2  31
ATOM     31  O   UNL     1      28.013  29.797  17.131  1.00  0.00    -0.443 OA
BRANCH  31  32
ATOM     32  C   UNL     1      27.202  29.368  18.210  1.00  0.00     0.294 C 
BRANCH  32  33
ATOM     33  C   UNL     1      28.007  28.859  19.330  1.00  0.00     0.120 A 
ATOM     34  C   UNL     1      28.817  29.516  20.212  1.00  0.00     0.139 A 
ATOM     35  N   UNL     1      28.072  27.558  19.684  1.00  0.00    -0.132 NA
ATOM     36  N   UNL     1      29.347  28.604  21.066  1.00  0.00    -0.237 N 
ATOM     37  N   UNL     1      28.874  27.419  20.718  1.00  0.00    -0.066 NA
BRANCH  36  38
ATOM     38  C   UNL     1      30.252  28.917  22.140  1.00  0.00     0.287 C 
BRANCH  38  39
ATOM     39  S   UNL     1      31.934  28.543  21.666  1.00  0.00     0.198 S 
ATOM     40  O   UNL     1      31.911  28.038  20.245  1.00  0.00    -0.222 OA
ATOM     41  O   UNL     1      32.434  27.482  22.573  1.00  0.00    -0.222 OA
BRANCH  39  42
ATOM     42  C   UNL     1      32.887  30.011  21.786  1.00  0.00     0.069 A 
ATOM     43  C   UNL     1      34.240  29.887  22.084  1.00  0.00     0.020 A 
ATOM     44  C   UNL     1      32.300  31.238  21.590  1.00  0.00     0.020 A 
ATOM     45  C   UNL     1      34.984  31.037  22.178  1.00  0.00     0.001 A 
ATOM     46  C   UNL     1      33.091  32.361  21.696  1.00  0.00     0.001 A 
ATOM     47  C   UNL     1      34.433  32.301  21.987  1.00  0.00     0.000 A 
ENDBRANCH  39  42
ENDBRANCH  38  39
ENDBRANCH  36  38
ENDBRANCH  32  33
ENDBRANCH  31  32
ENDBRANCH   2  31
TORSDOF 17
BEGIN_RES LYS A 131
REMARK  4 active torsions:
REMARK  status: ('A' for Active; 'I' for Inactive)
REMARK    1  A    between atoms: CA   and  CB  
REMARK    2  A    between atoms: CB   and  CG  
REMARK    3  A    between atoms: CG   and  CD  
REMARK    4  A    between atoms: CD   and  CE  
ROOT
ATOM      1  CA  LYS A 131      29.867  25.555  16.977  1.00 20.52     0.186 C 
ENDROOT
BRANCH   1   2
ATOM      2  CB  LYS A 131      28.345  25.722  17.026  1.00 20.94     0.034 C 
BRANCH   2   3
ATOM      3  CG  LYS A 131      27.607  24.394  17.106  1.00 22.96     0.005 C 
BRANCH   3   4
ATOM      4  CD  LYS A 131      26.115  24.571  17.048  1.00 24.33     0.041 C 
BRANCH   4   5
ATOM      5  CE  LYS A 131      25.554  24.627  18.465  1.00 26.91     0.338 C 
ATOM      6  NZ  LYS A 131      25.829  23.360  19.183  1.00 27.40     0.618 N 
ENDBRANCH   4   5
ENDBRANCH   3   4
ENDBRANCH   2   3
ENDBRANCH   1   2
END_RES LYS A 131
BEGIN_RES LYS A 135
REMARK  4 active torsions:
REMARK  status: ('A' for Active; 'I' for Inactive)
REMARK    5  A    between atoms: CA   and  CB  
REMARK    6  A    between atoms: CB   and  CG  
REMARK    7  A    between atoms: CG   and  CD  
REMARK    8  A    between atoms: CD   and  CE  
ROOT
ATOM      7  CA  LYS A 135      33.193  34.663   9.290  1.00 25.02     0.186 C 
ENDROOT
BRANCH   7   8
ATOM      8  CB  LYS A 135      32.060  35.360  10.034  1.00 26.63     0.034 C 
BRANCH   8   9
ATOM      9  CG  LYS A 135      30.800  35.500   9.219  1.00 29.45     0.005 C 
BRANCH   9  10
ATOM     10  CD  LYS A 135      30.133  34.148   9.024  1.00 32.00     0.041 C 
BRANCH  10  11
ATOM     11  CE  LYS A 135      28.676  34.322   8.643  1.00 34.25     0.338 C 
ATOM     12  NZ  LYS A 135      27.778  33.697   9.654  1.00 35.99     0.618 N 
ENDBRANCH  10  11
ENDBRANCH   9  10
ENDBRANCH   8   9
ENDBRANCH   7   8
END_RES LYS A 135
