REMARK VINA RESULT:    -5.402      4.460      9.246
REMARK INTER + INTRA:         -13.898
REMARK INTER:                 -10.209
REMARK INTRA:                  -3.688
REMARK UNBOUND:                -4.548
REMARK SMILES CC(=O)N[C@@H]1[C@@H](O)C[C@](O)(C(=O)O)O[C@H]1C(O)[C@H](O)CNC(=O)OCc1cn(-c2ccc3c(c2)OCO3)nn1
REMARK SMILES IDX 20 1 18 2 16 3 15 4 9 5 8 6 14 7 6 8 5 9 10 10 11 12 12 13
REMARK SMILES IDX 13 14 7 16 4 18 2 19 1 21 3 22 17 23 19 25 21 27 22 28 23 30
REMARK SMILES IDX 24 31 25 32 26 33 27 34 39 35 28 36 38 37 29 38 30 39 34 40
REMARK SMILES IDX 31 41 33 42 32 43 35 44 37 45 36 46
REMARK H PARENT 10 11 13 15 7 17 4 20 17 24 19 26 21 29
REMARK Flexibility Score: inf
ROOT
ATOM      1  C   UNL     1      29.194  34.016  15.377  1.00  0.00     0.154 C 
ENDROOT
BRANCH   1   2
ATOM      2  C   UNL     1      29.608  32.627  15.023  1.00  0.00     0.165 C 
BRANCH   2   3
ATOM      3  C   UNL     1      29.656  31.731  16.272  1.00  0.00     0.176 C 
BRANCH   3   4
ATOM      4  C   UNL     1      28.368  30.992  16.336  1.00  0.00     0.178 C 
ATOM      5  C   UNL     1      26.099  31.142  16.178  1.00  0.00     0.269 C 
ATOM      6  C   UNL     1      26.264  29.644  16.320  1.00  0.00     0.112 C 
ATOM      7  O   UNL     1      27.286  31.821  16.059  1.00  0.00    -0.332 OA
ATOM      8  C   UNL     1      27.137  29.275  17.504  1.00  0.00     0.145 C 
ATOM      9  C   UNL     1      28.101  30.393  17.716  1.00  0.00     0.142 C 
BRANCH   5  10
ATOM     10  O   UNL     1      25.344  31.558  17.276  1.00  0.00    -0.357 OA
ATOM     11  H   UNL     1      24.408  31.636  16.948  1.00  0.00     0.214 HD
ENDBRANCH   5  10
BRANCH   5  12
ATOM     12  C   UNL     1      25.329  31.368  14.932  1.00  0.00     0.364 C 
ATOM     13  O   UNL     1      24.709  30.411  14.412  1.00  0.00    -0.246 OA
BRANCH  12  14
ATOM     14  O   UNL     1      25.262  32.602  14.307  1.00  0.00    -0.477 OA
ATOM     15  H   UNL     1      26.010  32.984  13.739  1.00  0.00     0.296 HD
ENDBRANCH  12  14
ENDBRANCH   5  12
BRANCH   8  16
ATOM     16  O   UNL     1      26.256  29.129  18.598  1.00  0.00    -0.391 OA
ATOM     17  H   UNL     1      26.312  28.231  18.973  1.00  0.00     0.211 HD
ENDBRANCH   8  16
BRANCH   9  18
ATOM     18  N   UNL     1      29.282  30.067  18.428  1.00  0.00    -0.348 N 
ATOM     19  C   UNL     1      29.438  30.016  19.839  1.00  0.00     0.217 C 
ATOM     20  H   UNL     1      30.134  29.835  17.871  1.00  0.00     0.163 HD
ATOM     21  C   UNL     1      30.732  29.658  20.491  1.00  0.00     0.114 C 
ATOM     22  O   UNL     1      28.433  30.288  20.535  1.00  0.00    -0.275 OA
ENDBRANCH   9  18
ENDBRANCH   3   4
BRANCH   3  23
ATOM     23  O   UNL     1      30.736  30.901  16.145  1.00  0.00    -0.388 OA
ATOM     24  H   UNL     1      30.672  30.146  15.551  1.00  0.00     0.211 HD
ENDBRANCH   3  23
ENDBRANCH   2   3
BRANCH   2  25
ATOM     25  O   UNL     1      30.845  32.594  14.435  1.00  0.00    -0.388 OA
ATOM     26  H   UNL     1      31.335  33.443  14.390  1.00  0.00     0.211 HD
ENDBRANCH   2  25
ENDBRANCH   1   2
BRANCH   1  27
ATOM     27  N   UNL     1      28.094  34.465  14.596  1.00  0.00    -0.319 N 
ATOM     28  C   UNL     1      28.232  35.083  13.343  1.00  0.00     0.407 C 
ATOM     29  H   UNL     1      27.097  34.342  14.950  1.00  0.00     0.167 HD
ATOM     30  O   UNL     1      29.310  35.323  12.776  1.00  0.00    -0.225 OA
BRANCH  28  31
ATOM     31  O   UNL     1      27.071  35.474  12.652  1.00  0.00    -0.443 OA
BRANCH  31  32
ATOM     32  C   UNL     1      26.404  34.544  11.855  1.00  0.00     0.294 C 
BRANCH  32  33
ATOM     33  C   UNL     1      26.876  34.678  10.452  1.00  0.00     0.121 A 
ATOM     34  C   UNL     1      26.827  35.828   9.672  1.00  0.00     0.144 A 
ATOM     35  N   UNL     1      27.434  33.745   9.662  1.00  0.00    -0.131 NA
ATOM     36  N   UNL     1      27.343  35.569   8.458  1.00  0.00    -0.220 N 
ATOM     37  N   UNL     1      27.699  34.298   8.494  1.00  0.00    -0.062 NA
BRANCH  36  38
ATOM     38  C   UNL     1      27.465  36.497   7.385  1.00  0.00     0.070 A 
ATOM     39  C   UNL     1      28.307  36.233   6.323  1.00  0.00     0.032 A 
ATOM     40  C   UNL     1      26.767  37.686   7.347  1.00  0.00     0.079 A 
ATOM     41  C   UNL     1      28.442  37.127   5.263  1.00  0.00     0.053 A 
ATOM     42  C   UNL     1      26.886  38.595   6.297  1.00  0.00     0.167 A 
ATOM     43  C   UNL     1      27.732  38.309   5.249  1.00  0.00     0.165 A 
ATOM     44  O   UNL     1      26.304  39.832   6.031  1.00  0.00    -0.454 OA
ATOM     45  O   UNL     1      27.644  39.392   4.356  1.00  0.00    -0.454 OA
ATOM     46  C   UNL     1      27.081  40.506   5.058  1.00  0.00     0.468 C 
ENDBRANCH  36  38
ENDBRANCH  32  33
ENDBRANCH  31  32
ENDBRANCH  28  31
ENDBRANCH   1  27
TORSDOF 15
BEGIN_RES LYS A 131
REMARK  4 active torsions:
REMARK  status: ('A' for Active; 'I' for Inactive)
REMARK    1  A    between atoms: CA   and  CB  
REMARK    2  A    between atoms: CB   and  CG  
REMARK    3  A    between atoms: CG   and  CD  
REMARK    4  A    between atoms: CD   and  CE  
ROOT
ATOM      1  CA  LYS A 131      29.867  25.555  16.977  1.00 20.52     0.186 C 
ENDROOT
BRANCH   1   2
ATOM      2  CB  LYS A 131      28.345  25.722  17.026  1.00 20.94     0.034 C 
BRANCH   2   3
ATOM      3  CG  LYS A 131      27.601  24.401  16.906  1.00 22.96     0.005 C 
BRANCH   3   4
ATOM      4  CD  LYS A 131      26.639  24.187  18.042  1.00 24.33     0.041 C 
BRANCH   4   5
ATOM      5  CE  LYS A 131      26.207  25.538  18.603  1.00 26.91     0.338 C 
ATOM      6  NZ  LYS A 131      24.904  25.946  18.026  1.00 27.40     0.618 N 
ENDBRANCH   4   5
ENDBRANCH   3   4
ENDBRANCH   2   3
ENDBRANCH   1   2
END_RES LYS A 131
BEGIN_RES LYS A 135
REMARK  4 active torsions:
REMARK  status: ('A' for Active; 'I' for Inactive)
REMARK    5  A    between atoms: CA   and  CB  
REMARK    6  A    between atoms: CB   and  CG  
REMARK    7  A    between atoms: CG   and  CD  
REMARK    8  A    between atoms: CD   and  CE  
ROOT
ATOM      7  CA  LYS A 135      33.193  34.663   9.290  1.00 25.02     0.186 C 
ENDROOT
BRANCH   7   8
ATOM      8  CB  LYS A 135      32.060  35.360  10.034  1.00 26.63     0.034 C 
BRANCH   8   9
ATOM      9  CG  LYS A 135      30.893  35.722   9.152  1.00 29.45     0.005 C 
BRANCH   9  10
ATOM     10  CD  LYS A 135      30.432  37.145   9.429  1.00 32.00     0.041 C 
BRANCH  10  11
ATOM     11  CE  LYS A 135      31.506  37.917  10.173  1.00 34.25     0.338 C 
ATOM     12  NZ  LYS A 135      30.982  38.465  11.455  1.00 35.99     0.618 N 
ENDBRANCH  10  11
ENDBRANCH   9  10
ENDBRANCH   8   9
ENDBRANCH   7   8
END_RES LYS A 135
