REMARK VINA RESULT:    -5.653      2.070      3.551
REMARK INTER + INTRA:         -15.450
REMARK INTER:                  -8.387
REMARK INTRA:                  -7.063
REMARK UNBOUND:                -5.337
REMARK SMILES CC(=O)N[C@@H]1[C@@H](O)C[C@](O)(C(=O)O)O[C@H]1C(O)[C@H](O)CNC(=O)OCc1cn(CC2=CC[C@H]3C[C@@H]2C3(C)C)nn1
REMARK SMILES IDX 21 1 22 2 23 3 20 5 18 6 16 7 15 8 9 9 8 10 14 11 6 12 5 13
REMARK SMILES IDX 10 14 11 16 12 17 13 18 7 20 4 22 2 23 1 25 3 26 17 27 19 29
REMARK SMILES IDX 24 31 25 32 26 33 27 34 40 35 28 36 39 37 29 38 30 39 31 40
REMARK SMILES IDX 35 41 32 42 34 43 36 44 33 45 37 46 38 47
REMARK H PARENT 21 4 10 15 13 19 7 21 4 24 17 28 19 30
REMARK Flexibility Score: inf
ROOT
ATOM      1  N   UNL     1      25.834  30.372  16.956  1.00  0.00    -0.319 N 
ATOM      2  C   UNL     1      25.353  31.106  15.818  1.00  0.00     0.407 C 
ATOM      3  O   UNL     1      24.996  30.465  14.797  1.00  0.00    -0.225 OA
ATOM      4  H   UNL     1      26.130  30.898  17.805  1.00  0.00     0.167 HD
ENDROOT
BRANCH   1   5
ATOM      5  C   UNL     1      25.899  28.927  16.904  1.00  0.00     0.154 C 
BRANCH   5   6
ATOM      6  C   UNL     1      27.270  28.503  17.345  1.00  0.00     0.165 C 
BRANCH   6   7
ATOM      7  C   UNL     1      27.368  28.346  18.847  1.00  0.00     0.176 C 
BRANCH   7   8
ATOM      8  C   UNL     1      28.391  29.344  19.336  1.00  0.00     0.178 C 
ATOM      9  C   UNL     1      29.709  28.200  20.860  1.00  0.00     0.269 C 
ATOM     10  C   UNL     1      29.348  29.111  22.011  1.00  0.00     0.112 C 
ATOM     11  O   UNL     1      29.608  28.803  19.629  1.00  0.00    -0.332 OA
ATOM     12  C   UNL     1      28.930  30.442  21.438  1.00  0.00     0.145 C 
ATOM     13  C   UNL     1      27.807  30.171  20.457  1.00  0.00     0.142 C 
BRANCH   9  14
ATOM     14  O   UNL     1      28.961  27.022  20.947  1.00  0.00    -0.357 OA
ATOM     15  H   UNL     1      28.717  26.928  21.908  1.00  0.00     0.214 HD
ENDBRANCH   9  14
BRANCH   9  16
ATOM     16  C   UNL     1      31.137  27.812  21.052  1.00  0.00     0.364 C 
ATOM     17  O   UNL     1      31.711  28.087  22.160  1.00  0.00    -0.246 OA
BRANCH  16  18
ATOM     18  O   UNL     1      31.874  27.166  20.083  1.00  0.00    -0.477 OA
ATOM     19  H   UNL     1      31.585  26.271  19.697  1.00  0.00     0.296 HD
ENDBRANCH  16  18
ENDBRANCH   9  16
BRANCH  12  20
ATOM     20  O   UNL     1      28.464  31.311  22.406  1.00  0.00    -0.391 OA
ATOM     21  H   UNL     1      27.583  30.974  22.709  1.00  0.00     0.211 HD
ENDBRANCH  12  20
BRANCH  13  22
ATOM     22  N   UNL     1      27.195  31.391  19.998  1.00  0.00    -0.348 N 
ATOM     23  C   UNL     1      25.851  31.718  20.313  1.00  0.00     0.217 C 
ATOM     24  H   UNL     1      27.771  32.041  19.419  1.00  0.00     0.163 HD
ATOM     25  C   UNL     1      25.298  33.000  19.796  1.00  0.00     0.114 C 
ATOM     26  O   UNL     1      25.152  30.940  21.009  1.00  0.00    -0.275 OA
ENDBRANCH  13  22
ENDBRANCH   7   8
BRANCH   7  27
ATOM     27  O   UNL     1      26.153  28.652  19.456  1.00  0.00    -0.388 OA
ATOM     28  H   UNL     1      26.062  29.591  19.689  1.00  0.00     0.211 HD
ENDBRANCH   7  27
ENDBRANCH   6   7
BRANCH   6  29
ATOM     29  O   UNL     1      28.154  29.531  16.952  1.00  0.00    -0.388 OA
ATOM     30  H   UNL     1      28.645  29.885  17.745  1.00  0.00     0.211 HD
ENDBRANCH   6  29
ENDBRANCH   5   6
ENDBRANCH   1   5
BRANCH   2  31
ATOM     31  O   UNL     1      25.264  32.471  15.797  1.00  0.00    -0.443 OA
BRANCH  31  32
ATOM     32  C   UNL     1      26.274  33.324  15.287  1.00  0.00     0.294 C 
BRANCH  32  33
ATOM     33  C   UNL     1      27.576  32.997  15.903  1.00  0.00     0.120 A 
ATOM     34  C   UNL     1      28.823  32.978  15.323  1.00  0.00     0.138 A 
ATOM     35  N   UNL     1      27.762  32.648  17.185  1.00  0.00    -0.132 NA
ATOM     36  N   UNL     1      29.746  32.619  16.264  1.00  0.00    -0.248 N 
ATOM     37  N   UNL     1      29.064  32.426  17.384  1.00  0.00    -0.067 NA
BRANCH  36  38
ATOM     38  C   UNL     1      31.163  32.492  16.028  1.00  0.00     0.177 C 
BRANCH  38  39
ATOM     39  C   UNL     1      31.824  33.842  15.962  1.00  0.00    -0.049 C 
ATOM     40  C   UNL     1      32.128  34.517  17.067  1.00  0.00    -0.025 C 
ATOM     41  C   UNL     1      32.158  34.468  14.667  1.00  0.00     0.023 C 
ATOM     42  C   UNL     1      32.994  35.722  16.950  1.00  0.00     0.031 C 
ATOM     43  C   UNL     1      33.647  34.835  14.746  1.00  0.00     0.013 C 
ATOM     44  C   UNL     1      31.877  35.955  14.743  1.00  0.00    -0.026 C 
ATOM     45  C   UNL     1      33.204  36.071  15.509  1.00  0.00    -0.000 C 
ATOM     46  C   UNL     1      31.986  36.665  13.424  1.00  0.00     0.012 C 
ATOM     47  C   UNL     1      30.669  36.353  15.521  1.00  0.00     0.012 C 
ENDBRANCH  38  39
ENDBRANCH  36  38
ENDBRANCH  32  33
ENDBRANCH  31  32
ENDBRANCH   2  31
TORSDOF 16
BEGIN_RES LYS A 131
REMARK  4 active torsions:
REMARK  status: ('A' for Active; 'I' for Inactive)
REMARK    1  A    between atoms: CA   and  CB  
REMARK    2  A    between atoms: CB   and  CG  
REMARK    3  A    between atoms: CG   and  CD  
REMARK    4  A    between atoms: CD   and  CE  
ROOT
ATOM      1  CA  LYS A 131      29.867  25.555  16.977  1.00 20.52     0.186 C 
ENDROOT
BRANCH   1   2
ATOM      2  CB  LYS A 131      28.345  25.722  17.026  1.00 20.94     0.034 C 
BRANCH   2   3
ATOM      3  CG  LYS A 131      27.599  24.475  16.576  1.00 22.96     0.005 C 
BRANCH   3   4
ATOM      4  CD  LYS A 131      27.217  23.595  17.733  1.00 24.33     0.041 C 
BRANCH   4   5
ATOM      5  CE  LYS A 131      25.698  23.563  17.868  1.00 26.91     0.338 C 
ATOM      6  NZ  LYS A 131      25.307  23.225  19.257  1.00 27.40     0.618 N 
ENDBRANCH   4   5
ENDBRANCH   3   4
ENDBRANCH   2   3
ENDBRANCH   1   2
END_RES LYS A 131
BEGIN_RES LYS A 135
REMARK  4 active torsions:
REMARK  status: ('A' for Active; 'I' for Inactive)
REMARK    5  A    between atoms: CA   and  CB  
REMARK    6  A    between atoms: CB   and  CG  
REMARK    7  A    between atoms: CG   and  CD  
REMARK    8  A    between atoms: CD   and  CE  
ROOT
ATOM      7  CA  LYS A 135      33.193  34.663   9.290  1.00 25.02     0.186 C 
ENDROOT
BRANCH   7   8
ATOM      8  CB  LYS A 135      32.060  35.360  10.034  1.00 26.63     0.034 C 
BRANCH   8   9
ATOM      9  CG  LYS A 135      30.859  35.646   9.171  1.00 29.45     0.005 C 
BRANCH   9  10
ATOM     10  CD  LYS A 135      30.313  34.361   8.567  1.00 32.00     0.041 C 
BRANCH  10  11
ATOM     11  CE  LYS A 135      28.801  34.424   8.459  1.00 34.25     0.338 C 
ATOM     12  NZ  LYS A 135      28.153  33.748   9.617  1.00 35.99     0.618 N 
ENDBRANCH  10  11
ENDBRANCH   9  10
ENDBRANCH   8   9
ENDBRANCH   7   8
END_RES LYS A 135
