REMARK VINA RESULT:    -3.847      1.825      4.222
REMARK INTER + INTRA:         -14.715
REMARK INTER:                  -7.666
REMARK INTRA:                  -7.049
REMARK UNBOUND:                -7.158
REMARK SMILES CCN(CC)CCn1cc(COC(=O)NC[C@@H](O)C(O)[C@@H]2O[C@@](O)(C(=O)O)C[C@H](O)[C@H]2NC(C)=O)nn1
REMARK SMILES IDX 15 1 13 2 14 3 16 5 17 6 19 7 21 8 23 9 28 10 22 11 29 12
REMARK SMILES IDX 31 13 24 14 25 16 26 17 27 18 30 20 32 22 33 23 34 25 35 26
REMARK SMILES IDX 20 27 18 29 12 31 11 32 10 33 9 34 36 35 8 36 37 37 7 38
REMARK SMILES IDX 6 39 3 40 2 41 1 42 4 43 5 44
REMARK H PARENT 15 4 24 15 27 19 30 21 32 24 20 28 18 30
REMARK Flexibility Score: inf
ROOT
ATOM      1  N   UNL     1      28.115  27.488  18.858  1.00  0.00    -0.319 N 
ATOM      2  C   UNL     1      26.975  28.138  18.294  1.00  0.00     0.407 C 
ATOM      3  O   UNL     1      26.074  28.569  19.033  1.00  0.00    -0.225 OA
ATOM      4  H   UNL     1      28.825  27.153  18.183  1.00  0.00     0.167 HD
ENDROOT
BRANCH   1   5
ATOM      5  C   UNL     1      28.305  27.290  20.261  1.00  0.00     0.154 C 
BRANCH   5   6
ATOM      6  C   UNL     1      29.502  28.006  20.822  1.00  0.00     0.165 C 
BRANCH   6   7
ATOM      7  C   UNL     1      29.376  29.497  20.599  1.00  0.00     0.176 C 
BRANCH   7   8
ATOM      8  C   UNL     1      29.773  30.274  21.822  1.00  0.00     0.178 C 
ATOM      9  C   UNL     1      28.295  32.075  21.496  1.00  0.00     0.269 C 
ATOM     10  C   UNL     1      29.455  32.883  20.930  1.00  0.00     0.112 C 
ATOM     11  O   UNL     1      28.700  31.013  22.250  1.00  0.00    -0.332 OA
ATOM     12  C   UNL     1      30.672  32.556  21.802  1.00  0.00     0.145 C 
ATOM     13  C   UNL     1      30.981  31.116  21.602  1.00  0.00     0.142 C 
BRANCH   9  14
ATOM     14  O   UNL     1      27.451  31.765  20.432  1.00  0.00    -0.357 OA
ATOM     15  H   UNL     1      26.504  31.684  20.739  1.00  0.00     0.214 HD
ENDBRANCH   9  14
BRANCH   9  16
ATOM     16  C   UNL     1      27.534  32.982  22.413  1.00  0.00     0.364 C 
ATOM     17  O   UNL     1      26.746  33.854  21.988  1.00  0.00    -0.246 OA
BRANCH  16  18
ATOM     18  O   UNL     1      27.709  32.849  23.774  1.00  0.00    -0.477 OA
ATOM     19  H   UNL     1      27.553  31.981  24.278  1.00  0.00     0.296 HD
ENDBRANCH  16  18
ENDBRANCH   9  16
BRANCH  12  20
ATOM     20  O   UNL     1      31.709  33.404  21.411  1.00  0.00    -0.391 OA
ATOM     21  H   UNL     1      31.472  34.314  21.779  1.00  0.00     0.211 HD
ENDBRANCH  12  20
BRANCH  13  22
ATOM     22  N   UNL     1      32.130  30.667  22.365  1.00  0.00    -0.348 N 
ATOM     23  C   UNL     1      33.046  29.687  21.891  1.00  0.00     0.217 C 
ATOM     24  H   UNL     1      32.339  31.060  23.327  1.00  0.00     0.163 HD
ATOM     25  C   UNL     1      34.216  29.261  22.722  1.00  0.00     0.114 C 
ATOM     26  O   UNL     1      32.884  29.167  20.770  1.00  0.00    -0.275 OA
ENDBRANCH  13  22
ENDBRANCH   7   8
BRANCH   7  27
ATOM     27  O   UNL     1      30.225  29.764  19.510  1.00  0.00    -0.388 OA
ATOM     28  H   UNL     1      29.837  29.262  18.744  1.00  0.00     0.211 HD
ENDBRANCH   7  27
ENDBRANCH   6   7
BRANCH   6  29
ATOM     29  O   UNL     1      30.659  27.449  20.357  1.00  0.00    -0.388 OA
ATOM     30  H   UNL     1      30.580  27.268  19.388  1.00  0.00     0.211 HD
ENDBRANCH   6  29
ENDBRANCH   5   6
ENDBRANCH   1   5
BRANCH   2  31
ATOM     31  O   UNL     1      26.821  28.316  16.929  1.00  0.00    -0.443 OA
BRANCH  31  32
ATOM     32  C   UNL     1      26.581  29.593  16.355  1.00  0.00     0.294 C 
BRANCH  32  33
ATOM     33  C   UNL     1      27.744  30.461  16.669  1.00  0.00     0.120 A 
ATOM     34  C   UNL     1      28.834  30.631  15.816  1.00  0.00     0.138 A 
ATOM     35  N   UNL     1      28.010  31.221  17.740  1.00  0.00    -0.132 NA
ATOM     36  N   UNL     1      29.686  31.468  16.401  1.00  0.00    -0.251 N 
ATOM     37  N   UNL     1      29.177  31.817  17.563  1.00  0.00    -0.067 NA
BRANCH  36  38
ATOM     38  C   UNL     1      30.944  31.914  15.866  1.00  0.00     0.161 C 
BRANCH  38  39
ATOM     39  C   UNL     1      30.675  32.949  14.788  1.00  0.00     0.108 C 
BRANCH  39  40
ATOM     40  N   UNL     1      31.035  34.277  15.168  1.00  0.00    -0.302 NA
BRANCH  40  41
ATOM     41  C   UNL     1      31.891  34.369  16.303  1.00  0.00     0.081 C 
ATOM     42  C   UNL     1      33.064  35.277  15.906  1.00  0.00     0.021 C 
ENDBRANCH  40  41
BRANCH  40  43
ATOM     43  C   UNL     1      29.957  35.205  15.102  1.00  0.00     0.081 C 
ATOM     44  C   UNL     1      29.030  35.154  16.276  1.00  0.00     0.021 C 
ENDBRANCH  40  43
ENDBRANCH  39  40
ENDBRANCH  38  39
ENDBRANCH  36  38
ENDBRANCH  32  33
ENDBRANCH  31  32
ENDBRANCH   2  31
TORSDOF 19
BEGIN_RES LYS A 131
REMARK  4 active torsions:
REMARK  status: ('A' for Active; 'I' for Inactive)
REMARK    1  A    between atoms: CA   and  CB  
REMARK    2  A    between atoms: CB   and  CG  
REMARK    3  A    between atoms: CG   and  CD  
REMARK    4  A    between atoms: CD   and  CE  
ROOT
ATOM      1  CA  LYS A 131      29.867  25.555  16.977  1.00 20.52     0.186 C 
ENDROOT
BRANCH   1   2
ATOM      2  CB  LYS A 131      28.345  25.722  17.026  1.00 20.94     0.034 C 
BRANCH   2   3
ATOM      3  CG  LYS A 131      27.602  24.400  16.913  1.00 22.96     0.005 C 
BRANCH   3   4
ATOM      4  CD  LYS A 131      26.150  24.533  17.281  1.00 24.33     0.041 C 
BRANCH   4   5
ATOM      5  CE  LYS A 131      26.001  24.469  18.798  1.00 26.91     0.338 C 
ATOM      6  NZ  LYS A 131      24.866  25.310  19.244  1.00 27.40     0.618 N 
ENDBRANCH   4   5
ENDBRANCH   3   4
ENDBRANCH   2   3
ENDBRANCH   1   2
END_RES LYS A 131
BEGIN_RES LYS A 135
REMARK  4 active torsions:
REMARK  status: ('A' for Active; 'I' for Inactive)
REMARK    5  A    between atoms: CA   and  CB  
REMARK    6  A    between atoms: CB   and  CG  
REMARK    7  A    between atoms: CG   and  CD  
REMARK    8  A    between atoms: CD   and  CE  
ROOT
ATOM      7  CA  LYS A 135      33.193  34.663   9.290  1.00 25.02     0.186 C 
ENDROOT
BRANCH   7   8
ATOM      8  CB  LYS A 135      32.060  35.360  10.034  1.00 26.63     0.034 C 
BRANCH   8   9
ATOM      9  CG  LYS A 135      30.712  34.724   9.811  1.00 29.45     0.005 C 
BRANCH   9  10
ATOM     10  CD  LYS A 135      30.438  34.554   8.325  1.00 32.00     0.041 C 
BRANCH  10  11
ATOM     11  CE  LYS A 135      28.994  34.890   8.007  1.00 34.25     0.338 C 
ATOM     12  NZ  LYS A 135      28.867  35.478   6.645  1.00 35.99     0.618 N 
ENDBRANCH  10  11
ENDBRANCH   9  10
ENDBRANCH   8   9
ENDBRANCH   7   8
END_RES LYS A 135
