REMARK VINA RESULT:    -5.749      4.986      7.877
REMARK INTER + INTRA:         -14.447
REMARK INTER:                  -8.716
REMARK INTRA:                  -5.732
REMARK UNBOUND:                -4.497
REMARK SMILES CC(=O)N[C@@H]1[C@@H](O)C[C@](O)(C(=O)O)O[C@H]1C(O)[C@H](O)CNC(=O)OCc1cn(-c2cccc(Cl)c2)nn1
REMARK SMILES IDX 20 1 18 2 16 3 15 4 9 5 8 6 14 7 6 8 5 9 10 10 11 12 12 13
REMARK SMILES IDX 13 14 7 16 4 18 2 19 1 21 3 22 17 23 19 25 21 27 22 28 23 30
REMARK SMILES IDX 24 31 25 32 26 33 27 34 37 35 28 36 36 37 29 38 30 39 35 40
REMARK SMILES IDX 31 41 33 42 32 43 34 44
REMARK H PARENT 10 11 13 15 7 17 4 20 17 24 19 26 21 29
REMARK Flexibility Score: inf
ROOT
ATOM      1  C   UNL     1      26.811  34.257  17.060  1.00  0.00     0.154 C 
ENDROOT
BRANCH   1   2
ATOM      2  C   UNL     1      27.419  33.248  16.129  1.00  0.00     0.165 C 
BRANCH   2   3
ATOM      3  C   UNL     1      28.395  33.850  15.161  1.00  0.00     0.176 C 
BRANCH   3   4
ATOM      4  C   UNL     1      29.594  34.451  15.899  1.00  0.00     0.178 C 
ATOM      5  C   UNL     1      31.367  34.980  14.448  1.00  0.00     0.269 C 
ATOM      6  C   UNL     1      32.325  34.299  15.416  1.00  0.00     0.112 C 
ATOM      7  O   UNL     1      30.214  35.303  15.076  1.00  0.00    -0.332 OA
ATOM      8  C   UNL     1      31.633  32.977  15.744  1.00  0.00     0.145 C 
ATOM      9  C   UNL     1      30.375  33.331  16.490  1.00  0.00     0.142 C 
BRANCH   5  10
ATOM     10  O   UNL     1      31.218  34.105  13.381  1.00  0.00    -0.357 OA
ATOM     11  H   UNL     1      31.107  34.636  12.554  1.00  0.00     0.214 HD
ENDBRANCH   5  10
BRANCH   5  12
ATOM     12  C   UNL     1      31.988  36.228  13.945  1.00  0.00     0.364 C 
ATOM     13  O   UNL     1      32.261  36.323  12.727  1.00  0.00    -0.246 OA
BRANCH  12  14
ATOM     14  O   UNL     1      32.282  37.306  14.768  1.00  0.00    -0.477 OA
ATOM     15  H   UNL     1      32.385  38.230  14.336  1.00  0.00     0.296 HD
ENDBRANCH  12  14
ENDBRANCH   5  12
BRANCH   8  16
ATOM     16  O   UNL     1      31.270  32.291  14.591  1.00  0.00    -0.391 OA
ATOM     17  H   UNL     1      30.455  31.729  14.726  1.00  0.00     0.211 HD
ENDBRANCH   8  16
BRANCH   9  18
ATOM     18  N   UNL     1      30.765  33.633  17.851  1.00  0.00    -0.348 N 
ATOM     19  C   UNL     1      30.541  32.675  18.874  1.00  0.00     0.217 C 
ATOM     20  H   UNL     1      31.215  34.560  18.104  1.00  0.00     0.163 HD
ATOM     21  C   UNL     1      30.942  32.992  20.268  1.00  0.00     0.114 C 
ATOM     22  O   UNL     1      30.007  31.571  18.593  1.00  0.00    -0.275 OA
ENDBRANCH   9  18
ENDBRANCH   3   4
BRANCH   3  23
ATOM     23  O   UNL     1      27.699  34.877  14.486  1.00  0.00    -0.388 OA
ATOM     24  H   UNL     1      26.916  35.153  14.982  1.00  0.00     0.211 HD
ENDBRANCH   3  23
ENDBRANCH   2   3
BRANCH   2  25
ATOM     25  O   UNL     1      26.388  32.626  15.402  1.00  0.00    -0.388 OA
ATOM     26  H   UNL     1      25.878  33.311  14.934  1.00  0.00     0.211 HD
ENDBRANCH   2  25
ENDBRANCH   1   2
BRANCH   1  27
ATOM     27  N   UNL     1      25.462  34.591  16.616  1.00  0.00    -0.319 N 
ATOM     28  C   UNL     1      25.151  35.896  16.162  1.00  0.00     0.407 C 
ATOM     29  H   UNL     1      24.741  33.843  16.644  1.00  0.00     0.167 HD
ATOM     30  O   UNL     1      26.055  36.769  16.145  1.00  0.00    -0.225 OA
BRANCH  28  31
ATOM     31  O   UNL     1      23.884  36.256  15.733  1.00  0.00    -0.443 OA
BRANCH  31  32
ATOM     32  C   UNL     1      23.616  36.233  14.348  1.00  0.00     0.294 C 
BRANCH  32  33
ATOM     33  C   UNL     1      23.898  34.873  13.817  1.00  0.00     0.121 A 
ATOM     34  C   UNL     1      23.000  33.827  13.704  1.00  0.00     0.144 A 
ATOM     35  N   UNL     1      25.059  34.384  13.344  1.00  0.00    -0.131 NA
ATOM     36  N   UNL     1      23.626  32.750  13.175  1.00  0.00    -0.220 N 
ATOM     37  N   UNL     1      24.878  33.126  12.970  1.00  0.00    -0.062 NA
BRANCH  36  38
ATOM     38  C   UNL     1      23.052  31.478  12.901  1.00  0.00     0.068 A 
ATOM     39  C   UNL     1      23.851  30.355  12.953  1.00  0.00     0.028 A 
ATOM     40  C   UNL     1      21.723  31.300  12.581  1.00  0.00     0.049 A 
ATOM     41  C   UNL     1      23.338  29.095  12.693  1.00  0.00     0.004 A 
ATOM     42  C   UNL     1      21.179  30.061  12.317  1.00  0.00     0.043 A 
ATOM     43  C   UNL     1      22.005  28.957  12.377  1.00  0.00     0.020 A 
ATOM     44  Cl  UNL     1      19.466  29.878  11.910  1.00  0.00    -0.084 Cl
ENDBRANCH  36  38
ENDBRANCH  32  33
ENDBRANCH  31  32
ENDBRANCH  28  31
ENDBRANCH   1  27
TORSDOF 15
BEGIN_RES LYS A 131
REMARK  4 active torsions:
REMARK  status: ('A' for Active; 'I' for Inactive)
REMARK    1  A    between atoms: CA   and  CB  
REMARK    2  A    between atoms: CB   and  CG  
REMARK    3  A    between atoms: CG   and  CD  
REMARK    4  A    between atoms: CD   and  CE  
ROOT
ATOM      1  CA  LYS A 131      29.867  25.555  16.977  1.00 20.52     0.186 C 
ENDROOT
BRANCH   1   2
ATOM      2  CB  LYS A 131      28.345  25.722  17.026  1.00 20.94     0.034 C 
BRANCH   2   3
ATOM      3  CG  LYS A 131      27.601  24.404  16.877  1.00 22.96     0.005 C 
BRANCH   3   4
ATOM      4  CD  LYS A 131      26.407  24.321  17.788  1.00 24.33     0.041 C 
BRANCH   4   5
ATOM      5  CE  LYS A 131      25.701  22.986  17.581  1.00 26.91     0.338 C 
ATOM      6  NZ  LYS A 131      24.710  22.751  18.658  1.00 27.40     0.618 N 
ENDBRANCH   4   5
ENDBRANCH   3   4
ENDBRANCH   2   3
ENDBRANCH   1   2
END_RES LYS A 131
BEGIN_RES LYS A 135
REMARK  4 active torsions:
REMARK  status: ('A' for Active; 'I' for Inactive)
REMARK    5  A    between atoms: CA   and  CB  
REMARK    6  A    between atoms: CB   and  CG  
REMARK    7  A    between atoms: CG   and  CD  
REMARK    8  A    between atoms: CD   and  CE  
ROOT
ATOM      7  CA  LYS A 135      33.193  34.663   9.290  1.00 25.02     0.186 C 
ENDROOT
BRANCH   7   8
ATOM      8  CB  LYS A 135      32.060  35.360  10.034  1.00 26.63     0.034 C 
BRANCH   8   9
ATOM      9  CG  LYS A 135      30.778  35.434   9.246  1.00 29.45     0.005 C 
BRANCH   9  10
ATOM     10  CD  LYS A 135      30.222  34.041   8.993  1.00 32.00     0.041 C 
BRANCH  10  11
ATOM     11  CE  LYS A 135      28.726  34.012   9.239  1.00 34.25     0.338 C 
ATOM     12  NZ  LYS A 135      27.988  34.697   8.142  1.00 35.99     0.618 N 
ENDBRANCH  10  11
ENDBRANCH   9  10
ENDBRANCH   8   9
ENDBRANCH   7   8
END_RES LYS A 135
