REMARK VINA RESULT:    -4.655      4.478     12.132
REMARK INTER + INTRA:         -15.088
REMARK INTER:                  -9.542
REMARK INTRA:                  -5.546
REMARK UNBOUND:                -6.624
REMARK SMILES CC(=O)N[C@@H]1[C@@H](O)C[C@](O)(C(=O)O)O[C@H]1C(O)[C@H](O)CNC(=O)OCc1cn(-c2cccc(S(N)(=O)=O)c2)nn1
REMARK SMILES IDX 21 1 22 2 23 3 20 5 18 6 16 7 15 8 9 9 8 10 14 11 6 12 5 13
REMARK SMILES IDX 10 14 11 16 12 17 13 18 7 20 4 22 2 23 1 25 3 26 17 27 19 29
REMARK SMILES IDX 24 31 25 32 26 33 27 34 40 35 28 36 39 37 29 38 38 39 30 40
REMARK SMILES IDX 33 41 31 42 32 43 34 44 36 45 37 46 35 47
REMARK H PARENT 21 4 10 15 13 19 7 21 4 24 17 28 19 30 35 48 35 49
REMARK Flexibility Score: inf
ROOT
ATOM      1  N   UNL     1      27.918  28.761  18.967  1.00  0.00    -0.319 N 
ATOM      2  C   UNL     1      27.354  28.971  17.682  1.00  0.00     0.407 C 
ATOM      3  O   UNL     1      26.899  27.996  17.061  1.00  0.00    -0.225 OA
ATOM      4  H   UNL     1      28.284  29.633  19.438  1.00  0.00     0.167 HD
ENDROOT
BRANCH   1   5
ATOM      5  C   UNL     1      27.988  27.464  19.588  1.00  0.00     0.154 C 
BRANCH   5   6
ATOM      6  C   UNL     1      28.438  27.575  21.029  1.00  0.00     0.165 C 
BRANCH   6   7
ATOM      7  C   UNL     1      29.947  27.381  21.098  1.00  0.00     0.176 C 
BRANCH   7   8
ATOM      8  C   UNL     1      30.570  28.654  21.667  1.00  0.00     0.178 C 
ATOM      9  C   UNL     1      30.502  30.612  20.429  1.00  0.00     0.269 C 
ATOM     10  C   UNL     1      31.824  31.103  20.974  1.00  0.00     0.112 C 
ATOM     11  O   UNL     1      29.856  29.748  21.290  1.00  0.00    -0.332 OA
ATOM     12  C   UNL     1      32.571  30.056  21.728  1.00  0.00     0.145 C 
ATOM     13  C   UNL     1      32.028  28.687  21.319  1.00  0.00     0.142 C 
BRANCH   9  14
ATOM     14  O   UNL     1      30.644  30.016  19.180  1.00  0.00    -0.357 OA
ATOM     15  H   UNL     1      30.684  30.742  18.482  1.00  0.00     0.214 HD
ENDBRANCH   9  14
BRANCH   9  16
ATOM     16  C   UNL     1      29.632  31.807  20.262  1.00  0.00     0.364 C 
ATOM     17  O   UNL     1      29.783  32.838  20.968  1.00  0.00    -0.246 OA
BRANCH  16  18
ATOM     18  O   UNL     1      28.607  31.844  19.316  1.00  0.00    -0.477 OA
ATOM     19  H   UNL     1      28.665  32.470  18.521  1.00  0.00     0.296 HD
ENDBRANCH  16  18
ENDBRANCH   9  16
BRANCH  12  20
ATOM     20  O   UNL     1      33.943  30.108  21.560  1.00  0.00    -0.391 OA
ATOM     21  H   UNL     1      34.448  29.670  22.303  1.00  0.00     0.211 HD
ENDBRANCH  12  20
BRANCH  13  22
ATOM     22  N   UNL     1      32.691  27.662  22.106  1.00  0.00    -0.348 N 
ATOM     23  C   UNL     1      32.900  27.793  23.511  1.00  0.00     0.217 C 
ATOM     24  H   UNL     1      33.032  26.788  21.618  1.00  0.00     0.163 HD
ATOM     25  C   UNL     1      33.590  26.680  24.214  1.00  0.00     0.114 C 
ATOM     26  O   UNL     1      32.493  28.826  24.069  1.00  0.00    -0.275 OA
ENDBRANCH  13  22
ENDBRANCH   7   8
BRANCH   7  27
ATOM     27  O   UNL     1      30.199  26.344  21.977  1.00  0.00    -0.388 OA
ATOM     28  H   UNL     1      30.307  25.487  21.502  1.00  0.00     0.211 HD
ENDBRANCH   7  27
ENDBRANCH   6   7
BRANCH   6  29
ATOM     29  O   UNL     1      27.796  26.565  21.765  1.00  0.00    -0.388 OA
ATOM     30  H   UNL     1      28.186  26.493  22.692  1.00  0.00     0.211 HD
ENDBRANCH   6  29
ENDBRANCH   5   6
ENDBRANCH   1   5
BRANCH   2  31
ATOM     31  O   UNL     1      27.302  30.245  17.107  1.00  0.00    -0.443 OA
BRANCH  31  32
ATOM     32  C   UNL     1      27.810  30.485  15.811  1.00  0.00     0.294 C 
BRANCH  32  33
ATOM     33  C   UNL     1      29.043  31.308  15.891  1.00  0.00     0.121 A 
ATOM     34  C   UNL     1      29.279  32.454  15.158  1.00  0.00     0.144 A 
ATOM     35  N   UNL     1      30.128  31.119  16.651  1.00  0.00    -0.131 NA
ATOM     36  N   UNL     1      30.497  32.878  15.531  1.00  0.00    -0.220 N 
ATOM     37  N   UNL     1      31.023  32.072  16.440  1.00  0.00    -0.062 NA
BRANCH  36  38
ATOM     38  C   UNL     1      31.156  34.039  15.028  1.00  0.00     0.068 A 
ATOM     39  C   UNL     1      30.476  35.097  14.467  1.00  0.00     0.050 A 
ATOM     40  C   UNL     1      32.536  34.141  15.089  1.00  0.00     0.028 A 
ATOM     41  C   UNL     1      31.128  36.228  13.977  1.00  0.00     0.084 A 
ATOM     42  C   UNL     1      33.198  35.241  14.615  1.00  0.00     0.004 A 
ATOM     43  C   UNL     1      32.492  36.281  14.060  1.00  0.00     0.022 A 
BRANCH  41  44
ATOM     44  S   UNL     1      30.267  37.557  13.271  1.00  0.00     0.238 S 
ATOM     45  O   UNL     1      29.323  38.113  14.308  1.00  0.00    -0.207 OA
ATOM     46  O   UNL     1      29.405  37.049  12.139  1.00  0.00    -0.207 OA
BRANCH  44  47
ATOM     47  N   UNL     1      31.329  38.801  12.751  1.00  0.00    -0.225 NA
ATOM     48  H   UNL     1      30.917  39.726  12.967  1.00  0.00     0.137 HD
ATOM     49  H   UNL     1      31.575  38.720  11.743  1.00  0.00     0.137 HD
ENDBRANCH  44  47
ENDBRANCH  41  44
ENDBRANCH  36  38
ENDBRANCH  32  33
ENDBRANCH  31  32
ENDBRANCH   2  31
TORSDOF 17
BEGIN_RES LYS A 131
REMARK  4 active torsions:
REMARK  status: ('A' for Active; 'I' for Inactive)
REMARK    1  A    between atoms: CA   and  CB  
REMARK    2  A    between atoms: CB   and  CG  
REMARK    3  A    between atoms: CG   and  CD  
REMARK    4  A    between atoms: CD   and  CE  
ROOT
ATOM      1  CA  LYS A 131      29.867  25.555  16.977  1.00 20.52     0.186 C 
ENDROOT
BRANCH   1   2
ATOM      2  CB  LYS A 131      28.345  25.722  17.026  1.00 20.94     0.034 C 
BRANCH   2   3
ATOM      3  CG  LYS A 131      27.599  24.476  16.574  1.00 22.96     0.005 C 
BRANCH   3   4
ATOM      4  CD  LYS A 131      26.818  23.846  17.694  1.00 24.33     0.041 C 
BRANCH   4   5
ATOM      5  CE  LYS A 131      25.773  24.834  18.203  1.00 26.91     0.338 C 
ATOM      6  NZ  LYS A 131      25.523  24.626  19.649  1.00 27.40     0.618 N 
ENDBRANCH   4   5
ENDBRANCH   3   4
ENDBRANCH   2   3
ENDBRANCH   1   2
END_RES LYS A 131
BEGIN_RES LYS A 135
REMARK  4 active torsions:
REMARK  status: ('A' for Active; 'I' for Inactive)
REMARK    5  A    between atoms: CA   and  CB  
REMARK    6  A    between atoms: CB   and  CG  
REMARK    7  A    between atoms: CG   and  CD  
REMARK    8  A    between atoms: CD   and  CE  
ROOT
ATOM      7  CA  LYS A 135      33.193  34.663   9.290  1.00 25.02     0.186 C 
ENDROOT
BRANCH   7   8
ATOM      8  CB  LYS A 135      32.060  35.360  10.034  1.00 26.63     0.034 C 
BRANCH   8   9
ATOM      9  CG  LYS A 135      30.803  35.509   9.216  1.00 29.45     0.005 C 
BRANCH   9  10
ATOM     10  CD  LYS A 135      30.117  34.163   9.036  1.00 32.00     0.041 C 
BRANCH  10  11
ATOM     11  CE  LYS A 135      28.660  34.354   8.661  1.00 34.25     0.338 C 
ATOM     12  NZ  LYS A 135      27.763  33.653   9.621  1.00 35.99     0.618 N 
ENDBRANCH  10  11
ENDBRANCH   9  10
ENDBRANCH   8   9
ENDBRANCH   7   8
END_RES LYS A 135
