REMARK VINA RESULT:    -9.103      5.571      9.247
REMARK INTER + INTRA:         -13.328
REMARK INTER:                  -7.981
REMARK INTRA:                  -5.347
REMARK UNBOUND:                 4.555
REMARK SMILES CC(=O)N[C@@H]1[C@@H](O)C[C@](O)(C(=O)O)O[C@H]1C(O)[C@H](O)CNC(=O)OCc1cn(C2CCc3ccccc3NC2=O)nn1
REMARK SMILES IDX 24 1 22 2 21 3 23 5 20 6 18 7 16 8 15 9 9 10 8 11 14 12 6 13
REMARK SMILES IDX 5 14 10 15 11 17 12 18 13 19 7 21 4 23 2 24 1 26 3 27 17 28
REMARK SMILES IDX 19 30 25 32 26 33 27 34 42 35 28 36 41 37 29 38 39 40 38 41
REMARK SMILES IDX 40 42 37 44 32 45 36 46 33 47 35 48 34 49 31 50 30 51
REMARK H PARENT 21 4 10 16 13 20 7 22 4 25 17 29 19 31 38 43
REMARK Flexibility Score: 80.00
ROOT
ATOM      1  O   UNL     1      24.499  38.600  10.175  1.00  0.00    -0.443 OA
ENDROOT
BRANCH   1   2
ATOM      2  C   UNL     1      23.993  38.186   8.967  1.00  0.00     0.407 C 
ATOM      3  N   UNL     1      22.785  37.412   8.920  1.00  0.00    -0.319 N 
ATOM      4  H   UNL     1      22.339  37.200   9.843  1.00  0.00     0.167 HD
ATOM      5  O   UNL     1      24.554  38.458   7.875  1.00  0.00    -0.225 OA
BRANCH   3   6
ATOM      6  C   UNL     1      22.218  36.952   7.666  1.00  0.00     0.154 C 
BRANCH   6   7
ATOM      7  C   UNL     1      21.433  35.691   7.935  1.00  0.00     0.165 C 
BRANCH   7   8
ATOM      8  C   UNL     1      19.945  35.879   7.731  1.00  0.00     0.176 C 
BRANCH   8   9
ATOM      9  C   UNL     1      19.214  35.881   9.083  1.00  0.00     0.178 C 
ATOM     10  C   UNL     1      17.517  34.588  10.057  1.00  0.00     0.269 C 
ATOM     11  C   UNL     1      17.098  35.847  10.750  1.00  0.00     0.112 C 
ATOM     12  O   UNL     1      18.571  34.710   9.194  1.00  0.00    -0.332 OA
ATOM     13  C   UNL     1      17.002  36.912   9.670  1.00  0.00     0.145 C 
ATOM     14  C   UNL     1      18.389  37.126   9.119  1.00  0.00     0.142 C 
BRANCH  10  15
ATOM     15  O   UNL     1      16.431  34.138   9.278  1.00  0.00    -0.357 OA
ATOM     16  H   UNL     1      16.391  33.159   9.434  1.00  0.00     0.214 HD
ENDBRANCH  10  15
BRANCH  10  17
ATOM     17  C   UNL     1      17.839  33.498  11.013  1.00  0.00     0.364 C 
ATOM     18  O   UNL     1      17.083  33.295  11.987  1.00  0.00    -0.246 OA
BRANCH  17  19
ATOM     19  O   UNL     1      18.959  32.684  10.863  1.00  0.00    -0.477 OA
ATOM     20  H   UNL     1      19.660  32.735  11.616  1.00  0.00     0.296 HD
ENDBRANCH  17  19
ENDBRANCH  10  17
BRANCH  13  21
ATOM     21  O   UNL     1      16.193  36.401   8.660  1.00  0.00    -0.391 OA
ATOM     22  H   UNL     1      15.684  37.154   8.276  1.00  0.00     0.211 HD
ENDBRANCH  13  21
BRANCH  14  23
ATOM     23  N   UNL     1      19.050  38.072  10.000  1.00  0.00    -0.348 N 
ATOM     24  C   UNL     1      19.727  39.232   9.539  1.00  0.00     0.217 C 
ATOM     25  H   UNL     1      19.028  37.891  11.050  1.00  0.00     0.163 HD
ATOM     26  C   UNL     1      20.366  40.123  10.536  1.00  0.00     0.114 C 
ATOM     27  O   UNL     1      19.759  39.454   8.300  1.00  0.00    -0.275 OA
ENDBRANCH  14  23
ENDBRANCH   8   9
BRANCH   8  28
ATOM     28  O   UNL     1      19.502  34.767   7.007  1.00  0.00    -0.388 OA
ATOM     29  H   UNL     1      18.827  34.987   6.330  1.00  0.00     0.211 HD
ENDBRANCH   8  28
ENDBRANCH   7   8
BRANCH   7  30
ATOM     30  O   UNL     1      21.697  35.192   9.205  1.00  0.00    -0.388 OA
ATOM     31  H   UNL     1      22.534  35.536   9.582  1.00  0.00     0.211 HD
ENDBRANCH   7  30
ENDBRANCH   6   7
ENDBRANCH   3   6
ENDBRANCH   1   2
BRANCH   1  32
ATOM     32  C   UNL     1      25.286  37.745  10.987  1.00  0.00     0.294 C 
BRANCH  32  33
ATOM     33  C   UNL     1      24.550  36.503  11.331  1.00  0.00     0.120 A 
ATOM     34  C   UNL     1      23.913  36.275  12.556  1.00  0.00     0.139 A 
ATOM     35  N   UNL     1      24.335  35.386  10.612  1.00  0.00    -0.132 NA
ATOM     36  N   UNL     1      23.352  35.055  12.533  1.00  0.00    -0.240 N 
ATOM     37  N   UNL     1      23.625  34.551  11.350  1.00  0.00    -0.066 NA
BRANCH  36  38
ATOM     38  C   UNL     1      22.606  34.422  13.599  1.00  0.00     0.198 CG0
ATOM     39  G   UNL     1      23.512  33.492  14.338  1.00  0.00     0.000 G0
BRANCH  38  40
ATOM     40  C   UNL     1      21.386  33.743  13.078  1.00  0.00     0.249 C 
ATOM     41  N   UNL     1      21.163  32.434  12.587  1.00  0.00    -0.324 N 
ATOM     42  O   UNL     1      20.382  34.498  13.088  1.00  0.00    -0.272 OA
ATOM     43  H   UNL     1      20.298  32.242  12.038  1.00  0.00     0.170 HD
BRANCH  41  44
ATOM     44  C   UNL     1      22.010  31.283  12.757  1.00  0.00     0.044 A 
ATOM     45  C   UNL     1      23.343  31.275  13.124  1.00  0.00    -0.024 A 
ATOM     46  C   UNL     1      21.311  30.120  12.503  1.00  0.00     0.026 A 
ATOM     47  C   UNL     1      23.977  30.076  13.233  1.00  0.00     0.006 A 
ATOM     48  C   UNL     1      21.955  28.907  12.615  1.00  0.00     0.002 A 
ATOM     49  C   UNL     1      23.282  28.900  12.980  1.00  0.00     0.000 A 
BRANCH  45  50
ATOM     50  C   UNL     1      24.192  32.461  13.421  1.00  0.00     0.040 C 
BRANCH  50  51
ATOM     51  C   UNL     1      23.501  33.448  14.345  1.00  0.00     0.042 CG0
ATOM     52  G   UNL     1      22.634  34.412  13.602  1.00  0.00     0.000 G0
ENDBRANCH  50  51
ENDBRANCH  45  50
ENDBRANCH  41  44
ENDBRANCH  38  40
ENDBRANCH  36  38
ENDBRANCH  32  33
ENDBRANCH   1  32
TORSDOF 15
BEGIN_RES LYS A 131
REMARK  4 active torsions:
REMARK  status: ('A' for Active; 'I' for Inactive)
REMARK    1  A    between atoms: CA   and  CB  
REMARK    2  A    between atoms: CB   and  CG  
REMARK    3  A    between atoms: CG   and  CD  
REMARK    4  A    between atoms: CD   and  CE  
ROOT
ATOM      1  CA  LYS A 131      29.867  25.555  16.977  1.00 20.52     0.186 C 
ENDROOT
BRANCH   1   2
ATOM      2  CB  LYS A 131      28.345  25.722  17.026  1.00 20.94     0.034 C 
BRANCH   2   3
ATOM      3  CG  LYS A 131      27.603  24.395  16.982  1.00 22.96     0.005 C 
BRANCH   3   4
ATOM      4  CD  LYS A 131      26.638  24.247  18.125  1.00 24.33     0.041 C 
BRANCH   4   5
ATOM      5  CE  LYS A 131      25.259  23.886  17.583  1.00 26.91     0.338 C 
ATOM      6  NZ  LYS A 131      24.857  22.536  18.045  1.00 27.40     0.618 N 
ENDBRANCH   4   5
ENDBRANCH   3   4
ENDBRANCH   2   3
ENDBRANCH   1   2
END_RES LYS A 131
BEGIN_RES LYS A 135
REMARK  4 active torsions:
REMARK  status: ('A' for Active; 'I' for Inactive)
REMARK    5  A    between atoms: CA   and  CB  
REMARK    6  A    between atoms: CB   and  CG  
REMARK    7  A    between atoms: CG   and  CD  
REMARK    8  A    between atoms: CD   and  CE  
ROOT
ATOM      7  CA  LYS A 135      33.193  34.663   9.290  1.00 25.02     0.186 C 
ENDROOT
BRANCH   7   8
ATOM      8  CB  LYS A 135      32.060  35.360  10.034  1.00 26.63     0.034 C 
BRANCH   8   9
ATOM      9  CG  LYS A 135      30.859  35.647   9.170  1.00 29.45     0.005 C 
BRANCH   9  10
ATOM     10  CD  LYS A 135      29.947  34.432   9.098  1.00 32.00     0.041 C 
BRANCH  10  11
ATOM     11  CE  LYS A 135      28.869  34.511  10.161  1.00 34.25     0.338 C 
ATOM     12  NZ  LYS A 135      28.385  35.909  10.332  1.00 35.99     0.618 N 
ENDBRANCH  10  11
ENDBRANCH   9  10
ENDBRANCH   8   9
ENDBRANCH   7   8
END_RES LYS A 135
