REMARK VINA RESULT:    -6.007      3.813      7.444
REMARK INTER + INTRA:         -16.491
REMARK INTER:                 -10.589
REMARK INTRA:                  -5.903
REMARK UNBOUND:                -5.216
REMARK SMILES CC(=O)N[C@@H]1[C@@H](O)C[C@](O)(C(=O)O)O[C@H]1C(O)[C@H](O)CNC(=O)OCc1cn(-c2cc(C(=O)O)nc(-c3ccccc3)c2)nn1
REMARK SMILES IDX 21 1 22 2 23 3 20 5 18 6 16 7 15 8 9 9 8 10 14 11 6 12 5 13
REMARK SMILES IDX 10 14 11 16 12 17 13 18 7 20 4 22 2 23 1 25 3 26 17 27 19 29
REMARK SMILES IDX 24 31 25 32 26 33 27 34 45 35 28 36 44 37 29 38 30 39 43 40
REMARK SMILES IDX 31 41 36 42 35 43 32 44 33 45 34 46 37 48 38 49 42 50 39 51
REMARK SMILES IDX 41 52 40 53
REMARK H PARENT 21 4 10 15 13 19 7 21 4 24 17 28 19 30 34 47
REMARK Flexibility Score: inf
ROOT
ATOM      1  N   UNL     1      28.889  40.833  10.593  1.00  0.00    -0.319 N 
ATOM      2  C   UNL     1      27.761  40.632  11.450  1.00  0.00     0.407 C 
ATOM      3  O   UNL     1      27.843  39.752  12.345  1.00  0.00    -0.225 OA
ATOM      4  H   UNL     1      28.755  41.589   9.860  1.00  0.00     0.167 HD
ENDROOT
BRANCH   1   5
ATOM      5  C   UNL     1      30.111  40.084  10.700  1.00  0.00     0.154 C 
BRANCH   5   6
ATOM      6  C   UNL     1      30.083  38.874   9.815  1.00  0.00     0.165 C 
BRANCH   6   7
ATOM      7  C   UNL     1      29.212  39.192   8.607  1.00  0.00     0.176 C 
BRANCH   7   8
ATOM      8  C   UNL     1      28.585  37.947   8.085  1.00  0.00     0.178 C 
ATOM      9  C   UNL     1      29.141  35.774   7.469  1.00  0.00     0.269 C 
ATOM     10  C   UNL     1      27.622  35.655   7.452  1.00  0.00     0.112 C 
ATOM     11  O   UNL     1      29.583  36.950   8.019  1.00  0.00    -0.332 OA
ATOM     12  C   UNL     1      27.091  36.753   6.600  1.00  0.00     0.145 C 
ATOM     13  C   UNL     1      27.982  38.009   6.724  1.00  0.00     0.142 C 
BRANCH   9  14
ATOM     14  O   UNL     1      29.521  35.658   6.110  1.00  0.00    -0.357 OA
ATOM     15  H   UNL     1      29.201  34.761   5.830  1.00  0.00     0.214 HD
ENDBRANCH   9  14
BRANCH   9  16
ATOM     16  C   UNL     1      29.757  34.661   8.215  1.00  0.00     0.364 C 
ATOM     17  O   UNL     1      29.053  33.915   8.920  1.00  0.00    -0.246 OA
BRANCH  16  18
ATOM     18  O   UNL     1      31.114  34.434   8.139  1.00  0.00    -0.477 OA
ATOM     19  H   UNL     1      31.511  33.559   7.808  1.00  0.00     0.296 HD
ENDBRANCH  16  18
ENDBRANCH   9  16
BRANCH  12  20
ATOM     20  O   UNL     1      26.912  36.407   5.279  1.00  0.00    -0.391 OA
ATOM     21  H   UNL     1      26.158  36.899   4.887  1.00  0.00     0.211 HD
ENDBRANCH  12  20
BRANCH  13  22
ATOM     22  N   UNL     1      27.175  39.164   6.440  1.00  0.00    -0.348 N 
ATOM     23  C   UNL     1      27.087  39.708   5.106  1.00  0.00     0.217 C 
ATOM     24  H   UNL     1      26.641  39.614   7.187  1.00  0.00     0.163 HD
ATOM     25  C   UNL     1      26.274  40.887   4.772  1.00  0.00     0.114 C 
ATOM     26  O   UNL     1      27.765  39.097   4.227  1.00  0.00    -0.275 OA
ENDBRANCH  13  22
ENDBRANCH   7   8
BRANCH   7  27
ATOM     27  O   UNL     1      29.845  39.941   7.652  1.00  0.00    -0.388 OA
ATOM     28  H   UNL     1      30.073  40.854   7.903  1.00  0.00     0.211 HD
ENDBRANCH   7  27
ENDBRANCH   6   7
BRANCH   6  29
ATOM     29  O   UNL     1      29.457  37.865  10.575  1.00  0.00    -0.388 OA
ATOM     30  H   UNL     1      28.692  37.569  10.038  1.00  0.00     0.211 HD
ENDBRANCH   6  29
ENDBRANCH   5   6
ENDBRANCH   1   5
BRANCH   2  31
ATOM     31  O   UNL     1      26.612  41.392  11.292  1.00  0.00    -0.443 OA
BRANCH  31  32
ATOM     32  C   UNL     1      26.325  41.897  10.003  1.00  0.00     0.294 C 
BRANCH  32  33
ATOM     33  C   UNL     1      25.515  40.867   9.302  1.00  0.00     0.121 A 
ATOM     34  C   UNL     1      24.974  39.700   9.856  1.00  0.00     0.144 A 
ATOM     35  N   UNL     1      25.122  40.812   8.008  1.00  0.00    -0.131 NA
ATOM     36  N   UNL     1      24.302  39.017   8.913  1.00  0.00    -0.220 N 
ATOM     37  N   UNL     1      24.409  39.711   7.805  1.00  0.00    -0.062 NA
BRANCH  36  38
ATOM     38  C   UNL     1      23.624  37.768   9.157  1.00  0.00     0.071 A 
ATOM     39  C   UNL     1      22.538  37.380   8.416  1.00  0.00     0.064 A 
ATOM     40  C   UNL     1      24.061  36.918  10.167  1.00  0.00     0.057 A 
ATOM     41  C   UNL     1      21.865  36.194   8.624  1.00  0.00     0.151 A 
ATOM     42  C   UNL     1      23.402  35.735  10.385  1.00  0.00     0.073 A 
ATOM     43  N   UNL     1      22.337  35.419   9.613  1.00  0.00    -0.241 NA
BRANCH  41  44
ATOM     44  C   UNL     1      20.716  35.804   7.825  1.00  0.00     0.354 C 
ATOM     45  O   UNL     1      19.928  36.685   7.428  1.00  0.00    -0.245 OA
BRANCH  44  46
ATOM     46  O   UNL     1      20.479  34.486   7.496  1.00  0.00    -0.477 OA
ATOM     47  H   UNL     1      20.176  34.192   6.561  1.00  0.00     0.297 HD
ENDBRANCH  44  46
ENDBRANCH  41  44
BRANCH  42  48
ATOM     48  C   UNL     1      23.843  34.814  11.449  1.00  0.00     0.000 A 
ATOM     49  C   UNL     1      25.176  34.817  11.798  1.00  0.00     0.010 A 
ATOM     50  C   UNL     1      22.947  33.987  12.063  1.00  0.00     0.010 A 
ATOM     51  C   UNL     1      25.590  33.959  12.790  1.00  0.00     0.001 A 
ATOM     52  C   UNL     1      23.405  33.141  13.055  1.00  0.00     0.001 A 
ATOM     53  C   UNL     1      24.726  33.105  13.441  1.00  0.00     0.000 A 
ENDBRANCH  42  48
ENDBRANCH  36  38
ENDBRANCH  32  33
ENDBRANCH  31  32
ENDBRANCH   2  31
TORSDOF 18
BEGIN_RES LYS A 131
REMARK  4 active torsions:
REMARK  status: ('A' for Active; 'I' for Inactive)
REMARK    1  A    between atoms: CA   and  CB  
REMARK    2  A    between atoms: CB   and  CG  
REMARK    3  A    between atoms: CG   and  CD  
REMARK    4  A    between atoms: CD   and  CE  
ROOT
ATOM      1  CA  LYS A 131      29.867  25.555  16.977  1.00 20.52     0.186 C 
ENDROOT
BRANCH   1   2
ATOM      2  CB  LYS A 131      28.345  25.722  17.026  1.00 20.94     0.034 C 
BRANCH   2   3
ATOM      3  CG  LYS A 131      27.601  24.406  16.863  1.00 22.96     0.005 C 
BRANCH   3   4
ATOM      4  CD  LYS A 131      26.161  24.513  17.284  1.00 24.33     0.041 C 
BRANCH   4   5
ATOM      5  CE  LYS A 131      25.999  23.949  18.692  1.00 26.91     0.338 C 
ATOM      6  NZ  LYS A 131      25.190  24.867  19.528  1.00 27.40     0.618 N 
ENDBRANCH   4   5
ENDBRANCH   3   4
ENDBRANCH   2   3
ENDBRANCH   1   2
END_RES LYS A 131
BEGIN_RES LYS A 135
REMARK  4 active torsions:
REMARK  status: ('A' for Active; 'I' for Inactive)
REMARK    5  A    between atoms: CA   and  CB  
REMARK    6  A    between atoms: CB   and  CG  
REMARK    7  A    between atoms: CG   and  CD  
REMARK    8  A    between atoms: CD   and  CE  
ROOT
ATOM      7  CA  LYS A 135      33.193  34.663   9.290  1.00 25.02     0.186 C 
ENDROOT
BRANCH   7   8
ATOM      8  CB  LYS A 135      32.060  35.360  10.034  1.00 26.63     0.034 C 
BRANCH   8   9
ATOM      9  CG  LYS A 135      32.534  36.266  11.141  1.00 29.45     0.005 C 
BRANCH   9  10
ATOM     10  CD  LYS A 135      32.350  35.599  12.496  1.00 32.00     0.041 C 
BRANCH  10  11
ATOM     11  CE  LYS A 135      30.938  35.813  13.007  1.00 34.25     0.338 C 
ATOM     12  NZ  LYS A 135      30.177  34.533  13.034  1.00 35.99     0.618 N 
ENDBRANCH  10  11
ENDBRANCH   9  10
ENDBRANCH   8   9
ENDBRANCH   7   8
END_RES LYS A 135
