REMARK VINA RESULT:    -4.508      1.828      3.071
REMARK INTER + INTRA:         -14.463
REMARK INTER:                  -9.053
REMARK INTRA:                  -5.410
REMARK UNBOUND:                -6.398
REMARK SMILES CC(=O)N[C@@H]1[C@@H](O)C[C@](O)(C(=O)O)O[C@H]1C(O)[C@H](O)CNC(=O)OCc1cn(Cc2ccc(Br)cc2)nn1
REMARK SMILES IDX 21 1 22 2 23 3 20 5 18 6 16 7 15 8 9 9 8 10 14 11 6 12 5 13
REMARK SMILES IDX 10 14 11 16 12 17 13 18 7 20 4 22 2 23 1 25 3 26 17 27 19 29
REMARK SMILES IDX 24 31 25 32 26 33 27 34 38 35 28 36 37 37 29 38 30 39 31 40
REMARK SMILES IDX 36 41 32 42 35 43 33 44 34 45
REMARK H PARENT 21 4 10 15 13 19 7 21 4 24 17 28 19 30
REMARK Flexibility Score: inf
ROOT
ATOM      1  N   UNL     1      28.760  31.318  18.194  1.00  0.00    -0.319 N 
ATOM      2  C   UNL     1      27.898  30.423  17.516  1.00  0.00     0.407 C 
ATOM      3  O   UNL     1      28.212  29.688  16.561  1.00  0.00    -0.225 OA
ATOM      4  H   UNL     1      28.383  31.899  19.008  1.00  0.00     0.167 HD
ENDROOT
BRANCH   1   5
ATOM      5  C   UNL     1      30.126  31.444  17.792  1.00  0.00     0.154 C 
BRANCH   5   6
ATOM      6  C   UNL     1      30.436  32.662  16.959  1.00  0.00     0.165 C 
BRANCH   6   7
ATOM      7  C   UNL     1      30.358  32.416  15.496  1.00  0.00     0.176 C 
BRANCH   7   8
ATOM      8  C   UNL     1      29.692  33.418  14.639  1.00  0.00     0.178 C 
ATOM      9  C   UNL     1      31.120  35.158  14.134  1.00  0.00     0.269 C 
ATOM     10  C   UNL     1      30.024  36.080  13.648  1.00  0.00     0.112 C 
ATOM     11  O   UNL     1      30.699  33.887  13.779  1.00  0.00    -0.332 OA
ATOM     12  C   UNL     1      28.812  35.762  14.455  1.00  0.00     0.145 C 
ATOM     13  C   UNL     1      28.881  34.472  15.249  1.00  0.00     0.142 C 
BRANCH   9  14
ATOM     14  O   UNL     1      31.267  35.362  15.488  1.00  0.00    -0.357 OA
ATOM     15  H   UNL     1      31.427  36.288  15.748  1.00  0.00     0.214 HD
ENDBRANCH   9  14
BRANCH   9  16
ATOM     16  C   UNL     1      32.348  35.482  13.370  1.00  0.00     0.364 C 
ATOM     17  O   UNL     1      33.454  34.939  13.589  1.00  0.00    -0.246 OA
BRANCH  16  18
ATOM     18  O   UNL     1      32.236  36.440  12.367  1.00  0.00    -0.477 OA
ATOM     19  H   UNL     1      32.225  36.213  11.386  1.00  0.00     0.296 HD
ENDBRANCH  16  18
ENDBRANCH   9  16
BRANCH  12  20
ATOM     20  O   UNL     1      28.666  36.802  15.402  1.00  0.00    -0.391 OA
ATOM     21  H   UNL     1      29.522  37.055  15.801  1.00  0.00     0.211 HD
ENDBRANCH  12  20
BRANCH  13  22
ATOM     22  N   UNL     1      27.455  34.083  15.325  1.00  0.00    -0.348 N 
ATOM     23  C   UNL     1      26.781  33.871  16.533  1.00  0.00     0.217 C 
ATOM     24  H   UNL     1      26.989  33.977  14.392  1.00  0.00     0.163 HD
ATOM     25  C   UNL     1      25.342  33.473  16.503  1.00  0.00     0.114 C 
ATOM     26  O   UNL     1      27.364  34.012  17.618  1.00  0.00    -0.275 OA
ENDBRANCH  13  22
ENDBRANCH   7   8
BRANCH   7  27
ATOM     27  O   UNL     1      31.575  31.925  15.047  1.00  0.00    -0.388 OA
ATOM     28  H   UNL     1      32.275  32.081  15.744  1.00  0.00     0.211 HD
ENDBRANCH   7  27
ENDBRANCH   6   7
BRANCH   6  29
ATOM     29  O   UNL     1      31.553  33.372  17.364  1.00  0.00    -0.388 OA
ATOM     30  H   UNL     1      31.353  34.281  17.663  1.00  0.00     0.211 HD
ENDBRANCH   6  29
ENDBRANCH   5   6
ENDBRANCH   1   5
BRANCH   2  31
ATOM     31  O   UNL     1      26.574  30.340  17.945  1.00  0.00    -0.443 OA
BRANCH  31  32
ATOM     32  C   UNL     1      25.705  29.348  17.454  1.00  0.00     0.294 C 
BRANCH  32  33
ATOM     33  C   UNL     1      24.837  29.859  16.378  1.00  0.00     0.120 A 
ATOM     34  C   UNL     1      25.086  30.071  15.042  1.00  0.00     0.138 A 
ATOM     35  N   UNL     1      23.553  30.223  16.604  1.00  0.00    -0.132 NA
ATOM     36  N   UNL     1      23.946  30.556  14.499  1.00  0.00    -0.248 N 
ATOM     37  N   UNL     1      23.054  30.631  15.468  1.00  0.00    -0.067 NA
BRANCH  36  38
ATOM     38  C   UNL     1      23.780  30.915  13.106  1.00  0.00     0.181 C 
BRANCH  38  39
ATOM     39  C   UNL     1      22.384  30.535  12.709  1.00  0.00    -0.026 A 
ATOM     40  C   UNL     1      22.101  29.209  12.420  1.00  0.00     0.007 A 
ATOM     41  C   UNL     1      21.407  31.505  12.640  1.00  0.00     0.007 A 
ATOM     42  C   UNL     1      20.819  28.885  12.060  1.00  0.00     0.016 A 
ATOM     43  C   UNL     1      20.102  31.177  12.274  1.00  0.00     0.016 A 
ATOM     44  C   UNL     1      19.848  29.857  11.992  1.00  0.00     0.017 A 
ATOM     45  Br  UNL     1      18.068  29.375  11.488  1.00  0.00    -0.051 Br
ENDBRANCH  38  39
ENDBRANCH  36  38
ENDBRANCH  32  33
ENDBRANCH  31  32
ENDBRANCH   2  31
TORSDOF 16
BEGIN_RES LYS A 131
REMARK  4 active torsions:
REMARK  status: ('A' for Active; 'I' for Inactive)
REMARK    1  A    between atoms: CA   and  CB  
REMARK    2  A    between atoms: CB   and  CG  
REMARK    3  A    between atoms: CG   and  CD  
REMARK    4  A    between atoms: CD   and  CE  
ROOT
ATOM      1  CA  LYS A 131      29.867  25.555  16.977  1.00 20.52     0.186 C 
ENDROOT
BRANCH   1   2
ATOM      2  CB  LYS A 131      28.345  25.722  17.026  1.00 20.94     0.034 C 
BRANCH   2   3
ATOM      3  CG  LYS A 131      27.601  24.405  16.871  1.00 22.96     0.005 C 
BRANCH   3   4
ATOM      4  CD  LYS A 131      26.552  24.218  17.932  1.00 24.33     0.041 C 
BRANCH   4   5
ATOM      5  CE  LYS A 131      25.171  24.455  17.329  1.00 26.91     0.338 C 
ATOM      6  NZ  LYS A 131      24.457  23.169  17.145  1.00 27.40     0.618 N 
ENDBRANCH   4   5
ENDBRANCH   3   4
ENDBRANCH   2   3
ENDBRANCH   1   2
END_RES LYS A 131
BEGIN_RES LYS A 135
REMARK  4 active torsions:
REMARK  status: ('A' for Active; 'I' for Inactive)
REMARK    5  A    between atoms: CA   and  CB  
REMARK    6  A    between atoms: CB   and  CG  
REMARK    7  A    between atoms: CG   and  CD  
REMARK    8  A    between atoms: CD   and  CE  
ROOT
ATOM      7  CA  LYS A 135      33.193  34.663   9.290  1.00 25.02     0.186 C 
ENDROOT
BRANCH   7   8
ATOM      8  CB  LYS A 135      32.060  35.360  10.034  1.00 26.63     0.034 C 
BRANCH   8   9
ATOM      9  CG  LYS A 135      30.783  35.451   9.239  1.00 29.45     0.005 C 
BRANCH   9  10
ATOM     10  CD  LYS A 135      30.220  34.065   8.967  1.00 32.00     0.041 C 
BRANCH  10  11
ATOM     11  CE  LYS A 135      28.767  33.987   9.396  1.00 34.25     0.338 C 
ATOM     12  NZ  LYS A 135      27.866  34.527   8.341  1.00 35.99     0.618 N 
ENDBRANCH  10  11
ENDBRANCH   9  10
ENDBRANCH   8   9
ENDBRANCH   7   8
END_RES LYS A 135
