REMARK VINA RESULT:    -4.262      2.704      6.483
REMARK INTER + INTRA:         -14.401
REMARK INTER:                  -6.970
REMARK INTRA:                  -7.431
REMARK UNBOUND:                -6.277
REMARK SMILES CC(=O)N[C@@H]1[C@@H](O)C[C@](O)(C(=O)O)O[C@H]1C(O)[C@H](O)CNC(=O)OCc1cn(CCNS(C)(=O)=O)nn1
REMARK SMILES IDX 21 1 22 2 23 3 20 5 18 6 16 7 15 8 9 9 8 10 14 11 6 12 5 13
REMARK SMILES IDX 10 14 11 16 12 17 13 18 7 20 4 22 2 23 1 25 3 26 17 27 19 29
REMARK SMILES IDX 24 31 25 32 26 33 27 34 37 35 28 36 36 37 29 38 30 39 31 40
REMARK SMILES IDX 32 42 34 43 35 44 33 45
REMARK H PARENT 21 4 10 15 13 19 7 21 4 24 17 28 19 30 31 41
REMARK Flexibility Score: inf
ROOT
ATOM      1  N   UNL     1      26.093  29.228  22.074  1.00  0.00    -0.319 N 
ATOM      2  C   UNL     1      24.775  29.212  21.576  1.00  0.00     0.407 C 
ATOM      3  O   UNL     1      24.089  30.235  21.418  1.00  0.00    -0.225 OA
ATOM      4  H   UNL     1      26.584  28.287  22.157  1.00  0.00     0.167 HD
ENDROOT
BRANCH   1   5
ATOM      5  C   UNL     1      26.819  30.376  22.469  1.00  0.00     0.154 C 
BRANCH   5   6
ATOM      6  C   UNL     1      28.276  30.435  22.084  1.00  0.00     0.165 C 
BRANCH   6   7
ATOM      7  C   UNL     1      29.056  29.877  23.234  1.00  0.00     0.176 C 
BRANCH   7   8
ATOM      8  C   UNL     1      30.013  28.768  22.935  1.00  0.00     0.178 C 
ATOM      9  C   UNL     1      32.059  28.419  21.845  1.00  0.00     0.269 C 
ATOM     10  C   UNL     1      31.644  27.043  21.448  1.00  0.00     0.112 C 
ATOM     11  O   UNL     1      31.121  29.231  22.351  1.00  0.00    -0.332 OA
ATOM     12  C   UNL     1      30.160  26.895  21.249  1.00  0.00     0.145 C 
ATOM     13  C   UNL     1      29.382  27.546  22.342  1.00  0.00     0.142 C 
BRANCH   9  14
ATOM     14  O   UNL     1      32.638  29.039  20.731  1.00  0.00    -0.357 OA
ATOM     15  H   UNL     1      32.835  28.353  20.059  1.00  0.00     0.214 HD
ENDBRANCH   9  14
BRANCH   9  16
ATOM     16  C   UNL     1      33.150  28.293  22.854  1.00  0.00     0.364 C 
ATOM     17  O   UNL     1      33.501  29.210  23.619  1.00  0.00    -0.246 OA
BRANCH  16  18
ATOM     18  O   UNL     1      33.849  27.078  22.981  1.00  0.00    -0.477 OA
ATOM     19  H   UNL     1      33.400  26.190  22.796  1.00  0.00     0.296 HD
ENDBRANCH  16  18
ENDBRANCH   9  16
BRANCH  12  20
ATOM     20  O   UNL     1      29.838  27.346  19.975  1.00  0.00    -0.391 OA
ATOM     21  H   UNL     1      29.138  26.738  19.624  1.00  0.00     0.211 HD
ENDBRANCH  12  20
BRANCH  13  22
ATOM     22  N   UNL     1      29.097  26.535  23.344  1.00  0.00    -0.348 N 
ATOM     23  C   UNL     1      27.782  26.158  23.727  1.00  0.00     0.217 C 
ATOM     24  H   UNL     1      29.877  26.016  23.849  1.00  0.00     0.163 HD
ATOM     25  C   UNL     1      27.539  25.106  24.770  1.00  0.00     0.114 C 
ATOM     26  O   UNL     1      26.831  26.747  23.152  1.00  0.00    -0.275 OA
ENDBRANCH  13  22
ENDBRANCH   7   8
BRANCH   7  27
ATOM     27  O   UNL     1      28.061  29.440  24.157  1.00  0.00    -0.388 OA
ATOM     28  H   UNL     1      27.528  30.197  24.479  1.00  0.00     0.211 HD
ENDBRANCH   7  27
ENDBRANCH   6   7
BRANCH   6  29
ATOM     29  O   UNL     1      28.591  31.711  21.703  1.00  0.00    -0.388 OA
ATOM     30  H   UNL     1      28.126  32.380  22.220  1.00  0.00     0.211 HD
ENDBRANCH   6  29
ENDBRANCH   5   6
ENDBRANCH   1   5
BRANCH   2  31
ATOM     31  O   UNL     1      24.184  27.999  21.237  1.00  0.00    -0.443 OA
BRANCH  31  32
ATOM     32  C   UNL     1      24.082  27.518  19.921  1.00  0.00     0.294 C 
BRANCH  32  33
ATOM     33  C   UNL     1      25.332  27.759  19.176  1.00  0.00     0.120 A 
ATOM     34  C   UNL     1      25.523  28.493  18.022  1.00  0.00     0.138 A 
ATOM     35  N   UNL     1      26.531  27.288  19.508  1.00  0.00    -0.132 NA
ATOM     36  N   UNL     1      26.821  28.446  17.691  1.00  0.00    -0.251 N 
ATOM     37  N   UNL     1      27.411  27.702  18.620  1.00  0.00    -0.067 NA
BRANCH  36  38
ATOM     38  C   UNL     1      27.523  29.043  16.585  1.00  0.00     0.162 C 
BRANCH  38  39
ATOM     39  C   UNL     1      27.708  30.539  16.765  1.00  0.00     0.122 C 
BRANCH  39  40
ATOM     40  N   UNL     1      28.119  30.764  18.134  1.00  0.00    -0.214 NA
ATOM     41  H   UNL     1      27.935  29.949  18.736  1.00  0.00     0.141 HD
BRANCH  40  42
ATOM     42  S   UNL     1      29.769  31.232  18.251  1.00  0.00     0.208 S 
ATOM     43  O   UNL     1      30.389  30.417  19.356  1.00  0.00    -0.213 OA
ATOM     44  O   UNL     1      30.450  31.000  16.941  1.00  0.00    -0.213 OA
ATOM     45  C   UNL     1      29.909  32.949  18.693  1.00  0.00     0.176 C 
ENDBRANCH  40  42
ENDBRANCH  39  40
ENDBRANCH  38  39
ENDBRANCH  36  38
ENDBRANCH  32  33
ENDBRANCH  31  32
ENDBRANCH   2  31
TORSDOF 18
BEGIN_RES LYS A 131
REMARK  4 active torsions:
REMARK  status: ('A' for Active; 'I' for Inactive)
REMARK    1  A    between atoms: CA   and  CB  
REMARK    2  A    between atoms: CB   and  CG  
REMARK    3  A    between atoms: CG   and  CD  
REMARK    4  A    between atoms: CD   and  CE  
ROOT
ATOM      1  CA  LYS A 131      29.867  25.555  16.977  1.00 20.52     0.186 C 
ENDROOT
BRANCH   1   2
ATOM      2  CB  LYS A 131      28.345  25.722  17.026  1.00 20.94     0.034 C 
BRANCH   2   3
ATOM      3  CG  LYS A 131      27.599  24.421  16.773  1.00 22.96     0.005 C 
BRANCH   3   4
ATOM      4  CD  LYS A 131      26.714  24.042  17.928  1.00 24.33     0.041 C 
BRANCH   4   5
ATOM      5  CE  LYS A 131      25.254  24.253  17.540  1.00 26.91     0.338 C 
ATOM      6  NZ  LYS A 131      24.376  24.108  18.725  1.00 27.40     0.618 N 
ENDBRANCH   4   5
ENDBRANCH   3   4
ENDBRANCH   2   3
ENDBRANCH   1   2
END_RES LYS A 131
BEGIN_RES LYS A 135
REMARK  4 active torsions:
REMARK  status: ('A' for Active; 'I' for Inactive)
REMARK    5  A    between atoms: CA   and  CB  
REMARK    6  A    between atoms: CB   and  CG  
REMARK    7  A    between atoms: CG   and  CD  
REMARK    8  A    between atoms: CD   and  CE  
ROOT
ATOM      7  CA  LYS A 135      33.193  34.663   9.290  1.00 25.02     0.186 C 
ENDROOT
BRANCH   7   8
ATOM      8  CB  LYS A 135      32.060  35.360  10.034  1.00 26.63     0.034 C 
BRANCH   8   9
ATOM      9  CG  LYS A 135      30.782  35.447   9.241  1.00 29.45     0.005 C 
BRANCH   9  10
ATOM     10  CD  LYS A 135      30.206  34.060   8.998  1.00 32.00     0.041 C 
BRANCH  10  11
ATOM     11  CE  LYS A 135      28.698  34.075   9.158  1.00 34.25     0.338 C 
ATOM     12  NZ  LYS A 135      28.311  34.381  10.564  1.00 35.99     0.618 N 
ENDBRANCH  10  11
ENDBRANCH   9  10
ENDBRANCH   8   9
ENDBRANCH   7   8
END_RES LYS A 135
