REMARK VINA RESULT:    -5.220      9.740     14.704
REMARK INTER + INTRA:         -14.089
REMARK INTER:                  -8.811
REMARK INTRA:                  -5.277
REMARK UNBOUND:                -4.749
REMARK SMILES CC(=O)N[C@@H]1[C@@H](O)C[C@](O)(C(=O)O)O[C@H]1C(O)[C@H](O)CNC(=O)OCc1cn(-c2ccc([N+](=O)[O-])cc2)nn1
REMARK SMILES IDX 21 1 22 2 23 3 20 5 18 6 16 7 15 8 9 9 8 10 14 11 6 12 5 13
REMARK SMILES IDX 10 14 11 16 12 17 13 18 7 20 4 22 2 23 1 25 3 26 17 27 19 29
REMARK SMILES IDX 24 31 25 32 26 33 27 34 39 35 28 36 38 37 29 38 30 39 37 40
REMARK SMILES IDX 31 41 36 42 32 43 33 44 34 45 35 46
REMARK H PARENT 21 4 10 15 13 19 7 21 4 24 17 28 19 30
REMARK Flexibility Score: inf
ROOT
ATOM      1  N   UNL     1      17.366  32.394   8.778  1.00  0.00    -0.319 N 
ATOM      2  C   UNL     1      16.433  31.409   8.403  1.00  0.00     0.407 C 
ATOM      3  O   UNL     1      15.763  31.467   7.356  1.00  0.00    -0.225 OA
ATOM      4  H   UNL     1      17.903  32.212   9.695  1.00  0.00     0.167 HD
ENDROOT
BRANCH   1   5
ATOM      5  C   UNL     1      17.635  33.572   8.051  1.00  0.00     0.154 C 
BRANCH   5   6
ATOM      6  C   UNL     1      18.994  34.149   8.036  1.00  0.00     0.165 C 
BRANCH   6   7
ATOM      7  C   UNL     1      19.528  34.952   9.130  1.00  0.00     0.176 C 
BRANCH   7   8
ATOM      8  C   UNL     1      20.848  35.640   8.764  1.00  0.00     0.178 C 
ATOM      9  C   UNL     1      22.837  36.250   9.803  1.00  0.00     0.269 C 
ATOM     10  C   UNL     1      23.147  36.806   8.432  1.00  0.00     0.112 C 
ATOM     11  O   UNL     1      21.744  35.414   9.829  1.00  0.00    -0.332 OA
ATOM     12  C   UNL     1      21.998  37.559   7.837  1.00  0.00     0.145 C 
ATOM     13  C   UNL     1      20.734  37.111   8.596  1.00  0.00     0.142 C 
BRANCH   9  14
ATOM     14  O   UNL     1      22.723  37.325  10.668  1.00  0.00    -0.357 OA
ATOM     15  H   UNL     1      21.970  37.171  11.273  1.00  0.00     0.214 HD
ENDBRANCH   9  14
BRANCH   9  16
ATOM     16  C   UNL     1      24.018  35.445  10.210  1.00  0.00     0.364 C 
ATOM     17  O   UNL     1      24.976  35.259   9.415  1.00  0.00    -0.246 OA
BRANCH  16  18
ATOM     18  O   UNL     1      24.098  34.881  11.472  1.00  0.00    -0.477 OA
ATOM     19  H   UNL     1      24.367  35.424  12.295  1.00  0.00     0.296 HD
ENDBRANCH  16  18
ENDBRANCH   9  16
BRANCH  12  20
ATOM     20  O   UNL     1      22.136  38.928   7.863  1.00  0.00    -0.391 OA
ATOM     21  H   UNL     1      21.560  39.309   7.154  1.00  0.00     0.211 HD
ENDBRANCH  12  20
BRANCH  13  22
ATOM     22  N   UNL     1      19.625  37.554   7.777  1.00  0.00    -0.348 N 
ATOM     23  C   UNL     1      18.861  38.710   8.150  1.00  0.00     0.217 C 
ATOM     24  H   UNL     1      19.338  37.072   6.905  1.00  0.00     0.163 HD
ATOM     25  C   UNL     1      17.717  39.219   7.362  1.00  0.00     0.114 C 
ATOM     26  O   UNL     1      19.193  39.304   9.197  1.00  0.00    -0.275 OA
ENDBRANCH  13  22
ENDBRANCH   7   8
BRANCH   7  27
ATOM     27  O   UNL     1      19.649  34.229  10.288  1.00  0.00    -0.388 OA
ATOM     28  H   UNL     1      20.100  33.359  10.216  1.00  0.00     0.211 HD
ENDBRANCH   7  27
ENDBRANCH   6   7
BRANCH   6  29
ATOM     29  O   UNL     1      19.110  34.791   6.769  1.00  0.00    -0.388 OA
ATOM     30  H   UNL     1      19.141  34.108   6.050  1.00  0.00     0.211 HD
ENDBRANCH   6  29
ENDBRANCH   5   6
ENDBRANCH   1   5
BRANCH   2  31
ATOM     31  O   UNL     1      16.266  30.310   9.275  1.00  0.00    -0.443 OA
BRANCH  31  32
ATOM     32  C   UNL     1      16.401  30.584  10.656  1.00  0.00     0.294 C 
BRANCH  32  33
ATOM     33  C   UNL     1      17.755  30.144  11.137  1.00  0.00     0.121 A 
ATOM     34  C   UNL     1      18.790  30.942  11.573  1.00  0.00     0.144 A 
ATOM     35  N   UNL     1      18.231  28.879  11.239  1.00  0.00    -0.131 NA
ATOM     36  N   UNL     1      19.849  30.173  11.923  1.00  0.00    -0.220 N 
ATOM     37  N   UNL     1      19.457  28.936  11.701  1.00  0.00    -0.062 NA
BRANCH  36  38
ATOM     38  C   UNL     1      21.107  30.622  12.421  1.00  0.00     0.067 A 
ATOM     39  C   UNL     1      22.201  29.789  12.509  1.00  0.00     0.035 A 
ATOM     40  C   UNL     1      21.283  31.929  12.838  1.00  0.00     0.035 A 
ATOM     41  C   UNL     1      23.411  30.246  12.993  1.00  0.00     0.088 A 
ATOM     42  C   UNL     1      22.493  32.387  13.323  1.00  0.00     0.088 A 
ATOM     43  C   UNL     1      23.589  31.556  13.412  1.00  0.00     0.269 A 
BRANCH  43  44
ATOM     44  N   UNL     1      24.825  32.033  13.908  1.00  0.00     0.062 N 
ATOM     45  O   UNL     1      25.473  31.310  14.685  1.00  0.00    -0.258 OA
ATOM     46  O   UNL     1      25.356  33.249  13.582  1.00  0.00    -0.258 OA
ENDBRANCH  43  44
ENDBRANCH  36  38
ENDBRANCH  32  33
ENDBRANCH  31  32
ENDBRANCH   2  31
TORSDOF 16
BEGIN_RES LYS A 131
REMARK  4 active torsions:
REMARK  status: ('A' for Active; 'I' for Inactive)
REMARK    1  A    between atoms: CA   and  CB  
REMARK    2  A    between atoms: CB   and  CG  
REMARK    3  A    between atoms: CG   and  CD  
REMARK    4  A    between atoms: CD   and  CE  
ROOT
ATOM      1  CA  LYS A 131      29.867  25.555  16.977  1.00 20.52     0.186 C 
ENDROOT
BRANCH   1   2
ATOM      2  CB  LYS A 131      28.345  25.722  17.026  1.00 20.94     0.034 C 
BRANCH   2   3
ATOM      3  CG  LYS A 131      27.602  24.399  16.925  1.00 22.96     0.005 C 
BRANCH   3   4
ATOM      4  CD  LYS A 131      26.290  24.428  17.660  1.00 24.33     0.041 C 
BRANCH   4   5
ATOM      5  CE  LYS A 131      25.622  23.061  17.563  1.00 26.91     0.338 C 
ATOM      6  NZ  LYS A 131      24.238  23.195  17.048  1.00 27.40     0.618 N 
ENDBRANCH   4   5
ENDBRANCH   3   4
ENDBRANCH   2   3
ENDBRANCH   1   2
END_RES LYS A 131
BEGIN_RES LYS A 135
REMARK  4 active torsions:
REMARK  status: ('A' for Active; 'I' for Inactive)
REMARK    5  A    between atoms: CA   and  CB  
REMARK    6  A    between atoms: CB   and  CG  
REMARK    7  A    between atoms: CG   and  CD  
REMARK    8  A    between atoms: CD   and  CE  
ROOT
ATOM      7  CA  LYS A 135      33.193  34.663   9.290  1.00 25.02     0.186 C 
ENDROOT
BRANCH   7   8
ATOM      8  CB  LYS A 135      32.060  35.360  10.034  1.00 26.63     0.034 C 
BRANCH   8   9
ATOM      9  CG  LYS A 135      30.791  35.474   9.229  1.00 29.45     0.005 C 
BRANCH   9  10
ATOM     10  CD  LYS A 135      30.201  34.098   8.961  1.00 32.00     0.041 C 
BRANCH  10  11
ATOM     11  CE  LYS A 135      28.690  34.133   9.090  1.00 34.25     0.338 C 
ATOM     12  NZ  LYS A 135      28.071  34.865   7.950  1.00 35.99     0.618 N 
ENDBRANCH  10  11
ENDBRANCH   9  10
ENDBRANCH   8   9
ENDBRANCH   7   8
END_RES LYS A 135
