REMARK VINA RESULT:    -5.228      5.199      7.482
REMARK INTER + INTRA:         -16.392
REMARK INTER:                 -10.449
REMARK INTRA:                  -5.943
REMARK UNBOUND:                -6.121
REMARK SMILES CC(=O)N[C@@H]1[C@@H](O)C[C@](O)(C(=O)O)O[C@H]1C(O)[C@H](O)CNC(=O)OCc1cn(C[C@@H](C)CN2CCN(c3ccc(Cl)cc3)CC2)nn1
REMARK SMILES IDX 24 1 22 2 21 3 23 5 20 6 18 7 16 8 15 9 9 10 8 11 14 12 6 13
REMARK SMILES IDX 5 14 10 15 11 17 12 18 13 19 7 21 4 23 2 24 1 26 3 27 17 28
REMARK SMILES IDX 19 30 25 32 26 33 27 34 47 35 28 36 46 37 29 38 30 39 31 40
REMARK SMILES IDX 32 41 33 42 34 43 45 44 35 45 44 46 36 47 37 48 38 49 43 50
REMARK SMILES IDX 39 51 42 52 40 53 41 54
REMARK H PARENT 21 4 10 16 13 20 7 22 4 25 17 29 19 31
REMARK Flexibility Score: inf
ROOT
ATOM      1  O   UNL     1      17.872  33.140   7.827  1.00  0.00    -0.443 OA
ENDROOT
BRANCH   1   2
ATOM      2  C   UNL     1      18.404  34.413   7.956  1.00  0.00     0.407 C 
ATOM      3  N   UNL     1      19.509  34.897   7.201  1.00  0.00    -0.319 N 
ATOM      4  H   UNL     1      19.933  34.235   6.524  1.00  0.00     0.167 HD
ATOM      5  O   UNL     1      17.845  35.161   8.803  1.00  0.00    -0.225 OA
BRANCH   3   6
ATOM      6  C   UNL     1      19.924  36.240   7.447  1.00  0.00     0.154 C 
BRANCH   6   7
ATOM      7  C   UNL     1      21.050  36.425   8.383  1.00  0.00     0.165 C 
BRANCH   7   8
ATOM      8  C   UNL     1      22.106  37.427   7.949  1.00  0.00     0.176 C 
BRANCH   8   9
ATOM      9  C   UNL     1      23.229  37.251   8.974  1.00  0.00     0.178 C 
ATOM     10  C   UNL     1      23.446  36.865  11.265  1.00  0.00     0.269 C 
ATOM     11  C   UNL     1      24.602  37.824  11.315  1.00  0.00     0.112 C 
ATOM     12  O   UNL     1      22.627  37.032  10.181  1.00  0.00    -0.332 OA
ATOM     13  C   UNL     1      25.221  38.127   9.999  1.00  0.00     0.145 C 
ATOM     14  C   UNL     1      24.076  38.480   9.026  1.00  0.00     0.142 C 
BRANCH  10  15
ATOM     15  O   UNL     1      22.666  37.181  12.407  1.00  0.00    -0.357 OA
ATOM     16  H   UNL     1      21.713  37.163  12.201  1.00  0.00     0.214 HD
ENDBRANCH  10  15
BRANCH  10  17
ATOM     17  C   UNL     1      23.864  35.443  11.439  1.00  0.00     0.364 C 
ATOM     18  O   UNL     1      23.043  34.513  11.236  1.00  0.00    -0.246 OA
BRANCH  17  19
ATOM     19  O   UNL     1      25.145  35.075  11.823  1.00  0.00    -0.477 OA
ATOM     20  H   UNL     1      25.572  34.181  11.611  1.00  0.00     0.296 HD
ENDBRANCH  17  19
ENDBRANCH  10  17
BRANCH  13  21
ATOM     21  O   UNL     1      26.036  39.251  10.134  1.00  0.00    -0.391 OA
ATOM     22  H   UNL     1      26.993  38.989  10.177  1.00  0.00     0.211 HD
ENDBRANCH  13  21
BRANCH  14  23
ATOM     23  N   UNL     1      24.616  38.852   7.745  1.00  0.00    -0.348 N 
ATOM     24  C   UNL     1      24.522  40.177   7.265  1.00  0.00     0.217 C 
ATOM     25  H   UNL     1      25.082  38.133   7.167  1.00  0.00     0.163 HD
ATOM     26  C   UNL     1      25.116  40.454   5.923  1.00  0.00     0.114 C 
ATOM     27  O   UNL     1      23.978  41.102   7.904  1.00  0.00    -0.275 OA
ENDBRANCH  14  23
ENDBRANCH   8   9
BRANCH   8  28
ATOM     28  O   UNL     1      22.549  37.081   6.662  1.00  0.00    -0.388 OA
ATOM     29  H   UNL     1      23.530  37.222   6.664  1.00  0.00     0.211 HD
ENDBRANCH   8  28
ENDBRANCH   7   8
BRANCH   7  30
ATOM     30  O   UNL     1      21.757  35.191   8.416  1.00  0.00    -0.388 OA
ATOM     31  H   UNL     1      21.150  34.580   8.923  1.00  0.00     0.211 HD
ENDBRANCH   7  30
ENDBRANCH   6   7
ENDBRANCH   3   6
ENDBRANCH   1   2
BRANCH   1  32
ATOM     32  C   UNL     1      16.930  32.847   6.807  1.00  0.00     0.294 C 
BRANCH  32  33
ATOM     33  C   UNL     1      16.891  31.391   6.543  1.00  0.00     0.120 A 
ATOM     34  C   UNL     1      16.932  30.416   7.543  1.00  0.00     0.138 A 
ATOM     35  N   UNL     1      16.802  30.688   5.405  1.00  0.00    -0.132 NA
ATOM     36  N   UNL     1      16.868  29.191   7.004  1.00  0.00    -0.252 N 
ATOM     37  N   UNL     1      16.790  29.394   5.670  1.00  0.00    -0.067 NA
BRANCH  36  38
ATOM     38  C   UNL     1      16.856  27.892   7.651  1.00  0.00     0.150 C 
BRANCH  38  39
ATOM     39  C   UNL     1      15.634  27.799   8.575  1.00  0.00     0.022 C 
ATOM     40  C   UNL     1      14.467  27.193   7.893  1.00  0.00     0.011 C 
BRANCH  39  41
ATOM     41  C   UNL     1      16.002  27.345   9.925  1.00  0.00     0.089 C 
BRANCH  41  42
ATOM     42  N   UNL     1      17.173  27.975  10.448  1.00  0.00    -0.299 NA
ATOM     43  C   UNL     1      16.812  29.285  11.053  1.00  0.00     0.106 C 
ATOM     44  C   UNL     1      17.681  27.210  11.583  1.00  0.00     0.106 C 
ATOM     45  C   UNL     1      17.971  29.902  11.752  1.00  0.00     0.132 C 
ATOM     46  C   UNL     1      19.141  27.667  11.723  1.00  0.00     0.132 C 
ATOM     47  N   UNL     1      19.144  29.093  11.873  1.00  0.00    -0.369 N 
BRANCH  47  48
ATOM     48  C   UNL     1      20.388  29.720  12.165  1.00  0.00     0.037 A 
ATOM     49  C   UNL     1      21.537  28.962  12.197  1.00  0.00     0.027 A 
ATOM     50  C   UNL     1      20.457  31.082  12.426  1.00  0.00     0.027 A 
ATOM     51  C   UNL     1      22.735  29.572  12.487  1.00  0.00     0.022 A 
ATOM     52  C   UNL     1      21.656  31.678  12.716  1.00  0.00     0.022 A 
ATOM     53  C   UNL     1      22.808  30.908  12.744  1.00  0.00     0.041 A 
ATOM     54  Cl  UNL     1      24.324  31.681  13.122  1.00  0.00    -0.084 Cl
ENDBRANCH  47  48
ENDBRANCH  41  42
ENDBRANCH  39  41
ENDBRANCH  38  39
ENDBRANCH  36  38
ENDBRANCH  32  33
ENDBRANCH   1  32
TORSDOF 19
BEGIN_RES LYS A 131
REMARK  4 active torsions:
REMARK  status: ('A' for Active; 'I' for Inactive)
REMARK    1  A    between atoms: CA   and  CB  
REMARK    2  A    between atoms: CB   and  CG  
REMARK    3  A    between atoms: CG   and  CD  
REMARK    4  A    between atoms: CD   and  CE  
ROOT
ATOM      1  CA  LYS A 131      29.867  25.555  16.977  1.00 20.52     0.186 C 
ENDROOT
BRANCH   1   2
ATOM      2  CB  LYS A 131      28.345  25.722  17.026  1.00 20.94     0.034 C 
BRANCH   2   3
ATOM      3  CG  LYS A 131      27.599  24.478  16.569  1.00 22.96     0.005 C 
BRANCH   3   4
ATOM      4  CD  LYS A 131      26.734  23.904  17.656  1.00 24.33     0.041 C 
BRANCH   4   5
ATOM      5  CE  LYS A 131      25.266  24.135  17.314  1.00 26.91     0.338 C 
ATOM      6  NZ  LYS A 131      24.479  22.900  17.544  1.00 27.40     0.618 N 
ENDBRANCH   4   5
ENDBRANCH   3   4
ENDBRANCH   2   3
ENDBRANCH   1   2
END_RES LYS A 131
BEGIN_RES LYS A 135
REMARK  4 active torsions:
REMARK  status: ('A' for Active; 'I' for Inactive)
REMARK    5  A    between atoms: CA   and  CB  
REMARK    6  A    between atoms: CB   and  CG  
REMARK    7  A    between atoms: CG   and  CD  
REMARK    8  A    between atoms: CD   and  CE  
ROOT
ATOM      7  CA  LYS A 135      33.193  34.663   9.290  1.00 25.02     0.186 C 
ENDROOT
BRANCH   7   8
ATOM      8  CB  LYS A 135      32.060  35.360  10.034  1.00 26.63     0.034 C 
BRANCH   8   9
ATOM      9  CG  LYS A 135      30.918  35.772   9.142  1.00 29.45     0.005 C 
BRANCH   9  10
ATOM     10  CD  LYS A 135      30.402  34.584   8.346  1.00 32.00     0.041 C 
BRANCH  10  11
ATOM     11  CE  LYS A 135      28.886  34.565   8.339  1.00 34.25     0.338 C 
ATOM     12  NZ  LYS A 135      28.346  35.249   7.131  1.00 35.99     0.618 N 
ENDBRANCH  10  11
ENDBRANCH   9  10
ENDBRANCH   8   9
ENDBRANCH   7   8
END_RES LYS A 135
