REMARK VINA RESULT:    -5.286      4.741      9.116
REMARK INTER + INTRA:         -15.232
REMARK INTER:                  -9.635
REMARK INTRA:                  -5.597
REMARK UNBOUND:                -6.084
REMARK SMILES CC(=O)N[C@@H]1[C@@H](O)C[C@](O)(C(=O)O)O[C@H]1C(O)[C@H](O)CNC(=O)OCc1cn(-c2c3ccccc3nc3ccccc23)nn1
REMARK SMILES IDX 20 1 18 2 16 3 15 4 9 5 8 6 14 7 6 8 5 9 10 10 11 12 12 13
REMARK SMILES IDX 13 14 7 16 4 18 2 19 1 21 3 22 17 23 19 25 21 27 22 28 23 30
REMARK SMILES IDX 24 31 25 32 26 33 27 34 44 35 28 36 43 37 29 38 30 39 42 40
REMARK SMILES IDX 31 41 35 42 37 43 41 44 32 45 34 46 36 47 38 48 40 49 33 50
REMARK SMILES IDX 39 51
REMARK H PARENT 10 11 13 15 7 17 4 20 17 24 19 26 21 29
REMARK Flexibility Score: inf
ROOT
ATOM      1  C   UNL     1      29.770  31.390  17.511  1.00  0.00     0.154 C 
ENDROOT
BRANCH   1   2
ATOM      2  C   UNL     1      30.301  32.712  17.027  1.00  0.00     0.165 C 
BRANCH   2   3
ATOM      3  C   UNL     1      30.967  32.461  15.711  1.00  0.00     0.176 C 
BRANCH   3   4
ATOM      4  C   UNL     1      31.387  33.728  14.980  1.00  0.00     0.178 C 
ATOM      5  C   UNL     1      33.133  35.171  14.911  1.00  0.00     0.269 C 
ATOM      6  C   UNL     1      32.321  36.425  15.105  1.00  0.00     0.112 C 
ATOM      7  O   UNL     1      32.589  34.089  15.523  1.00  0.00    -0.332 OA
ATOM      8  C   UNL     1      30.915  36.146  15.548  1.00  0.00     0.145 C 
ATOM      9  C   UNL     1      30.389  34.818  15.117  1.00  0.00     0.142 C 
BRANCH   5  10
ATOM     10  O   UNL     1      34.397  35.364  15.560  1.00  0.00    -0.357 OA
ATOM     11  H   UNL     1      34.245  35.602  16.507  1.00  0.00     0.214 HD
ENDBRANCH   5  10
BRANCH   5  12
ATOM     12  C   UNL     1      33.488  35.002  13.481  1.00  0.00     0.364 C 
ATOM     13  O   UNL     1      32.939  35.680  12.572  1.00  0.00    -0.246 OA
BRANCH  12  14
ATOM     14  O   UNL     1      34.452  34.078  13.047  1.00  0.00    -0.477 OA
ATOM     15  H   UNL     1      34.192  33.374  12.375  1.00  0.00     0.296 HD
ENDBRANCH  12  14
ENDBRANCH   5  12
BRANCH   8  16
ATOM     16  O   UNL     1      30.850  36.287  16.938  1.00  0.00    -0.391 OA
ATOM     17  H   UNL     1      30.731  35.411  17.383  1.00  0.00     0.211 HD
ENDBRANCH   8  16
BRANCH   9  18
ATOM     18  N   UNL     1      29.553  35.009  13.927  1.00  0.00    -0.348 N 
ATOM     19  C   UNL     1      28.237  34.478  13.821  1.00  0.00     0.217 C 
ATOM     20  H   UNL     1      29.892  35.548  13.100  1.00  0.00     0.163 HD
ATOM     21  C   UNL     1      27.399  34.686  12.600  1.00  0.00     0.114 C 
ATOM     22  O   UNL     1      27.750  33.814  14.772  1.00  0.00    -0.275 OA
ENDBRANCH   9  18
ENDBRANCH   3   4
BRANCH   3  23
ATOM     23  O   UNL     1      30.100  31.760  14.887  1.00  0.00    -0.388 OA
ATOM     24  H   UNL     1      29.728  31.010  15.412  1.00  0.00     0.211 HD
ENDBRANCH   3  23
ENDBRANCH   2   3
BRANCH   2  25
ATOM     25  O   UNL     1      31.137  33.266  17.968  1.00  0.00    -0.388 OA
ATOM     26  H   UNL     1      32.072  33.226  17.605  1.00  0.00     0.211 HD
ENDBRANCH   2  25
ENDBRANCH   1   2
BRANCH   1  27
ATOM     27  N   UNL     1      28.361  31.211  17.448  1.00  0.00    -0.319 N 
ATOM     28  C   UNL     1      27.699  30.326  16.572  1.00  0.00     0.407 C 
ATOM     29  H   UNL     1      27.695  31.768  18.094  1.00  0.00     0.167 HD
ATOM     30  O   UNL     1      28.326  29.620  15.755  1.00  0.00    -0.225 OA
BRANCH  28  31
ATOM     31  O   UNL     1      26.302  30.188  16.571  1.00  0.00    -0.443 OA
BRANCH  31  32
ATOM     32  C   UNL     1      25.462  31.343  16.555  1.00  0.00     0.294 C 
BRANCH  32  33
ATOM     33  C   UNL     1      24.776  31.379  15.242  1.00  0.00     0.121 A 
ATOM     34  C   UNL     1      23.460  31.722  15.011  1.00  0.00     0.144 A 
ATOM     35  N   UNL     1      25.268  31.093  14.011  1.00  0.00    -0.131 NA
ATOM     36  N   UNL     1      23.191  31.642  13.697  1.00  0.00    -0.219 N 
ATOM     37  N   UNL     1      24.301  31.258  13.107  1.00  0.00    -0.062 NA
BRANCH  36  38
ATOM     38  C   UNL     1      21.965  31.913  13.051  1.00  0.00     0.085 A 
ATOM     39  C   UNL     1      21.089  30.870  12.734  1.00  0.00     0.027 A 
ATOM     40  C   UNL     1      21.582  33.200  12.712  1.00  0.00     0.027 A 
ATOM     41  C   UNL     1      21.412  29.567  13.045  1.00  0.00     0.012 A 
ATOM     42  C   UNL     1      19.900  31.101  12.117  1.00  0.00     0.073 A 
ATOM     43  C   UNL     1      20.373  33.411  12.087  1.00  0.00     0.073 A 
ATOM     44  C   UNL     1      22.444  34.222  13.021  1.00  0.00     0.012 A 
ATOM     45  C   UNL     1      20.584  28.504  12.754  1.00  0.00     0.001 A 
ATOM     46  C   UNL     1      19.053  30.039  11.818  1.00  0.00     0.029 A 
ATOM     47  N   UNL     1      19.564  32.368  11.804  1.00  0.00    -0.248 NA
ATOM     48  C   UNL     1      20.036  34.705  11.768  1.00  0.00     0.029 A 
ATOM     49  C   UNL     1      22.073  35.525  12.684  1.00  0.00     0.001 A 
ATOM     50  C   UNL     1      19.357  28.730  12.120  1.00  0.00     0.002 A 
ATOM     51  C   UNL     1      20.873  35.781  12.058  1.00  0.00     0.002 A 
ENDBRANCH  36  38
ENDBRANCH  32  33
ENDBRANCH  31  32
ENDBRANCH  28  31
ENDBRANCH   1  27
TORSDOF 15
BEGIN_RES LYS A 131
REMARK  4 active torsions:
REMARK  status: ('A' for Active; 'I' for Inactive)
REMARK    1  A    between atoms: CA   and  CB  
REMARK    2  A    between atoms: CB   and  CG  
REMARK    3  A    between atoms: CG   and  CD  
REMARK    4  A    between atoms: CD   and  CE  
ROOT
ATOM      1  CA  LYS A 131      29.867  25.555  16.977  1.00 20.52     0.186 C 
ENDROOT
BRANCH   1   2
ATOM      2  CB  LYS A 131      28.345  25.722  17.026  1.00 20.94     0.034 C 
BRANCH   2   3
ATOM      3  CG  LYS A 131      27.601  24.400  16.907  1.00 22.96     0.005 C 
BRANCH   3   4
ATOM      4  CD  LYS A 131      26.153  24.529  17.288  1.00 24.33     0.041 C 
BRANCH   4   5
ATOM      5  CE  LYS A 131      26.019  25.498  18.459  1.00 26.91     0.338 C 
ATOM      6  NZ  LYS A 131      24.626  25.510  18.965  1.00 27.40     0.618 N 
ENDBRANCH   4   5
ENDBRANCH   3   4
ENDBRANCH   2   3
ENDBRANCH   1   2
END_RES LYS A 131
BEGIN_RES LYS A 135
REMARK  4 active torsions:
REMARK  status: ('A' for Active; 'I' for Inactive)
REMARK    5  A    between atoms: CA   and  CB  
REMARK    6  A    between atoms: CB   and  CG  
REMARK    7  A    between atoms: CG   and  CD  
REMARK    8  A    between atoms: CD   and  CE  
ROOT
ATOM      7  CA  LYS A 135      33.193  34.663   9.290  1.00 25.02     0.186 C 
ENDROOT
BRANCH   7   8
ATOM      8  CB  LYS A 135      32.060  35.360  10.034  1.00 26.63     0.034 C 
BRANCH   8   9
ATOM      9  CG  LYS A 135      30.787  35.463   9.234  1.00 29.45     0.005 C 
BRANCH   9  10
ATOM     10  CD  LYS A 135      30.218  34.081   8.952  1.00 32.00     0.041 C 
BRANCH  10  11
ATOM     11  CE  LYS A 135      28.715  34.072   9.157  1.00 34.25     0.338 C 
ATOM     12  NZ  LYS A 135      28.019  34.792   8.054  1.00 35.99     0.618 N 
ENDBRANCH  10  11
ENDBRANCH   9  10
ENDBRANCH   8   9
ENDBRANCH   7   8
END_RES LYS A 135
