REMARK VINA RESULT:    -4.540      2.605      3.961
REMARK INTER + INTRA:         -15.588
REMARK INTER:                  -8.463
REMARK INTRA:                  -7.124
REMARK UNBOUND:                -6.934
REMARK SMILES CC(=O)N[C@@H]1[C@@H](O)C[C@](O)(C(=O)O)O[C@H]1C(O)[C@H](O)CNC(=O)OCc1cn(C(C)CC(=O)c2ccccc2)nn1
REMARK SMILES IDX 21 1 22 2 23 3 20 5 18 6 16 7 15 8 9 9 8 10 14 11 6 12 5 13
REMARK SMILES IDX 10 14 11 16 12 17 13 18 7 20 4 22 2 23 1 25 3 26 17 27 19 29
REMARK SMILES IDX 24 31 25 32 26 33 27 34 41 35 28 36 40 37 29 38 30 39 31 40
REMARK SMILES IDX 32 41 33 42 34 43 35 44 39 45 36 46 38 47 37 48
REMARK H PARENT 21 4 10 15 13 19 7 21 4 24 17 28 19 30
REMARK Flexibility Score: inf
ROOT
ATOM      1  N   UNL     1      27.157  30.321  22.130  1.00  0.00    -0.319 N 
ATOM      2  C   UNL     1      26.187  31.357  22.011  1.00  0.00     0.407 C 
ATOM      3  O   UNL     1      25.189  31.161  21.293  1.00  0.00    -0.225 OA
ATOM      4  H   UNL     1      27.980  30.564  22.763  1.00  0.00     0.167 HD
ENDROOT
BRANCH   1   5
ATOM      5  C   UNL     1      27.069  29.038  21.468  1.00  0.00     0.154 C 
BRANCH   5   6
ATOM      6  C   UNL     1      27.976  28.962  20.260  1.00  0.00     0.165 C 
BRANCH   6   7
ATOM      7  C   UNL     1      29.108  27.978  20.465  1.00  0.00     0.176 C 
BRANCH   7   8
ATOM      8  C   UNL     1      29.665  28.005  21.857  1.00  0.00     0.178 C 
ATOM      9  C   UNL     1      31.452  29.504  21.796  1.00  0.00     0.269 C 
ATOM     10  C   UNL     1      32.466  28.401  21.967  1.00  0.00     0.112 C 
ATOM     11  O   UNL     1      30.191  29.215  22.222  1.00  0.00    -0.332 OA
ATOM     12  C   UNL     1      31.971  27.069  21.489  1.00  0.00     0.145 C 
ATOM     13  C   UNL     1      30.613  26.847  22.115  1.00  0.00     0.142 C 
BRANCH   9  14
ATOM     14  O   UNL     1      31.510  29.988  20.470  1.00  0.00    -0.357 OA
ATOM     15  H   UNL     1      32.143  30.724  20.372  1.00  0.00     0.214 HD
ENDBRANCH   9  14
BRANCH   9  16
ATOM     16  C   UNL     1      31.947  30.643  22.655  1.00  0.00     0.364 C 
ATOM     17  O   UNL     1      32.000  30.595  23.891  1.00  0.00    -0.246 OA
BRANCH  16  18
ATOM     18  O   UNL     1      32.353  31.782  21.940  1.00  0.00    -0.477 OA
ATOM     19  H   UNL     1      33.162  32.311  22.227  1.00  0.00     0.296 HD
ENDBRANCH  16  18
ENDBRANCH   9  16
BRANCH  12  20
ATOM     20  O   UNL     1      31.954  26.957  20.119  1.00  0.00    -0.391 OA
ATOM     21  H   UNL     1      31.142  27.386  19.757  1.00  0.00     0.211 HD
ENDBRANCH  12  20
BRANCH  13  22
ATOM     22  N   UNL     1      30.847  26.844  23.568  1.00  0.00    -0.348 N 
ATOM     23  C   UNL     1      30.176  25.884  24.374  1.00  0.00     0.217 C 
ATOM     24  H   UNL     1      31.488  27.521  24.025  1.00  0.00     0.163 HD
ATOM     25  C   UNL     1      30.425  25.894  25.838  1.00  0.00     0.114 C 
ATOM     26  O   UNL     1      29.404  25.068  23.824  1.00  0.00    -0.275 OA
ENDBRANCH  13  22
ENDBRANCH   7   8
BRANCH   7  27
ATOM     27  O   UNL     1      28.605  26.715  20.144  1.00  0.00    -0.388 OA
ATOM     28  H   UNL     1      27.624  26.695  20.352  1.00  0.00     0.211 HD
ENDBRANCH   7  27
ENDBRANCH   6   7
BRANCH   6  29
ATOM     29  O   UNL     1      28.493  30.248  20.001  1.00  0.00    -0.388 OA
ATOM     30  H   UNL     1      28.774  30.705  20.832  1.00  0.00     0.211 HD
ENDBRANCH   6  29
ENDBRANCH   5   6
ENDBRANCH   1   5
BRANCH   2  31
ATOM     31  O   UNL     1      26.306  32.567  22.656  1.00  0.00    -0.443 OA
BRANCH  31  32
ATOM     32  C   UNL     1      26.926  33.720  22.134  1.00  0.00     0.294 C 
BRANCH  32  33
ATOM     33  C   UNL     1      28.143  33.463  21.358  1.00  0.00     0.120 A 
ATOM     34  C   UNL     1      28.448  34.015  20.107  1.00  0.00     0.138 A 
ATOM     35  N   UNL     1      29.203  32.670  21.658  1.00  0.00    -0.132 NA
ATOM     36  N   UNL     1      29.623  33.554  19.726  1.00  0.00    -0.249 N 
ATOM     37  N   UNL     1      30.059  32.756  20.657  1.00  0.00    -0.067 NA
BRANCH  36  38
ATOM     38  C   UNL     1      30.311  33.906  18.443  1.00  0.00     0.114 C 
ATOM     39  C   UNL     1      31.440  34.809  18.866  1.00  0.00     0.034 C 
BRANCH  38  40
ATOM     40  C   UNL     1      30.764  32.654  17.853  1.00  0.00     0.108 C 
BRANCH  40  41
ATOM     41  C   UNL     1      30.899  32.520  16.436  1.00  0.00     0.164 C 
ATOM     42  O   UNL     1      30.739  31.257  16.028  1.00  0.00    -0.294 OA
BRANCH  41  43
ATOM     43  C   UNL     1      31.168  33.430  15.367  1.00  0.00     0.018 A 
ATOM     44  C   UNL     1      32.426  34.083  15.336  1.00  0.00     0.012 A 
ATOM     45  C   UNL     1      30.313  33.725  14.334  1.00  0.00     0.012 A 
ATOM     46  C   UNL     1      32.756  34.955  14.331  1.00  0.00     0.001 A 
ATOM     47  C   UNL     1      30.681  34.613  13.333  1.00  0.00     0.001 A 
ATOM     48  C   UNL     1      31.885  35.237  13.308  1.00  0.00     0.000 A 
ENDBRANCH  41  43
ENDBRANCH  40  41
ENDBRANCH  38  40
ENDBRANCH  36  38
ENDBRANCH  32  33
ENDBRANCH  31  32
ENDBRANCH   2  31
TORSDOF 18
BEGIN_RES LYS A 131
REMARK  4 active torsions:
REMARK  status: ('A' for Active; 'I' for Inactive)
REMARK    1  A    between atoms: CA   and  CB  
REMARK    2  A    between atoms: CB   and  CG  
REMARK    3  A    between atoms: CG   and  CD  
REMARK    4  A    between atoms: CD   and  CE  
ROOT
ATOM      1  CA  LYS A 131      29.867  25.555  16.977  1.00 20.52     0.186 C 
ENDROOT
BRANCH   1   2
ATOM      2  CB  LYS A 131      28.345  25.722  17.026  1.00 20.94     0.034 C 
BRANCH   2   3
ATOM      3  CG  LYS A 131      27.602  24.400  16.913  1.00 22.96     0.005 C 
BRANCH   3   4
ATOM      4  CD  LYS A 131      26.649  24.187  18.056  1.00 24.33     0.041 C 
BRANCH   4   5
ATOM      5  CE  LYS A 131      25.848  25.462  18.297  1.00 26.91     0.338 C 
ATOM      6  NZ  LYS A 131      25.426  25.551  19.715  1.00 27.40     0.618 N 
ENDBRANCH   4   5
ENDBRANCH   3   4
ENDBRANCH   2   3
ENDBRANCH   1   2
END_RES LYS A 131
BEGIN_RES LYS A 135
REMARK  4 active torsions:
REMARK  status: ('A' for Active; 'I' for Inactive)
REMARK    5  A    between atoms: CA   and  CB  
REMARK    6  A    between atoms: CB   and  CG  
REMARK    7  A    between atoms: CG   and  CD  
REMARK    8  A    between atoms: CD   and  CE  
ROOT
ATOM      7  CA  LYS A 135      33.193  34.663   9.290  1.00 25.02     0.186 C 
ENDROOT
BRANCH   7   8
ATOM      8  CB  LYS A 135      32.060  35.360  10.034  1.00 26.63     0.034 C 
BRANCH   8   9
ATOM      9  CG  LYS A 135      30.701  34.775   9.747  1.00 29.45     0.005 C 
BRANCH   9  10
ATOM     10  CD  LYS A 135      30.538  34.502   8.259  1.00 32.00     0.041 C 
BRANCH  10  11
ATOM     11  CE  LYS A 135      29.357  35.272   7.702  1.00 34.25     0.338 C 
ATOM     12  NZ  LYS A 135      28.069  34.708   8.192  1.00 35.99     0.618 N 
ENDBRANCH  10  11
ENDBRANCH   9  10
ENDBRANCH   8   9
ENDBRANCH   7   8
END_RES LYS A 135
