REMARK VINA RESULT:    -4.724      3.138      7.330
REMARK INTER + INTRA:         -14.849
REMARK INTER:                  -7.574
REMARK INTRA:                  -7.275
REMARK UNBOUND:                -6.398
REMARK SMILES CC(=O)N[C@@H]1[C@@H](O)C[C@](O)(C(=O)O)O[C@H]1C(O)[C@H](O)CNC(=O)OCc1cn(Cc2ccc(Br)cc2)nn1
REMARK SMILES IDX 21 1 22 2 23 3 20 5 18 6 16 7 15 8 9 9 8 10 14 11 6 12 5 13
REMARK SMILES IDX 10 14 11 16 12 17 13 18 7 20 4 22 2 23 1 25 3 26 17 27 19 29
REMARK SMILES IDX 24 31 25 32 26 33 27 34 38 35 28 36 37 37 29 38 30 39 31 40
REMARK SMILES IDX 36 41 32 42 35 43 33 44 34 45
REMARK H PARENT 21 4 10 15 13 19 7 21 4 24 17 28 19 30
REMARK Flexibility Score: inf
ROOT
ATOM      1  N   UNL     1      27.018  36.243  15.213  1.00  0.00    -0.319 N 
ATOM      2  C   UNL     1      27.777  37.435  15.116  1.00  0.00     0.407 C 
ATOM      3  O   UNL     1      28.162  38.136  16.071  1.00  0.00    -0.225 OA
ATOM      4  H   UNL     1      26.747  35.718  14.323  1.00  0.00     0.167 HD
ENDROOT
BRANCH   1   5
ATOM      5  C   UNL     1      26.620  35.747  16.493  1.00  0.00     0.154 C 
BRANCH   5   6
ATOM      6  C   UNL     1      27.460  34.616  17.027  1.00  0.00     0.165 C 
BRANCH   6   7
ATOM      7  C   UNL     1      27.348  33.366  16.233  1.00  0.00     0.176 C 
BRANCH   7   8
ATOM      8  C   UNL     1      26.036  32.693  16.143  1.00  0.00     0.178 C 
ATOM      9  C   UNL     1      26.252  30.413  16.422  1.00  0.00     0.269 C 
ATOM     10  C   UNL     1      24.876  30.092  15.885  1.00  0.00     0.112 C 
ATOM     11  O   UNL     1      26.107  31.633  17.063  1.00  0.00    -0.332 OA
ATOM     12  C   UNL     1      24.576  31.117  14.845  1.00  0.00     0.145 C 
ATOM     13  C   UNL     1      25.498  32.321  14.835  1.00  0.00     0.142 C 
BRANCH   9  14
ATOM     14  O   UNL     1      27.126  30.418  15.358  1.00  0.00    -0.357 OA
ATOM     15  H   UNL     1      27.920  29.865  15.477  1.00  0.00     0.214 HD
ENDBRANCH   9  14
BRANCH   9  16
ATOM     16  C   UNL     1      26.588  29.383  17.434  1.00  0.00     0.364 C 
ATOM     17  O   UNL     1      26.026  29.309  18.549  1.00  0.00    -0.246 OA
BRANCH  16  18
ATOM     18  O   UNL     1      27.584  28.470  17.100  1.00  0.00    -0.477 OA
ATOM     19  H   UNL     1      27.878  28.297  16.152  1.00  0.00     0.296 HD
ENDBRANCH  16  18
ENDBRANCH   9  16
BRANCH  12  20
ATOM     20  O   UNL     1      24.735  30.486  13.589  1.00  0.00    -0.391 OA
ATOM     21  H   UNL     1      25.313  31.001  12.993  1.00  0.00     0.211 HD
ENDBRANCH  12  20
BRANCH  13  22
ATOM     22  N   UNL     1      24.616  33.377  14.291  1.00  0.00    -0.348 N 
ATOM     23  C   UNL     1      25.046  34.335  13.365  1.00  0.00     0.217 C 
ATOM     24  H   UNL     1      23.635  33.350  14.661  1.00  0.00     0.163 HD
ATOM     25  C   UNL     1      24.079  35.365  12.883  1.00  0.00     0.114 C 
ATOM     26  O   UNL     1      26.212  34.332  12.946  1.00  0.00    -0.275 OA
ENDBRANCH  13  22
ENDBRANCH   7   8
BRANCH   7  27
ATOM     27  O   UNL     1      28.055  33.507  15.049  1.00  0.00    -0.388 OA
ATOM     28  H   UNL     1      28.973  33.126  15.162  1.00  0.00     0.211 HD
ENDBRANCH   7  27
ENDBRANCH   6   7
BRANCH   6  29
ATOM     29  O   UNL     1      27.382  34.434  18.398  1.00  0.00    -0.388 OA
ATOM     30  H   UNL     1      28.034  33.793  18.746  1.00  0.00     0.211 HD
ENDBRANCH   6  29
ENDBRANCH   5   6
ENDBRANCH   1   5
BRANCH   2  31
ATOM     31  O   UNL     1      28.137  37.879  13.844  1.00  0.00    -0.443 OA
BRANCH  31  32
ATOM     32  C   UNL     1      29.466  37.799  13.388  1.00  0.00     0.294 C 
BRANCH  32  33
ATOM     33  C   UNL     1      30.049  36.466  13.621  1.00  0.00     0.120 A 
ATOM     34  C   UNL     1      31.096  36.066  14.418  1.00  0.00     0.138 A 
ATOM     35  N   UNL     1      29.572  35.358  13.007  1.00  0.00    -0.132 NA
ATOM     36  N   UNL     1      31.222  34.728  14.263  1.00  0.00    -0.248 N 
ATOM     37  N   UNL     1      30.290  34.344  13.411  1.00  0.00    -0.067 NA
BRANCH  36  38
ATOM     38  C   UNL     1      32.212  33.907  14.930  1.00  0.00     0.181 C 
BRANCH  38  39
ATOM     39  C   UNL     1      31.508  33.156  16.022  1.00  0.00    -0.026 A 
ATOM     40  C   UNL     1      30.998  31.895  15.754  1.00  0.00     0.007 A 
ATOM     41  C   UNL     1      31.381  33.726  17.270  1.00  0.00     0.007 A 
ATOM     42  C   UNL     1      30.359  31.227  16.765  1.00  0.00     0.016 A 
ATOM     43  C   UNL     1      30.731  33.048  18.301  1.00  0.00     0.016 A 
ATOM     44  C   UNL     1      30.235  31.802  18.009  1.00  0.00     0.017 A 
ATOM     45  Br  UNL     1      29.340  30.845  19.402  1.00  0.00    -0.051 Br
ENDBRANCH  38  39
ENDBRANCH  36  38
ENDBRANCH  32  33
ENDBRANCH  31  32
ENDBRANCH   2  31
TORSDOF 16
BEGIN_RES LYS A 131
REMARK  4 active torsions:
REMARK  status: ('A' for Active; 'I' for Inactive)
REMARK    1  A    between atoms: CA   and  CB  
REMARK    2  A    between atoms: CB   and  CG  
REMARK    3  A    between atoms: CG   and  CD  
REMARK    4  A    between atoms: CD   and  CE  
ROOT
ATOM      1  CA  LYS A 131      29.867  25.555  16.977  1.00 20.52     0.186 C 
ENDROOT
BRANCH   1   2
ATOM      2  CB  LYS A 131      28.345  25.722  17.026  1.00 20.94     0.034 C 
BRANCH   2   3
ATOM      3  CG  LYS A 131      27.601  24.401  16.902  1.00 22.96     0.005 C 
BRANCH   3   4
ATOM      4  CD  LYS A 131      26.329  24.390  17.703  1.00 24.33     0.041 C 
BRANCH   4   5
ATOM      5  CE  LYS A 131      25.643  23.036  17.550  1.00 26.91     0.338 C 
ATOM      6  NZ  LYS A 131      24.254  23.210  17.064  1.00 27.40     0.618 N 
ENDBRANCH   4   5
ENDBRANCH   3   4
ENDBRANCH   2   3
ENDBRANCH   1   2
END_RES LYS A 131
BEGIN_RES LYS A 135
REMARK  4 active torsions:
REMARK  status: ('A' for Active; 'I' for Inactive)
REMARK    5  A    between atoms: CA   and  CB  
REMARK    6  A    between atoms: CB   and  CG  
REMARK    7  A    between atoms: CG   and  CD  
REMARK    8  A    between atoms: CD   and  CE  
ROOT
ATOM      7  CA  LYS A 135      33.193  34.663   9.290  1.00 25.02     0.186 C 
ENDROOT
BRANCH   7   8
ATOM      8  CB  LYS A 135      32.060  35.360  10.034  1.00 26.63     0.034 C 
BRANCH   8   9
ATOM      9  CG  LYS A 135      30.788  35.464   9.233  1.00 29.45     0.005 C 
BRANCH   9  10
ATOM     10  CD  LYS A 135      29.883  34.272   9.505  1.00 32.00     0.041 C 
BRANCH  10  11
ATOM     11  CE  LYS A 135      28.555  34.437   8.791  1.00 34.25     0.338 C 
ATOM     12  NZ  LYS A 135      27.470  33.707   9.503  1.00 35.99     0.618 N 
ENDBRANCH  10  11
ENDBRANCH   9  10
ENDBRANCH   8   9
ENDBRANCH   7   8
END_RES LYS A 135
