REMARK VINA RESULT:    -5.374      0.000      0.000
REMARK INTER + INTRA:         -16.467
REMARK INTER:                  -9.082
REMARK INTRA:                  -7.385
REMARK UNBOUND:                -5.909
REMARK SMILES CC(=O)N[C@@H]1[C@@H](O)C[C@](O)(C(=O)O)O[C@H]1C(O)[C@H](O)CNC(=O)OCc1cn(CCNC(=O)NCc2ccco2)nn1
REMARK SMILES IDX 24 1 22 2 21 3 23 5 20 6 18 7 16 8 15 9 9 10 8 11 14 12 6 13
REMARK SMILES IDX 5 14 10 15 11 17 12 18 13 19 7 21 4 23 2 24 1 26 3 27 17 28
REMARK SMILES IDX 19 30 25 32 26 33 27 34 42 35 28 36 41 37 29 38 30 39 31 40
REMARK SMILES IDX 32 41 33 43 34 44 35 46 36 47 37 48 40 49 38 50 39 51
REMARK H PARENT 21 4 10 16 13 20 7 22 4 25 17 29 19 31 31 42 34 45
REMARK Flexibility Score: inf
ROOT
ATOM      1  O   UNL     1      33.739  36.063  19.054  1.00  0.00    -0.443 OA
ENDROOT
BRANCH   1   2
ATOM      2  C   UNL     1      34.096  35.268  20.138  1.00  0.00     0.407 C 
ATOM      3  N   UNL     1      33.185  34.709  21.046  1.00  0.00    -0.319 N 
ATOM      4  H   UNL     1      32.175  34.878  20.931  1.00  0.00     0.167 HD
ATOM      5  O   UNL     1      35.322  35.041  20.308  1.00  0.00    -0.225 OA
BRANCH   3   6
ATOM      6  C   UNL     1      33.670  33.885  22.157  1.00  0.00     0.154 C 
BRANCH   6   7
ATOM      7  C   UNL     1      33.596  32.436  21.755  1.00  0.00     0.165 C 
BRANCH   7   8
ATOM      8  C   UNL     1      32.457  31.712  22.419  1.00  0.00     0.176 C 
BRANCH   8   9
ATOM      9  C   UNL     1      31.939  30.567  21.598  1.00  0.00     0.178 C 
ATOM     10  C   UNL     1      29.883  29.656  20.963  1.00  0.00     0.269 C 
ATOM     11  C   UNL     1      30.501  28.313  20.746  1.00  0.00     0.112 C 
ATOM     12  O   UNL     1      30.551  30.482  21.809  1.00  0.00    -0.332 OA
ATOM     13  C   UNL     1      31.956  28.231  20.972  1.00  0.00     0.145 C 
ATOM     14  C   UNL     1      32.460  29.214  22.014  1.00  0.00     0.142 C 
BRANCH  10  15
ATOM     15  O   UNL     1      28.628  29.397  21.572  1.00  0.00    -0.357 OA
ATOM     16  H   UNL     1      27.965  30.083  21.313  1.00  0.00     0.214 HD
ENDBRANCH  10  15
BRANCH  10  17
ATOM     17  C   UNL     1      29.592  30.369  19.695  1.00  0.00     0.364 C 
ATOM     18  O   UNL     1      28.533  31.040  19.542  1.00  0.00    -0.246 OA
BRANCH  17  19
ATOM     19  O   UNL     1      30.453  30.344  18.604  1.00  0.00    -0.477 OA
ATOM     20  H   UNL     1      31.170  31.055  18.508  1.00  0.00     0.296 HD
ENDBRANCH  17  19
ENDBRANCH  10  17
BRANCH  13  21
ATOM     21  O   UNL     1      32.308  26.919  21.352  1.00  0.00    -0.391 OA
ATOM     22  H   UNL     1      33.010  26.551  20.779  1.00  0.00     0.211 HD
ENDBRANCH  13  21
BRANCH  14  23
ATOM     23  N   UNL     1      33.870  29.111  22.164  1.00  0.00    -0.348 N 
ATOM     24  C   UNL     1      34.394  28.406  23.292  1.00  0.00     0.217 C 
ATOM     25  H   UNL     1      34.567  29.510  21.500  1.00  0.00     0.163 HD
ATOM     26  C   UNL     1      35.843  28.243  23.537  1.00  0.00     0.114 C 
ATOM     27  O   UNL     1      33.599  27.889  24.130  1.00  0.00    -0.275 OA
ENDBRANCH  14  23
ENDBRANCH   8   9
BRANCH   8  28
ATOM     28  O   UNL     1      32.697  31.396  23.744  1.00  0.00    -0.388 OA
ATOM     29  H   UNL     1      32.264  30.556  24.040  1.00  0.00     0.211 HD
ENDBRANCH   8  28
ENDBRANCH   7   8
BRANCH   7  30
ATOM     30  O   UNL     1      34.773  31.837  22.280  1.00  0.00    -0.388 OA
ATOM     31  H   UNL     1      34.744  30.898  21.916  1.00  0.00     0.211 HD
ENDBRANCH   7  30
ENDBRANCH   6   7
ENDBRANCH   3   6
ENDBRANCH   1   2
BRANCH   1  32
ATOM     32  C   UNL     1      32.388  36.251  18.691  1.00  0.00     0.294 C 
BRANCH  32  33
ATOM     33  C   UNL     1      31.908  35.013  18.039  1.00  0.00     0.120 A 
ATOM     34  C   UNL     1      32.130  34.621  16.747  1.00  0.00     0.138 A 
ATOM     35  N   UNL     1      31.166  34.052  18.612  1.00  0.00    -0.132 NA
ATOM     36  N   UNL     1      31.518  33.436  16.570  1.00  0.00    -0.250 N 
ATOM     37  N   UNL     1      30.934  33.093  17.707  1.00  0.00    -0.067 NA
BRANCH  36  38
ATOM     38  C   UNL     1      31.485  32.634  15.344  1.00  0.00     0.167 C 
BRANCH  38  39
ATOM     39  C   UNL     1      30.043  32.316  15.050  1.00  0.00     0.141 C 
BRANCH  39  40
ATOM     40  N   UNL     1      29.683  31.082  15.701  1.00  0.00    -0.336 N 
ATOM     41  C   UNL     1      28.354  30.692  15.992  1.00  0.00     0.315 C 
ATOM     42  H   UNL     1      30.441  30.403  15.992  1.00  0.00     0.165 HD
ATOM     43  O   UNL     1      27.414  31.475  15.659  1.00  0.00    -0.249 OA
ATOM     44  N   UNL     1      28.102  29.455  16.640  1.00  0.00    -0.331 N 
ATOM     45  H   UNL     1      28.851  28.798  16.923  1.00  0.00     0.165 HD
BRANCH  44  46
ATOM     46  C   UNL     1      26.731  29.091  16.921  1.00  0.00     0.193 C 
BRANCH  46  47
ATOM     47  C   UNL     1      26.709  28.258  18.142  1.00  0.00     0.122 A 
ATOM     48  C   UNL     1      25.588  28.095  18.949  1.00  0.00     0.047 A 
ATOM     49  O   UNL     1      27.687  27.571  18.643  1.00  0.00    -0.467 OA
ATOM     50  C   UNL     1      25.988  27.255  19.966  1.00  0.00     0.042 A 
ATOM     51  C   UNL     1      27.313  26.958  19.724  1.00  0.00     0.195 A 
ENDBRANCH  46  47
ENDBRANCH  44  46
ENDBRANCH  39  40
ENDBRANCH  38  39
ENDBRANCH  36  38
ENDBRANCH  32  33
ENDBRANCH   1  32
TORSDOF 19
BEGIN_RES LYS A 131
REMARK  4 active torsions:
REMARK  status: ('A' for Active; 'I' for Inactive)
REMARK    1  A    between atoms: CA   and  CB  
REMARK    2  A    between atoms: CB   and  CG  
REMARK    3  A    between atoms: CG   and  CD  
REMARK    4  A    between atoms: CD   and  CE  
ROOT
ATOM      1  CA  LYS A 131      29.867  25.555  16.977  1.00 20.52     0.186 C 
ENDROOT
BRANCH   1   2
ATOM      2  CB  LYS A 131      28.345  25.722  17.026  1.00 20.94     0.034 C 
BRANCH   2   3
ATOM      3  CG  LYS A 131      27.600  24.408  16.845  1.00 22.96     0.005 C 
BRANCH   3   4
ATOM      4  CD  LYS A 131      26.166  24.504  17.286  1.00 24.33     0.041 C 
BRANCH   4   5
ATOM      5  CE  LYS A 131      25.974  23.702  18.569  1.00 26.91     0.338 C 
ATOM      6  NZ  LYS A 131      24.954  22.645  18.372  1.00 27.40     0.618 N 
ENDBRANCH   4   5
ENDBRANCH   3   4
ENDBRANCH   2   3
ENDBRANCH   1   2
END_RES LYS A 131
BEGIN_RES LYS A 135
REMARK  4 active torsions:
REMARK  status: ('A' for Active; 'I' for Inactive)
REMARK    5  A    between atoms: CA   and  CB  
REMARK    6  A    between atoms: CB   and  CG  
REMARK    7  A    between atoms: CG   and  CD  
REMARK    8  A    between atoms: CD   and  CE  
ROOT
ATOM      7  CA  LYS A 135      33.193  34.663   9.290  1.00 25.02     0.186 C 
ENDROOT
BRANCH   7   8
ATOM      8  CB  LYS A 135      32.060  35.360  10.034  1.00 26.63     0.034 C 
BRANCH   8   9
ATOM      9  CG  LYS A 135      30.731  34.662   9.899  1.00 29.45     0.005 C 
BRANCH   9  10
ATOM     10  CD  LYS A 135      30.326  34.557   8.437  1.00 32.00     0.041 C 
BRANCH  10  11
ATOM     11  CE  LYS A 135      28.816  34.543   8.303  1.00 34.25     0.338 C 
ATOM     12  NZ  LYS A 135      28.183  33.812   9.436  1.00 35.99     0.618 N 
ENDBRANCH  10  11
ENDBRANCH   9  10
ENDBRANCH   8   9
ENDBRANCH   7   8
END_RES LYS A 135
