REMARK VINA RESULT:    -4.281      3.953      6.771
REMARK INTER + INTRA:         -14.110
REMARK INTER:                  -8.267
REMARK INTRA:                  -5.843
REMARK UNBOUND:                -5.949
REMARK SMILES CCOC(=O)Cn1cc(COC(=O)NC[C@@H](O)C(O)[C@@H]2O[C@@](O)(C(=O)O)C[C@H](O)[C@H]2NC(C)=O)nn1
REMARK SMILES IDX 14 1 12 2 13 3 15 5 16 6 18 7 20 8 22 9 27 10 21 11 28 12
REMARK SMILES IDX 30 13 23 14 24 16 25 17 26 18 29 20 31 22 32 23 33 25 34 26
REMARK SMILES IDX 19 27 17 29 11 31 10 32 9 33 8 34 35 35 7 36 36 37 6 38 4 39
REMARK SMILES IDX 5 40 3 41 2 42 1 43
REMARK H PARENT 14 4 23 15 26 19 29 21 31 24 19 28 17 30
REMARK Flexibility Score: inf
ROOT
ATOM      1  N   UNL     1      29.818  30.628  17.031  1.00  0.00    -0.319 N 
ATOM      2  C   UNL     1      28.418  30.542  17.199  1.00  0.00     0.407 C 
ATOM      3  O   UNL     1      27.747  31.462  17.677  1.00  0.00    -0.225 OA
ATOM      4  H   UNL     1      30.252  29.748  16.596  1.00  0.00     0.167 HD
ENDROOT
BRANCH   1   5
ATOM      5  C   UNL     1      30.648  31.735  17.379  1.00  0.00     0.154 C 
BRANCH   5   6
ATOM      6  C   UNL     1      31.138  32.596  16.266  1.00  0.00     0.165 C 
BRANCH   6   7
ATOM      7  C   UNL     1      30.242  33.733  15.928  1.00  0.00     0.176 C 
BRANCH   7   8
ATOM      8  C   UNL     1      29.743  33.784  14.510  1.00  0.00     0.178 C 
ATOM      9  C   UNL     1      30.679  35.580  13.341  1.00  0.00     0.269 C 
ATOM     10  C   UNL     1      29.561  35.679  12.326  1.00  0.00     0.112 C 
ATOM     11  O   UNL     1      30.796  34.288  13.750  1.00  0.00    -0.332 OA
ATOM     12  C   UNL     1      28.349  35.007  12.856  1.00  0.00     0.145 C 
ATOM     13  C   UNL     1      28.484  34.584  14.328  1.00  0.00     0.142 C 
BRANCH   9  14
ATOM     14  O   UNL     1      30.411  36.515  14.323  1.00  0.00    -0.357 OA
ATOM     15  H   UNL     1      31.231  36.635  14.856  1.00  0.00     0.214 HD
ENDBRANCH   9  14
BRANCH   9  16
ATOM     16  C   UNL     1      31.923  35.960  12.633  1.00  0.00     0.364 C 
ATOM     17  O   UNL     1      32.047  37.136  12.231  1.00  0.00    -0.246 OA
BRANCH  16  18
ATOM     18  O   UNL     1      32.932  35.058  12.412  1.00  0.00    -0.477 OA
ATOM     19  H   UNL     1      32.749  34.077  12.200  1.00  0.00     0.296 HD
ENDBRANCH  16  18
ENDBRANCH   9  16
BRANCH  12  20
ATOM     20  O   UNL     1      27.186  35.760  12.719  1.00  0.00    -0.391 OA
ATOM     21  H   UNL     1      26.629  35.495  11.960  1.00  0.00     0.211 HD
ENDBRANCH  12  20
BRANCH  13  22
ATOM     22  N   UNL     1      27.301  33.784  14.570  1.00  0.00    -0.348 N 
ATOM     23  C   UNL     1      26.330  34.043  15.553  1.00  0.00     0.217 C 
ATOM     24  H   UNL     1      27.162  32.949  13.960  1.00  0.00     0.163 HD
ATOM     25  C   UNL     1      25.125  33.210  15.783  1.00  0.00     0.114 C 
ATOM     26  O   UNL     1      26.512  35.064  16.287  1.00  0.00    -0.275 OA
ENDBRANCH  13  22
ENDBRANCH   7   8
BRANCH   7  27
ATOM     27  O   UNL     1      29.236  33.875  16.853  1.00  0.00    -0.388 OA
ATOM     28  H   UNL     1      29.228  34.747  17.322  1.00  0.00     0.211 HD
ENDBRANCH   7  27
ENDBRANCH   6   7
BRANCH   6  29
ATOM     29  O   UNL     1      31.212  31.799  15.104  1.00  0.00    -0.388 OA
ATOM     30  H   UNL     1      31.143  32.375  14.286  1.00  0.00     0.211 HD
ENDBRANCH   6  29
ENDBRANCH   5   6
ENDBRANCH   1   5
BRANCH   2  31
ATOM     31  O   UNL     1      27.717  29.375  16.817  1.00  0.00    -0.443 OA
BRANCH  31  32
ATOM     32  C   UNL     1      27.131  28.527  17.786  1.00  0.00     0.294 C 
BRANCH  32  33
ATOM     33  C   UNL     1      25.709  28.346  17.394  1.00  0.00     0.120 A 
ATOM     34  C   UNL     1      25.016  28.987  16.394  1.00  0.00     0.139 A 
ATOM     35  N   UNL     1      24.801  27.499  17.954  1.00  0.00    -0.132 NA
ATOM     36  N   UNL     1      23.742  28.502  16.401  1.00  0.00    -0.241 N 
ATOM     37  N   UNL     1      23.646  27.600  17.361  1.00  0.00    -0.066 NA
BRANCH  36  38
ATOM     38  C   UNL     1      22.652  28.876  15.531  1.00  0.00     0.268 C 
BRANCH  38  39
ATOM     39  C   UNL     1      22.669  30.320  15.252  1.00  0.00     0.327 C 
ATOM     40  O   UNL     1      22.215  31.112  16.107  1.00  0.00    -0.250 OA
BRANCH  39  41
ATOM     41  O   UNL     1      23.195  30.756  14.036  1.00  0.00    -0.465 OA
BRANCH  41  42
ATOM     42  C   UNL     1      22.902  29.930  12.904  1.00  0.00     0.229 C 
ATOM     43  C   UNL     1      21.536  30.314  12.394  1.00  0.00     0.049 C 
ENDBRANCH  41  42
ENDBRANCH  39  41
ENDBRANCH  38  39
ENDBRANCH  36  38
ENDBRANCH  32  33
ENDBRANCH  31  32
ENDBRANCH   2  31
TORSDOF 18
BEGIN_RES LYS A 131
REMARK  4 active torsions:
REMARK  status: ('A' for Active; 'I' for Inactive)
REMARK    1  A    between atoms: CA   and  CB  
REMARK    2  A    between atoms: CB   and  CG  
REMARK    3  A    between atoms: CG   and  CD  
REMARK    4  A    between atoms: CD   and  CE  
ROOT
ATOM      1  CA  LYS A 131      29.867  25.555  16.977  1.00 20.52     0.186 C 
ENDROOT
BRANCH   1   2
ATOM      2  CB  LYS A 131      28.345  25.722  17.026  1.00 20.94     0.034 C 
BRANCH   2   3
ATOM      3  CG  LYS A 131      27.603  24.395  16.981  1.00 22.96     0.005 C 
BRANCH   3   4
ATOM      4  CD  LYS A 131      26.536  24.306  18.037  1.00 24.33     0.041 C 
BRANCH   4   5
ATOM      5  CE  LYS A 131      25.210  23.923  17.389  1.00 26.91     0.338 C 
ATOM      6  NZ  LYS A 131      24.950  22.474  17.557  1.00 27.40     0.618 N 
ENDBRANCH   4   5
ENDBRANCH   3   4
ENDBRANCH   2   3
ENDBRANCH   1   2
END_RES LYS A 131
BEGIN_RES LYS A 135
REMARK  4 active torsions:
REMARK  status: ('A' for Active; 'I' for Inactive)
REMARK    5  A    between atoms: CA   and  CB  
REMARK    6  A    between atoms: CB   and  CG  
REMARK    7  A    between atoms: CG   and  CD  
REMARK    8  A    between atoms: CD   and  CE  
ROOT
ATOM      7  CA  LYS A 135      33.193  34.663   9.290  1.00 25.02     0.186 C 
ENDROOT
BRANCH   7   8
ATOM      8  CB  LYS A 135      32.060  35.360  10.034  1.00 26.63     0.034 C 
BRANCH   8   9
ATOM      9  CG  LYS A 135      30.812  35.532   9.207  1.00 29.45     0.005 C 
BRANCH   9  10
ATOM     10  CD  LYS A 135      30.230  34.180   8.825  1.00 32.00     0.041 C 
BRANCH  10  11
ATOM     11  CE  LYS A 135      28.724  34.179   9.003  1.00 34.25     0.338 C 
ATOM     12  NZ  LYS A 135      28.055  34.954   7.922  1.00 35.99     0.618 N 
ENDBRANCH  10  11
ENDBRANCH   9  10
ENDBRANCH   8   9
ENDBRANCH   7   8
END_RES LYS A 135
