REMARK VINA RESULT:    -5.392      0.000      0.000
REMARK INTER + INTRA:         -16.715
REMARK INTER:                 -11.691
REMARK INTRA:                  -5.023
REMARK UNBOUND:                -6.121
REMARK SMILES CC(=O)N[C@@H]1[C@@H](O)C[C@](O)(C(=O)O)O[C@H]1C(O)[C@H](O)CNC(=O)OCc1cn(C[C@@H](C)CN2CCN(c3ccc(Cl)cc3)CC2)nn1
REMARK SMILES IDX 24 1 22 2 21 3 23 5 20 6 18 7 16 8 15 9 9 10 8 11 14 12 6 13
REMARK SMILES IDX 5 14 10 15 11 17 12 18 13 19 7 21 4 23 2 24 1 26 3 27 17 28
REMARK SMILES IDX 19 30 25 32 26 33 27 34 47 35 28 36 46 37 29 38 30 39 31 40
REMARK SMILES IDX 32 41 33 42 34 43 45 44 35 45 44 46 36 47 37 48 38 49 43 50
REMARK SMILES IDX 39 51 42 52 40 53 41 54
REMARK H PARENT 21 4 10 16 13 20 7 22 4 25 17 29 19 31
REMARK Flexibility Score: inf
ROOT
ATOM      1  O   UNL     1      22.366  34.870  10.709  1.00  0.00    -0.443 OA
ENDROOT
BRANCH   1   2
ATOM      2  C   UNL     1      23.102  36.021  10.472  1.00  0.00     0.407 C 
ATOM      3  N   UNL     1      24.404  36.258  10.995  1.00  0.00    -0.319 N 
ATOM      4  H   UNL     1      24.804  35.513  11.596  1.00  0.00     0.167 HD
ATOM      5  O   UNL     1      22.550  36.888   9.741  1.00  0.00    -0.225 OA
BRANCH   3   6
ATOM      6  C   UNL     1      25.030  37.491  10.643  1.00  0.00     0.154 C 
BRANCH   6   7
ATOM      7  C   UNL     1      25.936  37.467   9.478  1.00  0.00     0.165 C 
BRANCH   7   8
ATOM      8  C   UNL     1      25.725  38.574   8.460  1.00  0.00     0.176 C 
BRANCH   8   9
ATOM      9  C   UNL     1      26.655  38.199   7.305  1.00  0.00     0.178 C 
ATOM     10  C   UNL     1      28.807  37.344   7.012  1.00  0.00     0.269 C 
ATOM     11  C   UNL     1      29.021  38.281   5.858  1.00  0.00     0.112 C 
ATOM     12  O   UNL     1      27.808  37.725   7.867  1.00  0.00    -0.332 OA
ATOM     13  C   UNL     1      27.778  38.859   5.283  1.00  0.00     0.145 C 
ATOM     14  C   UNL     1      26.937  39.397   6.460  1.00  0.00     0.142 C 
BRANCH  10  15
ATOM     15  O   UNL     1      30.013  37.406   7.756  1.00  0.00    -0.357 OA
ATOM     16  H   UNL     1      30.785  37.516   7.170  1.00  0.00     0.214 HD
ENDBRANCH  10  15
BRANCH  10  17
ATOM     17  C   UNL     1      28.666  35.920   6.586  1.00  0.00     0.364 C 
ATOM     18  O   UNL     1      27.553  35.342   6.669  1.00  0.00    -0.246 OA
BRANCH  17  19
ATOM     19  O   UNL     1      29.724  35.175   6.086  1.00  0.00    -0.477 OA
ATOM     20  H   UNL     1      29.621  34.366   5.485  1.00  0.00     0.296 HD
ENDBRANCH  17  19
ENDBRANCH  10  17
BRANCH  13  21
ATOM     21  O   UNL     1      28.121  39.938   4.468  1.00  0.00    -0.391 OA
ATOM     22  H   UNL     1      27.330  40.260   3.961  1.00  0.00     0.211 HD
ENDBRANCH  13  21
BRANCH  14  23
ATOM     23  N   UNL     1      25.747  40.034   5.962  1.00  0.00    -0.348 N 
ATOM     24  C   UNL     1      25.493  41.404   6.198  1.00  0.00     0.217 C 
ATOM     25  H   UNL     1      25.065  39.476   5.422  1.00  0.00     0.163 HD
ATOM     26  C   UNL     1      24.227  41.963   5.637  1.00  0.00     0.114 C 
ATOM     27  O   UNL     1      26.268  42.145   6.839  1.00  0.00    -0.275 OA
ENDBRANCH  14  23
ENDBRANCH   8   9
BRANCH   8  28
ATOM     28  O   UNL     1      24.384  38.553   8.046  1.00  0.00    -0.388 OA
ATOM     29  H   UNL     1      24.390  38.799   7.086  1.00  0.00     0.211 HD
ENDBRANCH   8  28
ENDBRANCH   7   8
BRANCH   7  30
ATOM     30  O   UNL     1      25.628  36.283   8.751  1.00  0.00    -0.388 OA
ATOM     31  H   UNL     1      25.687  36.567   7.794  1.00  0.00     0.211 HD
ENDBRANCH   7  30
ENDBRANCH   6   7
ENDBRANCH   3   6
ENDBRANCH   1   2
BRANCH   1  32
ATOM     32  C   UNL     1      22.032  34.481  12.031  1.00  0.00     0.294 C 
BRANCH  32  33
ATOM     33  C   UNL     1      23.012  33.498  12.545  1.00  0.00     0.120 A 
ATOM     34  C   UNL     1      22.692  32.178  12.874  1.00  0.00     0.138 A 
ATOM     35  N   UNL     1      24.326  33.588  12.793  1.00  0.00    -0.132 NA
ATOM     36  N   UNL     1      23.784  31.526  13.297  1.00  0.00    -0.252 N 
ATOM     37  N   UNL     1      24.785  32.432  13.238  1.00  0.00    -0.067 NA
BRANCH  36  38
ATOM     38  C   UNL     1      23.933  30.145  13.719  1.00  0.00     0.150 C 
BRANCH  38  39
ATOM     39  C   UNL     1      23.719  30.054  15.235  1.00  0.00     0.022 C 
ATOM     40  C   UNL     1      22.379  29.521  15.577  1.00  0.00     0.011 C 
BRANCH  39  41
ATOM     41  C   UNL     1      24.906  29.525  15.925  1.00  0.00     0.089 C 
BRANCH  41  42
ATOM     42  N   UNL     1      26.081  30.318  15.743  1.00  0.00    -0.299 NA
ATOM     43  C   UNL     1      25.944  31.600  16.487  1.00  0.00     0.106 C 
ATOM     44  C   UNL     1      27.218  29.674  16.393  1.00  0.00     0.106 C 
ATOM     45  C   UNL     1      27.207  32.386  16.458  1.00  0.00     0.132 C 
ATOM     46  C   UNL     1      28.446  30.314  15.726  1.00  0.00     0.132 C 
ATOM     47  N   UNL     1      28.348  31.735  15.894  1.00  0.00    -0.369 N 
BRANCH  47  48
ATOM     48  C   UNL     1      29.457  32.524  15.478  1.00  0.00     0.037 A 
ATOM     49  C   UNL     1      30.725  32.177  15.889  1.00  0.00     0.027 A 
ATOM     50  C   UNL     1      29.277  33.640  14.674  1.00  0.00     0.027 A 
ATOM     51  C   UNL     1      31.792  32.948  15.491  1.00  0.00     0.022 A 
ATOM     52  C   UNL     1      30.348  34.402  14.285  1.00  0.00     0.022 A 
ATOM     53  C   UNL     1      31.621  34.045  14.701  1.00  0.00     0.041 A 
ATOM     54  Cl  UNL     1      32.971  35.029  14.203  1.00  0.00    -0.084 Cl
ENDBRANCH  47  48
ENDBRANCH  41  42
ENDBRANCH  39  41
ENDBRANCH  38  39
ENDBRANCH  36  38
ENDBRANCH  32  33
ENDBRANCH   1  32
TORSDOF 19
BEGIN_RES LYS A 131
REMARK  4 active torsions:
REMARK  status: ('A' for Active; 'I' for Inactive)
REMARK    1  A    between atoms: CA   and  CB  
REMARK    2  A    between atoms: CB   and  CG  
REMARK    3  A    between atoms: CG   and  CD  
REMARK    4  A    between atoms: CD   and  CE  
ROOT
ATOM      1  CA  LYS A 131      29.867  25.555  16.977  1.00 20.52     0.186 C 
ENDROOT
BRANCH   1   2
ATOM      2  CB  LYS A 131      28.345  25.722  17.026  1.00 20.94     0.034 C 
BRANCH   2   3
ATOM      3  CG  LYS A 131      27.602  24.399  16.923  1.00 22.96     0.005 C 
BRANCH   3   4
ATOM      4  CD  LYS A 131      26.590  24.230  18.022  1.00 24.33     0.041 C 
BRANCH   4   5
ATOM      5  CE  LYS A 131      26.395  25.560  18.743  1.00 26.91     0.338 C 
ATOM      6  NZ  LYS A 131      25.538  25.381  19.939  1.00 27.40     0.618 N 
ENDBRANCH   4   5
ENDBRANCH   3   4
ENDBRANCH   2   3
ENDBRANCH   1   2
END_RES LYS A 131
BEGIN_RES LYS A 135
REMARK  4 active torsions:
REMARK  status: ('A' for Active; 'I' for Inactive)
REMARK    5  A    between atoms: CA   and  CB  
REMARK    6  A    between atoms: CB   and  CG  
REMARK    7  A    between atoms: CG   and  CD  
REMARK    8  A    between atoms: CD   and  CE  
ROOT
ATOM      7  CA  LYS A 135      33.193  34.663   9.290  1.00 25.02     0.186 C 
ENDROOT
BRANCH   7   8
ATOM      8  CB  LYS A 135      32.060  35.360  10.034  1.00 26.63     0.034 C 
BRANCH   8   9
ATOM      9  CG  LYS A 135      30.722  34.690   9.858  1.00 29.45     0.005 C 
BRANCH   9  10
ATOM     10  CD  LYS A 135      29.659  35.386  10.695  1.00 32.00     0.041 C 
BRANCH  10  11
ATOM     11  CE  LYS A 135      28.313  34.710  10.515  1.00 34.25     0.338 C 
ATOM     12  NZ  LYS A 135      28.368  33.681   9.440  1.00 35.99     0.618 N 
ENDBRANCH  10  11
ENDBRANCH   9  10
ENDBRANCH   8   9
ENDBRANCH   7   8
END_RES LYS A 135
