REMARK VINA RESULT:    -4.919      6.277     10.425
REMARK INTER + INTRA:         -15.096
REMARK INTER:                  -8.873
REMARK INTRA:                  -6.223
REMARK UNBOUND:                -6.295
REMARK SMILES CC(=O)N[C@@H]1[C@@H](O)C[C@](O)(C(=O)O)O[C@H]1C(O)[C@H](O)CNC(=O)OCc1cn(Cc2cccc(Br)c2)nn1
REMARK SMILES IDX 21 1 22 2 23 3 20 5 18 6 16 7 15 8 9 9 8 10 14 11 6 12 5 13
REMARK SMILES IDX 10 14 11 16 12 17 13 18 7 20 4 22 2 23 1 25 3 26 17 27 19 29
REMARK SMILES IDX 24 31 25 32 26 33 27 34 38 35 28 36 37 37 29 38 30 39 31 40
REMARK SMILES IDX 36 41 32 42 34 43 33 44 35 45
REMARK H PARENT 21 4 10 15 13 19 7 21 4 24 17 28 19 30
REMARK Flexibility Score: inf
ROOT
ATOM      1  N   UNL     1      23.779  37.802   8.986  1.00  0.00    -0.319 N 
ATOM      2  C   UNL     1      25.089  37.294   8.817  1.00  0.00     0.407 C 
ATOM      3  O   UNL     1      25.570  37.112   7.652  1.00  0.00    -0.225 OA
ATOM      4  H   UNL     1      23.426  37.936   9.957  1.00  0.00     0.167 HD
ENDROOT
BRANCH   1   5
ATOM      5  C   UNL     1      23.029  38.098   7.796  1.00  0.00     0.154 C 
BRANCH   5   6
ATOM      6  C   UNL     1      21.809  37.174   7.663  1.00  0.00     0.165 C 
BRANCH   6   7
ATOM      7  C   UNL     1      20.799  37.701   8.621  1.00  0.00     0.176 C 
BRANCH   7   8
ATOM      8  C   UNL     1      19.652  36.790   8.945  1.00  0.00     0.178 C 
ATOM      9  C   UNL     1      19.310  34.939  10.329  1.00  0.00     0.269 C 
ATOM     10  C   UNL     1      18.285  34.459   9.319  1.00  0.00     0.112 C 
ATOM     11  O   UNL     1      20.218  35.764   9.711  1.00  0.00    -0.332 OA
ATOM     12  C   UNL     1      18.728  34.783   7.901  1.00  0.00     0.145 C 
ATOM     13  C   UNL     1      18.842  36.315   7.801  1.00  0.00     0.142 C 
BRANCH   9  14
ATOM     14  O   UNL     1      20.040  33.786  10.693  1.00  0.00    -0.357 OA
ATOM     15  H   UNL     1      20.777  33.995  11.298  1.00  0.00     0.214 HD
ENDBRANCH   9  14
BRANCH   9  16
ATOM     16  C   UNL     1      18.697  35.475  11.545  1.00  0.00     0.364 C 
ATOM     17  O   UNL     1      19.340  35.496  12.621  1.00  0.00    -0.246 OA
BRANCH  16  18
ATOM     18  O   UNL     1      17.404  35.976  11.581  1.00  0.00    -0.477 OA
ATOM     19  H   UNL     1      16.630  35.341  11.577  1.00  0.00     0.296 HD
ENDBRANCH  16  18
ENDBRANCH   9  16
BRANCH  12  20
ATOM     20  O   UNL     1      19.902  34.153   7.581  1.00  0.00    -0.391 OA
ATOM     21  H   UNL     1      20.598  34.397   8.270  1.00  0.00     0.211 HD
ENDBRANCH  12  20
BRANCH  13  22
ATOM     22  N   UNL     1      17.451  36.777   7.894  1.00  0.00    -0.348 N 
ATOM     23  C   UNL     1      16.994  37.908   7.166  1.00  0.00     0.217 C 
ATOM     24  H   UNL     1      16.742  36.302   8.494  1.00  0.00     0.163 HD
ATOM     25  C   UNL     1      15.563  38.365   7.279  1.00  0.00     0.114 C 
ATOM     26  O   UNL     1      17.747  38.554   6.419  1.00  0.00    -0.275 OA
ENDBRANCH  13  22
ENDBRANCH   7   8
BRANCH   7  27
ATOM     27  O   UNL     1      20.203  38.817   7.976  1.00  0.00    -0.388 OA
ATOM     28  H   UNL     1      19.780  39.337   8.718  1.00  0.00     0.211 HD
ENDBRANCH   7  27
ENDBRANCH   6   7
BRANCH   6  29
ATOM     29  O   UNL     1      22.272  35.895   7.960  1.00  0.00    -0.388 OA
ATOM     30  H   UNL     1      22.934  35.965   8.681  1.00  0.00     0.211 HD
ENDBRANCH   6  29
ENDBRANCH   5   6
ENDBRANCH   1   5
BRANCH   2  31
ATOM     31  O   UNL     1      25.919  36.968   9.879  1.00  0.00    -0.443 OA
BRANCH  31  32
ATOM     32  C   UNL     1      26.134  35.642  10.328  1.00  0.00     0.294 C 
BRANCH  32  33
ATOM     33  C   UNL     1      24.927  35.095  11.001  1.00  0.00     0.120 A 
ATOM     34  C   UNL     1      24.909  34.338  12.178  1.00  0.00     0.138 A 
ATOM     35  N   UNL     1      23.635  35.204  10.643  1.00  0.00    -0.132 NA
ATOM     36  N   UNL     1      23.639  34.033  12.467  1.00  0.00    -0.248 N 
ATOM     37  N   UNL     1      22.887  34.569  11.523  1.00  0.00    -0.067 NA
BRANCH  36  38
ATOM     38  C   UNL     1      23.125  33.268  13.581  1.00  0.00     0.181 C 
BRANCH  38  39
ATOM     39  C   UNL     1      22.920  31.853  13.179  1.00  0.00    -0.025 A 
ATOM     40  C   UNL     1      23.973  30.965  13.132  1.00  0.00     0.006 A 
ATOM     41  C   UNL     1      21.670  31.408  12.847  1.00  0.00     0.021 A 
ATOM     42  C   UNL     1      23.783  29.634  12.754  1.00  0.00     0.002 A 
ATOM     43  C   UNL     1      21.468  30.082  12.468  1.00  0.00     0.018 A 
ATOM     44  C   UNL     1      22.530  29.194  12.423  1.00  0.00     0.016 A 
ATOM     45  Br  UNL     1      19.718  29.501  12.015  1.00  0.00    -0.051 Br
ENDBRANCH  38  39
ENDBRANCH  36  38
ENDBRANCH  32  33
ENDBRANCH  31  32
ENDBRANCH   2  31
TORSDOF 16
BEGIN_RES LYS A 131
REMARK  4 active torsions:
REMARK  status: ('A' for Active; 'I' for Inactive)
REMARK    1  A    between atoms: CA   and  CB  
REMARK    2  A    between atoms: CB   and  CG  
REMARK    3  A    between atoms: CG   and  CD  
REMARK    4  A    between atoms: CD   and  CE  
ROOT
ATOM      1  CA  LYS A 131      29.867  25.555  16.977  1.00 20.52     0.186 C 
ENDROOT
BRANCH   1   2
ATOM      2  CB  LYS A 131      28.345  25.722  17.026  1.00 20.94     0.034 C 
BRANCH   2   3
ATOM      3  CG  LYS A 131      27.602  24.399  16.922  1.00 22.96     0.005 C 
BRANCH   3   4
ATOM      4  CD  LYS A 131      26.522  24.273  17.960  1.00 24.33     0.041 C 
BRANCH   4   5
ATOM      5  CE  LYS A 131      26.288  25.628  18.619  1.00 26.91     0.338 C 
ATOM      6  NZ  LYS A 131      24.940  26.143  18.282  1.00 27.40     0.618 N 
ENDBRANCH   4   5
ENDBRANCH   3   4
ENDBRANCH   2   3
ENDBRANCH   1   2
END_RES LYS A 131
BEGIN_RES LYS A 135
REMARK  4 active torsions:
REMARK  status: ('A' for Active; 'I' for Inactive)
REMARK    5  A    between atoms: CA   and  CB  
REMARK    6  A    between atoms: CB   and  CG  
REMARK    7  A    between atoms: CG   and  CD  
REMARK    8  A    between atoms: CD   and  CE  
ROOT
ATOM      7  CA  LYS A 135      33.193  34.663   9.290  1.00 25.02     0.186 C 
ENDROOT
BRANCH   7   8
ATOM      8  CB  LYS A 135      32.060  35.360  10.034  1.00 26.63     0.034 C 
BRANCH   8   9
ATOM      9  CG  LYS A 135      30.697  34.801   9.716  1.00 29.45     0.005 C 
BRANCH   9  10
ATOM     10  CD  LYS A 135      30.579  34.485   8.233  1.00 32.00     0.041 C 
BRANCH  10  11
ATOM     11  CE  LYS A 135      29.286  35.044   7.671  1.00 34.25     0.338 C 
ATOM     12  NZ  LYS A 135      29.025  36.416   8.189  1.00 35.99     0.618 N 
ENDBRANCH  10  11
ENDBRANCH   9  10
ENDBRANCH   8   9
ENDBRANCH   7   8
END_RES LYS A 135
