REMARK VINA RESULT:    -4.260      4.523      8.131
REMARK INTER + INTRA:         -13.891
REMARK INTER:                  -7.109
REMARK INTRA:                  -6.781
REMARK UNBOUND:                -6.145
REMARK SMILES CC(=O)N[C@@H]1[C@@H](O)C[C@](O)(C(=O)O)O[C@H]1C(O)[C@H](O)CNC(=O)OCc1cn(C(C)(C)CO)nn1
REMARK SMILES IDX 21 1 22 2 23 3 20 5 18 6 16 7 15 8 9 9 8 10 14 11 6 12 5 13
REMARK SMILES IDX 10 14 11 16 12 17 13 18 7 20 4 22 2 23 1 25 3 26 17 27 19 29
REMARK SMILES IDX 24 31 25 32 26 33 27 34 35 35 28 36 34 37 29 38 30 39 31 40
REMARK SMILES IDX 32 41 33 42
REMARK H PARENT 21 4 10 15 13 19 7 21 4 24 17 28 19 30 33 43
REMARK Flexibility Score: inf
ROOT
ATOM      1  N   UNL     1      24.079  35.666  12.499  1.00  0.00    -0.319 N 
ATOM      2  C   UNL     1      25.217  34.816  12.679  1.00  0.00     0.407 C 
ATOM      3  O   UNL     1      25.083  33.568  12.919  1.00  0.00    -0.225 OA
ATOM      4  H   UNL     1      24.243  36.669  12.294  1.00  0.00     0.167 HD
ENDROOT
BRANCH   1   5
ATOM      5  C   UNL     1      22.748  35.105  12.591  1.00  0.00     0.154 C 
BRANCH   5   6
ATOM      6  C   UNL     1      22.321  34.415  11.355  1.00  0.00     0.165 C 
BRANCH   6   7
ATOM      7  C   UNL     1      22.235  35.204  10.103  1.00  0.00     0.176 C 
BRANCH   7   8
ATOM      8  C   UNL     1      21.054  36.143  10.119  1.00  0.00     0.178 C 
ATOM      9  C   UNL     1      19.741  35.392   8.301  1.00  0.00     0.269 C 
ATOM     10  C   UNL     1      20.073  36.692   7.546  1.00  0.00     0.112 C 
ATOM     11  O   UNL     1      19.931  35.502   9.641  1.00  0.00    -0.332 OA
ATOM     12  C   UNL     1      20.075  37.763   8.585  1.00  0.00     0.145 C 
ATOM     13  C   UNL     1      21.306  37.482   9.494  1.00  0.00     0.142 C 
BRANCH   9  14
ATOM     14  O   UNL     1      20.385  34.343   7.677  1.00  0.00    -0.357 OA
ATOM     15  H   UNL     1      20.775  34.648   6.823  1.00  0.00     0.214 HD
ENDBRANCH   9  14
BRANCH   9  16
ATOM     16  C   UNL     1      18.254  35.162   8.118  1.00  0.00     0.364 C 
ATOM     17  O   UNL     1      17.724  34.081   8.467  1.00  0.00    -0.246 OA
BRANCH  16  18
ATOM     18  O   UNL     1      17.507  36.176   7.559  1.00  0.00    -0.477 OA
ATOM     19  H   UNL     1      17.605  36.430   6.582  1.00  0.00     0.296 HD
ENDBRANCH  16  18
ENDBRANCH   9  16
BRANCH  12  20
ATOM     20  O   UNL     1      20.155  39.041   8.068  1.00  0.00    -0.391 OA
ATOM     21  H   UNL     1      20.275  39.656   8.839  1.00  0.00     0.211 HD
ENDBRANCH  12  20
BRANCH  13  22
ATOM     22  N   UNL     1      21.226  38.591  10.457  1.00  0.00    -0.348 N 
ATOM     23  C   UNL     1      22.299  38.991  11.261  1.00  0.00     0.217 C 
ATOM     24  H   UNL     1      20.314  39.088  10.523  1.00  0.00     0.163 HD
ATOM     25  C   UNL     1      22.240  40.104  12.243  1.00  0.00     0.114 C 
ATOM     26  O   UNL     1      23.394  38.372  11.154  1.00  0.00    -0.275 OA
ENDBRANCH  13  22
ENDBRANCH   7   8
BRANCH   7  27
ATOM     27  O   UNL     1      23.378  35.672   9.545  1.00  0.00    -0.388 OA
ATOM     28  H   UNL     1      23.810  35.056   8.897  1.00  0.00     0.211 HD
ENDBRANCH   7  27
ENDBRANCH   6   7
BRANCH   6  29
ATOM     29  O   UNL     1      21.068  33.798  11.574  1.00  0.00    -0.388 OA
ATOM     30  H   UNL     1      21.208  32.825  11.555  1.00  0.00     0.211 HD
ENDBRANCH   6  29
ENDBRANCH   5   6
ENDBRANCH   1   5
BRANCH   2  31
ATOM     31  O   UNL     1      26.465  35.375  12.586  1.00  0.00    -0.443 OA
BRANCH  31  32
ATOM     32  C   UNL     1      27.345  35.125  11.530  1.00  0.00     0.294 C 
BRANCH  32  33
ATOM     33  C   UNL     1      26.834  35.691  10.255  1.00  0.00     0.120 A 
ATOM     34  C   UNL     1      26.771  37.032   9.968  1.00  0.00     0.139 A 
ATOM     35  N   UNL     1      26.357  35.053   9.186  1.00  0.00    -0.132 NA
ATOM     36  N   UNL     1      26.263  37.179   8.741  1.00  0.00    -0.244 N 
ATOM     37  N   UNL     1      26.019  35.948   8.285  1.00  0.00    -0.066 NA
BRANCH  36  38
ATOM     38  C   UNL     1      26.035  38.434   8.072  1.00  0.00     0.082 C 
ATOM     39  C   UNL     1      26.750  38.469   6.738  1.00  0.00     0.039 C 
ATOM     40  C   UNL     1      26.537  39.559   8.968  1.00  0.00     0.039 C 
BRANCH  38  41
ATOM     41  C   UNL     1      24.555  38.651   7.888  1.00  0.00     0.186 C 
BRANCH  41  42
ATOM     42  O   UNL     1      23.994  37.565   7.210  1.00  0.00    -0.394 OA
ATOM     43  H   UNL     1      23.808  37.839   6.277  1.00  0.00     0.210 HD
ENDBRANCH  41  42
ENDBRANCH  38  41
ENDBRANCH  36  38
ENDBRANCH  32  33
ENDBRANCH  31  32
ENDBRANCH   2  31
TORSDOF 17
BEGIN_RES LYS A 131
REMARK  4 active torsions:
REMARK  status: ('A' for Active; 'I' for Inactive)
REMARK    1  A    between atoms: CA   and  CB  
REMARK    2  A    between atoms: CB   and  CG  
REMARK    3  A    between atoms: CG   and  CD  
REMARK    4  A    between atoms: CD   and  CE  
ROOT
ATOM      1  CA  LYS A 131      29.867  25.555  16.977  1.00 20.52     0.186 C 
ENDROOT
BRANCH   1   2
ATOM      2  CB  LYS A 131      28.345  25.722  17.026  1.00 20.94     0.034 C 
BRANCH   2   3
ATOM      3  CG  LYS A 131      27.601  24.404  16.879  1.00 22.96     0.005 C 
BRANCH   3   4
ATOM      4  CD  LYS A 131      26.666  24.150  18.029  1.00 24.33     0.041 C 
BRANCH   4   5
ATOM      5  CE  LYS A 131      26.321  25.473  18.706  1.00 26.91     0.338 C 
ATOM      6  NZ  LYS A 131      25.529  25.235  19.936  1.00 27.40     0.618 N 
ENDBRANCH   4   5
ENDBRANCH   3   4
ENDBRANCH   2   3
ENDBRANCH   1   2
END_RES LYS A 131
BEGIN_RES LYS A 135
REMARK  4 active torsions:
REMARK  status: ('A' for Active; 'I' for Inactive)
REMARK    5  A    between atoms: CA   and  CB  
REMARK    6  A    between atoms: CB   and  CG  
REMARK    7  A    between atoms: CG   and  CD  
REMARK    8  A    between atoms: CD   and  CE  
ROOT
ATOM      7  CA  LYS A 135      33.193  34.663   9.290  1.00 25.02     0.186 C 
ENDROOT
BRANCH   7   8
ATOM      8  CB  LYS A 135      32.060  35.360  10.034  1.00 26.63     0.034 C 
BRANCH   8   9
ATOM      9  CG  LYS A 135      30.719  34.699   9.846  1.00 29.45     0.005 C 
BRANCH   9  10
ATOM     10  CD  LYS A 135      30.390  34.563   8.367  1.00 32.00     0.041 C 
BRANCH  10  11
ATOM     11  CE  LYS A 135      29.645  35.788   7.873  1.00 34.25     0.338 C 
ATOM     12  NZ  LYS A 135      28.978  35.519   6.568  1.00 35.99     0.618 N 
ENDBRANCH  10  11
ENDBRANCH   9  10
ENDBRANCH   8   9
ENDBRANCH   7   8
END_RES LYS A 135
