REMARK VINA RESULT:    -3.201      8.480     14.028
REMARK INTER + INTRA:         -13.393
REMARK INTER:                  -6.346
REMARK INTRA:                  -7.047
REMARK UNBOUND:                -7.572
REMARK SMILES CC(=O)N[C@@H]1[C@@H](O)C[C@](O)(C(=O)O)O[C@H]1C(O)[C@H](O)CNC(=O)OCc1cn(CCO)nn1
REMARK SMILES IDX 21 1 22 2 23 3 20 5 18 6 16 7 15 8 9 9 8 10 14 11 6 12 5 13
REMARK SMILES IDX 10 14 11 16 12 17 13 18 7 20 4 22 2 23 1 25 3 26 17 27 19 29
REMARK SMILES IDX 24 31 25 32 26 33 27 34 33 35 28 36 32 37 29 38 30 39 31 40
REMARK H PARENT 21 4 10 15 13 19 7 21 4 24 17 28 19 30 31 41
REMARK Flexibility Score: inf
ROOT
ATOM      1  N   UNL     1      28.455  27.522  19.266  1.00  0.00    -0.319 N 
ATOM      2  C   UNL     1      27.233  28.004  18.787  1.00  0.00     0.407 C 
ATOM      3  O   UNL     1      26.390  28.434  19.570  1.00  0.00    -0.225 OA
ATOM      4  H   UNL     1      29.124  27.166  18.503  1.00  0.00     0.167 HD
ENDROOT
BRANCH   1   5
ATOM      5  C   UNL     1      28.937  27.433  20.590  1.00  0.00     0.154 C 
BRANCH   5   6
ATOM      6  C   UNL     1      30.037  28.362  20.997  1.00  0.00     0.165 C 
BRANCH   6   7
ATOM      7  C   UNL     1      29.603  29.335  22.050  1.00  0.00     0.176 C 
BRANCH   7   8
ATOM      8  C   UNL     1      30.063  30.728  21.968  1.00  0.00     0.178 C 
ATOM      9  C   UNL     1      29.979  32.717  20.806  1.00  0.00     0.269 C 
ATOM     10  C   UNL     1      30.442  33.269  22.138  1.00  0.00     0.112 C 
ATOM     11  O   UNL     1      29.567  31.386  20.871  1.00  0.00    -0.332 OA
ATOM     12  C   UNL     1      31.617  32.458  22.667  1.00  0.00     0.145 C 
ATOM     13  C   UNL     1      31.517  31.018  22.125  1.00  0.00     0.142 C 
BRANCH   9  14
ATOM     14  O   UNL     1      31.009  32.767  19.872  1.00  0.00    -0.357 OA
ATOM     15  H   UNL     1      31.413  33.661  19.796  1.00  0.00     0.214 HD
ENDBRANCH   9  14
BRANCH   9  16
ATOM     16  C   UNL     1      28.823  33.481  20.284  1.00  0.00     0.364 C 
ATOM     17  O   UNL     1      28.272  34.410  20.928  1.00  0.00    -0.246 OA
BRANCH  16  18
ATOM     18  O   UNL     1      28.319  33.168  19.035  1.00  0.00    -0.477 OA
ATOM     19  H   UNL     1      27.586  32.449  18.947  1.00  0.00     0.296 HD
ENDBRANCH  16  18
ENDBRANCH   9  16
BRANCH  12  20
ATOM     20  O   UNL     1      32.802  33.054  22.256  1.00  0.00    -0.391 OA
ATOM     21  H   UNL     1      32.577  33.644  21.489  1.00  0.00     0.211 HD
ENDBRANCH  12  20
BRANCH  13  22
ATOM     22  N   UNL     1      32.210  30.135  23.040  1.00  0.00    -0.348 N 
ATOM     23  C   UNL     1      33.535  29.736  22.729  1.00  0.00     0.217 C 
ATOM     24  H   UNL     1      31.761  29.785  23.922  1.00  0.00     0.163 HD
ATOM     25  C   UNL     1      34.324  28.831  23.608  1.00  0.00     0.114 C 
ATOM     26  O   UNL     1      34.073  30.154  21.678  1.00  0.00    -0.275 OA
ENDBRANCH  13  22
ENDBRANCH   7   8
BRANCH   7  27
ATOM     27  O   UNL     1      28.162  29.292  21.964  1.00  0.00    -0.388 OA
ATOM     28  H   UNL     1      27.807  30.078  22.414  1.00  0.00     0.211 HD
ENDBRANCH   7  27
ENDBRANCH   6   7
BRANCH   6  29
ATOM     29  O   UNL     1      30.633  28.942  19.927  1.00  0.00    -0.388 OA
ATOM     30  H   UNL     1      30.848  28.352  19.178  1.00  0.00     0.211 HD
ENDBRANCH   6  29
ENDBRANCH   5   6
ENDBRANCH   1   5
BRANCH   2  31
ATOM     31  O   UNL     1      26.935  28.014  17.426  1.00  0.00    -0.443 OA
BRANCH  31  32
ATOM     32  C   UNL     1      26.781  29.219  16.706  1.00  0.00     0.294 C 
BRANCH  32  33
ATOM     33  C   UNL     1      28.038  30.002  16.778  1.00  0.00     0.120 A 
ATOM     34  C   UNL     1      28.749  30.536  15.732  1.00  0.00     0.138 A 
ATOM     35  N   UNL     1      28.693  30.322  17.884  1.00  0.00    -0.132 NA
ATOM     36  N   UNL     1      29.809  31.156  16.282  1.00  0.00    -0.250 N 
ATOM     37  N   UNL     1      29.782  31.029  17.598  1.00  0.00    -0.067 NA
BRANCH  36  38
ATOM     38  C   UNL     1      30.825  31.857  15.523  1.00  0.00     0.174 C 
BRANCH  38  39
ATOM     39  C   UNL     1      31.402  32.969  16.395  1.00  0.00     0.179 C 
BRANCH  39  40
ATOM     40  O   UNL     1      30.334  33.701  16.952  1.00  0.00    -0.394 OA
ATOM     41  H   UNL     1      30.496  33.841  17.935  1.00  0.00     0.210 HD
ENDBRANCH  39  40
ENDBRANCH  38  39
ENDBRANCH  36  38
ENDBRANCH  32  33
ENDBRANCH  31  32
ENDBRANCH   2  31
TORSDOF 17
BEGIN_RES LYS A 131
REMARK  4 active torsions:
REMARK  status: ('A' for Active; 'I' for Inactive)
REMARK    1  A    between atoms: CA   and  CB  
REMARK    2  A    between atoms: CB   and  CG  
REMARK    3  A    between atoms: CG   and  CD  
REMARK    4  A    between atoms: CD   and  CE  
ROOT
ATOM      1  CA  LYS A 131      29.867  25.555  16.977  1.00 20.52     0.186 C 
ENDROOT
BRANCH   1   2
ATOM      2  CB  LYS A 131      28.345  25.722  17.026  1.00 20.94     0.034 C 
BRANCH   2   3
ATOM      3  CG  LYS A 131      27.601  24.403  16.884  1.00 22.96     0.005 C 
BRANCH   3   4
ATOM      4  CD  LYS A 131      26.535  24.238  17.932  1.00 24.33     0.041 C 
BRANCH   4   5
ATOM      5  CE  LYS A 131      25.165  24.207  17.264  1.00 26.91     0.338 C 
ATOM      6  NZ  LYS A 131      24.511  25.534  17.357  1.00 27.40     0.618 N 
ENDBRANCH   4   5
ENDBRANCH   3   4
ENDBRANCH   2   3
ENDBRANCH   1   2
END_RES LYS A 131
BEGIN_RES LYS A 135
REMARK  4 active torsions:
REMARK  status: ('A' for Active; 'I' for Inactive)
REMARK    5  A    between atoms: CA   and  CB  
REMARK    6  A    between atoms: CB   and  CG  
REMARK    7  A    between atoms: CG   and  CD  
REMARK    8  A    between atoms: CD   and  CE  
ROOT
ATOM      7  CA  LYS A 135      33.193  34.663   9.290  1.00 25.02     0.186 C 
ENDROOT
BRANCH   7   8
ATOM      8  CB  LYS A 135      32.060  35.360  10.034  1.00 26.63     0.034 C 
BRANCH   8   9
ATOM      9  CG  LYS A 135      30.709  34.735   9.797  1.00 29.45     0.005 C 
BRANCH   9  10
ATOM     10  CD  LYS A 135      30.467  34.529   8.309  1.00 32.00     0.041 C 
BRANCH  10  11
ATOM     11  CE  LYS A 135      29.027  34.844   7.955  1.00 34.25     0.338 C 
ATOM     12  NZ  LYS A 135      28.937  35.538   6.640  1.00 35.99     0.618 N 
ENDBRANCH  10  11
ENDBRANCH   9  10
ENDBRANCH   8   9
ENDBRANCH   7   8
END_RES LYS A 135
