REMARK VINA RESULT:    -4.522      2.313      4.810
REMARK INTER + INTRA:         -14.131
REMARK INTER:                  -7.618
REMARK INTRA:                  -6.514
REMARK UNBOUND:                -5.644
REMARK SMILES CC(=O)N[C@@H]1[C@@H](O)C[C@](O)(C(=O)O)O[C@H]1C(O)[C@H](O)CNC(=O)OCc1cn(CCC(=O)O)nn1
REMARK SMILES IDX 21 1 22 2 23 3 20 5 18 6 16 7 15 8 9 9 8 10 14 11 6 12 5 13
REMARK SMILES IDX 10 14 11 16 12 17 13 18 7 20 4 22 2 23 1 25 3 26 17 27 19 29
REMARK SMILES IDX 24 31 25 32 26 33 27 34 35 35 28 36 34 37 29 38 30 39 31 40
REMARK SMILES IDX 32 41 33 42
REMARK H PARENT 21 4 10 15 13 19 7 21 4 24 17 28 19 30 33 43
REMARK Flexibility Score: inf
ROOT
ATOM      1  N   UNL     1      27.910  28.452  18.440  1.00  0.00    -0.319 N 
ATOM      2  C   UNL     1      27.414  29.115  17.289  1.00  0.00     0.407 C 
ATOM      3  O   UNL     1      26.169  29.203  17.067  1.00  0.00    -0.225 OA
ATOM      4  H   UNL     1      28.936  28.402  18.588  1.00  0.00     0.167 HD
ENDROOT
BRANCH   1   5
ATOM      5  C   UNL     1      27.027  27.845  19.407  1.00  0.00     0.154 C 
BRANCH   5   6
ATOM      6  C   UNL     1      26.787  28.693  20.626  1.00  0.00     0.165 C 
BRANCH   6   7
ATOM      7  C   UNL     1      27.950  28.576  21.612  1.00  0.00     0.176 C 
BRANCH   7   8
ATOM      8  C   UNL     1      28.809  29.826  21.545  1.00  0.00     0.178 C 
ATOM      9  C   UNL     1      29.648  31.170  19.829  1.00  0.00     0.269 C 
ATOM     10  C   UNL     1      30.684  31.720  20.770  1.00  0.00     0.112 C 
ATOM     11  O   UNL     1      28.564  30.600  20.458  1.00  0.00    -0.332 OA
ATOM     12  C   UNL     1      30.925  30.904  21.989  1.00  0.00     0.145 C 
ATOM     13  C   UNL     1      30.271  29.532  21.759  1.00  0.00     0.142 C 
BRANCH   9  14
ATOM     14  O   UNL     1      30.276  30.301  18.945  1.00  0.00    -0.357 OA
ATOM     15  H   UNL     1      30.568  29.521  19.493  1.00  0.00     0.214 HD
ENDBRANCH   9  14
BRANCH   9  16
ATOM     16  C   UNL     1      29.137  32.318  19.046  1.00  0.00     0.364 C 
ATOM     17  O   UNL     1      27.923  32.522  18.828  1.00  0.00    -0.246 OA
BRANCH  16  18
ATOM     18  O   UNL     1      30.036  33.228  18.517  1.00  0.00    -0.477 OA
ATOM     19  H   UNL     1      30.439  33.989  19.049  1.00  0.00     0.296 HD
ENDBRANCH  16  18
ENDBRANCH   9  16
BRANCH  12  20
ATOM     20  O   UNL     1      32.275  30.755  22.293  1.00  0.00    -0.391 OA
ATOM     21  H   UNL     1      32.647  31.554  22.758  1.00  0.00     0.211 HD
ENDBRANCH  12  20
BRANCH  13  22
ATOM     22  N   UNL     1      30.485  28.674  22.907  1.00  0.00    -0.348 N 
ATOM     23  C   UNL     1      31.534  27.713  22.904  1.00  0.00     0.217 C 
ATOM     24  H   UNL     1      29.885  28.726  23.765  1.00  0.00     0.163 HD
ATOM     25  C   UNL     1      31.793  26.802  24.070  1.00  0.00     0.114 C 
ATOM     26  O   UNL     1      32.294  27.602  21.889  1.00  0.00    -0.275 OA
ENDBRANCH  13  22
ENDBRANCH   7   8
BRANCH   7  27
ATOM     27  O   UNL     1      27.417  28.459  22.893  1.00  0.00    -0.388 OA
ATOM     28  H   UNL     1      28.066  28.070  23.540  1.00  0.00     0.211 HD
ENDBRANCH   7  27
ENDBRANCH   6   7
BRANCH   6  29
ATOM     29  O   UNL     1      25.604  28.240  21.215  1.00  0.00    -0.388 OA
ATOM     30  H   UNL     1      25.652  27.255  21.306  1.00  0.00     0.211 HD
ENDBRANCH   6  29
ENDBRANCH   5   6
ENDBRANCH   1   5
BRANCH   2  31
ATOM     31  O   UNL     1      28.304  29.673  16.401  1.00  0.00    -0.443 OA
BRANCH  31  32
ATOM     32  C   UNL     1      28.047  30.868  15.684  1.00  0.00     0.294 C 
BRANCH  32  33
ATOM     33  C   UNL     1      29.304  31.681  15.567  1.00  0.00     0.120 A 
ATOM     34  C   UNL     1      29.454  32.884  14.929  1.00  0.00     0.138 A 
ATOM     35  N   UNL     1      30.503  31.335  16.078  1.00  0.00    -0.132 NA
ATOM     36  N   UNL     1      30.751  33.249  15.066  1.00  0.00    -0.252 N 
ATOM     37  N   UNL     1      31.356  32.296  15.763  1.00  0.00    -0.067 NA
BRANCH  36  38
ATOM     38  C   UNL     1      31.311  34.471  14.531  1.00  0.00     0.158 C 
BRANCH  38  39
ATOM     39  C   UNL     1      32.733  34.607  15.071  1.00  0.00     0.146 C 
BRANCH  39  40
ATOM     40  C   UNL     1      33.636  34.669  13.882  1.00  0.00     0.305 C 
ATOM     41  O   UNL     1      34.860  34.497  13.952  1.00  0.00    -0.252 OA
BRANCH  40  42
ATOM     42  O   UNL     1      33.030  34.937  12.654  1.00  0.00    -0.481 OA
ATOM     43  H   UNL     1      33.563  35.402  11.921  1.00  0.00     0.296 HD
ENDBRANCH  40  42
ENDBRANCH  39  40
ENDBRANCH  38  39
ENDBRANCH  36  38
ENDBRANCH  32  33
ENDBRANCH  31  32
ENDBRANCH   2  31
TORSDOF 18
BEGIN_RES LYS A 131
REMARK  4 active torsions:
REMARK  status: ('A' for Active; 'I' for Inactive)
REMARK    1  A    between atoms: CA   and  CB  
REMARK    2  A    between atoms: CB   and  CG  
REMARK    3  A    between atoms: CG   and  CD  
REMARK    4  A    between atoms: CD   and  CE  
ROOT
ATOM      1  CA  LYS A 131      29.867  25.555  16.977  1.00 20.52     0.186 C 
ENDROOT
BRANCH   1   2
ATOM      2  CB  LYS A 131      28.345  25.722  17.026  1.00 20.94     0.034 C 
BRANCH   2   3
ATOM      3  CG  LYS A 131      27.599  24.434  16.713  1.00 22.96     0.005 C 
BRANCH   3   4
ATOM      4  CD  LYS A 131      26.991  23.818  17.942  1.00 24.33     0.041 C 
BRANCH   4   5
ATOM      5  CE  LYS A 131      25.659  24.496  18.246  1.00 26.91     0.338 C 
ATOM      6  NZ  LYS A 131      24.730  24.351  17.100  1.00 27.40     0.618 N 
ENDBRANCH   4   5
ENDBRANCH   3   4
ENDBRANCH   2   3
ENDBRANCH   1   2
END_RES LYS A 131
BEGIN_RES LYS A 135
REMARK  4 active torsions:
REMARK  status: ('A' for Active; 'I' for Inactive)
REMARK    5  A    between atoms: CA   and  CB  
REMARK    6  A    between atoms: CB   and  CG  
REMARK    7  A    between atoms: CG   and  CD  
REMARK    8  A    between atoms: CD   and  CE  
ROOT
ATOM      7  CA  LYS A 135      33.193  34.663   9.290  1.00 25.02     0.186 C 
ENDROOT
BRANCH   7   8
ATOM      8  CB  LYS A 135      32.060  35.360  10.034  1.00 26.63     0.034 C 
BRANCH   8   9
ATOM      9  CG  LYS A 135      30.872  35.677   9.163  1.00 29.45     0.005 C 
BRANCH   9  10
ATOM     10  CD  LYS A 135      30.356  34.419   8.481  1.00 32.00     0.041 C 
BRANCH  10  11
ATOM     11  CE  LYS A 135      28.841  34.436   8.410  1.00 34.25     0.338 C 
ATOM     12  NZ  LYS A 135      28.241  33.766   9.597  1.00 35.99     0.618 N 
ENDBRANCH  10  11
ENDBRANCH   9  10
ENDBRANCH   8   9
ENDBRANCH   7   8
END_RES LYS A 135
