REMARK VINA RESULT:    -4.148      6.154     11.770
REMARK INTER + INTRA:         -14.659
REMARK INTER:                  -8.326
REMARK INTRA:                  -6.333
REMARK UNBOUND:                -7.237
REMARK SMILES CC(=O)N[C@@H]1[C@@H](O)C[C@](O)(C(=O)O)O[C@H]1C(O)[C@H](O)CNC(=O)OCc1cn(-c2ccccc2C(C)C)nn1
REMARK SMILES IDX 21 1 22 2 23 3 20 5 18 6 16 7 15 8 9 9 8 10 14 11 6 12 5 13
REMARK SMILES IDX 10 14 11 16 12 17 13 18 7 20 4 22 2 23 1 25 3 26 17 27 19 29
REMARK SMILES IDX 24 31 25 32 26 33 27 34 39 35 28 36 38 37 29 38 34 39 30 40
REMARK SMILES IDX 33 41 31 42 32 43 35 44 36 45 37 46
REMARK H PARENT 21 4 10 15 13 19 7 21 4 24 17 28 19 30
REMARK Flexibility Score: inf
ROOT
ATOM      1  N   UNL     1      26.752  29.998  18.187  1.00  0.00    -0.319 N 
ATOM      2  C   UNL     1      27.367  29.373  17.085  1.00  0.00     0.407 C 
ATOM      3  O   UNL     1      27.395  28.130  16.978  1.00  0.00    -0.225 OA
ATOM      4  H   UNL     1      26.748  31.053  18.218  1.00  0.00     0.167 HD
ENDROOT
BRANCH   1   5
ATOM      5  C   UNL     1      26.142  29.262  19.239  1.00  0.00     0.154 C 
BRANCH   5   6
ATOM      6  C   UNL     1      26.381  29.835  20.635  1.00  0.00     0.165 C 
BRANCH   6   7
ATOM      7  C   UNL     1      27.750  29.266  21.016  1.00  0.00     0.176 C 
BRANCH   7   8
ATOM      8  C   UNL     1      28.811  30.314  21.121  1.00  0.00     0.178 C 
ATOM      9  C   UNL     1      30.021  31.362  19.443  1.00  0.00     0.269 C 
ATOM     10  C   UNL     1      31.228  31.458  20.308  1.00  0.00     0.112 C 
ATOM     11  O   UNL     1      28.817  31.120  20.033  1.00  0.00    -0.332 OA
ATOM     12  C   UNL     1      31.261  30.516  21.492  1.00  0.00     0.145 C 
ATOM     13  C   UNL     1      30.120  29.560  21.304  1.00  0.00     0.142 C 
BRANCH   9  14
ATOM     14  O   UNL     1      30.271  30.456  18.380  1.00  0.00    -0.357 OA
ATOM     15  H   UNL     1      30.178  30.859  17.497  1.00  0.00     0.214 HD
ENDBRANCH   9  14
BRANCH   9  16
ATOM     16  C   UNL     1      29.872  32.709  18.780  1.00  0.00     0.364 C 
ATOM     17  O   UNL     1      28.789  33.317  18.915  1.00  0.00    -0.246 OA
BRANCH  16  18
ATOM     18  O   UNL     1      30.885  33.303  18.039  1.00  0.00    -0.477 OA
ATOM     19  H   UNL     1      30.966  33.245  17.026  1.00  0.00     0.296 HD
ENDBRANCH  16  18
ENDBRANCH   9  16
BRANCH  12  20
ATOM     20  O   UNL     1      32.489  29.787  21.438  1.00  0.00    -0.391 OA
ATOM     21  H   UNL     1      33.230  30.369  21.148  1.00  0.00     0.211 HD
ENDBRANCH  12  20
BRANCH  13  22
ATOM     22  N   UNL     1      29.964  28.502  22.224  1.00  0.00    -0.348 N 
ATOM     23  C   UNL     1      30.538  27.214  22.093  1.00  0.00     0.217 C 
ATOM     24  H   UNL     1      29.363  28.659  23.103  1.00  0.00     0.163 HD
ATOM     25  C   UNL     1      30.362  26.126  23.063  1.00  0.00     0.114 C 
ATOM     26  O   UNL     1      31.256  27.032  21.020  1.00  0.00    -0.275 OA
ENDBRANCH  13  22
ENDBRANCH   7   8
BRANCH   7  27
ATOM     27  O   UNL     1      28.019  28.301  20.041  1.00  0.00    -0.388 OA
ATOM     28  H   UNL     1      28.992  28.350  19.844  1.00  0.00     0.211 HD
ENDBRANCH   7  27
ENDBRANCH   6   7
BRANCH   6  29
ATOM     29  O   UNL     1      25.453  29.471  21.555  1.00  0.00    -0.388 OA
ATOM     30  H   UNL     1      24.584  29.312  21.194  1.00  0.00     0.211 HD
ENDBRANCH   6  29
ENDBRANCH   5   6
ENDBRANCH   1   5
BRANCH   2  31
ATOM     31  O   UNL     1      27.966  30.130  16.077  1.00  0.00    -0.443 OA
BRANCH  31  32
ATOM     32  C   UNL     1      27.660  31.516  16.026  1.00  0.00     0.294 C 
BRANCH  32  33
ATOM     33  C   UNL     1      28.859  32.165  15.438  1.00  0.00     0.121 A 
ATOM     34  C   UNL     1      28.835  33.417  14.811  1.00  0.00     0.144 A 
ATOM     35  N   UNL     1      30.141  31.773  15.484  1.00  0.00    -0.131 NA
ATOM     36  N   UNL     1      30.121  33.698  14.527  1.00  0.00    -0.220 N 
ATOM     37  N   UNL     1      30.838  32.730  14.932  1.00  0.00    -0.062 NA
BRANCH  36  38
ATOM     38  C   UNL     1      30.555  34.939  14.004  1.00  0.00     0.070 A 
ATOM     39  C   UNL     1      31.704  35.492  14.424  1.00  0.00    -0.020 A 
ATOM     40  C   UNL     1      29.686  35.660  13.173  1.00  0.00     0.029 A 
ATOM     41  C   UNL     1      32.018  36.790  14.024  1.00  0.00     0.006 A 
ATOM     42  C   UNL     1      29.973  36.914  12.777  1.00  0.00     0.002 A 
ATOM     43  C   UNL     1      31.152  37.515  13.195  1.00  0.00     0.000 A 
BRANCH  39  44
ATOM     44  C   UNL     1      32.682  34.724  15.168  1.00  0.00     0.015 C 
ATOM     45  C   UNL     1      33.264  35.496  16.342  1.00  0.00     0.012 C 
ATOM     46  C   UNL     1      33.968  34.679  14.228  1.00  0.00     0.012 C 
ENDBRANCH  39  44
ENDBRANCH  36  38
ENDBRANCH  32  33
ENDBRANCH  31  32
ENDBRANCH   2  31
TORSDOF 16
BEGIN_RES LYS A 131
REMARK  4 active torsions:
REMARK  status: ('A' for Active; 'I' for Inactive)
REMARK    1  A    between atoms: CA   and  CB  
REMARK    2  A    between atoms: CB   and  CG  
REMARK    3  A    between atoms: CG   and  CD  
REMARK    4  A    between atoms: CD   and  CE  
ROOT
ATOM      1  CA  LYS A 131      29.867  25.555  16.977  1.00 20.52     0.186 C 
ENDROOT
BRANCH   1   2
ATOM      2  CB  LYS A 131      28.345  25.722  17.026  1.00 20.94     0.034 C 
BRANCH   2   3
ATOM      3  CG  LYS A 131      27.601  24.402  16.893  1.00 22.96     0.005 C 
BRANCH   3   4
ATOM      4  CD  LYS A 131      26.159  24.521  17.300  1.00 24.33     0.041 C 
BRANCH   4   5
ATOM      5  CE  LYS A 131      25.962  23.879  18.670  1.00 26.91     0.338 C 
ATOM      6  NZ  LYS A 131      25.591  24.904  19.675  1.00 27.40     0.618 N 
ENDBRANCH   4   5
ENDBRANCH   3   4
ENDBRANCH   2   3
ENDBRANCH   1   2
END_RES LYS A 131
BEGIN_RES LYS A 135
REMARK  4 active torsions:
REMARK  status: ('A' for Active; 'I' for Inactive)
REMARK    5  A    between atoms: CA   and  CB  
REMARK    6  A    between atoms: CB   and  CG  
REMARK    7  A    between atoms: CG   and  CD  
REMARK    8  A    between atoms: CD   and  CE  
ROOT
ATOM      7  CA  LYS A 135      33.193  34.663   9.290  1.00 25.02     0.186 C 
ENDROOT
BRANCH   7   8
ATOM      8  CB  LYS A 135      32.060  35.360  10.034  1.00 26.63     0.034 C 
BRANCH   8   9
ATOM      9  CG  LYS A 135      30.710  34.731   9.802  1.00 29.45     0.005 C 
BRANCH   9  10
ATOM     10  CD  LYS A 135      30.394  34.671   8.316  1.00 32.00     0.041 C 
BRANCH  10  11
ATOM     11  CE  LYS A 135      29.337  35.697   7.954  1.00 34.25     0.338 C 
ATOM     12  NZ  LYS A 135      28.908  35.548   6.536  1.00 35.99     0.618 N 
ENDBRANCH  10  11
ENDBRANCH   9  10
ENDBRANCH   8   9
ENDBRANCH   7   8
END_RES LYS A 135
