REMARK VINA RESULT:    -4.777      7.747     13.665
REMARK INTER + INTRA:         -15.381
REMARK INTER:                  -8.441
REMARK INTRA:                  -6.940
REMARK UNBOUND:                -6.275
REMARK SMILES CC(=O)N[C@@H]1[C@@H](O)C[C@](O)(C(=O)O)O[C@H]1C(O)[C@H](O)CNC(=O)OCc1cn(Cc2ccccc2OC(C)=O)nn1
REMARK SMILES IDX 21 1 22 2 23 3 20 5 18 6 16 7 15 8 9 9 8 10 14 11 6 12 5 13
REMARK SMILES IDX 10 14 11 16 12 17 13 18 7 20 4 22 2 23 1 25 3 26 17 27 19 29
REMARK SMILES IDX 24 31 25 32 26 33 27 34 41 35 28 36 40 37 29 38 30 39 35 40
REMARK SMILES IDX 31 41 34 42 32 43 33 44 36 45 37 46 39 47 38 48
REMARK H PARENT 21 4 10 15 13 19 7 21 4 24 17 28 19 30
REMARK Flexibility Score: inf
ROOT
ATOM      1  N   UNL     1      26.284  28.372  19.699  1.00  0.00    -0.319 N 
ATOM      2  C   UNL     1      26.579  28.588  18.320  1.00  0.00     0.407 C 
ATOM      3  O   UNL     1      27.068  27.642  17.666  1.00  0.00    -0.225 OA
ATOM      4  H   UNL     1      25.880  29.166  20.233  1.00  0.00     0.167 HD
ENDROOT
BRANCH   1   5
ATOM      5  C   UNL     1      26.544  27.101  20.321  1.00  0.00     0.154 C 
BRANCH   5   6
ATOM      6  C   UNL     1      27.354  27.352  21.598  1.00  0.00     0.165 C 
BRANCH   6   7
ATOM      7  C   UNL     1      28.801  27.528  21.231  1.00  0.00     0.176 C 
BRANCH   7   8
ATOM      8  C   UNL     1      29.123  28.997  21.183  1.00  0.00     0.178 C 
ATOM      9  C   UNL     1      29.820  30.654  19.707  1.00  0.00     0.269 C 
ATOM     10  C   UNL     1      31.165  30.766  20.385  1.00  0.00     0.112 C 
ATOM     11  O   UNL     1      29.389  29.352  19.898  1.00  0.00    -0.332 OA
ATOM     12  C   UNL     1      30.975  30.556  21.848  1.00  0.00     0.145 C 
ATOM     13  C   UNL     1      30.168  29.332  22.185  1.00  0.00     0.142 C 
BRANCH   9  14
ATOM     14  O   UNL     1      30.085  30.778  18.326  1.00  0.00    -0.357 OA
ATOM     15  H   UNL     1      29.255  30.798  17.798  1.00  0.00     0.214 HD
ENDBRANCH   9  14
BRANCH   9  16
ATOM     16  C   UNL     1      28.851  31.681  20.137  1.00  0.00     0.364 C 
ATOM     17  O   UNL     1      29.158  32.709  20.788  1.00  0.00    -0.246 OA
BRANCH  16  18
ATOM     18  O   UNL     1      27.516  31.522  19.814  1.00  0.00    -0.477 OA
ATOM     19  H   UNL     1      26.899  30.843  20.265  1.00  0.00     0.296 HD
ENDBRANCH  16  18
ENDBRANCH   9  16
BRANCH  12  20
ATOM     20  O   UNL     1      32.262  30.464  22.423  1.00  0.00    -0.391 OA
ATOM     21  H   UNL     1      32.924  30.322  21.683  1.00  0.00     0.211 HD
ENDBRANCH  12  20
BRANCH  13  22
ATOM     22  N   UNL     1      29.527  29.555  23.467  1.00  0.00    -0.348 N 
ATOM     23  C   UNL     1      29.763  28.706  24.591  1.00  0.00     0.217 C 
ATOM     24  H   UNL     1      28.869  30.352  23.600  1.00  0.00     0.163 HD
ATOM     25  C   UNL     1      29.082  28.981  25.876  1.00  0.00     0.114 C 
ATOM     26  O   UNL     1      30.545  27.738  24.481  1.00  0.00    -0.275 OA
ENDBRANCH  13  22
ENDBRANCH   7   8
BRANCH   7  27
ATOM     27  O   UNL     1      29.102  26.928  20.003  1.00  0.00    -0.388 OA
ATOM     28  H   UNL     1      28.592  26.088  19.931  1.00  0.00     0.211 HD
ENDBRANCH   7  27
ENDBRANCH   6   7
BRANCH   6  29
ATOM     29  O   UNL     1      27.111  26.297  22.448  1.00  0.00    -0.388 OA
ATOM     30  H   UNL     1      26.898  26.563  23.366  1.00  0.00     0.211 HD
ENDBRANCH   6  29
ENDBRANCH   5   6
ENDBRANCH   1   5
BRANCH   2  31
ATOM     31  O   UNL     1      26.322  29.820  17.742  1.00  0.00    -0.443 OA
BRANCH  31  32
ATOM     32  C   UNL     1      26.330  30.005  16.345  1.00  0.00     0.294 C 
BRANCH  32  33
ATOM     33  C   UNL     1      27.537  30.758  15.972  1.00  0.00     0.120 A 
ATOM     34  C   UNL     1      27.622  32.134  15.742  1.00  0.00     0.138 A 
ATOM     35  N   UNL     1      28.798  30.296  15.772  1.00  0.00    -0.132 NA
ATOM     36  N   UNL     1      28.882  32.410  15.428  1.00  0.00    -0.248 N 
ATOM     37  N   UNL     1      29.592  31.296  15.447  1.00  0.00    -0.067 NA
BRANCH  36  38
ATOM     38  C   UNL     1      29.411  33.722  15.117  1.00  0.00     0.185 C 
BRANCH  38  39
ATOM     39  C   UNL     1      30.213  34.143  16.315  1.00  0.00     0.016 A 
ATOM     40  C   UNL     1      31.577  34.194  16.202  1.00  0.00     0.135 A 
ATOM     41  C   UNL     1      29.572  34.464  17.484  1.00  0.00     0.009 A 
ATOM     42  C   UNL     1      32.353  34.571  17.268  1.00  0.00     0.047 A 
ATOM     43  C   UNL     1      30.351  34.851  18.580  1.00  0.00     0.001 A 
ATOM     44  C   UNL     1      31.712  34.894  18.445  1.00  0.00     0.004 A 
BRANCH  40  45
ATOM     45  O   UNL     1      32.187  33.862  15.001  1.00  0.00    -0.426 OA
BRANCH  45  46
ATOM     46  C   UNL     1      32.916  34.859  14.353  1.00  0.00     0.308 C 
ATOM     47  O   UNL     1      34.161  34.750  14.259  1.00  0.00    -0.252 OA
ATOM     48  C   UNL     1      32.237  36.042  13.775  1.00  0.00     0.139 C 
ENDBRANCH  45  46
ENDBRANCH  40  45
ENDBRANCH  38  39
ENDBRANCH  36  38
ENDBRANCH  32  33
ENDBRANCH  31  32
ENDBRANCH   2  31
TORSDOF 18
BEGIN_RES LYS A 131
REMARK  4 active torsions:
REMARK  status: ('A' for Active; 'I' for Inactive)
REMARK    1  A    between atoms: CA   and  CB  
REMARK    2  A    between atoms: CB   and  CG  
REMARK    3  A    between atoms: CG   and  CD  
REMARK    4  A    between atoms: CD   and  CE  
ROOT
ATOM      1  CA  LYS A 131      29.867  25.555  16.977  1.00 20.52     0.186 C 
ENDROOT
BRANCH   1   2
ATOM      2  CB  LYS A 131      28.345  25.722  17.026  1.00 20.94     0.034 C 
BRANCH   2   3
ATOM      3  CG  LYS A 131      27.599  24.429  16.735  1.00 22.96     0.005 C 
BRANCH   3   4
ATOM      4  CD  LYS A 131      26.956  23.856  17.968  1.00 24.33     0.041 C 
BRANCH   4   5
ATOM      5  CE  LYS A 131      25.574  23.315  17.616  1.00 26.91     0.338 C 
ATOM      6  NZ  LYS A 131      24.776  24.347  16.912  1.00 27.40     0.618 N 
ENDBRANCH   4   5
ENDBRANCH   3   4
ENDBRANCH   2   3
ENDBRANCH   1   2
END_RES LYS A 131
BEGIN_RES LYS A 135
REMARK  4 active torsions:
REMARK  status: ('A' for Active; 'I' for Inactive)
REMARK    5  A    between atoms: CA   and  CB  
REMARK    6  A    between atoms: CB   and  CG  
REMARK    7  A    between atoms: CG   and  CD  
REMARK    8  A    between atoms: CD   and  CE  
ROOT
ATOM      7  CA  LYS A 135      33.193  34.663   9.290  1.00 25.02     0.186 C 
ENDROOT
BRANCH   7   8
ATOM      8  CB  LYS A 135      32.060  35.360  10.034  1.00 26.63     0.034 C 
BRANCH   8   9
ATOM      9  CG  LYS A 135      30.781  35.446   9.241  1.00 29.45     0.005 C 
BRANCH   9  10
ATOM     10  CD  LYS A 135      30.187  34.062   9.029  1.00 32.00     0.041 C 
BRANCH  10  11
ATOM     11  CE  LYS A 135      28.672  34.122   9.059  1.00 34.25     0.338 C 
ATOM     12  NZ  LYS A 135      28.173  35.379   8.435  1.00 35.99     0.618 N 
ENDBRANCH  10  11
ENDBRANCH   9  10
ENDBRANCH   8   9
ENDBRANCH   7   8
END_RES LYS A 135
