REMARK VINA RESULT:    -5.303      9.525     14.403
REMARK INTER + INTRA:         -14.339
REMARK INTER:                  -7.635
REMARK INTRA:                  -6.704
REMARK UNBOUND:                -5.161
REMARK SMILES CC(=O)N[C@@H]1[C@@H](O)C[C@](O)(C(=O)O)O[C@H]1C(O)[C@H](O)CNC(=O)OCc1cn(-c2ccc(Br)cc2)nn1
REMARK SMILES IDX 20 1 18 2 16 3 15 4 9 5 8 6 14 7 6 8 5 9 10 10 11 12 12 13
REMARK SMILES IDX 13 14 7 16 4 18 2 19 1 21 3 22 17 23 19 25 21 27 22 28 23 30
REMARK SMILES IDX 24 31 25 32 26 33 27 34 37 35 28 36 36 37 29 38 30 39 35 40
REMARK SMILES IDX 31 41 34 42 32 43 33 44
REMARK H PARENT 10 11 13 15 7 17 4 20 17 24 19 26 21 29
REMARK Flexibility Score: inf
ROOT
ATOM      1  C   UNL     1      23.373  40.478   7.643  1.00  0.00     0.154 C 
ENDROOT
BRANCH   1   2
ATOM      2  C   UNL     1      24.798  40.225   7.251  1.00  0.00     0.165 C 
BRANCH   2   3
ATOM      3  C   UNL     1      25.723  39.904   8.371  1.00  0.00     0.176 C 
BRANCH   3   4
ATOM      4  C   UNL     1      26.996  39.201   7.945  1.00  0.00     0.178 C 
ATOM      5  C   UNL     1      27.911  38.443   5.922  1.00  0.00     0.269 C 
ATOM      6  C   UNL     1      28.500  37.326   6.739  1.00  0.00     0.112 C 
ATOM      7  O   UNL     1      26.892  39.050   6.568  1.00  0.00    -0.332 OA
ATOM      8  C   UNL     1      27.409  36.774   7.627  1.00  0.00     0.145 C 
ATOM      9  C   UNL     1      27.056  37.870   8.641  1.00  0.00     0.142 C 
BRANCH   5  10
ATOM     10  O   UNL     1      27.370  37.896   4.725  1.00  0.00    -0.357 OA
ATOM     11  H   UNL     1      27.709  38.487   4.003  1.00  0.00     0.214 HD
ENDBRANCH   5  10
BRANCH   5  12
ATOM     12  C   UNL     1      28.942  39.451   5.550  1.00  0.00     0.364 C 
ATOM     13  O   UNL     1      30.158  39.296   5.756  1.00  0.00    -0.246 OA
BRANCH  12  14
ATOM     14  O   UNL     1      28.535  40.627   4.944  1.00  0.00    -0.477 OA
ATOM     15  H   UNL     1      28.254  41.455   5.471  1.00  0.00     0.296 HD
ENDBRANCH  12  14
ENDBRANCH   5  12
BRANCH   8  16
ATOM     16  O   UNL     1      26.275  36.599   6.836  1.00  0.00    -0.391 OA
ATOM     17  H   UNL     1      25.718  37.398   6.771  1.00  0.00     0.211 HD
ENDBRANCH   8  16
BRANCH   9  18
ATOM     18  N   UNL     1      28.140  37.875   9.583  1.00  0.00    -0.348 N 
ATOM     19  C   UNL     1      27.974  37.946  10.987  1.00  0.00     0.217 C 
ATOM     20  H   UNL     1      29.135  37.822   9.240  1.00  0.00     0.163 HD
ATOM     21  C   UNL     1      29.135  37.952  11.927  1.00  0.00     0.114 C 
ATOM     22  O   UNL     1      26.821  38.006  11.458  1.00  0.00    -0.275 OA
ENDBRANCH   9  18
ENDBRANCH   3   4
BRANCH   3  23
ATOM     23  O   UNL     1      25.020  39.098   9.300  1.00  0.00    -0.388 OA
ATOM     24  H   UNL     1      25.478  39.186  10.163  1.00  0.00     0.211 HD
ENDBRANCH   3  23
ENDBRANCH   2   3
BRANCH   2  25
ATOM     25  O   UNL     1      25.267  41.386   6.599  1.00  0.00    -0.388 OA
ATOM     26  H   UNL     1      25.524  42.079   7.256  1.00  0.00     0.211 HD
ENDBRANCH   2  25
ENDBRANCH   1   2
BRANCH   1  27
ATOM     27  N   UNL     1      22.493  39.361   7.530  1.00  0.00    -0.319 N 
ATOM     28  C   UNL     1      21.597  39.036   8.612  1.00  0.00     0.407 C 
ATOM     29  H   UNL     1      22.423  38.715   6.718  1.00  0.00     0.167 HD
ATOM     30  O   UNL     1      21.628  39.765   9.632  1.00  0.00    -0.225 OA
BRANCH  28  31
ATOM     31  O   UNL     1      20.730  37.958   8.530  1.00  0.00    -0.443 OA
BRANCH  31  32
ATOM     32  C   UNL     1      21.244  36.787   7.909  1.00  0.00     0.294 C 
BRANCH  32  33
ATOM     33  C   UNL     1      22.394  36.327   8.740  1.00  0.00     0.121 A 
ATOM     34  C   UNL     1      22.323  35.624   9.927  1.00  0.00     0.144 A 
ATOM     35  N   UNL     1      23.709  36.498   8.507  1.00  0.00    -0.131 NA
ATOM     36  N   UNL     1      23.570  35.394  10.372  1.00  0.00    -0.220 N 
ATOM     37  N   UNL     1      24.374  35.936   9.487  1.00  0.00    -0.062 NA
BRANCH  36  38
ATOM     38  C   UNL     1      24.006  34.712  11.545  1.00  0.00     0.066 A 
ATOM     39  C   UNL     1      23.153  33.942  12.312  1.00  0.00     0.029 A 
ATOM     40  C   UNL     1      25.318  34.795  11.964  1.00  0.00     0.029 A 
ATOM     41  C   UNL     1      23.590  33.286  13.447  1.00  0.00     0.018 A 
ATOM     42  C   UNL     1      25.763  34.137  13.105  1.00  0.00     0.018 A 
ATOM     43  C   UNL     1      24.907  33.373  13.863  1.00  0.00     0.018 A 
ATOM     44  Br  UNL     1      25.457  32.447  15.436  1.00  0.00    -0.051 Br
ENDBRANCH  36  38
ENDBRANCH  32  33
ENDBRANCH  31  32
ENDBRANCH  28  31
ENDBRANCH   1  27
TORSDOF 15
BEGIN_RES LYS A 131
REMARK  4 active torsions:
REMARK  status: ('A' for Active; 'I' for Inactive)
REMARK    1  A    between atoms: CA   and  CB  
REMARK    2  A    between atoms: CB   and  CG  
REMARK    3  A    between atoms: CG   and  CD  
REMARK    4  A    between atoms: CD   and  CE  
ROOT
ATOM      1  CA  LYS A 131      29.867  25.555  16.977  1.00 20.52     0.186 C 
ENDROOT
BRANCH   1   2
ATOM      2  CB  LYS A 131      28.345  25.722  17.026  1.00 20.94     0.034 C 
BRANCH   2   3
ATOM      3  CG  LYS A 131      27.601  24.401  16.900  1.00 22.96     0.005 C 
BRANCH   3   4
ATOM      4  CD  LYS A 131      26.526  24.256  17.941  1.00 24.33     0.041 C 
BRANCH   4   5
ATOM      5  CE  LYS A 131      25.204  23.912  17.262  1.00 26.91     0.338 C 
ATOM      6  NZ  LYS A 131      24.756  22.555  17.655  1.00 27.40     0.618 N 
ENDBRANCH   4   5
ENDBRANCH   3   4
ENDBRANCH   2   3
ENDBRANCH   1   2
END_RES LYS A 131
BEGIN_RES LYS A 135
REMARK  4 active torsions:
REMARK  status: ('A' for Active; 'I' for Inactive)
REMARK    5  A    between atoms: CA   and  CB  
REMARK    6  A    between atoms: CB   and  CG  
REMARK    7  A    between atoms: CG   and  CD  
REMARK    8  A    between atoms: CD   and  CE  
ROOT
ATOM      7  CA  LYS A 135      33.193  34.663   9.290  1.00 25.02     0.186 C 
ENDROOT
BRANCH   7   8
ATOM      8  CB  LYS A 135      32.060  35.360  10.034  1.00 26.63     0.034 C 
BRANCH   8   9
ATOM      9  CG  LYS A 135      30.799  35.495   9.221  1.00 29.45     0.005 C 
BRANCH   9  10
ATOM     10  CD  LYS A 135      30.221  34.127   8.894  1.00 32.00     0.041 C 
BRANCH  10  11
ATOM     11  CE  LYS A 135      28.810  34.001   9.437  1.00 34.25     0.338 C 
ATOM     12  NZ  LYS A 135      28.732  34.479  10.845  1.00 35.99     0.618 N 
ENDBRANCH  10  11
ENDBRANCH   9  10
ENDBRANCH   8   9
ENDBRANCH   7   8
END_RES LYS A 135
