REMARK VINA RESULT:    -3.193      2.247      6.911
REMARK INTER + INTRA:         -13.378
REMARK INTER:                  -6.718
REMARK INTRA:                  -6.660
REMARK UNBOUND:                -7.572
REMARK SMILES CC(=O)N[C@@H]1[C@@H](O)C[C@](O)(C(=O)O)O[C@H]1C(O)[C@H](O)CNC(=O)OCc1cn(CCO)nn1
REMARK SMILES IDX 21 1 22 2 23 3 20 5 18 6 16 7 15 8 9 9 8 10 14 11 6 12 5 13
REMARK SMILES IDX 10 14 11 16 12 17 13 18 7 20 4 22 2 23 1 25 3 26 17 27 19 29
REMARK SMILES IDX 24 31 25 32 26 33 27 34 33 35 28 36 32 37 29 38 30 39 31 40
REMARK H PARENT 21 4 10 15 13 19 7 21 4 24 17 28 19 30 31 41
REMARK Flexibility Score: inf
ROOT
ATOM      1  N   UNL     1      26.534  39.206   5.958  1.00  0.00    -0.319 N 
ATOM      2  C   UNL     1      25.692  40.235   6.394  1.00  0.00     0.407 C 
ATOM      3  O   UNL     1      25.774  41.352   5.891  1.00  0.00    -0.225 OA
ATOM      4  H   UNL     1      26.386  38.267   6.461  1.00  0.00     0.167 HD
ENDROOT
BRANCH   1   5
ATOM      5  C   UNL     1      27.539  39.217   4.966  1.00  0.00     0.154 C 
BRANCH   5   6
ATOM      6  C   UNL     1      28.909  39.668   5.367  1.00  0.00     0.165 C 
BRANCH   6   7
ATOM      7  C   UNL     1      29.699  38.578   6.025  1.00  0.00     0.176 C 
BRANCH   7   8
ATOM      8  C   UNL     1      29.822  38.568   7.489  1.00  0.00     0.178 C 
ATOM      9  C   UNL     1      28.806  39.019   9.508  1.00  0.00     0.269 C 
ATOM     10  C   UNL     1      29.851  38.046  10.010  1.00  0.00     0.112 C 
ATOM     11  O   UNL     1      28.703  39.054   8.117  1.00  0.00    -0.332 OA
ATOM     12  C   UNL     1      31.224  38.418   9.465  1.00  0.00     0.145 C 
ATOM     13  C   UNL     1      31.049  39.138   8.113  1.00  0.00     0.142 C 
BRANCH   9  14
ATOM     14  O   UNL     1      29.109  40.316   9.915  1.00  0.00    -0.357 OA
ATOM     15  H   UNL     1      28.713  40.545  10.786  1.00  0.00     0.214 HD
ENDBRANCH   9  14
BRANCH   9  16
ATOM     16  C   UNL     1      27.460  38.664  10.011  1.00  0.00     0.364 C 
ATOM     17  O   UNL     1      27.240  37.641  10.708  1.00  0.00    -0.246 OA
BRANCH  16  18
ATOM     18  O   UNL     1      26.389  39.486   9.708  1.00  0.00    -0.477 OA
ATOM     19  H   UNL     1      25.428  39.154   9.877  1.00  0.00     0.296 HD
ENDBRANCH  16  18
ENDBRANCH   9  16
BRANCH  12  20
ATOM     20  O   UNL     1      31.867  39.241  10.379  1.00  0.00    -0.391 OA
ATOM     21  H   UNL     1      31.203  39.916  10.676  1.00  0.00     0.211 HD
ENDBRANCH  12  20
BRANCH  13  22
ATOM     22  N   UNL     1      32.258  38.955   7.337  1.00  0.00    -0.348 N 
ATOM     23  C   UNL     1      32.913  40.101   6.817  1.00  0.00     0.217 C 
ATOM     24  H   UNL     1      32.661  38.004   7.152  1.00  0.00     0.163 HD
ATOM     25  C   UNL     1      34.158  40.011   6.007  1.00  0.00     0.114 C 
ATOM     26  O   UNL     1      32.434  41.237   7.039  1.00  0.00    -0.275 OA
ENDBRANCH  13  22
ENDBRANCH   7   8
BRANCH   7  27
ATOM     27  O   UNL     1      29.031  37.375   5.584  1.00  0.00    -0.388 OA
ATOM     28  H   UNL     1      29.370  36.630   6.108  1.00  0.00     0.211 HD
ENDBRANCH   7  27
ENDBRANCH   6   7
BRANCH   6  29
ATOM     29  O   UNL     1      28.877  40.823   6.074  1.00  0.00    -0.388 OA
ATOM     30  H   UNL     1      28.010  41.081   6.445  1.00  0.00     0.211 HD
ENDBRANCH   6  29
ENDBRANCH   5   6
ENDBRANCH   1   5
BRANCH   2  31
ATOM     31  O   UNL     1      24.747  40.030   7.396  1.00  0.00    -0.443 OA
BRANCH  31  32
ATOM     32  C   UNL     1      23.668  39.135   7.230  1.00  0.00     0.294 C 
BRANCH  32  33
ATOM     33  C   UNL     1      23.914  37.909   8.026  1.00  0.00     0.120 A 
ATOM     34  C   UNL     1      23.094  37.351   8.975  1.00  0.00     0.138 A 
ATOM     35  N   UNL     1      24.988  37.135   7.950  1.00  0.00    -0.132 NA
ATOM     36  N   UNL     1      23.734  36.255   9.421  1.00  0.00    -0.250 N 
ATOM     37  N   UNL     1      24.893  36.116   8.800  1.00  0.00    -0.067 NA
BRANCH  36  38
ATOM     38  C   UNL     1      23.213  35.367  10.440  1.00  0.00     0.174 C 
BRANCH  38  39
ATOM     39  C   UNL     1      24.317  35.090  11.457  1.00  0.00     0.179 C 
BRANCH  39  40
ATOM     40  O   UNL     1      24.921  36.316  11.805  1.00  0.00    -0.394 OA
ATOM     41  H   UNL     1      25.607  36.162  12.524  1.00  0.00     0.210 HD
ENDBRANCH  39  40
ENDBRANCH  38  39
ENDBRANCH  36  38
ENDBRANCH  32  33
ENDBRANCH  31  32
ENDBRANCH   2  31
TORSDOF 17
BEGIN_RES LYS A 131
REMARK  4 active torsions:
REMARK  status: ('A' for Active; 'I' for Inactive)
REMARK    1  A    between atoms: CA   and  CB  
REMARK    2  A    between atoms: CB   and  CG  
REMARK    3  A    between atoms: CG   and  CD  
REMARK    4  A    between atoms: CD   and  CE  
ROOT
ATOM      1  CA  LYS A 131      29.867  25.555  16.977  1.00 20.52     0.186 C 
ENDROOT
BRANCH   1   2
ATOM      2  CB  LYS A 131      28.345  25.722  17.026  1.00 20.94     0.034 C 
BRANCH   2   3
ATOM      3  CG  LYS A 131      27.601  24.403  16.886  1.00 22.96     0.005 C 
BRANCH   3   4
ATOM      4  CD  LYS A 131      26.613  24.189  17.999  1.00 24.33     0.041 C 
BRANCH   4   5
ATOM      5  CE  LYS A 131      25.381  23.472  17.456  1.00 26.91     0.338 C 
ATOM      6  NZ  LYS A 131      24.819  22.559  18.478  1.00 27.40     0.618 N 
ENDBRANCH   4   5
ENDBRANCH   3   4
ENDBRANCH   2   3
ENDBRANCH   1   2
END_RES LYS A 131
BEGIN_RES LYS A 135
REMARK  4 active torsions:
REMARK  status: ('A' for Active; 'I' for Inactive)
REMARK    5  A    between atoms: CA   and  CB  
REMARK    6  A    between atoms: CB   and  CG  
REMARK    7  A    between atoms: CG   and  CD  
REMARK    8  A    between atoms: CD   and  CE  
ROOT
ATOM      7  CA  LYS A 135      33.193  34.663   9.290  1.00 25.02     0.186 C 
ENDROOT
BRANCH   7   8
ATOM      8  CB  LYS A 135      32.060  35.360  10.034  1.00 26.63     0.034 C 
BRANCH   8   9
ATOM      9  CG  LYS A 135      30.720  34.695   9.851  1.00 29.45     0.005 C 
BRANCH   9  10
ATOM     10  CD  LYS A 135      30.392  34.548   8.373  1.00 32.00     0.041 C 
BRANCH  10  11
ATOM     11  CE  LYS A 135      28.940  34.904   8.112  1.00 34.25     0.338 C 
ATOM     12  NZ  LYS A 135      28.034  34.169   9.037  1.00 35.99     0.618 N 
ENDBRANCH  10  11
ENDBRANCH   9  10
ENDBRANCH   8   9
ENDBRANCH   7   8
END_RES LYS A 135
