REMARK VINA RESULT:    -5.303      4.930      9.503
REMARK INTER + INTRA:         -15.261
REMARK INTER:                  -9.815
REMARK INTRA:                  -5.446
REMARK UNBOUND:                -6.084
REMARK SMILES CC(=O)N[C@@H]1[C@@H](O)C[C@](O)(C(=O)O)O[C@H]1C(O)[C@H](O)CNC(=O)OCc1cn(-c2c3ccccc3nc3ccccc23)nn1
REMARK SMILES IDX 20 1 18 2 16 3 15 4 9 5 8 6 14 7 6 8 5 9 10 10 11 12 12 13
REMARK SMILES IDX 13 14 7 16 4 18 2 19 1 21 3 22 17 23 19 25 21 27 22 28 23 30
REMARK SMILES IDX 24 31 25 32 26 33 27 34 44 35 28 36 43 37 29 38 30 39 42 40
REMARK SMILES IDX 31 41 35 42 37 43 41 44 32 45 34 46 36 47 38 48 40 49 33 50
REMARK SMILES IDX 39 51
REMARK H PARENT 10 11 13 15 7 17 4 20 17 24 19 26 21 29
REMARK Flexibility Score: inf
ROOT
ATOM      1  C   UNL     1      29.605  32.165  16.878  1.00  0.00     0.154 C 
ENDROOT
BRANCH   1   2
ATOM      2  C   UNL     1      30.572  32.569  15.799  1.00  0.00     0.165 C 
BRANCH   2   3
ATOM      3  C   UNL     1      29.767  33.170  14.690  1.00  0.00     0.176 C 
BRANCH   3   4
ATOM      4  C   UNL     1      30.394  34.412  14.074  1.00  0.00     0.178 C 
ATOM      5  C   UNL     1      32.179  35.770  14.392  1.00  0.00     0.269 C 
ATOM      6  C   UNL     1      31.405  37.061  14.411  1.00  0.00     0.112 C 
ATOM      7  O   UNL     1      31.465  34.718  14.866  1.00  0.00    -0.332 OA
ATOM      8  C   UNL     1      29.924  36.852  14.537  1.00  0.00     0.145 C 
ATOM      9  C   UNL     1      29.443  35.548  13.996  1.00  0.00     0.142 C 
BRANCH   5  10
ATOM     10  O   UNL     1      33.280  35.908  15.302  1.00  0.00    -0.357 OA
ATOM     11  H   UNL     1      34.044  36.319  14.830  1.00  0.00     0.214 HD
ENDBRANCH   5  10
BRANCH   5  12
ATOM     12  C   UNL     1      32.828  35.576  13.073  1.00  0.00     0.364 C 
ATOM     13  O   UNL     1      32.627  36.361  12.108  1.00  0.00    -0.246 OA
BRANCH  12  14
ATOM     14  O   UNL     1      33.704  34.510  12.812  1.00  0.00    -0.477 OA
ATOM     15  H   UNL     1      34.127  34.020  13.586  1.00  0.00     0.296 HD
ENDBRANCH  12  14
ENDBRANCH   5  12
BRANCH   8  16
ATOM     16  O   UNL     1      29.566  37.004  15.880  1.00  0.00    -0.391 OA
ATOM     17  H   UNL     1      28.606  36.809  16.021  1.00  0.00     0.211 HD
ENDBRANCH   8  16
BRANCH   9  18
ATOM     18  N   UNL     1      28.895  35.770  12.653  1.00  0.00    -0.348 N 
ATOM     19  C   UNL     1      27.617  35.287  12.257  1.00  0.00     0.217 C 
ATOM     20  H   UNL     1      29.426  36.299  11.926  1.00  0.00     0.163 HD
ATOM     21  C   UNL     1      27.075  35.527  10.884  1.00  0.00     0.114 C 
ATOM     22  O   UNL     1      26.911  34.639  13.071  1.00  0.00    -0.275 OA
ENDBRANCH   9  18
ENDBRANCH   3   4
BRANCH   3  23
ATOM     23  O   UNL     1      28.515  33.518  15.174  1.00  0.00    -0.388 OA
ATOM     24  H   UNL     1      27.937  32.718  15.116  1.00  0.00     0.211 HD
ENDBRANCH   3  23
ENDBRANCH   2   3
BRANCH   2  25
ATOM     25  O   UNL     1      31.328  31.490  15.405  1.00  0.00    -0.388 OA
ATOM     26  H   UNL     1      31.901  31.784  14.634  1.00  0.00     0.211 HD
ENDBRANCH   2  25
ENDBRANCH   1   2
BRANCH   1  27
ATOM     27  N   UNL     1      29.243  30.790  16.922  1.00  0.00    -0.319 N 
ATOM     28  C   UNL     1      27.999  30.271  16.508  1.00  0.00     0.407 C 
ATOM     29  H   UNL     1      29.930  30.041  17.291  1.00  0.00     0.167 HD
ATOM     30  O   UNL     1      27.093  31.008  16.068  1.00  0.00    -0.225 OA
BRANCH  28  31
ATOM     31  O   UNL     1      27.712  28.897  16.565  1.00  0.00    -0.443 OA
BRANCH  31  32
ATOM     32  C   UNL     1      26.701  28.407  17.446  1.00  0.00     0.294 C 
BRANCH  32  33
ATOM     33  C   UNL     1      27.169  28.631  18.834  1.00  0.00     0.121 A 
ATOM     34  C   UNL     1      28.103  27.881  19.519  1.00  0.00     0.144 A 
ATOM     35  N   UNL     1      26.800  29.592  19.717  1.00  0.00    -0.131 NA
ATOM     36  N   UNL     1      28.275  28.382  20.753  1.00  0.00    -0.219 N 
ATOM     37  N   UNL     1      27.474  29.420  20.855  1.00  0.00    -0.062 NA
BRANCH  36  38
ATOM     38  C   UNL     1      29.140  27.907  21.763  1.00  0.00     0.085 A 
ATOM     39  C   UNL     1      28.667  27.025  22.740  1.00  0.00     0.027 A 
ATOM     40  C   UNL     1      30.471  28.283  21.826  1.00  0.00     0.027 A 
ATOM     41  C   UNL     1      27.352  26.613  22.732  1.00  0.00     0.012 A 
ATOM     42  C   UNL     1      29.478  26.546  23.721  1.00  0.00     0.073 A 
ATOM     43  C   UNL     1      31.275  27.786  22.829  1.00  0.00     0.073 A 
ATOM     44  C   UNL     1      30.933  29.150  20.869  1.00  0.00     0.012 A 
ATOM     45  C   UNL     1      26.837  25.746  23.672  1.00  0.00     0.001 A 
ATOM     46  C   UNL     1      28.973  25.670  24.676  1.00  0.00     0.029 A 
ATOM     47  N   UNL     1      30.767  26.936  23.747  1.00  0.00    -0.248 NA
ATOM     48  C   UNL     1      32.589  28.188  22.853  1.00  0.00     0.029 A 
ATOM     49  C   UNL     1      32.273  29.540  20.920  1.00  0.00     0.001 A 
ATOM     50  C   UNL     1      27.663  25.247  24.685  1.00  0.00     0.002 A 
ATOM     51  C   UNL     1      33.112  29.068  21.906  1.00  0.00     0.002 A 
ENDBRANCH  36  38
ENDBRANCH  32  33
ENDBRANCH  31  32
ENDBRANCH  28  31
ENDBRANCH   1  27
TORSDOF 15
BEGIN_RES LYS A 131
REMARK  4 active torsions:
REMARK  status: ('A' for Active; 'I' for Inactive)
REMARK    1  A    between atoms: CA   and  CB  
REMARK    2  A    between atoms: CB   and  CG  
REMARK    3  A    between atoms: CG   and  CD  
REMARK    4  A    between atoms: CD   and  CE  
ROOT
ATOM      1  CA  LYS A 131      29.867  25.555  16.977  1.00 20.52     0.186 C 
ENDROOT
BRANCH   1   2
ATOM      2  CB  LYS A 131      28.345  25.722  17.026  1.00 20.94     0.034 C 
BRANCH   2   3
ATOM      3  CG  LYS A 131      27.600  24.413  16.814  1.00 22.96     0.005 C 
BRANCH   3   4
ATOM      4  CD  LYS A 131      26.798  24.015  18.022  1.00 24.33     0.041 C 
BRANCH   4   5
ATOM      5  CE  LYS A 131      25.692  23.053  17.605  1.00 26.91     0.338 C 
ATOM      6  NZ  LYS A 131      24.558  23.794  17.003  1.00 27.40     0.618 N 
ENDBRANCH   4   5
ENDBRANCH   3   4
ENDBRANCH   2   3
ENDBRANCH   1   2
END_RES LYS A 131
BEGIN_RES LYS A 135
REMARK  4 active torsions:
REMARK  status: ('A' for Active; 'I' for Inactive)
REMARK    5  A    between atoms: CA   and  CB  
REMARK    6  A    between atoms: CB   and  CG  
REMARK    7  A    between atoms: CG   and  CD  
REMARK    8  A    between atoms: CD   and  CE  
ROOT
ATOM      7  CA  LYS A 135      33.193  34.663   9.290  1.00 25.02     0.186 C 
ENDROOT
BRANCH   7   8
ATOM      8  CB  LYS A 135      32.060  35.360  10.034  1.00 26.63     0.034 C 
BRANCH   8   9
ATOM      9  CG  LYS A 135      30.721  34.692   9.855  1.00 29.45     0.005 C 
BRANCH   9  10
ATOM     10  CD  LYS A 135      30.371  34.580   8.379  1.00 32.00     0.041 C 
BRANCH  10  11
ATOM     11  CE  LYS A 135      29.487  35.736   7.952  1.00 34.25     0.338 C 
ATOM     12  NZ  LYS A 135      28.264  35.247   7.255  1.00 35.99     0.618 N 
ENDBRANCH  10  11
ENDBRANCH   9  10
ENDBRANCH   8   9
ENDBRANCH   7   8
END_RES LYS A 135
