REMARK VINA RESULT:    -5.399      4.341      8.620
REMARK INTER + INTRA:         -15.428
REMARK INTER:                  -9.546
REMARK INTRA:                  -5.883
REMARK UNBOUND:                -6.084
REMARK SMILES CC(=O)N[C@@H]1[C@@H](O)C[C@](O)(C(=O)O)O[C@H]1C(O)[C@H](O)CNC(=O)OCc1cn(-c2c3ccccc3nc3ccccc23)nn1
REMARK SMILES IDX 20 1 18 2 16 3 15 4 9 5 8 6 14 7 6 8 5 9 10 10 11 12 12 13
REMARK SMILES IDX 13 14 7 16 4 18 2 19 1 21 3 22 17 23 19 25 21 27 22 28 23 30
REMARK SMILES IDX 24 31 25 32 26 33 27 34 44 35 28 36 43 37 29 38 30 39 42 40
REMARK SMILES IDX 31 41 35 42 37 43 41 44 32 45 34 46 36 47 38 48 40 49 33 50
REMARK SMILES IDX 39 51
REMARK H PARENT 10 11 13 15 7 17 4 20 17 24 19 26 21 29
REMARK Flexibility Score: inf
ROOT
ATOM      1  C   UNL     1      18.763  39.593   9.851  1.00  0.00     0.154 C 
ENDROOT
BRANCH   1   2
ATOM      2  C   UNL     1      18.437  39.545   8.383  1.00  0.00     0.165 C 
BRANCH   2   3
ATOM      3  C   UNL     1      18.003  38.145   8.076  1.00  0.00     0.176 C 
BRANCH   3   4
ATOM      4  C   UNL     1      18.918  37.075   8.654  1.00  0.00     0.178 C 
ATOM      5  C   UNL     1      21.044  36.326   8.419  1.00  0.00     0.269 C 
ATOM      6  C   UNL     1      20.689  34.877   8.214  1.00  0.00     0.112 C 
ATOM      7  O   UNL     1      20.091  37.175   7.959  1.00  0.00    -0.332 OA
ATOM      8  C   UNL     1      19.227  34.667   7.947  1.00  0.00     0.145 C 
ATOM      9  C   UNL     1      18.341  35.713   8.537  1.00  0.00     0.142 C 
BRANCH   5  10
ATOM     10  O   UNL     1      22.204  36.609   7.625  1.00  0.00    -0.357 OA
ATOM     11  H   UNL     1      21.922  36.859   6.712  1.00  0.00     0.214 HD
ENDBRANCH   5  10
BRANCH   5  12
ATOM     12  C   UNL     1      21.501  36.553   9.812  1.00  0.00     0.364 C 
ATOM     13  O   UNL     1      21.211  35.760  10.747  1.00  0.00    -0.246 OA
BRANCH  12  14
ATOM     14  O   UNL     1      22.281  37.661  10.179  1.00  0.00    -0.477 OA
ATOM     15  H   UNL     1      22.612  38.289   9.463  1.00  0.00     0.296 HD
ENDBRANCH  12  14
ENDBRANCH   5  12
BRANCH   8  16
ATOM     16  O   UNL     1      19.036  34.567   6.565  1.00  0.00    -0.391 OA
ATOM     17  H   UNL     1      18.363  35.218   6.246  1.00  0.00     0.211 HD
ENDBRANCH   8  16
BRANCH   9  18
ATOM     18  N   UNL     1      17.779  35.199   9.791  1.00  0.00    -0.348 N 
ATOM     19  C   UNL     1      16.380  35.074  10.010  1.00  0.00     0.217 C 
ATOM     20  H   UNL     1      18.391  34.900  10.583  1.00  0.00     0.163 HD
ATOM     21  C   UNL     1      15.826  34.544  11.294  1.00  0.00     0.114 C 
ATOM     22  O   UNL     1      15.570  35.413   9.108  1.00  0.00    -0.275 OA
ENDBRANCH   9  18
ENDBRANCH   3   4
BRANCH   3  23
ATOM     23  O   UNL     1      17.959  37.973   6.702  1.00  0.00    -0.388 OA
ATOM     24  H   UNL     1      18.563  38.642   6.295  1.00  0.00     0.211 HD
ENDBRANCH   3  23
ENDBRANCH   2   3
BRANCH   2  25
ATOM     25  O   UNL     1      19.516  39.960   7.639  1.00  0.00    -0.388 OA
ATOM     26  H   UNL     1      19.164  40.344   6.781  1.00  0.00     0.211 HD
ENDBRANCH   2  25
ENDBRANCH   1   2
BRANCH   1  27
ATOM     27  N   UNL     1      20.142  39.654  10.192  1.00  0.00    -0.319 N 
ATOM     28  C   UNL     1      20.751  40.710  10.900  1.00  0.00     0.407 C 
ATOM     29  H   UNL     1      20.824  38.861   9.914  1.00  0.00     0.167 HD
ATOM     30  O   UNL     1      20.102  41.705  11.282  1.00  0.00    -0.225 OA
BRANCH  28  31
ATOM     31  O   UNL     1      22.119  40.700  11.217  1.00  0.00    -0.443 OA
BRANCH  31  32
ATOM     32  C   UNL     1      23.057  41.385  10.387  1.00  0.00     0.294 C 
BRANCH  32  33
ATOM     33  C   UNL     1      23.441  40.465   9.290  1.00  0.00     0.121 A 
ATOM     34  C   UNL     1      24.710  40.001   9.012  1.00  0.00     0.144 A 
ATOM     35  N   UNL     1      22.660  39.890   8.344  1.00  0.00    -0.131 NA
ATOM     36  N   UNL     1      24.675  39.186   7.945  1.00  0.00    -0.219 N 
ATOM     37  N   UNL     1      23.421  39.132   7.553  1.00  0.00    -0.062 NA
BRANCH  36  38
ATOM     38  C   UNL     1      25.756  38.506   7.344  1.00  0.00     0.085 A 
ATOM     39  C   UNL     1      26.058  37.192   7.714  1.00  0.00     0.027 A 
ATOM     40  C   UNL     1      26.548  39.099   6.375  1.00  0.00     0.027 A 
ATOM     41  C   UNL     1      25.307  36.547   8.674  1.00  0.00     0.012 A 
ATOM     42  C   UNL     1      27.089  36.510   7.149  1.00  0.00     0.073 A 
ATOM     43  C   UNL     1      27.588  38.390   5.814  1.00  0.00     0.073 A 
ATOM     44  C   UNL     1      26.253  40.389   6.013  1.00  0.00     0.012 A 
ATOM     45  C   UNL     1      25.563  35.253   9.074  1.00  0.00     0.001 A 
ATOM     46  C   UNL     1      27.360  35.204   7.543  1.00  0.00     0.029 A 
ATOM     47  N   UNL     1      27.836  37.123   6.209  1.00  0.00    -0.248 NA
ATOM     48  C   UNL     1      28.348  39.019   4.857  1.00  0.00     0.029 A 
ATOM     49  C   UNL     1      27.044  41.001   5.038  1.00  0.00     0.001 A 
ATOM     50  C   UNL     1      26.622  34.542   8.498  1.00  0.00     0.002 A 
ATOM     51  C   UNL     1      28.094  40.329   4.453  1.00  0.00     0.002 A 
ENDBRANCH  36  38
ENDBRANCH  32  33
ENDBRANCH  31  32
ENDBRANCH  28  31
ENDBRANCH   1  27
TORSDOF 15
BEGIN_RES LYS A 131
REMARK  4 active torsions:
REMARK  status: ('A' for Active; 'I' for Inactive)
REMARK    1  A    between atoms: CA   and  CB  
REMARK    2  A    between atoms: CB   and  CG  
REMARK    3  A    between atoms: CG   and  CD  
REMARK    4  A    between atoms: CD   and  CE  
ROOT
ATOM      1  CA  LYS A 131      29.867  25.555  16.977  1.00 20.52     0.186 C 
ENDROOT
BRANCH   1   2
ATOM      2  CB  LYS A 131      28.345  25.722  17.026  1.00 20.94     0.034 C 
BRANCH   2   3
ATOM      3  CG  LYS A 131      27.599  24.456  16.635  1.00 22.96     0.005 C 
BRANCH   3   4
ATOM      4  CD  LYS A 131      27.012  23.753  17.828  1.00 24.33     0.041 C 
BRANCH   4   5
ATOM      5  CE  LYS A 131      25.523  24.072  17.925  1.00 26.91     0.338 C 
ATOM      6  NZ  LYS A 131      24.715  22.936  17.423  1.00 27.40     0.618 N 
ENDBRANCH   4   5
ENDBRANCH   3   4
ENDBRANCH   2   3
ENDBRANCH   1   2
END_RES LYS A 131
BEGIN_RES LYS A 135
REMARK  4 active torsions:
REMARK  status: ('A' for Active; 'I' for Inactive)
REMARK    5  A    between atoms: CA   and  CB  
REMARK    6  A    between atoms: CB   and  CG  
REMARK    7  A    between atoms: CG   and  CD  
REMARK    8  A    between atoms: CD   and  CE  
ROOT
ATOM      7  CA  LYS A 135      33.193  34.663   9.290  1.00 25.02     0.186 C 
ENDROOT
BRANCH   7   8
ATOM      8  CB  LYS A 135      32.060  35.360  10.034  1.00 26.63     0.034 C 
BRANCH   8   9
ATOM      9  CG  LYS A 135      30.688  34.949   9.565  1.00 29.45     0.005 C 
BRANCH   9  10
ATOM     10  CD  LYS A 135      29.612  35.722  10.311  1.00 32.00     0.041 C 
BRANCH  10  11
ATOM     11  CE  LYS A 135      28.985  34.858  11.388  1.00 34.25     0.338 C 
ATOM     12  NZ  LYS A 135      27.755  35.493  11.937  1.00 35.99     0.618 N 
ENDBRANCH  10  11
ENDBRANCH   9  10
ENDBRANCH   8   9
ENDBRANCH   7   8
END_RES LYS A 135
