REMARK VINA RESULT:    -4.062      4.448      8.545
REMARK INTER + INTRA:         -14.309
REMARK INTER:                  -8.334
REMARK INTRA:                  -5.975
REMARK UNBOUND:                -7.042
REMARK SMILES CC(=O)N[C@@H]1[C@@H](O)C[C@](O)(C(=O)O)O[C@H]1C(O)[C@H](O)CNC(=O)OCc1cn(-c2ncccc2C#N)nn1
REMARK SMILES IDX 21 1 22 2 23 3 20 5 18 6 16 7 15 8 9 9 8 10 14 11 6 12 5 13
REMARK SMILES IDX 10 14 11 16 12 17 13 18 7 20 4 22 2 23 1 25 3 26 17 27 19 29
REMARK SMILES IDX 24 31 25 32 26 33 27 34 38 35 28 36 37 37 29 38 30 39 34 40
REMARK SMILES IDX 31 41 33 42 32 43 35 44 36 45
REMARK H PARENT 21 4 10 15 13 19 7 21 4 24 17 28 19 30
REMARK Flexibility Score: inf
ROOT
ATOM      1  N   UNL     1      29.520  30.614  18.015  1.00  0.00    -0.319 N 
ATOM      2  C   UNL     1      28.597  31.310  18.867  1.00  0.00     0.407 C 
ATOM      3  O   UNL     1      28.686  32.527  19.059  1.00  0.00    -0.225 OA
ATOM      4  H   UNL     1      29.297  29.566  17.932  1.00  0.00     0.167 HD
ENDROOT
BRANCH   1   5
ATOM      5  C   UNL     1      30.564  31.199  17.322  1.00  0.00     0.154 C 
BRANCH   5   6
ATOM      6  C   UNL     1      30.413  31.376  15.790  1.00  0.00     0.165 C 
BRANCH   6   7
ATOM      7  C   UNL     1      30.593  32.830  15.578  1.00  0.00     0.176 C 
BRANCH   7   8
ATOM      8  C   UNL     1      30.014  33.478  14.372  1.00  0.00     0.178 C 
ATOM      9  C   UNL     1      30.918  35.526  13.650  1.00  0.00     0.269 C 
ATOM     10  C   UNL     1      29.689  35.925  12.871  1.00  0.00     0.112 C 
ATOM     11  O   UNL     1      31.080  34.140  13.701  1.00  0.00    -0.332 OA
ATOM     12  C   UNL     1      28.565  34.892  13.088  1.00  0.00     0.145 C 
ATOM     13  C   UNL     1      28.853  34.353  14.510  1.00  0.00     0.142 C 
BRANCH   9  14
ATOM     14  O   UNL     1      30.928  36.142  14.892  1.00  0.00    -0.357 OA
ATOM     15  H   UNL     1      30.454  35.665  15.589  1.00  0.00     0.214 HD
ENDBRANCH   9  14
BRANCH   9  16
ATOM     16  C   UNL     1      32.070  35.990  12.850  1.00  0.00     0.364 C 
ATOM     17  O   UNL     1      32.275  36.988  12.275  1.00  0.00    -0.246 OA
BRANCH  16  18
ATOM     18  O   UNL     1      33.143  34.975  12.792  1.00  0.00    -0.477 OA
ATOM     19  H   UNL     1      33.049  34.202  13.456  1.00  0.00     0.296 HD
ENDBRANCH  16  18
ENDBRANCH   9  16
BRANCH  12  20
ATOM     20  O   UNL     1      27.328  35.480  13.010  1.00  0.00    -0.391 OA
ATOM     21  H   UNL     1      27.020  35.794  13.878  1.00  0.00     0.211 HD
ENDBRANCH  12  20
BRANCH  13  22
ATOM     22  N   UNL     1      27.632  33.661  14.951  1.00  0.00    -0.348 N 
ATOM     23  C   UNL     1      27.100  33.980  16.209  1.00  0.00     0.217 C 
ATOM     24  H   UNL     1      27.192  32.994  14.346  1.00  0.00     0.163 HD
ATOM     25  C   UNL     1      25.967  33.582  16.960  1.00  0.00     0.114 C 
ATOM     26  O   UNL     1      27.900  34.914  16.798  1.00  0.00    -0.275 OA
ENDBRANCH  13  22
ENDBRANCH   7   8
BRANCH   7  27
ATOM     27  O   UNL     1      30.537  33.522  16.752  1.00  0.00    -0.388 OA
ATOM     28  H   UNL     1      30.154  32.986  17.497  1.00  0.00     0.211 HD
ENDBRANCH   7  27
ENDBRANCH   6   7
BRANCH   6  29
ATOM     29  O   UNL     1      29.207  30.814  15.482  1.00  0.00    -0.388 OA
ATOM     30  H   UNL     1      29.083  30.812  14.500  1.00  0.00     0.211 HD
ENDBRANCH   6  29
ENDBRANCH   5   6
ENDBRANCH   1   5
BRANCH   2  31
ATOM     31  O   UNL     1      27.576  30.584  19.484  1.00  0.00    -0.443 OA
BRANCH  31  32
ATOM     32  C   UNL     1      27.150  29.309  18.957  1.00  0.00     0.294 C 
BRANCH  32  33
ATOM     33  C   UNL     1      26.028  29.694  18.024  1.00  0.00     0.121 A 
ATOM     34  C   UNL     1      25.875  29.296  16.729  1.00  0.00     0.146 A 
ATOM     35  N   UNL     1      24.966  30.421  18.371  1.00  0.00    -0.131 NA
ATOM     36  N   UNL     1      24.673  29.811  16.325  1.00  0.00    -0.201 N 
ATOM     37  N   UNL     1      24.153  30.490  17.357  1.00  0.00    -0.060 NA
BRANCH  36  38
ATOM     38  C   UNL     1      24.065  29.654  15.084  1.00  0.00     0.173 A 
ATOM     39  N   UNL     1      24.334  30.551  14.046  1.00  0.00    -0.236 NA
ATOM     40  C   UNL     1      23.102  28.718  14.770  1.00  0.00     0.097 A 
ATOM     41  C   UNL     1      23.712  30.459  12.946  1.00  0.00     0.113 A 
ATOM     42  C   UNL     1      22.459  28.637  13.617  1.00  0.00     0.025 A 
ATOM     43  C   UNL     1      22.713  29.538  12.543  1.00  0.00     0.022 A 
BRANCH  40  44
ATOM     44  C   UNL     1      22.691  27.747  15.857  1.00  0.00     0.103 C 
ATOM     45  N   UNL     1      22.399  27.102  16.577  1.00  0.00    -0.192 NA
ENDBRANCH  40  44
ENDBRANCH  36  38
ENDBRANCH  32  33
ENDBRANCH  31  32
ENDBRANCH   2  31
TORSDOF 16
BEGIN_RES LYS A 131
REMARK  4 active torsions:
REMARK  status: ('A' for Active; 'I' for Inactive)
REMARK    1  A    between atoms: CA   and  CB  
REMARK    2  A    between atoms: CB   and  CG  
REMARK    3  A    between atoms: CG   and  CD  
REMARK    4  A    between atoms: CD   and  CE  
ROOT
ATOM      1  CA  LYS A 131      29.867  25.555  16.977  1.00 20.52     0.186 C 
ENDROOT
BRANCH   1   2
ATOM      2  CB  LYS A 131      28.345  25.722  17.026  1.00 20.94     0.034 C 
BRANCH   2   3
ATOM      3  CG  LYS A 131      27.602  24.398  16.930  1.00 22.96     0.005 C 
BRANCH   3   4
ATOM      4  CD  LYS A 131      26.452  24.324  17.896  1.00 24.33     0.041 C 
BRANCH   4   5
ATOM      5  CE  LYS A 131      25.700  25.651  17.895  1.00 26.91     0.338 C 
ATOM      6  NZ  LYS A 131      24.615  25.633  18.905  1.00 27.40     0.618 N 
ENDBRANCH   4   5
ENDBRANCH   3   4
ENDBRANCH   2   3
ENDBRANCH   1   2
END_RES LYS A 131
BEGIN_RES LYS A 135
REMARK  4 active torsions:
REMARK  status: ('A' for Active; 'I' for Inactive)
REMARK    5  A    between atoms: CA   and  CB  
REMARK    6  A    between atoms: CB   and  CG  
REMARK    7  A    between atoms: CG   and  CD  
REMARK    8  A    between atoms: CD   and  CE  
ROOT
ATOM      7  CA  LYS A 135      33.193  34.663   9.290  1.00 25.02     0.186 C 
ENDROOT
BRANCH   7   8
ATOM      8  CB  LYS A 135      32.060  35.360  10.034  1.00 26.63     0.034 C 
BRANCH   8   9
ATOM      9  CG  LYS A 135      30.706  34.751   9.777  1.00 29.45     0.005 C 
BRANCH   9  10
ATOM     10  CD  LYS A 135      30.492  34.528   8.288  1.00 32.00     0.041 C 
BRANCH  10  11
ATOM     11  CE  LYS A 135      29.069  34.878   7.895  1.00 34.25     0.338 C 
ATOM     12  NZ  LYS A 135      28.169  34.873   9.082  1.00 35.99     0.618 N 
ENDBRANCH  10  11
ENDBRANCH   9  10
ENDBRANCH   8   9
ENDBRANCH   7   8
END_RES LYS A 135
