REMARK VINA RESULT:    -4.774      4.097      7.306
REMARK INTER + INTRA:         -16.970
REMARK INTER:                  -9.567
REMARK INTRA:                  -7.403
REMARK UNBOUND:                -7.171
REMARK SMILES CCOCCc1c(-c2ccccc2)nc(N)nc1-n1cc(COC(=O)NC[C@@H](O)C(O)[C@@H]2O[C@@](O)(C(=O)O)C[C@H](O)[C@H]2NC(C)=O)nn1
REMARK SMILES IDX 23 1 24 2 26 3 25 5 27 6 28 7 30 8 32 9 34 10 39 11 33 12
REMARK SMILES IDX 40 13 42 14 35 15 36 17 37 18 38 19 41 21 43 23 44 24 45 26
REMARK SMILES IDX 46 27 31 28 29 30 22 32 21 33 20 34 47 35 19 36 48 37 18 38
REMARK SMILES IDX 17 39 6 40 15 41 7 42 14 43 5 44 4 45 3 46 2 47 1 48 16 49
REMARK SMILES IDX 8 52 9 53 13 54 10 55 12 56 11 57
REMARK H PARENT 26 4 35 16 38 20 41 22 43 25 31 29 29 31 16 50 16 51
REMARK Flexibility Score: inf
ROOT
ATOM      1  O   UNL     1      24.446  36.323   8.583  1.00  0.00    -0.443 OA
ENDROOT
BRANCH   1   2
ATOM      2  C   UNL     1      24.457  37.544   7.946  1.00  0.00     0.407 C 
ATOM      3  N   UNL     1      25.671  38.103   7.400  1.00  0.00    -0.319 N 
ATOM      4  H   UNL     1      26.516  37.512   7.534  1.00  0.00     0.167 HD
ATOM      5  O   UNL     1      23.373  38.172   7.848  1.00  0.00    -0.225 OA
BRANCH   3   6
ATOM      6  C   UNL     1      25.625  39.388   6.741  1.00  0.00     0.154 C 
BRANCH   6   7
ATOM      7  C   UNL     1      26.957  40.083   6.989  1.00  0.00     0.165 C 
BRANCH   7   8
ATOM      8  C   UNL     1      27.920  39.546   5.958  1.00  0.00     0.176 C 
BRANCH   8   9
ATOM      9  C   UNL     1      28.667  40.589   5.186  1.00  0.00     0.178 C 
ATOM     10  C   UNL     1      30.769  40.071   6.083  1.00  0.00     0.269 C 
ATOM     11  C   UNL     1      30.555  41.227   7.046  1.00  0.00     0.112 C 
ATOM     12  O   UNL     1      29.950  40.133   4.993  1.00  0.00    -0.332 OA
ATOM     13  C   UNL     1      29.962  42.385   6.271  1.00  0.00     0.145 C 
ATOM     14  C   UNL     1      28.588  41.980   5.701  1.00  0.00     0.142 C 
BRANCH  10  15
ATOM     15  O   UNL     1      30.588  38.908   6.841  1.00  0.00    -0.357 OA
ATOM     16  H   UNL     1      30.075  38.224   6.356  1.00  0.00     0.214 HD
ENDBRANCH  10  15
BRANCH  10  17
ATOM     17  C   UNL     1      32.163  40.060   5.591  1.00  0.00     0.364 C 
ATOM     18  O   UNL     1      33.071  39.644   6.334  1.00  0.00    -0.246 OA
BRANCH  17  19
ATOM     19  O   UNL     1      32.456  40.505   4.328  1.00  0.00    -0.477 OA
ATOM     20  H   UNL     1      31.775  40.853   3.665  1.00  0.00     0.296 HD
ENDBRANCH  17  19
ENDBRANCH  10  17
BRANCH  13  21
ATOM     21  O   UNL     1      29.866  43.511   7.055  1.00  0.00    -0.391 OA
ATOM     22  H   UNL     1      29.249  43.377   7.806  1.00  0.00     0.211 HD
ENDBRANCH  13  21
BRANCH  14  23
ATOM     23  N   UNL     1      28.332  42.960   4.636  1.00  0.00    -0.348 N 
ATOM     24  C   UNL     1      27.028  43.480   4.465  1.00  0.00     0.217 C 
ATOM     25  H   UNL     1      29.095  43.280   4.003  1.00  0.00     0.163 HD
ATOM     26  C   UNL     1      26.695  44.478   3.402  1.00  0.00     0.114 C 
ATOM     27  O   UNL     1      26.129  43.068   5.251  1.00  0.00    -0.275 OA
ENDBRANCH  14  23
ENDBRANCH   8   9
BRANCH   8  28
ATOM     28  O   UNL     1      27.045  38.951   4.989  1.00  0.00    -0.388 OA
ATOM     29  H   UNL     1      27.282  38.011   4.863  1.00  0.00     0.211 HD
ENDBRANCH   8  28
ENDBRANCH   7   8
BRANCH   7  30
ATOM     30  O   UNL     1      27.307  39.794   8.299  1.00  0.00    -0.388 OA
ATOM     31  H   UNL     1      28.277  39.708   8.412  1.00  0.00     0.211 HD
ENDBRANCH   7  30
ENDBRANCH   6   7
ENDBRANCH   3   6
ENDBRANCH   1   2
BRANCH   1  32
ATOM     32  C   UNL     1      24.754  36.103   9.942  1.00  0.00     0.294 C 
BRANCH  32  33
ATOM     33  C   UNL     1      25.904  36.973  10.345  1.00  0.00     0.121 A 
ATOM     34  C   UNL     1      27.239  36.656  10.363  1.00  0.00     0.146 A 
ATOM     35  N   UNL     1      25.834  38.252  10.775  1.00  0.00    -0.131 NA
ATOM     36  N   UNL     1      27.963  37.732  10.799  1.00  0.00    -0.202 N 
ATOM     37  N   UNL     1      27.057  38.673  11.034  1.00  0.00    -0.060 NA
BRANCH  36  38
ATOM     38  C   UNL     1      29.368  37.794  10.973  1.00  0.00     0.164 A 
ATOM     39  N   UNL     1      30.168  38.279  10.014  1.00  0.00    -0.193 NA
ATOM     40  C   UNL     1      29.963  37.320  12.149  1.00  0.00     0.026 A 
ATOM     41  C   UNL     1      31.516  38.315  10.166  1.00  0.00     0.222 A 
ATOM     42  C   UNL     1      31.320  37.353  12.303  1.00  0.00     0.081 A 
ATOM     43  N   UNL     1      32.098  37.864  11.281  1.00  0.00    -0.213 NA
BRANCH  40  44
ATOM     44  C   UNL     1      29.091  36.755  13.198  1.00  0.00     0.070 C 
BRANCH  44  45
ATOM     45  C   UNL     1      28.939  35.260  13.161  1.00  0.00     0.165 C 
BRANCH  45  46
ATOM     46  O   UNL     1      28.222  34.774  14.219  1.00  0.00    -0.381 OA
BRANCH  46  47
ATOM     47  C   UNL     1      28.827  33.730  14.880  1.00  0.00     0.156 C 
ATOM     48  C   UNL     1      29.838  34.218  15.897  1.00  0.00     0.035 C 
ENDBRANCH  46  47
ENDBRANCH  45  46
ENDBRANCH  44  45
ENDBRANCH  40  44
BRANCH  41  49
ATOM     49  N   UNL     1      32.321  38.836   9.127  1.00  0.00    -0.368 N 
ATOM     50  H   UNL     1      33.012  39.580   9.327  1.00  0.00     0.159 HD
ATOM     51  H   UNL     1      32.245  38.496   8.150  1.00  0.00     0.159 HD
ENDBRANCH  41  49
BRANCH  42  52
ATOM     52  C   UNL     1      32.002  36.775  13.445  1.00  0.00     0.001 A 
ATOM     53  C   UNL     1      32.057  37.229  14.711  1.00  0.00     0.010 A 
ATOM     54  C   UNL     1      32.676  35.560  13.186  1.00  0.00     0.010 A 
ATOM     55  C   UNL     1      32.752  36.520  15.708  1.00  0.00     0.001 A 
ATOM     56  C   UNL     1      33.355  34.862  14.145  1.00  0.00     0.001 A 
ATOM     57  C   UNL     1      33.404  35.340  15.443  1.00  0.00     0.000 A 
ENDBRANCH  42  52
ENDBRANCH  36  38
ENDBRANCH  32  33
ENDBRANCH   1  32
TORSDOF 21
BEGIN_RES LYS A 131
REMARK  4 active torsions:
REMARK  status: ('A' for Active; 'I' for Inactive)
REMARK    1  A    between atoms: CA   and  CB  
REMARK    2  A    between atoms: CB   and  CG  
REMARK    3  A    between atoms: CG   and  CD  
REMARK    4  A    between atoms: CD   and  CE  
ROOT
ATOM      1  CA  LYS A 131      29.867  25.555  16.977  1.00 20.52     0.186 C 
ENDROOT
BRANCH   1   2
ATOM      2  CB  LYS A 131      28.345  25.722  17.026  1.00 20.94     0.034 C 
BRANCH   2   3
ATOM      3  CG  LYS A 131      27.599  24.431  16.727  1.00 22.96     0.005 C 
BRANCH   3   4
ATOM      4  CD  LYS A 131      26.653  24.054  17.834  1.00 24.33     0.041 C 
BRANCH   4   5
ATOM      5  CE  LYS A 131      25.220  24.093  17.313  1.00 26.91     0.338 C 
ATOM      6  NZ  LYS A 131      24.646  25.450  17.476  1.00 27.40     0.618 N 
ENDBRANCH   4   5
ENDBRANCH   3   4
ENDBRANCH   2   3
ENDBRANCH   1   2
END_RES LYS A 131
BEGIN_RES LYS A 135
REMARK  4 active torsions:
REMARK  status: ('A' for Active; 'I' for Inactive)
REMARK    5  A    between atoms: CA   and  CB  
REMARK    6  A    between atoms: CB   and  CG  
REMARK    7  A    between atoms: CG   and  CD  
REMARK    8  A    between atoms: CD   and  CE  
ROOT
ATOM      7  CA  LYS A 135      33.193  34.663   9.290  1.00 25.02     0.186 C 
ENDROOT
BRANCH   7   8
ATOM      8  CB  LYS A 135      32.060  35.360  10.034  1.00 26.63     0.034 C 
BRANCH   8   9
ATOM      9  CG  LYS A 135      30.712  34.725   9.811  1.00 29.45     0.005 C 
BRANCH   9  10
ATOM     10  CD  LYS A 135      30.465  34.497   8.327  1.00 32.00     0.041 C 
BRANCH  10  11
ATOM     11  CE  LYS A 135      29.009  34.745   7.985  1.00 34.25     0.338 C 
ATOM     12  NZ  LYS A 135      28.857  35.949   7.122  1.00 35.99     0.618 N 
ENDBRANCH  10  11
ENDBRANCH   9  10
ENDBRANCH   8   9
ENDBRANCH   7   8
END_RES LYS A 135
