REMARK VINA RESULT:    -4.881      4.406      7.529
REMARK INTER + INTRA:         -15.478
REMARK INTER:                 -10.975
REMARK INTRA:                  -4.503
REMARK UNBOUND:                -6.317
REMARK SMILES CC(=O)N[C@@H]1[C@@H](O)C[C@](O)(C(=O)O)O[C@H]1C(O)[C@H](O)CNC(=O)OCc1cn(-c2cccc(C=CC(=O)O)c2)nn1
REMARK SMILES IDX 21 1 22 2 23 3 20 5 18 6 16 7 15 8 9 9 8 10 14 11 6 12 5 13
REMARK SMILES IDX 10 14 11 16 12 17 13 18 7 20 4 22 2 23 1 25 3 26 17 27 19 29
REMARK SMILES IDX 24 31 25 32 26 33 27 34 41 35 28 36 40 37 29 38 39 39 30 40
REMARK SMILES IDX 33 41 31 42 32 43 34 44 35 45 36 46 37 47 38 48
REMARK H PARENT 21 4 10 15 13 19 7 21 4 24 17 28 19 30 38 49
REMARK Flexibility Score: inf
ROOT
ATOM      1  N   UNL     1      23.833  37.119  10.397  1.00  0.00    -0.319 N 
ATOM      2  C   UNL     1      24.679  37.642  11.402  1.00  0.00     0.407 C 
ATOM      3  O   UNL     1      24.992  38.849  11.459  1.00  0.00    -0.225 OA
ATOM      4  H   UNL     1      23.648  36.058  10.453  1.00  0.00     0.167 HD
ENDROOT
BRANCH   1   5
ATOM      5  C   UNL     1      23.214  37.861   9.337  1.00  0.00     0.154 C 
BRANCH   5   6
ATOM      6  C   UNL     1      23.728  37.426   8.002  1.00  0.00     0.165 C 
BRANCH   6   7
ATOM      7  C   UNL     1      25.085  38.003   7.646  1.00  0.00     0.176 C 
BRANCH   7   8
ATOM      8  C   UNL     1      26.135  36.954   7.676  1.00  0.00     0.178 C 
ATOM      9  C   UNL     1      27.616  35.640   8.865  1.00  0.00     0.269 C 
ATOM     10  C   UNL     1      27.839  35.031   7.509  1.00  0.00     0.112 C 
ATOM     11  O   UNL     1      26.569  36.541   8.896  1.00  0.00    -0.332 OA
ATOM     12  C   UNL     1      27.957  35.996   6.388  1.00  0.00     0.145 C 
ATOM     13  C   UNL     1      27.321  37.307   6.781  1.00  0.00     0.142 C 
BRANCH   9  14
ATOM     14  O   UNL     1      28.813  36.181   9.330  1.00  0.00    -0.357 OA
ATOM     15  H   UNL     1      28.786  36.389  10.289  1.00  0.00     0.214 HD
ENDBRANCH   9  14
BRANCH   9  16
ATOM     16  C   UNL     1      27.257  34.528   9.788  1.00  0.00     0.364 C 
ATOM     17  O   UNL     1      27.908  33.430   9.727  1.00  0.00    -0.246 OA
BRANCH  16  18
ATOM     18  O   UNL     1      26.234  34.638  10.720  1.00  0.00    -0.477 OA
ATOM     19  H   UNL     1      25.399  34.088  10.679  1.00  0.00     0.296 HD
ENDBRANCH  16  18
ENDBRANCH   9  16
BRANCH  12  20
ATOM     20  O   UNL     1      29.262  36.171   5.937  1.00  0.00    -0.391 OA
ATOM     21  H   UNL     1      29.862  35.592   6.435  1.00  0.00     0.211 HD
ENDBRANCH  12  20
BRANCH  13  22
ATOM     22  N   UNL     1      26.947  38.105   5.655  1.00  0.00    -0.348 N 
ATOM     23  C   UNL     1      27.792  39.108   5.113  1.00  0.00     0.217 C 
ATOM     24  H   UNL     1      26.008  37.976   5.173  1.00  0.00     0.163 HD
ATOM     25  C   UNL     1      27.363  39.906   3.948  1.00  0.00     0.114 C 
ATOM     26  O   UNL     1      28.921  39.335   5.614  1.00  0.00    -0.275 OA
ENDBRANCH  13  22
ENDBRANCH   7   8
BRANCH   7  27
ATOM     27  O   UNL     1      25.378  39.149   8.379  1.00  0.00    -0.388 OA
ATOM     28  H   UNL     1      25.270  38.933   9.331  1.00  0.00     0.211 HD
ENDBRANCH   7  27
ENDBRANCH   6   7
BRANCH   6  29
ATOM     29  O   UNL     1      22.833  37.734   6.975  1.00  0.00    -0.388 OA
ATOM     30  H   UNL     1      23.345  37.809   6.123  1.00  0.00     0.211 HD
ENDBRANCH   6  29
ENDBRANCH   5   6
ENDBRANCH   1   5
BRANCH   2  31
ATOM     31  O   UNL     1      25.218  36.807  12.403  1.00  0.00    -0.443 OA
BRANCH  31  32
ATOM     32  C   UNL     1      24.393  36.381  13.440  1.00  0.00     0.294 C 
BRANCH  32  33
ATOM     33  C   UNL     1      23.606  35.173  13.093  1.00  0.00     0.121 A 
ATOM     34  C   UNL     1      23.912  33.841  13.232  1.00  0.00     0.144 A 
ATOM     35  N   UNL     1      22.378  35.197  12.548  1.00  0.00    -0.131 NA
ATOM     36  N   UNL     1      22.881  33.087  12.776  1.00  0.00    -0.220 N 
ATOM     37  N   UNL     1      21.962  33.943  12.366  1.00  0.00    -0.062 NA
BRANCH  36  38
ATOM     38  C   UNL     1      22.845  31.659  12.763  1.00  0.00     0.067 A 
ATOM     39  C   UNL     1      21.710  30.979  12.407  1.00  0.00     0.036 A 
ATOM     40  C   UNL     1      23.961  30.936  13.116  1.00  0.00     0.028 A 
ATOM     41  C   UNL     1      21.666  29.557  12.393  1.00  0.00    -0.023 A 
ATOM     42  C   UNL     1      23.984  29.573  13.123  1.00  0.00     0.003 A 
ATOM     43  C   UNL     1      22.809  28.895  12.753  1.00  0.00     0.008 A 
BRANCH  41  44
ATOM     44  C   UNL     1      20.472  28.911  11.973  1.00  0.00     0.015 C 
ATOM     45  C   UNL     1      19.605  28.093  12.429  1.00  0.00     0.094 C 
BRANCH  45  46
ATOM     46  C   UNL     1      19.399  27.402  13.640  1.00  0.00     0.328 C 
ATOM     47  O   UNL     1      18.495  26.424  13.651  1.00  0.00    -0.247 OA
BRANCH  46  48
ATOM     48  O   UNL     1      19.962  27.533  14.884  1.00  0.00    -0.478 OA
ATOM     49  H   UNL     1      19.426  27.630  15.732  1.00  0.00     0.297 HD
ENDBRANCH  46  48
ENDBRANCH  45  46
ENDBRANCH  41  44
ENDBRANCH  36  38
ENDBRANCH  32  33
ENDBRANCH  31  32
ENDBRANCH   2  31
TORSDOF 18
BEGIN_RES LYS A 131
REMARK  4 active torsions:
REMARK  status: ('A' for Active; 'I' for Inactive)
REMARK    1  A    between atoms: CA   and  CB  
REMARK    2  A    between atoms: CB   and  CG  
REMARK    3  A    between atoms: CG   and  CD  
REMARK    4  A    between atoms: CD   and  CE  
ROOT
ATOM      1  CA  LYS A 131      29.867  25.555  16.977  1.00 20.52     0.186 C 
ENDROOT
BRANCH   1   2
ATOM      2  CB  LYS A 131      28.345  25.722  17.026  1.00 20.94     0.034 C 
BRANCH   2   3
ATOM      3  CG  LYS A 131      27.602  24.399  16.921  1.00 22.96     0.005 C 
BRANCH   3   4
ATOM      4  CD  LYS A 131      26.619  24.211  18.044  1.00 24.33     0.041 C 
BRANCH   4   5
ATOM      5  CE  LYS A 131      26.410  25.539  18.765  1.00 26.91     0.338 C 
ATOM      6  NZ  LYS A 131      25.003  25.986  18.633  1.00 27.40     0.618 N 
ENDBRANCH   4   5
ENDBRANCH   3   4
ENDBRANCH   2   3
ENDBRANCH   1   2
END_RES LYS A 131
BEGIN_RES LYS A 135
REMARK  4 active torsions:
REMARK  status: ('A' for Active; 'I' for Inactive)
REMARK    5  A    between atoms: CA   and  CB  
REMARK    6  A    between atoms: CB   and  CG  
REMARK    7  A    between atoms: CG   and  CD  
REMARK    8  A    between atoms: CD   and  CE  
ROOT
ATOM      7  CA  LYS A 135      33.193  34.663   9.290  1.00 25.02     0.186 C 
ENDROOT
BRANCH   7   8
ATOM      8  CB  LYS A 135      32.060  35.360  10.034  1.00 26.63     0.034 C 
BRANCH   8   9
ATOM      9  CG  LYS A 135      32.495  36.008  11.323  1.00 29.45     0.005 C 
BRANCH   9  10
ATOM     10  CD  LYS A 135      31.453  37.008  11.799  1.00 32.00     0.041 C 
BRANCH  10  11
ATOM     11  CE  LYS A 135      30.545  36.378  12.838  1.00 34.25     0.338 C 
ATOM     12  NZ  LYS A 135      29.129  36.793  12.635  1.00 35.99     0.618 N 
ENDBRANCH  10  11
ENDBRANCH   9  10
ENDBRANCH   8   9
ENDBRANCH   7   8
END_RES LYS A 135
