REMARK VINA RESULT:    -4.962      3.999      7.098
REMARK INTER + INTRA:         -13.752
REMARK INTER:                  -7.480
REMARK INTRA:                  -6.272
REMARK UNBOUND:                -5.164
REMARK SMILES CC(=O)N[C@@H]1[C@@H](O)C[C@](O)(C(=O)O)O[C@H]1C(O)[C@H](O)CNC(=O)OCc1cn(-c2cccnc2)nn1
REMARK SMILES IDX 20 1 18 2 16 3 15 4 9 5 8 6 14 7 6 8 5 9 10 10 11 12 12 13
REMARK SMILES IDX 13 14 7 16 4 18 2 19 1 21 3 22 17 23 19 25 21 27 22 28 23 30
REMARK SMILES IDX 24 31 25 32 26 33 27 34 36 35 28 36 35 37 29 38 30 39 34 40
REMARK SMILES IDX 31 41 33 42 32 43
REMARK H PARENT 10 11 13 15 7 17 4 20 17 24 19 26 21 29
REMARK Flexibility Score: inf
ROOT
ATOM      1  C   UNL     1      30.154  31.258  16.896  1.00  0.00     0.154 C 
ENDROOT
BRANCH   1   2
ATOM      2  C   UNL     1      29.213  31.048  15.768  1.00  0.00     0.165 C 
BRANCH   2   3
ATOM      3  C   UNL     1      27.896  31.701  15.956  1.00  0.00     0.176 C 
BRANCH   3   4
ATOM      4  C   UNL     1      27.589  32.920  15.158  1.00  0.00     0.178 C 
ATOM      5  C   UNL     1      28.282  34.946  14.415  1.00  0.00     0.269 C 
ATOM      6  C   UNL     1      26.918  35.254  13.909  1.00  0.00     0.112 C 
ATOM      7  O   UNL     1      28.371  33.999  15.418  1.00  0.00    -0.332 OA
ATOM      8  C   UNL     1      25.927  34.143  13.919  1.00  0.00     0.145 C 
ATOM      9  C   UNL     1      26.133  33.290  15.204  1.00  0.00     0.142 C 
BRANCH   5  10
ATOM     10  O   UNL     1      28.742  36.163  15.014  1.00  0.00    -0.357 OA
ATOM     11  H   UNL     1      28.459  36.863  14.382  1.00  0.00     0.214 HD
ENDBRANCH   5  10
BRANCH   5  12
ATOM     12  C   UNL     1      29.248  34.651  13.333  1.00  0.00     0.364 C 
ATOM     13  O   UNL     1      29.114  35.203  12.212  1.00  0.00    -0.246 OA
BRANCH  12  14
ATOM     14  O   UNL     1      30.329  33.787  13.452  1.00  0.00    -0.477 OA
ATOM     15  H   UNL     1      31.201  34.208  13.794  1.00  0.00     0.296 HD
ENDBRANCH  12  14
ENDBRANCH   5  12
BRANCH   8  16
ATOM     16  O   UNL     1      24.625  34.636  14.021  1.00  0.00    -0.391 OA
ATOM     17  H   UNL     1      24.055  34.204  13.338  1.00  0.00     0.211 HD
ENDBRANCH   8  16
BRANCH   9  18
ATOM     18  N   UNL     1      25.346  32.105  14.996  1.00  0.00    -0.348 N 
ATOM     19  C   UNL     1      24.085  31.880  15.594  1.00  0.00     0.217 C 
ATOM     20  H   UNL     1      25.718  31.351  14.360  1.00  0.00     0.163 HD
ATOM     21  C   UNL     1      23.351  30.624  15.317  1.00  0.00     0.114 C 
ATOM     22  O   UNL     1      23.601  32.747  16.355  1.00  0.00    -0.275 OA
ENDBRANCH   9  18
ENDBRANCH   3   4
BRANCH   3  23
ATOM     23  O   UNL     1      27.447  31.727  17.263  1.00  0.00    -0.388 OA
ATOM     24  H   UNL     1      26.534  31.437  17.416  1.00  0.00     0.211 HD
ENDBRANCH   3  23
ENDBRANCH   2   3
BRANCH   2  25
ATOM     25  O   UNL     1      28.948  29.664  15.620  1.00  0.00    -0.388 OA
ATOM     26  H   UNL     1      29.081  29.448  14.675  1.00  0.00     0.211 HD
ENDBRANCH   2  25
ENDBRANCH   1   2
BRANCH   1  27
ATOM     27  N   UNL     1      30.586  32.603  17.138  1.00  0.00    -0.319 N 
ATOM     28  C   UNL     1      31.518  33.314  16.392  1.00  0.00     0.407 C 
ATOM     29  H   UNL     1      30.158  33.118  17.968  1.00  0.00     0.167 HD
ATOM     30  O   UNL     1      32.086  32.814  15.412  1.00  0.00    -0.225 OA
BRANCH  28  31
ATOM     31  O   UNL     1      31.883  34.639  16.688  1.00  0.00    -0.443 OA
BRANCH  31  32
ATOM     32  C   UNL     1      33.018  35.224  16.092  1.00  0.00     0.294 C 
BRANCH  32  33
ATOM     33  C   UNL     1      32.730  35.713  14.730  1.00  0.00     0.121 A 
ATOM     34  C   UNL     1      32.013  36.872  14.478  1.00  0.00     0.144 A 
ATOM     35  N   UNL     1      33.048  35.223  13.532  1.00  0.00    -0.131 NA
ATOM     36  N   UNL     1      31.923  37.042  13.148  1.00  0.00    -0.219 N 
ATOM     37  N   UNL     1      32.552  36.040  12.591  1.00  0.00    -0.062 NA
BRANCH  36  38
ATOM     38  C   UNL     1      31.268  38.109  12.455  1.00  0.00     0.085 A 
ATOM     39  C   UNL     1      31.689  38.520  11.202  1.00  0.00     0.031 A 
ATOM     40  C   UNL     1      30.194  38.751  13.037  1.00  0.00     0.139 A 
ATOM     41  C   UNL     1      31.018  39.567  10.565  1.00  0.00     0.022 A 
ATOM     42  N   UNL     1      29.559  39.769  12.393  1.00  0.00    -0.262 NA
ATOM     43  C   UNL     1      29.945  40.190  11.175  1.00  0.00     0.111 A 
ENDBRANCH  36  38
ENDBRANCH  32  33
ENDBRANCH  31  32
ENDBRANCH  28  31
ENDBRANCH   1  27
TORSDOF 15
BEGIN_RES LYS A 131
REMARK  4 active torsions:
REMARK  status: ('A' for Active; 'I' for Inactive)
REMARK    1  A    between atoms: CA   and  CB  
REMARK    2  A    between atoms: CB   and  CG  
REMARK    3  A    between atoms: CG   and  CD  
REMARK    4  A    between atoms: CD   and  CE  
ROOT
ATOM      1  CA  LYS A 131      29.867  25.555  16.977  1.00 20.52     0.186 C 
ENDROOT
BRANCH   1   2
ATOM      2  CB  LYS A 131      28.345  25.722  17.026  1.00 20.94     0.034 C 
BRANCH   2   3
ATOM      3  CG  LYS A 131      27.601  24.401  16.901  1.00 22.96     0.005 C 
BRANCH   3   4
ATOM      4  CD  LYS A 131      26.167  24.515  17.336  1.00 24.33     0.041 C 
BRANCH   4   5
ATOM      5  CE  LYS A 131      25.831  23.371  18.287  1.00 26.91     0.338 C 
ATOM      6  NZ  LYS A 131      25.028  22.337  17.592  1.00 27.40     0.618 N 
ENDBRANCH   4   5
ENDBRANCH   3   4
ENDBRANCH   2   3
ENDBRANCH   1   2
END_RES LYS A 131
BEGIN_RES LYS A 135
REMARK  4 active torsions:
REMARK  status: ('A' for Active; 'I' for Inactive)
REMARK    5  A    between atoms: CA   and  CB  
REMARK    6  A    between atoms: CB   and  CG  
REMARK    7  A    between atoms: CG   and  CD  
REMARK    8  A    between atoms: CD   and  CE  
ROOT
ATOM      7  CA  LYS A 135      33.193  34.663   9.290  1.00 25.02     0.186 C 
ENDROOT
BRANCH   7   8
ATOM      8  CB  LYS A 135      32.060  35.360  10.034  1.00 26.63     0.034 C 
BRANCH   8   9
ATOM      9  CG  LYS A 135      30.839  35.601   9.184  1.00 29.45     0.005 C 
BRANCH   9  10
ATOM     10  CD  LYS A 135      30.234  34.282   8.728  1.00 32.00     0.041 C 
BRANCH  10  11
ATOM     11  CE  LYS A 135      28.743  34.432   8.495  1.00 34.25     0.338 C 
ATOM     12  NZ  LYS A 135      27.962  33.677   9.514  1.00 35.99     0.618 N 
ENDBRANCH  10  11
ENDBRANCH   9  10
ENDBRANCH   8   9
ENDBRANCH   7   8
END_RES LYS A 135
