REMARK VINA RESULT:    -4.057      3.646      7.180
REMARK INTER + INTRA:         -14.684
REMARK INTER:                  -9.550
REMARK INTRA:                  -5.134
REMARK UNBOUND:                -7.426
REMARK SMILES CC(=O)N[C@@H]1[C@@H](O)C[C@](O)(C(=O)O)O[C@H]1C(O)[C@H](O)CNC(=O)OCc1cn(Cc2ccccc2Br)nn1
REMARK SMILES IDX 21 1 22 2 23 3 20 5 18 6 16 7 15 8 9 9 8 10 14 11 6 12 5 13
REMARK SMILES IDX 10 14 11 16 12 17 13 18 7 20 4 22 2 23 1 25 3 26 17 27 19 29
REMARK SMILES IDX 24 31 25 32 26 33 27 34 38 35 28 36 37 37 29 38 30 39 31 40
REMARK SMILES IDX 35 41 32 42 34 43 36 44 33 45
REMARK H PARENT 21 4 10 15 13 19 7 21 4 24 17 28 19 30
REMARK Flexibility Score: inf
ROOT
ATOM      1  N   UNL     1      27.143  36.630  15.761  1.00  0.00    -0.319 N 
ATOM      2  C   UNL     1      28.285  37.011  15.048  1.00  0.00     0.407 C 
ATOM      3  O   UNL     1      29.345  36.339  15.182  1.00  0.00    -0.225 OA
ATOM      4  H   UNL     1      26.274  37.218  15.621  1.00  0.00     0.167 HD
ENDROOT
BRANCH   1   5
ATOM      5  C   UNL     1      27.066  35.505  16.666  1.00  0.00     0.154 C 
BRANCH   5   6
ATOM      6  C   UNL     1      26.289  34.383  16.010  1.00  0.00     0.165 C 
BRANCH   6   7
ATOM      7  C   UNL     1      27.207  33.445  15.256  1.00  0.00     0.176 C 
BRANCH   7   8
ATOM      8  C   UNL     1      28.397  33.017  16.092  1.00  0.00     0.178 C 
ATOM      9  C   UNL     1      30.650  32.475  15.832  1.00  0.00     0.269 C 
ATOM     10  C   UNL     1      30.485  31.179  16.530  1.00  0.00     0.112 C 
ATOM     11  O   UNL     1      29.454  32.859  15.248  1.00  0.00    -0.332 OA
ATOM     12  C   UNL     1      29.107  30.722  16.813  1.00  0.00     0.145 C 
ATOM     13  C   UNL     1      28.075  31.807  16.922  1.00  0.00     0.142 C 
BRANCH   9  14
ATOM     14  O   UNL     1      31.544  32.292  14.745  1.00  0.00    -0.357 OA
ATOM     15  H   UNL     1      32.389  32.794  14.890  1.00  0.00     0.214 HD
ENDBRANCH   9  14
BRANCH   9  16
ATOM     16  C   UNL     1      31.228  33.497  16.708  1.00  0.00     0.364 C 
ATOM     17  O   UNL     1      31.358  33.346  17.954  1.00  0.00    -0.246 OA
BRANCH  16  18
ATOM     18  O   UNL     1      31.657  34.697  16.161  1.00  0.00    -0.477 OA
ATOM     19  H   UNL     1      32.201  34.751  15.308  1.00  0.00     0.296 HD
ENDBRANCH  16  18
ENDBRANCH   9  16
BRANCH  12  20
ATOM     20  O   UNL     1      28.712  29.750  15.875  1.00  0.00    -0.391 OA
ATOM     21  H   UNL     1      28.228  29.055  16.425  1.00  0.00     0.211 HD
ENDBRANCH  12  20
BRANCH  13  22
ATOM     22  N   UNL     1      27.800  32.140  18.302  1.00  0.00    -0.348 N 
ATOM     23  C   UNL     1      26.519  31.982  18.888  1.00  0.00     0.217 C 
ATOM     24  H   UNL     1      28.564  32.512  18.900  1.00  0.00     0.163 HD
ATOM     25  C   UNL     1      26.219  32.321  20.308  1.00  0.00     0.114 C 
ATOM     26  O   UNL     1      25.597  31.523  18.132  1.00  0.00    -0.275 OA
ENDBRANCH  13  22
ENDBRANCH   7   8
BRANCH   7  27
ATOM     27  O   UNL     1      27.593  34.028  14.053  1.00  0.00    -0.388 OA
ATOM     28  H   UNL     1      27.380  35.011  14.093  1.00  0.00     0.211 HD
ENDBRANCH   7  27
ENDBRANCH   6   7
BRANCH   6  29
ATOM     29  O   UNL     1      25.400  35.022  15.113  1.00  0.00    -0.388 OA
ATOM     30  H   UNL     1      24.477  34.772  15.273  1.00  0.00     0.211 HD
ENDBRANCH   6  29
ENDBRANCH   5   6
ENDBRANCH   1   5
BRANCH   2  31
ATOM     31  O   UNL     1      28.347  38.094  14.184  1.00  0.00    -0.443 OA
BRANCH  31  32
ATOM     32  C   UNL     1      27.322  38.304  13.228  1.00  0.00     0.294 C 
BRANCH  32  33
ATOM     33  C   UNL     1      27.002  37.061  12.495  1.00  0.00     0.120 A 
ATOM     34  C   UNL     1      27.741  36.486  11.451  1.00  0.00     0.138 A 
ATOM     35  N   UNL     1      25.967  36.227  12.650  1.00  0.00    -0.132 NA
ATOM     36  N   UNL     1      27.165  35.376  11.020  1.00  0.00    -0.248 N 
ATOM     37  N   UNL     1      26.058  35.238  11.787  1.00  0.00    -0.067 NA
BRANCH  36  38
ATOM     38  C   UNL     1      27.472  34.413   9.989  1.00  0.00     0.182 C 
BRANCH  38  39
ATOM     39  C   UNL     1      27.729  34.960   8.664  1.00  0.00    -0.012 A 
ATOM     40  C   UNL     1      26.717  35.601   7.943  1.00  0.00     0.007 A 
ATOM     41  C   UNL     1      28.960  34.905   8.078  1.00  0.00     0.023 A 
ATOM     42  C   UNL     1      26.984  36.137   6.714  1.00  0.00     0.000 A 
ATOM     43  C   UNL     1      29.225  35.449   6.835  1.00  0.00     0.016 A 
ATOM     44  Br  UNL     1      30.434  34.006   8.942  1.00  0.00    -0.050 Br
ATOM     45  C   UNL     1      28.227  36.078   6.134  1.00  0.00     0.001 A 
ENDBRANCH  38  39
ENDBRANCH  36  38
ENDBRANCH  32  33
ENDBRANCH  31  32
ENDBRANCH   2  31
TORSDOF 16
BEGIN_RES LYS A 131
REMARK  4 active torsions:
REMARK  status: ('A' for Active; 'I' for Inactive)
REMARK    1  A    between atoms: CA   and  CB  
REMARK    2  A    between atoms: CB   and  CG  
REMARK    3  A    between atoms: CG   and  CD  
REMARK    4  A    between atoms: CD   and  CE  
ROOT
ATOM      1  CA  LYS A 131      29.867  25.555  16.977  1.00 20.52     0.186 C 
ENDROOT
BRANCH   1   2
ATOM      2  CB  LYS A 131      28.345  25.722  17.026  1.00 20.94     0.034 C 
BRANCH   2   3
ATOM      3  CG  LYS A 131      27.601  24.401  16.898  1.00 22.96     0.005 C 
BRANCH   3   4
ATOM      4  CD  LYS A 131      26.197  24.488  17.429  1.00 24.33     0.041 C 
BRANCH   4   5
ATOM      5  CE  LYS A 131      26.013  23.471  18.550  1.00 26.91     0.338 C 
ATOM      6  NZ  LYS A 131      25.396  24.111  19.736  1.00 27.40     0.618 N 
ENDBRANCH   4   5
ENDBRANCH   3   4
ENDBRANCH   2   3
ENDBRANCH   1   2
END_RES LYS A 131
BEGIN_RES LYS A 135
REMARK  4 active torsions:
REMARK  status: ('A' for Active; 'I' for Inactive)
REMARK    5  A    between atoms: CA   and  CB  
REMARK    6  A    between atoms: CB   and  CG  
REMARK    7  A    between atoms: CG   and  CD  
REMARK    8  A    between atoms: CD   and  CE  
ROOT
ATOM      7  CA  LYS A 135      33.193  34.663   9.290  1.00 25.02     0.186 C 
ENDROOT
BRANCH   7   8
ATOM      8  CB  LYS A 135      32.060  35.360  10.034  1.00 26.63     0.034 C 
BRANCH   8   9
ATOM      9  CG  LYS A 135      32.507  36.063  11.290  1.00 29.45     0.005 C 
BRANCH   9  10
ATOM     10  CD  LYS A 135      31.310  36.430  12.154  1.00 32.00     0.041 C 
BRANCH  10  11
ATOM     11  CE  LYS A 135      31.247  37.931  12.366  1.00 34.25     0.338 C 
ATOM     12  NZ  LYS A 135      30.728  38.623  11.154  1.00 35.99     0.618 N 
ENDBRANCH  10  11
ENDBRANCH   9  10
ENDBRANCH   8   9
ENDBRANCH   7   8
END_RES LYS A 135
