REMARK VINA RESULT:    -5.336      3.879      7.910
REMARK INTER + INTRA:         -14.884
REMARK INTER:                  -8.562
REMARK INTRA:                  -6.322
REMARK UNBOUND:                -5.337
REMARK SMILES CC(=O)N[C@@H]1[C@@H](O)C[C@](O)(C(=O)O)O[C@H]1C(O)[C@H](O)CNC(=O)OCc1cn(CC2=CC[C@H]3C[C@@H]2C3(C)C)nn1
REMARK SMILES IDX 21 1 22 2 23 3 20 5 18 6 16 7 15 8 9 9 8 10 14 11 6 12 5 13
REMARK SMILES IDX 10 14 11 16 12 17 13 18 7 20 4 22 2 23 1 25 3 26 17 27 19 29
REMARK SMILES IDX 24 31 25 32 26 33 27 34 40 35 28 36 39 37 29 38 30 39 31 40
REMARK SMILES IDX 35 41 32 42 34 43 36 44 33 45 37 46 38 47
REMARK H PARENT 21 4 10 15 13 19 7 21 4 24 17 28 19 30
REMARK Flexibility Score: inf
ROOT
ATOM      1  N   UNL     1      28.905  30.374  17.374  1.00  0.00    -0.319 N 
ATOM      2  C   UNL     1      28.030  30.197  18.500  1.00  0.00     0.407 C 
ATOM      3  O   UNL     1      28.369  30.689  19.607  1.00  0.00    -0.225 OA
ATOM      4  H   UNL     1      28.629  29.970  16.454  1.00  0.00     0.167 HD
ENDROOT
BRANCH   1   5
ATOM      5  C   UNL     1      30.145  31.104  17.535  1.00  0.00     0.154 C 
BRANCH   5   6
ATOM      6  C   UNL     1      30.692  31.405  16.169  1.00  0.00     0.165 C 
BRANCH   6   7
ATOM      7  C   UNL     1      31.345  32.768  16.100  1.00  0.00     0.176 C 
BRANCH   7   8
ATOM      8  C   UNL     1      30.520  33.612  15.155  1.00  0.00     0.178 C 
ATOM      9  C   UNL     1      31.941  35.277  14.395  1.00  0.00     0.269 C 
ATOM     10  C   UNL     1      31.099  36.397  14.963  1.00  0.00     0.112 C 
ATOM     11  O   UNL     1      31.224  34.139  14.113  1.00  0.00    -0.332 OA
ATOM     12  C   UNL     1      29.683  35.894  15.094  1.00  0.00     0.145 C 
ATOM     13  C   UNL     1      29.733  34.637  15.938  1.00  0.00     0.142 C 
BRANCH   9  14
ATOM     14  O   UNL     1      33.026  35.035  15.242  1.00  0.00    -0.357 OA
ATOM     15  H   UNL     1      33.839  35.211  14.695  1.00  0.00     0.214 HD
ENDBRANCH   9  14
BRANCH   9  16
ATOM     16  C   UNL     1      32.508  35.777  13.108  1.00  0.00     0.364 C 
ATOM     17  O   UNL     1      32.100  36.896  12.644  1.00  0.00    -0.246 OA
BRANCH  16  18
ATOM     18  O   UNL     1      33.459  35.086  12.390  1.00  0.00    -0.477 OA
ATOM     19  H   UNL     1      33.533  34.073  12.435  1.00  0.00     0.296 HD
ENDBRANCH  16  18
ENDBRANCH   9  16
BRANCH  12  20
ATOM     20  O   UNL     1      28.854  36.807  15.718  1.00  0.00    -0.391 OA
ATOM     21  H   UNL     1      29.064  36.786  16.686  1.00  0.00     0.211 HD
ENDBRANCH  12  20
BRANCH  13  22
ATOM     22  N   UNL     1      28.414  34.182  16.295  1.00  0.00    -0.348 N 
ATOM     23  C   UNL     1      28.020  34.021  17.648  1.00  0.00     0.217 C 
ATOM     24  H   UNL     1      27.744  33.969  15.525  1.00  0.00     0.163 HD
ATOM     25  C   UNL     1      26.637  33.545  17.927  1.00  0.00     0.114 C 
ATOM     26  O   UNL     1      28.822  34.275  18.581  1.00  0.00    -0.275 OA
ENDBRANCH  13  22
ENDBRANCH   7   8
BRANCH   7  27
ATOM     27  O   UNL     1      31.329  33.389  17.346  1.00  0.00    -0.388 OA
ATOM     28  H   UNL     1      32.138  33.890  17.540  1.00  0.00     0.211 HD
ENDBRANCH   7  27
ENDBRANCH   6   7
BRANCH   6  29
ATOM     29  O   UNL     1      29.591  31.399  15.286  1.00  0.00    -0.388 OA
ATOM     30  H   UNL     1      29.906  31.295  14.344  1.00  0.00     0.211 HD
ENDBRANCH   6  29
ENDBRANCH   5   6
ENDBRANCH   1   5
BRANCH   2  31
ATOM     31  O   UNL     1      26.844  29.520  18.421  1.00  0.00    -0.443 OA
BRANCH  31  32
ATOM     32  C   UNL     1      26.278  29.047  17.211  1.00  0.00     0.294 C 
BRANCH  32  33
ATOM     33  C   UNL     1      25.785  30.180  16.402  1.00  0.00     0.120 A 
ATOM     34  C   UNL     1      24.550  30.785  16.430  1.00  0.00     0.138 A 
ATOM     35  N   UNL     1      26.492  30.832  15.468  1.00  0.00    -0.132 NA
ATOM     36  N   UNL     1      24.529  31.795  15.511  1.00  0.00    -0.248 N 
ATOM     37  N   UNL     1      25.727  31.794  14.945  1.00  0.00    -0.067 NA
BRANCH  36  38
ATOM     38  C   UNL     1      23.401  32.656  15.252  1.00  0.00     0.177 C 
BRANCH  38  39
ATOM     39  C   UNL     1      22.256  31.882  14.656  1.00  0.00    -0.049 C 
ATOM     40  C   UNL     1      21.092  31.772  15.289  1.00  0.00    -0.025 C 
ATOM     41  C   UNL     1      22.385  31.215  13.345  1.00  0.00     0.023 C 
ATOM     42  C   UNL     1      19.929  31.211  14.550  1.00  0.00     0.031 C 
ATOM     43  C   UNL     1      21.203  31.711  12.500  1.00  0.00     0.013 C 
ATOM     44  C   UNL     1      21.676  29.876  13.394  1.00  0.00    -0.026 C 
ATOM     45  C   UNL     1      20.370  30.668  13.226  1.00  0.00    -0.000 C 
ATOM     46  C   UNL     1      21.911  29.017  12.183  1.00  0.00     0.012 C 
ATOM     47  C   UNL     1      21.792  29.122  14.674  1.00  0.00     0.012 C 
ENDBRANCH  38  39
ENDBRANCH  36  38
ENDBRANCH  32  33
ENDBRANCH  31  32
ENDBRANCH   2  31
TORSDOF 16
BEGIN_RES LYS A 131
REMARK  4 active torsions:
REMARK  status: ('A' for Active; 'I' for Inactive)
REMARK    1  A    between atoms: CA   and  CB  
REMARK    2  A    between atoms: CB   and  CG  
REMARK    3  A    between atoms: CG   and  CD  
REMARK    4  A    between atoms: CD   and  CE  
ROOT
ATOM      1  CA  LYS A 131      29.867  25.555  16.977  1.00 20.52     0.186 C 
ENDROOT
BRANCH   1   2
ATOM      2  CB  LYS A 131      28.345  25.722  17.026  1.00 20.94     0.034 C 
BRANCH   2   3
ATOM      3  CG  LYS A 131      27.601  24.402  16.894  1.00 22.96     0.005 C 
BRANCH   3   4
ATOM      4  CD  LYS A 131      26.196  24.488  17.422  1.00 24.33     0.041 C 
BRANCH   4   5
ATOM      5  CE  LYS A 131      26.167  25.395  18.648  1.00 26.91     0.338 C 
ATOM      6  NZ  LYS A 131      24.840  26.038  18.788  1.00 27.40     0.618 N 
ENDBRANCH   4   5
ENDBRANCH   3   4
ENDBRANCH   2   3
ENDBRANCH   1   2
END_RES LYS A 131
BEGIN_RES LYS A 135
REMARK  4 active torsions:
REMARK  status: ('A' for Active; 'I' for Inactive)
REMARK    5  A    between atoms: CA   and  CB  
REMARK    6  A    between atoms: CB   and  CG  
REMARK    7  A    between atoms: CG   and  CD  
REMARK    8  A    between atoms: CD   and  CE  
ROOT
ATOM      7  CA  LYS A 135      33.193  34.663   9.290  1.00 25.02     0.186 C 
ENDROOT
BRANCH   7   8
ATOM      8  CB  LYS A 135      32.060  35.360  10.034  1.00 26.63     0.034 C 
BRANCH   8   9
ATOM      9  CG  LYS A 135      30.788  35.465   9.233  1.00 29.45     0.005 C 
BRANCH   9  10
ATOM     10  CD  LYS A 135      30.102  34.111   9.135  1.00 32.00     0.041 C 
BRANCH  10  11
ATOM     11  CE  LYS A 135      28.662  34.274   8.688  1.00 34.25     0.338 C 
ATOM     12  NZ  LYS A 135      28.549  35.287   7.602  1.00 35.99     0.618 N 
ENDBRANCH  10  11
ENDBRANCH   9  10
ENDBRANCH   8   9
ENDBRANCH   7   8
END_RES LYS A 135
