REMARK VINA RESULT:    -4.777      3.079      6.724
REMARK INTER + INTRA:         -16.040
REMARK INTER:                 -10.170
REMARK INTRA:                  -5.870
REMARK UNBOUND:                -6.934
REMARK SMILES CC(=O)N[C@@H]1[C@@H](O)C[C@](O)(C(=O)O)O[C@H]1C(O)[C@H](O)CNC(=O)OCc1cn(C(C)CC(=O)c2ccccc2)nn1
REMARK SMILES IDX 21 1 22 2 23 3 20 5 18 6 16 7 15 8 9 9 8 10 14 11 6 12 5 13
REMARK SMILES IDX 10 14 11 16 12 17 13 18 7 20 4 22 2 23 1 25 3 26 17 27 19 29
REMARK SMILES IDX 24 31 25 32 26 33 27 34 41 35 28 36 40 37 29 38 30 39 31 40
REMARK SMILES IDX 32 41 33 42 34 43 35 44 39 45 36 46 38 47 37 48
REMARK H PARENT 21 4 10 15 13 19 7 21 4 24 17 28 19 30
REMARK Flexibility Score: inf
ROOT
ATOM      1  N   UNL     1      27.470  30.182  18.671  1.00  0.00    -0.319 N 
ATOM      2  C   UNL     1      27.238  28.858  18.198  1.00  0.00     0.407 C 
ATOM      3  O   UNL     1      27.819  27.912  18.762  1.00  0.00    -0.225 OA
ATOM      4  H   UNL     1      26.936  30.934  18.138  1.00  0.00     0.167 HD
ENDROOT
BRANCH   1   5
ATOM      5  C   UNL     1      28.345  30.515  19.773  1.00  0.00     0.154 C 
BRANCH   5   6
ATOM      6  C   UNL     1      29.733  30.885  19.301  1.00  0.00     0.165 C 
BRANCH   6   7
ATOM      7  C   UNL     1      29.709  31.533  17.933  1.00  0.00     0.176 C 
BRANCH   7   8
ATOM      8  C   UNL     1      30.343  32.892  17.914  1.00  0.00     0.178 C 
ATOM      9  C   UNL     1      28.580  34.412  17.751  1.00  0.00     0.269 C 
ATOM     10  C   UNL     1      28.952  34.789  16.338  1.00  0.00     0.112 C 
ATOM     11  O   UNL     1      29.582  33.868  18.497  1.00  0.00    -0.332 OA
ATOM     12  C   UNL     1      29.705  33.708  15.622  1.00  0.00     0.145 C 
ATOM     13  C   UNL     1      30.834  33.273  16.529  1.00  0.00     0.142 C 
BRANCH   9  14
ATOM     14  O   UNL     1      27.399  33.638  17.731  1.00  0.00    -0.357 OA
ATOM     15  H   UNL     1      26.947  33.630  18.596  1.00  0.00     0.214 HD
ENDBRANCH   9  14
BRANCH   9  16
ATOM     16  C   UNL     1      28.194  35.706  18.424  1.00  0.00     0.364 C 
ATOM     17  O   UNL     1      28.727  36.795  18.171  1.00  0.00    -0.246 OA
BRANCH  16  18
ATOM     18  O   UNL     1      27.166  35.589  19.375  1.00  0.00    -0.477 OA
ATOM     19  H   UNL     1      26.403  36.247  19.394  1.00  0.00     0.296 HD
ENDBRANCH  16  18
ENDBRANCH   9  16
BRANCH  12  20
ATOM     20  O   UNL     1      28.906  32.663  15.224  1.00  0.00    -0.391 OA
ATOM     21  H   UNL     1      28.271  32.432  15.943  1.00  0.00     0.211 HD
ENDBRANCH  12  20
BRANCH  13  22
ATOM     22  N   UNL     1      31.665  34.473  16.721  1.00  0.00    -0.348 N 
ATOM     23  C   UNL     1      32.646  34.797  15.743  1.00  0.00     0.217 C 
ATOM     24  H   UNL     1      31.560  35.091  17.547  1.00  0.00     0.163 HD
ATOM     25  C   UNL     1      33.475  36.011  15.952  1.00  0.00     0.114 C 
ATOM     26  O   UNL     1      32.774  34.052  14.747  1.00  0.00    -0.275 OA
ENDBRANCH  13  22
ENDBRANCH   7   8
BRANCH   7  27
ATOM     27  O   UNL     1      30.361  30.656  17.063  1.00  0.00    -0.388 OA
ATOM     28  H   UNL     1      31.081  30.174  17.569  1.00  0.00     0.211 HD
ENDBRANCH   7  27
ENDBRANCH   6   7
BRANCH   6  29
ATOM     29  O   UNL     1      30.527  29.720  19.272  1.00  0.00    -0.388 OA
ATOM     30  H   UNL     1      30.395  29.166  20.081  1.00  0.00     0.211 HD
ENDBRANCH   6  29
ENDBRANCH   5   6
ENDBRANCH   1   5
BRANCH   2  31
ATOM     31  O   UNL     1      26.398  28.580  17.144  1.00  0.00    -0.443 OA
BRANCH  31  32
ATOM     32  C   UNL     1      25.215  29.279  16.829  1.00  0.00     0.294 C 
BRANCH  32  33
ATOM     33  C   UNL     1      25.414  30.485  16.019  1.00  0.00     0.120 A 
ATOM     34  C   UNL     1      24.767  30.775  14.811  1.00  0.00     0.138 A 
ATOM     35  N   UNL     1      26.230  31.547  16.243  1.00  0.00    -0.132 NA
ATOM     36  N   UNL     1      25.199  31.944  14.380  1.00  0.00    -0.249 N 
ATOM     37  N   UNL     1      26.068  32.390  15.241  1.00  0.00    -0.067 NA
BRANCH  36  38
ATOM     38  C   UNL     1      24.750  32.616  13.119  1.00  0.00     0.114 C 
ATOM     39  C   UNL     1      23.250  32.480  13.144  1.00  0.00     0.034 C 
BRANCH  38  40
ATOM     40  C   UNL     1      25.205  33.997  13.194  1.00  0.00     0.108 C 
BRANCH  40  41
ATOM     41  C   UNL     1      26.271  34.462  12.364  1.00  0.00     0.164 C 
ATOM     42  O   UNL     1      27.301  34.931  13.075  1.00  0.00    -0.294 OA
BRANCH  41  43
ATOM     43  C   UNL     1      26.477  34.539  10.952  1.00  0.00     0.018 A 
ATOM     44  C   UNL     1      25.650  35.405  10.194  1.00  0.00     0.012 A 
ATOM     45  C   UNL     1      27.435  33.853  10.246  1.00  0.00     0.012 A 
ATOM     46  C   UNL     1      25.805  35.540   8.838  1.00  0.00     0.001 A 
ATOM     47  C   UNL     1      27.562  34.014   8.873  1.00  0.00     0.001 A 
ATOM     48  C   UNL     1      26.768  34.843   8.151  1.00  0.00     0.000 A 
ENDBRANCH  41  43
ENDBRANCH  40  41
ENDBRANCH  38  40
ENDBRANCH  36  38
ENDBRANCH  32  33
ENDBRANCH  31  32
ENDBRANCH   2  31
TORSDOF 18
BEGIN_RES LYS A 131
REMARK  4 active torsions:
REMARK  status: ('A' for Active; 'I' for Inactive)
REMARK    1  A    between atoms: CA   and  CB  
REMARK    2  A    between atoms: CB   and  CG  
REMARK    3  A    between atoms: CG   and  CD  
REMARK    4  A    between atoms: CD   and  CE  
ROOT
ATOM      1  CA  LYS A 131      29.867  25.555  16.977  1.00 20.52     0.186 C 
ENDROOT
BRANCH   1   2
ATOM      2  CB  LYS A 131      28.345  25.722  17.026  1.00 20.94     0.034 C 
BRANCH   2   3
ATOM      3  CG  LYS A 131      27.602  24.399  16.928  1.00 22.96     0.005 C 
BRANCH   3   4
ATOM      4  CD  LYS A 131      26.143  24.542  17.262  1.00 24.33     0.041 C 
BRANCH   4   5
ATOM      5  CE  LYS A 131      25.987  24.826  18.752  1.00 26.91     0.338 C 
ATOM      6  NZ  LYS A 131      25.038  25.944  18.971  1.00 27.40     0.618 N 
ENDBRANCH   4   5
ENDBRANCH   3   4
ENDBRANCH   2   3
ENDBRANCH   1   2
END_RES LYS A 131
BEGIN_RES LYS A 135
REMARK  4 active torsions:
REMARK  status: ('A' for Active; 'I' for Inactive)
REMARK    5  A    between atoms: CA   and  CB  
REMARK    6  A    between atoms: CB   and  CG  
REMARK    7  A    between atoms: CG   and  CD  
REMARK    8  A    between atoms: CD   and  CE  
ROOT
ATOM      7  CA  LYS A 135      33.193  34.663   9.290  1.00 25.02     0.186 C 
ENDROOT
BRANCH   7   8
ATOM      8  CB  LYS A 135      32.060  35.360  10.034  1.00 26.63     0.034 C 
BRANCH   8   9
ATOM      9  CG  LYS A 135      30.775  35.425   9.250  1.00 29.45     0.005 C 
BRANCH   9  10
ATOM     10  CD  LYS A 135      30.367  36.870   9.006  1.00 32.00     0.041 C 
BRANCH  10  11
ATOM     11  CE  LYS A 135      29.106  37.205   9.778  1.00 34.25     0.338 C 
ATOM     12  NZ  LYS A 135      29.285  36.953  11.235  1.00 35.99     0.618 N 
ENDBRANCH  10  11
ENDBRANCH   9  10
ENDBRANCH   8   9
ENDBRANCH   7   8
END_RES LYS A 135
