REMARK VINA RESULT:    -4.329      4.127      7.668
REMARK INTER + INTRA:         -14.248
REMARK INTER:                  -8.504
REMARK INTRA:                  -5.744
REMARK UNBOUND:                -5.744
REMARK SMILES CC(=O)N[C@@H]1[C@@H](O)C[C@](O)(C(=O)O)O[C@H]1C(O)[C@H](O)CNC(=O)OCc1cn([C@@H](CC(=O)O)C(=O)O)nn1
REMARK SMILES IDX 21 1 22 2 23 3 20 5 18 6 16 7 15 8 9 9 8 10 14 11 6 12 5 13
REMARK SMILES IDX 10 14 11 16 12 17 13 18 7 20 4 22 2 23 1 25 3 26 17 27 19 29
REMARK SMILES IDX 24 31 25 32 26 33 27 34 38 35 28 36 37 37 29 38 30 39 31 40
REMARK SMILES IDX 32 41 33 42 34 44 35 45 36 46
REMARK H PARENT 21 4 10 15 13 19 7 21 4 24 17 28 19 30 33 43 36 47
REMARK Flexibility Score: inf
ROOT
ATOM      1  N   UNL     1      32.358  30.122  21.768  1.00  0.00    -0.319 N 
ATOM      2  C   UNL     1      32.871  31.451  21.711  1.00  0.00     0.407 C 
ATOM      3  O   UNL     1      33.911  31.713  22.327  1.00  0.00    -0.225 OA
ATOM      4  H   UNL     1      31.470  29.974  21.219  1.00  0.00     0.167 HD
ENDROOT
BRANCH   1   5
ATOM      5  C   UNL     1      32.959  29.047  22.493  1.00  0.00     0.154 C 
BRANCH   5   6
ATOM      6  C   UNL     1      32.285  27.730  22.168  1.00  0.00     0.165 C 
BRANCH   6   7
ATOM      7  C   UNL     1      31.220  27.908  21.102  1.00  0.00     0.176 C 
BRANCH   7   8
ATOM      8  C   UNL     1      29.963  27.158  21.361  1.00  0.00     0.178 C 
ATOM      9  C   UNL     1      28.635  28.704  20.247  1.00  0.00     0.269 C 
ATOM     10  C   UNL     1      28.544  29.521  21.467  1.00  0.00     0.112 C 
ATOM     11  O   UNL     1      29.000  27.389  20.375  1.00  0.00    -0.332 OA
ATOM     12  C   UNL     1      28.842  28.891  22.770  1.00  0.00     0.145 C 
ATOM     13  C   UNL     1      29.359  27.482  22.699  1.00  0.00     0.142 C 
BRANCH   9  14
ATOM     14  O   UNL     1      29.558  29.265  19.327  1.00  0.00    -0.357 OA
ATOM     15  H   UNL     1      30.320  29.571  19.888  1.00  0.00     0.214 HD
ENDBRANCH   9  14
BRANCH   9  16
ATOM     16  C   UNL     1      27.343  28.707  19.507  1.00  0.00     0.364 C 
ATOM     17  O   UNL     1      27.015  29.574  18.664  1.00  0.00    -0.246 OA
BRANCH  16  18
ATOM     18  O   UNL     1      26.450  27.681  19.771  1.00  0.00    -0.477 OA
ATOM     19  H   UNL     1      25.709  27.769  20.478  1.00  0.00     0.296 HD
ENDBRANCH  16  18
ENDBRANCH   9  16
BRANCH  12  20
ATOM     20  O   UNL     1      29.730  29.676  23.500  1.00  0.00    -0.391 OA
ATOM     21  H   UNL     1      30.593  29.813  23.075  1.00  0.00     0.211 HD
ENDBRANCH  12  20
BRANCH  13  22
ATOM     22  N   UNL     1      28.258  26.524  22.962  1.00  0.00    -0.348 N 
ATOM     23  C   UNL     1      28.073  25.966  24.248  1.00  0.00     0.217 C 
ATOM     24  H   UNL     1      27.596  26.237  22.211  1.00  0.00     0.163 HD
ATOM     25  C   UNL     1      26.981  24.997  24.558  1.00  0.00     0.114 C 
ATOM     26  O   UNL     1      28.860  26.300  25.159  1.00  0.00    -0.275 OA
ENDBRANCH  13  22
ENDBRANCH   7   8
BRANCH   7  27
ATOM     27  O   UNL     1      31.851  27.386  19.936  1.00  0.00    -0.388 OA
ATOM     28  H   UNL     1      32.503  26.688  20.182  1.00  0.00     0.211 HD
ENDBRANCH   7  27
ENDBRANCH   6   7
BRANCH   6  29
ATOM     29  O   UNL     1      31.804  27.185  23.351  1.00  0.00    -0.388 OA
ATOM     30  H   UNL     1      31.125  27.750  23.796  1.00  0.00     0.211 HD
ENDBRANCH   6  29
ENDBRANCH   5   6
ENDBRANCH   1   5
BRANCH   2  31
ATOM     31  O   UNL     1      32.249  32.458  20.991  1.00  0.00    -0.443 OA
BRANCH  31  32
ATOM     32  C   UNL     1      30.848  32.481  20.877  1.00  0.00     0.294 C 
BRANCH  32  33
ATOM     33  C   UNL     1      30.391  32.609  19.472  1.00  0.00     0.120 A 
ATOM     34  C   UNL     1      31.035  33.398  18.549  1.00  0.00     0.139 A 
ATOM     35  N   UNL     1      29.359  32.049  18.844  1.00  0.00    -0.132 NA
ATOM     36  N   UNL     1      30.366  33.290  17.373  1.00  0.00    -0.237 N 
ATOM     37  N   UNL     1      29.373  32.477  17.593  1.00  0.00    -0.066 NA
BRANCH  36  38
ATOM     38  C   UNL     1      30.779  34.000  16.166  1.00  0.00     0.229 C 
BRANCH  38  39
ATOM     39  C   UNL     1      32.252  34.296  16.237  1.00  0.00     0.161 C 
BRANCH  39  40
ATOM     40  C   UNL     1      32.743  35.002  15.043  1.00  0.00     0.306 C 
ATOM     41  O   UNL     1      32.396  36.195  14.858  1.00  0.00    -0.252 OA
BRANCH  40  42
ATOM     42  O   UNL     1      33.573  34.336  14.154  1.00  0.00    -0.481 OA
ATOM     43  H   UNL     1      34.346  34.855  13.710  1.00  0.00     0.296 HD
ENDBRANCH  40  42
ENDBRANCH  39  40
ENDBRANCH  38  39
BRANCH  38  44
ATOM     44  C   UNL     1      30.569  33.098  15.000  1.00  0.00     0.329 C 
ATOM     45  O   UNL     1      29.877  33.400  13.996  1.00  0.00    -0.250 OA
BRANCH  44  46
ATOM     46  O   UNL     1      31.171  31.851  15.023  1.00  0.00    -0.480 OA
ATOM     47  H   UNL     1      30.727  31.037  15.432  1.00  0.00     0.296 HD
ENDBRANCH  44  46
ENDBRANCH  38  44
ENDBRANCH  36  38
ENDBRANCH  32  33
ENDBRANCH  31  32
ENDBRANCH   2  31
TORSDOF 20
BEGIN_RES LYS A 131
REMARK  4 active torsions:
REMARK  status: ('A' for Active; 'I' for Inactive)
REMARK    1  A    between atoms: CA   and  CB  
REMARK    2  A    between atoms: CB   and  CG  
REMARK    3  A    between atoms: CG   and  CD  
REMARK    4  A    between atoms: CD   and  CE  
ROOT
ATOM      1  CA  LYS A 131      29.867  25.555  16.977  1.00 20.52     0.186 C 
ENDROOT
BRANCH   1   2
ATOM      2  CB  LYS A 131      28.345  25.722  17.026  1.00 20.94     0.034 C 
BRANCH   2   3
ATOM      3  CG  LYS A 131      27.601  24.402  16.897  1.00 22.96     0.005 C 
BRANCH   3   4
ATOM      4  CD  LYS A 131      26.647  24.176  18.037  1.00 24.33     0.041 C 
BRANCH   4   5
ATOM      5  CE  LYS A 131      25.579  23.172  17.615  1.00 26.91     0.338 C 
ATOM      6  NZ  LYS A 131      24.457  23.862  16.935  1.00 27.40     0.618 N 
ENDBRANCH   4   5
ENDBRANCH   3   4
ENDBRANCH   2   3
ENDBRANCH   1   2
END_RES LYS A 131
BEGIN_RES LYS A 135
REMARK  4 active torsions:
REMARK  status: ('A' for Active; 'I' for Inactive)
REMARK    5  A    between atoms: CA   and  CB  
REMARK    6  A    between atoms: CB   and  CG  
REMARK    7  A    between atoms: CG   and  CD  
REMARK    8  A    between atoms: CD   and  CE  
ROOT
ATOM      7  CA  LYS A 135      33.193  34.663   9.290  1.00 25.02     0.186 C 
ENDROOT
BRANCH   7   8
ATOM      8  CB  LYS A 135      32.060  35.360  10.034  1.00 26.63     0.034 C 
BRANCH   8   9
ATOM      9  CG  LYS A 135      30.722  34.690   9.858  1.00 29.45     0.005 C 
BRANCH   9  10
ATOM     10  CD  LYS A 135      30.282  34.742   8.403  1.00 32.00     0.041 C 
BRANCH  10  11
ATOM     11  CE  LYS A 135      28.788  34.508   8.289  1.00 34.25     0.338 C 
ATOM     12  NZ  LYS A 135      28.258  33.828   9.504  1.00 35.99     0.618 N 
ENDBRANCH  10  11
ENDBRANCH   9  10
ENDBRANCH   8   9
ENDBRANCH   7   8
END_RES LYS A 135
