REMARK VINA RESULT:    -5.511      4.562      9.983
REMARK INTER + INTRA:         -17.608
REMARK INTER:                 -12.499
REMARK INTRA:                  -5.108
REMARK UNBOUND:                -6.299
REMARK SMILES CC(=O)N[C@@H]1[C@@H](O)C[C@](O)(C(=O)O)O[C@H]1C(O)[C@H](O)CNC(=O)OCc1cn(C[C@@H](C(=O)O)C(c2ccccc2)c2ccccc2)nn1
REMARK SMILES IDX 21 1 22 2 23 3 20 5 18 6 16 7 15 8 9 9 8 10 14 11 6 12 5 13
REMARK SMILES IDX 10 14 11 16 12 17 13 18 7 20 4 22 2 23 1 25 3 26 17 27 19 29
REMARK SMILES IDX 24 31 25 32 26 33 27 34 48 35 28 36 47 37 29 38 30 39 31 40
REMARK SMILES IDX 32 41 33 42 34 44 35 45 36 46 40 47 37 48 39 49 38 50 41 51
REMARK SMILES IDX 42 52 46 53 43 54 45 55 44 56
REMARK H PARENT 21 4 10 15 13 19 7 21 4 24 17 28 19 30 33 43
REMARK Flexibility Score: inf
ROOT
ATOM      1  N   UNL     1      24.685  35.785  11.033  1.00  0.00    -0.319 N 
ATOM      2  C   UNL     1      24.453  34.622  11.812  1.00  0.00     0.407 C 
ATOM      3  O   UNL     1      23.267  34.222  12.001  1.00  0.00    -0.225 OA
ATOM      4  H   UNL     1      25.707  36.054  10.922  1.00  0.00     0.167 HD
ENDROOT
BRANCH   1   5
ATOM      5  C   UNL     1      23.631  36.560  10.424  1.00  0.00     0.154 C 
BRANCH   5   6
ATOM      6  C   UNL     1      23.373  36.160   8.971  1.00  0.00     0.165 C 
BRANCH   6   7
ATOM      7  C   UNL     1      22.589  37.281   8.360  1.00  0.00     0.176 C 
BRANCH   7   8
ATOM      8  C   UNL     1      21.148  37.305   8.785  1.00  0.00     0.178 C 
ATOM      9  C   UNL     1      19.065  36.634   8.019  1.00  0.00     0.269 C 
ATOM     10  C   UNL     1      18.515  37.356   9.222  1.00  0.00     0.112 C 
ATOM     11  O   UNL     1      20.415  36.421   8.042  1.00  0.00    -0.332 OA
ATOM     12  C   UNL     1      19.249  38.612   9.544  1.00  0.00     0.145 C 
ATOM     13  C   UNL     1      20.525  38.678   8.705  1.00  0.00     0.142 C 
BRANCH   9  14
ATOM     14  O   UNL     1      18.688  37.358   6.882  1.00  0.00    -0.357 OA
ATOM     15  H   UNL     1      19.362  38.058   6.666  1.00  0.00     0.214 HD
ENDBRANCH   9  14
BRANCH   9  16
ATOM     16  C   UNL     1      18.390  35.315   7.959  1.00  0.00     0.364 C 
ATOM     17  O   UNL     1      19.038  34.280   8.250  1.00  0.00    -0.246 OA
BRANCH  16  18
ATOM     18  O   UNL     1      17.067  35.190   7.593  1.00  0.00    -0.477 OA
ATOM     19  H   UNL     1      16.383  34.828   8.271  1.00  0.00     0.296 HD
ENDBRANCH  16  18
ENDBRANCH   9  16
BRANCH  12  20
ATOM     20  O   UNL     1      18.505  39.762   9.459  1.00  0.00    -0.391 OA
ATOM     21  H   UNL     1      18.013  39.931  10.305  1.00  0.00     0.211 HD
ENDBRANCH  12  20
BRANCH  13  22
ATOM     22  N   UNL     1      21.418  39.693   9.246  1.00  0.00    -0.348 N 
ATOM     23  C   UNL     1      21.434  40.971   8.640  1.00  0.00     0.217 C 
ATOM     24  H   UNL     1      22.014  39.457  10.054  1.00  0.00     0.163 HD
ATOM     25  C   UNL     1      22.321  42.040   9.148  1.00  0.00     0.114 C 
ATOM     26  O   UNL     1      20.693  41.220   7.657  1.00  0.00    -0.275 OA
ENDBRANCH  13  22
ENDBRANCH   7   8
BRANCH   7  27
ATOM     27  O   UNL     1      22.764  37.307   6.992  1.00  0.00    -0.388 OA
ATOM     28  H   UNL     1      23.655  36.957   6.707  1.00  0.00     0.211 HD
ENDBRANCH   7  27
ENDBRANCH   6   7
BRANCH   6  29
ATOM     29  O   UNL     1      22.606  34.983   9.029  1.00  0.00    -0.388 OA
ATOM     30  H   UNL     1      22.851  34.572   9.912  1.00  0.00     0.211 HD
ENDBRANCH   6  29
ENDBRANCH   5   6
ENDBRANCH   1   5
BRANCH   2  31
ATOM     31  O   UNL     1      25.495  33.912  12.373  1.00  0.00    -0.443 OA
BRANCH  31  32
ATOM     32  C   UNL     1      26.121  34.338  13.590  1.00  0.00     0.294 C 
BRANCH  32  33
ATOM     33  C   UNL     1      27.420  34.989  13.311  1.00  0.00     0.120 A 
ATOM     34  C   UNL     1      28.508  35.037  14.197  1.00  0.00     0.138 A 
ATOM     35  N   UNL     1      27.850  35.645  12.227  1.00  0.00    -0.132 NA
ATOM     36  N   UNL     1      29.524  35.695  13.640  1.00  0.00    -0.251 N 
ATOM     37  N   UNL     1      29.090  36.063  12.413  1.00  0.00    -0.067 NA
BRANCH  36  38
ATOM     38  C   UNL     1      30.852  36.015  14.080  1.00  0.00     0.162 C 
BRANCH  38  39
ATOM     39  C   UNL     1      31.896  34.971  13.868  1.00  0.00     0.132 C 
BRANCH  39  40
ATOM     40  C   UNL     1      32.847  35.367  12.829  1.00  0.00     0.309 C 
ATOM     41  O   UNL     1      32.717  36.322  12.044  1.00  0.00    -0.252 OA
BRANCH  40  42
ATOM     42  O   UNL     1      34.038  34.628  12.664  1.00  0.00    -0.481 OA
ATOM     43  H   UNL     1      34.550  34.713  11.781  1.00  0.00     0.296 HD
ENDBRANCH  40  42
ENDBRANCH  39  40
BRANCH  39  44
ATOM     44  C   UNL     1      32.588  34.587  15.165  1.00  0.00     0.065 C 
BRANCH  44  45
ATOM     45  C   UNL     1      31.786  33.614  15.943  1.00  0.00    -0.040 A 
ATOM     46  C   UNL     1      31.552  33.791  17.311  1.00  0.00     0.004 A 
ATOM     47  C   UNL     1      31.231  32.490  15.361  1.00  0.00     0.004 A 
ATOM     48  C   UNL     1      30.806  32.887  18.035  1.00  0.00     0.000 A 
ATOM     49  C   UNL     1      30.486  31.581  16.066  1.00  0.00     0.000 A 
ATOM     50  C   UNL     1      30.263  31.765  17.407  1.00  0.00     0.000 A 
ENDBRANCH  44  45
BRANCH  44  51
ATOM     51  C   UNL     1      32.905  35.730  16.027  1.00  0.00    -0.040 A 
ATOM     52  C   UNL     1      34.258  36.033  16.231  1.00  0.00     0.004 A 
ATOM     53  C   UNL     1      31.955  36.516  16.643  1.00  0.00     0.004 A 
ATOM     54  C   UNL     1      34.595  37.098  17.032  1.00  0.00     0.000 A 
ATOM     55  C   UNL     1      32.291  37.583  17.446  1.00  0.00     0.000 A 
ATOM     56  C   UNL     1      33.631  37.891  17.653  1.00  0.00     0.000 A 
ENDBRANCH  44  51
ENDBRANCH  39  44
ENDBRANCH  38  39
ENDBRANCH  36  38
ENDBRANCH  32  33
ENDBRANCH  31  32
ENDBRANCH   2  31
TORSDOF 21
BEGIN_RES LYS A 131
REMARK  4 active torsions:
REMARK  status: ('A' for Active; 'I' for Inactive)
REMARK    1  A    between atoms: CA   and  CB  
REMARK    2  A    between atoms: CB   and  CG  
REMARK    3  A    between atoms: CG   and  CD  
REMARK    4  A    between atoms: CD   and  CE  
ROOT
ATOM      1  CA  LYS A 131      29.867  25.555  16.977  1.00 20.52     0.186 C 
ENDROOT
BRANCH   1   2
ATOM      2  CB  LYS A 131      28.345  25.722  17.026  1.00 20.94     0.034 C 
BRANCH   2   3
ATOM      3  CG  LYS A 131      27.601  24.403  16.886  1.00 22.96     0.005 C 
BRANCH   3   4
ATOM      4  CD  LYS A 131      26.514  24.254  17.914  1.00 24.33     0.041 C 
BRANCH   4   5
ATOM      5  CE  LYS A 131      25.153  24.334  17.230  1.00 26.91     0.338 C 
ATOM      6  NZ  LYS A 131      24.505  23.002  17.206  1.00 27.40     0.618 N 
ENDBRANCH   4   5
ENDBRANCH   3   4
ENDBRANCH   2   3
ENDBRANCH   1   2
END_RES LYS A 131
BEGIN_RES LYS A 135
REMARK  4 active torsions:
REMARK  status: ('A' for Active; 'I' for Inactive)
REMARK    5  A    between atoms: CA   and  CB  
REMARK    6  A    between atoms: CB   and  CG  
REMARK    7  A    between atoms: CG   and  CD  
REMARK    8  A    between atoms: CD   and  CE  
ROOT
ATOM      7  CA  LYS A 135      33.193  34.663   9.290  1.00 25.02     0.186 C 
ENDROOT
BRANCH   7   8
ATOM      8  CB  LYS A 135      32.060  35.360  10.034  1.00 26.63     0.034 C 
BRANCH   8   9
ATOM      9  CG  LYS A 135      30.819  35.551   9.200  1.00 29.45     0.005 C 
BRANCH   9  10
ATOM     10  CD  LYS A 135      30.135  34.217   8.944  1.00 32.00     0.041 C 
BRANCH  10  11
ATOM     11  CE  LYS A 135      28.687  34.429   8.547  1.00 34.25     0.338 C 
ATOM     12  NZ  LYS A 135      27.769  33.670   9.440  1.00 35.99     0.618 N 
ENDBRANCH  10  11
ENDBRANCH   9  10
ENDBRANCH   8   9
ENDBRANCH   7   8
END_RES LYS A 135
