REMARK VINA RESULT:    -5.074      3.481      7.159
REMARK INTER + INTRA:         -14.577
REMARK INTER:                  -8.363
REMARK INTRA:                  -6.214
REMARK UNBOUND:                -5.796
REMARK SMILES CC(=O)N[C@@H]1[C@@H](O)C[C@](O)(C(=O)O)O[C@H]1C(O)[C@H](O)CNC(=O)OCc1cn(C2CCCCC2)nn1
REMARK SMILES IDX 20 1 18 2 16 3 15 4 9 5 8 6 14 7 6 8 5 9 10 10 11 12 12 13
REMARK SMILES IDX 13 14 7 16 4 18 2 19 1 21 3 22 17 23 19 25 21 27 22 28 23 30
REMARK SMILES IDX 24 31 25 32 26 33 27 34 36 35 28 36 35 37 29 38 30 39 34 40
REMARK SMILES IDX 31 41 33 42 32 43
REMARK H PARENT 10 11 13 15 7 17 4 20 17 24 19 26 21 29
REMARK Flexibility Score: inf
ROOT
ATOM      1  C   UNL     1      31.005  32.166  15.847  1.00  0.00     0.154 C 
ENDROOT
BRANCH   1   2
ATOM      2  C   UNL     1      30.028  31.079  16.270  1.00  0.00     0.165 C 
BRANCH   2   3
ATOM      3  C   UNL     1      28.649  31.644  16.122  1.00  0.00     0.176 C 
BRANCH   3   4
ATOM      4  C   UNL     1      27.528  30.639  16.273  1.00  0.00     0.178 C 
ATOM      5  C   UNL     1      25.574  31.446  15.237  1.00  0.00     0.269 C 
ATOM      6  C   UNL     1      24.745  31.115  16.466  1.00  0.00     0.112 C 
ATOM      7  O   UNL     1      26.666  30.645  15.211  1.00  0.00    -0.332 OA
ATOM      8  C   UNL     1      25.554  31.271  17.727  1.00  0.00     0.145 C 
ATOM      9  C   UNL     1      26.903  30.590  17.624  1.00  0.00     0.142 C 
BRANCH   5  10
ATOM     10  O   UNL     1      25.829  32.815  15.167  1.00  0.00    -0.357 OA
ATOM     11  H   UNL     1      24.982  33.298  15.426  1.00  0.00     0.214 HD
ENDBRANCH   5  10
BRANCH   5  12
ATOM     12  C   UNL     1      24.716  31.081  14.076  1.00  0.00     0.364 C 
ATOM     13  O   UNL     1      24.337  29.897  13.927  1.00  0.00    -0.246 OA
BRANCH  12  14
ATOM     14  O   UNL     1      24.344  32.038  13.177  1.00  0.00    -0.477 OA
ATOM     15  H   UNL     1      24.949  32.773  12.834  1.00  0.00     0.296 HD
ENDBRANCH  12  14
ENDBRANCH   5  12
BRANCH   8  16
ATOM     16  O   UNL     1      25.676  32.608  18.081  1.00  0.00    -0.391 OA
ATOM     17  H   UNL     1      24.816  32.945  18.433  1.00  0.00     0.211 HD
ENDBRANCH   8  16
BRANCH   9  18
ATOM     18  N   UNL     1      26.777  29.211  18.100  1.00  0.00    -0.348 N 
ATOM     19  C   UNL     1      27.687  28.750  19.075  1.00  0.00     0.217 C 
ATOM     20  H   UNL     1      26.041  28.573  17.739  1.00  0.00     0.163 HD
ATOM     21  C   UNL     1      27.639  27.359  19.623  1.00  0.00     0.114 C 
ATOM     22  O   UNL     1      28.607  29.486  19.553  1.00  0.00    -0.275 OA
ENDBRANCH   9  18
ENDBRANCH   3   4
BRANCH   3  23
ATOM     23  O   UNL     1      28.469  32.827  16.789  1.00  0.00    -0.388 OA
ATOM     24  H   UNL     1      29.199  33.021  17.459  1.00  0.00     0.211 HD
ENDBRANCH   3  23
ENDBRANCH   2   3
BRANCH   2  25
ATOM     25  O   UNL     1      30.370  30.675  17.538  1.00  0.00    -0.388 OA
ATOM     26  H   UNL     1      30.805  31.405  18.005  1.00  0.00     0.211 HD
ENDBRANCH   2  25
ENDBRANCH   1   2
BRANCH   1  27
ATOM     27  N   UNL     1      30.549  32.718  14.593  1.00  0.00    -0.319 N 
ATOM     28  C   UNL     1      30.987  33.943  14.032  1.00  0.00     0.407 C 
ATOM     29  H   UNL     1      29.826  32.198  14.006  1.00  0.00     0.167 HD
ATOM     30  O   UNL     1      31.836  34.633  14.646  1.00  0.00    -0.225 OA
BRANCH  28  31
ATOM     31  O   UNL     1      30.496  34.401  12.813  1.00  0.00    -0.443 OA
BRANCH  31  32
ATOM     32  C   UNL     1      29.842  35.644  12.748  1.00  0.00     0.294 C 
BRANCH  32  33
ATOM     33  C   UNL     1      28.379  35.396  12.663  1.00  0.00     0.120 A 
ATOM     34  C   UNL     1      27.451  36.159  11.942  1.00  0.00     0.138 A 
ATOM     35  N   UNL     1      27.629  34.432  13.230  1.00  0.00    -0.132 NA
ATOM     36  N   UNL     1      26.222  35.638  12.101  1.00  0.00    -0.249 N 
ATOM     37  N   UNL     1      26.363  34.588  12.891  1.00  0.00    -0.067 NA
BRANCH  36  38
ATOM     38  C   UNL     1      24.983  36.134  11.518  1.00  0.00     0.109 C 
ATOM     39  C   UNL     1      25.246  36.575  10.095  1.00  0.00     0.027 C 
ATOM     40  C   UNL     1      23.951  35.030  11.484  1.00  0.00     0.027 C 
ATOM     41  C   UNL     1      24.715  35.568   9.092  1.00  0.00     0.002 C 
ATOM     42  C   UNL     1      22.787  35.543  10.654  1.00  0.00     0.002 C 
ATOM     43  C   UNL     1      23.217  35.477   9.202  1.00  0.00     0.000 C 
ENDBRANCH  36  38
ENDBRANCH  32  33
ENDBRANCH  31  32
ENDBRANCH  28  31
ENDBRANCH   1  27
TORSDOF 15
BEGIN_RES LYS A 131
REMARK  4 active torsions:
REMARK  status: ('A' for Active; 'I' for Inactive)
REMARK    1  A    between atoms: CA   and  CB  
REMARK    2  A    between atoms: CB   and  CG  
REMARK    3  A    between atoms: CG   and  CD  
REMARK    4  A    between atoms: CD   and  CE  
ROOT
ATOM      1  CA  LYS A 131      29.867  25.555  16.977  1.00 20.52     0.186 C 
ENDROOT
BRANCH   1   2
ATOM      2  CB  LYS A 131      28.345  25.722  17.026  1.00 20.94     0.034 C 
BRANCH   2   3
ATOM      3  CG  LYS A 131      27.600  24.414  16.808  1.00 22.96     0.005 C 
BRANCH   3   4
ATOM      4  CD  LYS A 131      26.560  24.171  17.867  1.00 24.33     0.041 C 
BRANCH   4   5
ATOM      5  CE  LYS A 131      25.185  24.546  17.325  1.00 26.91     0.338 C 
ATOM      6  NZ  LYS A 131      24.779  25.883  17.818  1.00 27.40     0.618 N 
ENDBRANCH   4   5
ENDBRANCH   3   4
ENDBRANCH   2   3
ENDBRANCH   1   2
END_RES LYS A 131
BEGIN_RES LYS A 135
REMARK  4 active torsions:
REMARK  status: ('A' for Active; 'I' for Inactive)
REMARK    5  A    between atoms: CA   and  CB  
REMARK    6  A    between atoms: CB   and  CG  
REMARK    7  A    between atoms: CG   and  CD  
REMARK    8  A    between atoms: CD   and  CE  
ROOT
ATOM      7  CA  LYS A 135      33.193  34.663   9.290  1.00 25.02     0.186 C 
ENDROOT
BRANCH   7   8
ATOM      8  CB  LYS A 135      32.060  35.360  10.034  1.00 26.63     0.034 C 
BRANCH   8   9
ATOM      9  CG  LYS A 135      30.767  35.400   9.261  1.00 29.45     0.005 C 
BRANCH   9  10
ATOM     10  CD  LYS A 135      30.150  34.013   9.175  1.00 32.00     0.041 C 
BRANCH  10  11
ATOM     11  CE  LYS A 135      28.636  34.101   9.192  1.00 34.25     0.338 C 
ATOM     12  NZ  LYS A 135      28.125  34.785   7.972  1.00 35.99     0.618 N 
ENDBRANCH  10  11
ENDBRANCH   9  10
ENDBRANCH   8   9
ENDBRANCH   7   8
END_RES LYS A 135
