REMARK VINA RESULT:    -5.593      5.431      8.632
REMARK INTER + INTRA:         -18.215
REMARK INTER:                 -10.823
REMARK INTRA:                  -7.392
REMARK UNBOUND:                -7.717
REMARK SMILES CC(=O)N[C@@H]1[C@@H](O)C[C@](O)(C(=O)O)O[C@H]1C(O)[C@H](O)CNC(=O)OCc1cn(-c2ccc(-c3c4ccc(=O)cc-4oc4cc(O)ccc34)c(C(=O)[O-])c2)nn1
REMARK SMILES IDX 21 1 22 2 23 3 20 5 18 6 16 7 15 8 9 9 8 10 14 11 6 12 5 13
REMARK SMILES IDX 10 14 11 16 12 17 13 18 7 20 4 22 2 23 1 25 3 26 17 27 19 29
REMARK SMILES IDX 24 31 25 32 26 33 27 34 55 35 28 36 54 37 29 38 53 39 30 40
REMARK SMILES IDX 49 41 31 42 32 43 50 44 51 45 52 46 33 47 48 48 34 49 47 50
REMARK SMILES IDX 42 51 40 52 35 53 46 54 43 55 41 56 39 57 36 58 44 59 37 60
REMARK SMILES IDX 38 61 45 62
REMARK H PARENT 21 4 10 15 13 19 7 21 4 24 17 28 19 30 45 63
REMARK Flexibility Score: inf
ROOT
ATOM      1  N   UNL     1      33.383  41.167   7.605  1.00  0.00    -0.319 N 
ATOM      2  C   UNL     1      32.835  42.044   8.603  1.00  0.00     0.407 C 
ATOM      3  O   UNL     1      32.013  42.913   8.204  1.00  0.00    -0.225 OA
ATOM      4  H   UNL     1      34.064  40.434   7.877  1.00  0.00     0.167 HD
ENDROOT
BRANCH   1   5
ATOM      5  C   UNL     1      33.004  41.285   6.218  1.00  0.00     0.154 C 
BRANCH   5   6
ATOM      6  C   UNL     1      31.936  40.286   5.914  1.00  0.00     0.165 C 
BRANCH   6   7
ATOM      7  C   UNL     1      30.549  40.926   5.877  1.00  0.00     0.176 C 
BRANCH   7   8
ATOM      8  C   UNL     1      29.641  40.285   6.915  1.00  0.00     0.178 C 
ATOM      9  C   UNL     1      28.003  38.795   6.192  1.00  0.00     0.269 C 
ATOM     10  C   UNL     1      27.156  39.035   7.423  1.00  0.00     0.112 C 
ATOM     11  O   UNL     1      29.324  39.031   6.476  1.00  0.00    -0.332 OA
ATOM     12  C   UNL     1      27.365  40.407   7.952  1.00  0.00     0.145 C 
ATOM     13  C   UNL     1      28.489  41.155   7.279  1.00  0.00     0.142 C 
BRANCH   9  14
ATOM     14  O   UNL     1      27.491  39.562   5.177  1.00  0.00    -0.357 OA
ATOM     15  H   UNL     1      26.550  39.794   5.276  1.00  0.00     0.214 HD
ENDBRANCH   9  14
BRANCH   9  16
ATOM     16  C   UNL     1      27.863  37.359   5.849  1.00  0.00     0.364 C 
ATOM     17  O   UNL     1      28.886  36.640   5.731  1.00  0.00    -0.246 OA
BRANCH  16  18
ATOM     18  O   UNL     1      26.637  36.748   5.644  1.00  0.00    -0.477 OA
ATOM     19  H   UNL     1      25.753  37.207   5.913  1.00  0.00     0.296 HD
ENDBRANCH  16  18
ENDBRANCH   9  16
BRANCH  12  20
ATOM     20  O   UNL     1      26.215  41.185   7.856  1.00  0.00    -0.391 OA
ATOM     21  H   UNL     1      25.875  41.495   8.725  1.00  0.00     0.211 HD
ENDBRANCH  12  20
BRANCH  13  22
ATOM     22  N   UNL     1      28.916  42.185   8.237  1.00  0.00    -0.348 N 
ATOM     23  C   UNL     1      28.508  43.529   8.166  1.00  0.00     0.217 C 
ATOM     24  H   UNL     1      29.556  41.878   9.004  1.00  0.00     0.163 HD
ATOM     25  C   UNL     1      28.981  44.508   9.170  1.00  0.00     0.114 C 
ATOM     26  O   UNL     1      27.725  43.841   7.209  1.00  0.00    -0.275 OA
ENDBRANCH  13  22
ENDBRANCH   7   8
BRANCH   7  27
ATOM     27  O   UNL     1      30.063  40.707   4.583  1.00  0.00    -0.388 OA
ATOM     28  H   UNL     1      29.916  41.605   4.182  1.00  0.00     0.211 HD
ENDBRANCH   7  27
ENDBRANCH   6   7
BRANCH   6  29
ATOM     29  O   UNL     1      31.960  39.212   6.800  1.00  0.00    -0.388 OA
ATOM     30  H   UNL     1      32.870  38.856   6.938  1.00  0.00     0.211 HD
ENDBRANCH   6  29
ENDBRANCH   5   6
ENDBRANCH   1   5
BRANCH   2  31
ATOM     31  O   UNL     1      33.161  41.971   9.924  1.00  0.00    -0.443 OA
BRANCH  31  32
ATOM     32  C   UNL     1      32.226  41.567  10.896  1.00  0.00     0.294 C 
BRANCH  32  33
ATOM     33  C   UNL     1      31.632  40.281  10.482  1.00  0.00     0.121 A 
ATOM     34  C   UNL     1      30.323  39.848  10.705  1.00  0.00     0.144 A 
ATOM     35  N   UNL     1      32.228  39.276   9.823  1.00  0.00    -0.131 NA
ATOM     36  N   UNL     1      30.179  38.618  10.179  1.00  0.00    -0.220 N 
ATOM     37  N   UNL     1      31.344  38.301   9.655  1.00  0.00    -0.062 NA
BRANCH  36  38
ATOM     38  C   UNL     1      28.970  37.876  10.231  1.00  0.00     0.067 A 
ATOM     39  C   UNL     1      28.757  36.684   9.606  1.00  0.00     0.039 A 
ATOM     40  C   UNL     1      27.914  38.406  10.977  1.00  0.00     0.029 A 
ATOM     41  C   UNL     1      27.552  35.992   9.684  1.00  0.00     0.007 A 
ATOM     42  C   UNL     1      26.720  37.745  11.069  1.00  0.00     0.012 A 
ATOM     43  C   UNL     1      26.537  36.526  10.416  1.00  0.00    -0.008 A 
BRANCH  41  44
ATOM     44  C   UNL     1      27.361  34.715   9.000  1.00  0.00     0.072 C 
ATOM     45  O   UNL     1      26.894  34.665   7.818  1.00  0.00    -0.545 OA
ATOM     46  O   UNL     1      27.684  33.540   9.623  1.00  0.00    -0.545 OA
ENDBRANCH  41  44
BRANCH  43  47
ATOM     47  C   UNL     1      25.233  35.903  10.574  1.00  0.00     0.004 A 
ATOM     48  C   UNL     1      24.169  36.097   9.721  1.00  0.00     0.026 A 
ATOM     49  C   UNL     1      25.037  35.054  11.651  1.00  0.00     0.026 A 
ATOM     50  C   UNL     1      24.325  36.938   8.636  1.00  0.00     0.016 A 
ATOM     51  C   UNL     1      22.945  35.470   9.925  1.00  0.00     0.139 A 
ATOM     52  C   UNL     1      23.738  34.421  11.821  1.00  0.00     0.139 A 
ATOM     53  C   UNL     1      26.035  34.793  12.562  1.00  0.00     0.016 A 
ATOM     54  C   UNL     1      23.283  37.164   7.748  1.00  0.00     0.047 A 
ATOM     55  C   UNL     1      21.893  35.674   9.062  1.00  0.00     0.093 A 
ATOM     56  O   UNL     1      22.766  34.667  10.946  1.00  0.00    -0.456 OA
ATOM     57  C   UNL     1      23.535  33.583  12.877  1.00  0.00     0.099 A 
ATOM     58  C   UNL     1      25.782  33.946  13.604  1.00  0.00     0.053 A 
ATOM     59  C   UNL     1      22.080  36.527   7.977  1.00  0.00     0.119 A 
ATOM     60  C   UNL     1      24.549  33.336  13.777  1.00  0.00     0.182 A 
ATOM     61  O   UNL     1      24.367  32.562  14.754  1.00  0.00    -0.290 OA
BRANCH  59  62
ATOM     62  O   UNL     1      21.034  36.748   7.097  1.00  0.00    -0.508 OA
ATOM     63  H   UNL     1      20.079  36.508   7.285  1.00  0.00     0.293 HD
ENDBRANCH  59  62
ENDBRANCH  43  47
ENDBRANCH  36  38
ENDBRANCH  32  33
ENDBRANCH  31  32
ENDBRANCH   2  31
TORSDOF 18
BEGIN_RES LYS A 131
REMARK  4 active torsions:
REMARK  status: ('A' for Active; 'I' for Inactive)
REMARK    1  A    between atoms: CA   and  CB  
REMARK    2  A    between atoms: CB   and  CG  
REMARK    3  A    between atoms: CG   and  CD  
REMARK    4  A    between atoms: CD   and  CE  
ROOT
ATOM      1  CA  LYS A 131      29.867  25.555  16.977  1.00 20.52     0.186 C 
ENDROOT
BRANCH   1   2
ATOM      2  CB  LYS A 131      28.345  25.722  17.026  1.00 20.94     0.034 C 
BRANCH   2   3
ATOM      3  CG  LYS A 131      27.601  24.404  16.878  1.00 22.96     0.005 C 
BRANCH   3   4
ATOM      4  CD  LYS A 131      26.193  24.487  17.398  1.00 24.33     0.041 C 
BRANCH   4   5
ATOM      5  CE  LYS A 131      26.167  25.337  18.664  1.00 26.91     0.338 C 
ATOM      6  NZ  LYS A 131      24.799  25.846  18.919  1.00 27.40     0.618 N 
ENDBRANCH   4   5
ENDBRANCH   3   4
ENDBRANCH   2   3
ENDBRANCH   1   2
END_RES LYS A 131
BEGIN_RES LYS A 135
REMARK  4 active torsions:
REMARK  status: ('A' for Active; 'I' for Inactive)
REMARK    5  A    between atoms: CA   and  CB  
REMARK    6  A    between atoms: CB   and  CG  
REMARK    7  A    between atoms: CG   and  CD  
REMARK    8  A    between atoms: CD   and  CE  
ROOT
ATOM      7  CA  LYS A 135      33.193  34.663   9.290  1.00 25.02     0.186 C 
ENDROOT
BRANCH   7   8
ATOM      8  CB  LYS A 135      32.060  35.360  10.034  1.00 26.63     0.034 C 
BRANCH   8   9
ATOM      9  CG  LYS A 135      31.144  34.411  10.762  1.00 29.45     0.005 C 
BRANCH   9  10
ATOM     10  CD  LYS A 135      31.056  34.775  12.237  1.00 32.00     0.041 C 
BRANCH  10  11
ATOM     11  CE  LYS A 135      29.612  34.775  12.700  1.00 34.25     0.338 C 
ATOM     12  NZ  LYS A 135      29.268  36.053  13.384  1.00 35.99     0.618 N 
ENDBRANCH  10  11
ENDBRANCH   9  10
ENDBRANCH   8   9
ENDBRANCH   7   8
END_RES LYS A 135
