REMARK VINA RESULT:    -4.066      3.805      8.801
REMARK INTER + INTRA:         -14.511
REMARK INTER:                  -9.922
REMARK INTRA:                  -4.590
REMARK UNBOUND:                -7.237
REMARK SMILES CC(=O)N[C@@H]1[C@@H](O)C[C@](O)(C(=O)O)O[C@H]1C(O)[C@H](O)CNC(=O)OCc1cn(-c2ccccc2C(C)C)nn1
REMARK SMILES IDX 21 1 22 2 23 3 20 5 18 6 16 7 15 8 9 9 8 10 14 11 6 12 5 13
REMARK SMILES IDX 10 14 11 16 12 17 13 18 7 20 4 22 2 23 1 25 3 26 17 27 19 29
REMARK SMILES IDX 24 31 25 32 26 33 27 34 39 35 28 36 38 37 29 38 34 39 30 40
REMARK SMILES IDX 33 41 31 42 32 43 35 44 36 45 37 46
REMARK H PARENT 21 4 10 15 13 19 7 21 4 24 17 28 19 30
REMARK Flexibility Score: inf
ROOT
ATOM      1  N   UNL     1      24.333  34.408  14.318  1.00  0.00    -0.319 N 
ATOM      2  C   UNL     1      23.726  33.320  13.662  1.00  0.00     0.407 C 
ATOM      3  O   UNL     1      23.652  32.197  14.201  1.00  0.00    -0.225 OA
ATOM      4  H   UNL     1      24.355  35.337  13.818  1.00  0.00     0.167 HD
ENDROOT
BRANCH   1   5
ATOM      5  C   UNL     1      24.904  34.294  15.615  1.00  0.00     0.154 C 
BRANCH   5   6
ATOM      6  C   UNL     1      26.400  33.984  15.624  1.00  0.00     0.165 C 
BRANCH   6   7
ATOM      7  C   UNL     1      26.479  32.666  16.398  1.00  0.00     0.176 C 
BRANCH   7   8
ATOM      8  C   UNL     1      27.757  32.509  17.157  1.00  0.00     0.178 C 
ATOM      9  C   UNL     1      29.824  31.751  16.427  1.00  0.00     0.269 C 
ATOM     10  C   UNL     1      30.115  31.128  17.747  1.00  0.00     0.112 C 
ATOM     11  O   UNL     1      28.833  32.683  16.354  1.00  0.00    -0.332 OA
ATOM     12  C   UNL     1      28.912  30.871  18.628  1.00  0.00     0.145 C 
ATOM     13  C   UNL     1      27.702  31.121  17.777  1.00  0.00     0.142 C 
BRANCH   9  14
ATOM     14  O   UNL     1      29.656  30.735  15.450  1.00  0.00    -0.357 OA
ATOM     15  H   UNL     1      29.556  31.081  14.545  1.00  0.00     0.214 HD
ENDBRANCH   9  14
BRANCH   9  16
ATOM     16  C   UNL     1      31.081  32.479  16.020  1.00  0.00     0.364 C 
ATOM     17  O   UNL     1      31.581  33.290  16.828  1.00  0.00    -0.246 OA
BRANCH  16  18
ATOM     18  O   UNL     1      31.707  32.280  14.797  1.00  0.00    -0.477 OA
ATOM     19  H   UNL     1      32.703  32.102  14.683  1.00  0.00     0.296 HD
ENDBRANCH  16  18
ENDBRANCH   9  16
BRANCH  12  20
ATOM     20  O   UNL     1      28.934  29.493  19.008  1.00  0.00    -0.391 OA
ATOM     21  H   UNL     1      29.551  29.348  19.764  1.00  0.00     0.211 HD
ENDBRANCH  12  20
BRANCH  13  22
ATOM     22  N   UNL     1      26.426  30.865  18.321  1.00  0.00    -0.348 N 
ATOM     23  C   UNL     1      25.730  29.635  18.230  1.00  0.00     0.217 C 
ATOM     24  H   UNL     1      25.918  31.653  18.851  1.00  0.00     0.163 HD
ATOM     25  C   UNL     1      24.401  29.391  18.803  1.00  0.00     0.114 C 
ATOM     26  O   UNL     1      26.350  28.692  17.577  1.00  0.00    -0.275 OA
ENDBRANCH  13  22
ENDBRANCH   7   8
BRANCH   7  27
ATOM     27  O   UNL     1      26.282  31.673  15.434  1.00  0.00    -0.388 OA
ATOM     28  H   UNL     1      26.583  30.815  15.834  1.00  0.00     0.211 HD
ENDBRANCH   7  27
ENDBRANCH   6   7
BRANCH   6  29
ATOM     29  O   UNL     1      27.161  34.927  16.233  1.00  0.00    -0.388 OA
ATOM     30  H   UNL     1      26.916  35.826  16.023  1.00  0.00     0.211 HD
ENDBRANCH   6  29
ENDBRANCH   5   6
ENDBRANCH   1   5
BRANCH   2  31
ATOM     31  O   UNL     1      23.186  33.469  12.383  1.00  0.00    -0.443 OA
BRANCH  31  32
ATOM     32  C   UNL     1      22.460  34.658  12.110  1.00  0.00     0.294 C 
BRANCH  32  33
ATOM     33  C   UNL     1      23.033  35.192  10.849  1.00  0.00     0.121 A 
ATOM     34  C   UNL     1      24.403  35.400  10.645  1.00  0.00     0.144 A 
ATOM     35  N   UNL     1      22.418  35.459   9.687  1.00  0.00    -0.131 NA
ATOM     36  N   UNL     1      24.519  35.773   9.356  1.00  0.00    -0.220 N 
ATOM     37  N   UNL     1      23.357  35.792   8.842  1.00  0.00    -0.062 NA
BRANCH  36  38
ATOM     38  C   UNL     1      25.760  35.953   8.701  1.00  0.00     0.070 A 
ATOM     39  C   UNL     1      26.125  37.165   8.252  1.00  0.00    -0.020 A 
ATOM     40  C   UNL     1      26.520  34.820   8.376  1.00  0.00     0.029 A 
ATOM     41  C   UNL     1      27.267  37.279   7.460  1.00  0.00     0.006 A 
ATOM     42  C   UNL     1      27.625  34.913   7.613  1.00  0.00     0.002 A 
ATOM     43  C   UNL     1      28.029  36.150   7.132  1.00  0.00     0.000 A 
BRANCH  39  44
ATOM     44  C   UNL     1      25.438  38.366   8.683  1.00  0.00     0.015 C 
ATOM     45  C   UNL     1      24.849  39.153   7.523  1.00  0.00     0.012 C 
ATOM     46  C   UNL     1      26.600  39.370   9.110  1.00  0.00     0.012 C 
ENDBRANCH  39  44
ENDBRANCH  36  38
ENDBRANCH  32  33
ENDBRANCH  31  32
ENDBRANCH   2  31
TORSDOF 16
BEGIN_RES LYS A 131
REMARK  4 active torsions:
REMARK  status: ('A' for Active; 'I' for Inactive)
REMARK    1  A    between atoms: CA   and  CB  
REMARK    2  A    between atoms: CB   and  CG  
REMARK    3  A    between atoms: CG   and  CD  
REMARK    4  A    between atoms: CD   and  CE  
ROOT
ATOM      1  CA  LYS A 131      29.867  25.555  16.977  1.00 20.52     0.186 C 
ENDROOT
BRANCH   1   2
ATOM      2  CB  LYS A 131      28.345  25.722  17.026  1.00 20.94     0.034 C 
BRANCH   2   3
ATOM      3  CG  LYS A 131      27.601  24.402  16.897  1.00 22.96     0.005 C 
BRANCH   3   4
ATOM      4  CD  LYS A 131      26.563  24.229  17.971  1.00 24.33     0.041 C 
BRANCH   4   5
ATOM      5  CE  LYS A 131      25.178  24.487  17.386  1.00 26.91     0.338 C 
ATOM      6  NZ  LYS A 131      24.151  24.459  18.454  1.00 27.40     0.618 N 
ENDBRANCH   4   5
ENDBRANCH   3   4
ENDBRANCH   2   3
ENDBRANCH   1   2
END_RES LYS A 131
BEGIN_RES LYS A 135
REMARK  4 active torsions:
REMARK  status: ('A' for Active; 'I' for Inactive)
REMARK    5  A    between atoms: CA   and  CB  
REMARK    6  A    between atoms: CB   and  CG  
REMARK    7  A    between atoms: CG   and  CD  
REMARK    8  A    between atoms: CD   and  CE  
ROOT
ATOM      7  CA  LYS A 135      33.193  34.663   9.290  1.00 25.02     0.186 C 
ENDROOT
BRANCH   7   8
ATOM      8  CB  LYS A 135      32.060  35.360  10.034  1.00 26.63     0.034 C 
BRANCH   8   9
ATOM      9  CG  LYS A 135      30.692  34.846   9.667  1.00 29.45     0.005 C 
BRANCH   9  10
ATOM     10  CD  LYS A 135      29.636  35.417  10.600  1.00 32.00     0.041 C 
BRANCH  10  11
ATOM     11  CE  LYS A 135      30.189  35.565  12.004  1.00 34.25     0.338 C 
ATOM     12  NZ  LYS A 135      29.671  34.495  12.901  1.00 35.99     0.618 N 
ENDBRANCH  10  11
ENDBRANCH   9  10
ENDBRANCH   8   9
ENDBRANCH   7   8
END_RES LYS A 135
