REMARK VINA RESULT:    -6.059      2.190      3.180
REMARK INTER + INTRA:         -14.882
REMARK INTER:                  -9.188
REMARK INTRA:                  -5.694
REMARK UNBOUND:                -4.396
REMARK SMILES CC(=O)N[C@@H]1[C@@H](O)C[C@](O)(C(=O)O)O[C@H]1C(O)[C@H](O)CNC(=O)OCc1cn(-c2ccccc2Br)nn1
REMARK SMILES IDX 20 1 18 2 16 3 15 4 9 5 8 6 14 7 6 8 5 9 10 10 11 12 12 13
REMARK SMILES IDX 13 14 7 16 4 18 2 19 1 21 3 22 17 23 19 25 21 27 22 28 23 30
REMARK SMILES IDX 24 31 25 32 26 33 27 34 37 35 28 36 36 37 29 38 30 39 34 40
REMARK SMILES IDX 31 41 33 42 35 43 32 44
REMARK H PARENT 10 11 13 15 7 17 4 20 17 24 19 26 21 29
REMARK Flexibility Score: inf
ROOT
ATOM      1  C   UNL     1      25.596  27.587  19.128  1.00  0.00     0.154 C 
ENDROOT
BRANCH   1   2
ATOM      2  C   UNL     1      26.861  27.431  19.933  1.00  0.00     0.165 C 
BRANCH   2   3
ATOM      3  C   UNL     1      27.608  28.727  19.875  1.00  0.00     0.176 C 
BRANCH   3   4
ATOM      4  C   UNL     1      28.358  29.108  21.130  1.00  0.00     0.178 C 
ATOM      5  C   UNL     1      30.437  28.024  21.139  1.00  0.00     0.269 C 
ATOM      6  C   UNL     1      30.485  28.067  22.667  1.00  0.00     0.112 C 
ATOM      7  O   UNL     1      29.700  29.098  20.770  1.00  0.00    -0.332 OA
ATOM      8  C   UNL     1      29.099  27.709  23.120  1.00  0.00     0.145 C 
ATOM      9  C   UNL     1      27.992  28.378  22.348  1.00  0.00     0.142 C 
BRANCH   5  10
ATOM     10  O   UNL     1      29.963  26.786  20.789  1.00  0.00    -0.357 OA
ATOM     11  H   UNL     1      29.655  26.336  21.615  1.00  0.00     0.214 HD
ENDBRANCH   5  10
BRANCH   5  12
ATOM     12  C   UNL     1      31.821  28.166  20.608  1.00  0.00     0.364 C 
ATOM     13  O   UNL     1      32.558  29.076  21.063  1.00  0.00    -0.246 OA
BRANCH  12  14
ATOM     14  O   UNL     1      32.313  27.317  19.623  1.00  0.00    -0.477 OA
ATOM     15  H   UNL     1      31.779  27.053  18.799  1.00  0.00     0.296 HD
ENDBRANCH  12  14
ENDBRANCH   5  12
BRANCH   8  16
ATOM     16  O   UNL     1      28.986  26.324  22.992  1.00  0.00    -0.391 OA
ATOM     17  H   UNL     1      28.593  25.920  23.785  1.00  0.00     0.211 HD
ENDBRANCH   8  16
BRANCH   9  18
ATOM     18  N   UNL     1      27.300  29.315  23.258  1.00  0.00    -0.348 N 
ATOM     19  C   UNL     1      25.911  29.217  23.497  1.00  0.00     0.217 C 
ATOM     20  H   UNL     1      27.844  30.081  23.750  1.00  0.00     0.163 HD
ATOM     21  C   UNL     1      25.199  30.172  24.413  1.00  0.00     0.114 C 
ATOM     22  O   UNL     1      25.273  28.302  22.918  1.00  0.00    -0.275 OA
ENDBRANCH   9  18
ENDBRANCH   3   4
BRANCH   3  23
ATOM     23  O   UNL     1      28.328  28.822  18.712  1.00  0.00    -0.388 OA
ATOM     24  H   UNL     1      27.756  28.727  17.892  1.00  0.00     0.211 HD
ENDBRANCH   3  23
ENDBRANCH   2   3
BRANCH   2  25
ATOM     25  O   UNL     1      27.618  26.404  19.432  1.00  0.00    -0.388 OA
ATOM     26  H   UNL     1      28.173  25.957  20.128  1.00  0.00     0.211 HD
ENDBRANCH   2  25
ENDBRANCH   1   2
BRANCH   1  27
ATOM     27  N   UNL     1      25.741  28.032  17.784  1.00  0.00    -0.319 N 
ATOM     28  C   UNL     1      24.933  29.021  17.181  1.00  0.00     0.407 C 
ATOM     29  H   UNL     1      26.504  27.611  17.156  1.00  0.00     0.167 HD
ATOM     30  O   UNL     1      23.992  29.599  17.772  1.00  0.00    -0.225 OA
BRANCH  28  31
ATOM     31  O   UNL     1      25.194  29.377  15.849  1.00  0.00    -0.443 OA
BRANCH  31  32
ATOM     32  C   UNL     1      25.622  30.697  15.603  1.00  0.00     0.294 C 
BRANCH  32  33
ATOM     33  C   UNL     1      27.088  30.750  15.822  1.00  0.00     0.121 A 
ATOM     34  C   UNL     1      27.836  31.933  15.896  1.00  0.00     0.144 A 
ATOM     35  N   UNL     1      27.999  29.784  15.987  1.00  0.00    -0.131 NA
ATOM     36  N   UNL     1      29.133  31.643  16.097  1.00  0.00    -0.219 N 
ATOM     37  N   UNL     1      29.203  30.324  16.147  1.00  0.00    -0.062 NA
BRANCH  36  38
ATOM     38  C   UNL     1      30.199  32.584  16.225  1.00  0.00     0.081 A 
ATOM     39  C   UNL     1      30.914  33.022  15.133  1.00  0.00     0.029 A 
ATOM     40  C   UNL     1      30.553  33.094  17.456  1.00  0.00     0.043 A 
ATOM     41  C   UNL     1      31.954  33.943  15.277  1.00  0.00     0.002 A 
ATOM     42  C   UNL     1      31.584  34.008  17.603  1.00  0.00     0.018 A 
ATOM     43  Br  UNL     1      29.562  32.490  18.985  1.00  0.00    -0.048 Br
ATOM     44  C   UNL     1      32.302  34.449  16.512  1.00  0.00     0.001 A 
ENDBRANCH  36  38
ENDBRANCH  32  33
ENDBRANCH  31  32
ENDBRANCH  28  31
ENDBRANCH   1  27
TORSDOF 15
BEGIN_RES LYS A 131
REMARK  4 active torsions:
REMARK  status: ('A' for Active; 'I' for Inactive)
REMARK    1  A    between atoms: CA   and  CB  
REMARK    2  A    between atoms: CB   and  CG  
REMARK    3  A    between atoms: CG   and  CD  
REMARK    4  A    between atoms: CD   and  CE  
ROOT
ATOM      1  CA  LYS A 131      29.867  25.555  16.977  1.00 20.52     0.186 C 
ENDROOT
BRANCH   1   2
ATOM      2  CB  LYS A 131      28.345  25.722  17.026  1.00 20.94     0.034 C 
BRANCH   2   3
ATOM      3  CG  LYS A 131      27.599  24.443  16.677  1.00 22.96     0.005 C 
BRANCH   3   4
ATOM      4  CD  LYS A 131      26.200  24.435  17.229  1.00 24.33     0.041 C 
BRANCH   4   5
ATOM      5  CE  LYS A 131      26.122  23.467  18.404  1.00 26.91     0.338 C 
ATOM      6  NZ  LYS A 131      24.781  22.841  18.473  1.00 27.40     0.618 N 
ENDBRANCH   4   5
ENDBRANCH   3   4
ENDBRANCH   2   3
ENDBRANCH   1   2
END_RES LYS A 131
BEGIN_RES LYS A 135
REMARK  4 active torsions:
REMARK  status: ('A' for Active; 'I' for Inactive)
REMARK    5  A    between atoms: CA   and  CB  
REMARK    6  A    between atoms: CB   and  CG  
REMARK    7  A    between atoms: CG   and  CD  
REMARK    8  A    between atoms: CD   and  CE  
ROOT
ATOM      7  CA  LYS A 135      33.193  34.663   9.290  1.00 25.02     0.186 C 
ENDROOT
BRANCH   7   8
ATOM      8  CB  LYS A 135      32.060  35.360  10.034  1.00 26.63     0.034 C 
BRANCH   8   9
ATOM      9  CG  LYS A 135      30.908  35.754   9.146  1.00 29.45     0.005 C 
BRANCH   9  10
ATOM     10  CD  LYS A 135      30.386  34.549   8.378  1.00 32.00     0.041 C 
BRANCH  10  11
ATOM     11  CE  LYS A 135      29.156  34.922   7.574  1.00 34.25     0.338 C 
ATOM     12  NZ  LYS A 135      28.890  36.385   7.648  1.00 35.99     0.618 N 
ENDBRANCH  10  11
ENDBRANCH   9  10
ENDBRANCH   8   9
ENDBRANCH   7   8
END_RES LYS A 135
