REMARK VINA RESULT:    -5.158      7.884     13.591
REMARK INTER + INTRA:         -14.429
REMARK INTER:                  -8.686
REMARK INTRA:                  -5.743
REMARK UNBOUND:                -5.502
REMARK SMILES CC(=O)N[C@@H]1[C@@H](O)C[C@](O)(C(=O)O)O[C@H]1C(O)[C@H](O)CNC(=O)OCc1cn([C@@H]2C[C@H]3CC[C@@H](C2)N3C)nn1
REMARK SMILES IDX 20 1 18 2 16 3 15 4 9 5 8 6 14 7 6 8 5 9 10 10 11 12 12 13
REMARK SMILES IDX 13 14 7 16 4 18 2 19 1 21 3 22 17 23 19 25 21 27 22 28 23 30
REMARK SMILES IDX 24 31 25 32 26 33 27 34 39 35 28 36 38 37 29 38 35 39 30 40
REMARK SMILES IDX 34 41 31 42 36 43 33 44 32 45 37 46
REMARK H PARENT 10 11 13 15 7 17 4 20 17 24 19 26 21 29
REMARK Flexibility Score: inf
ROOT
ATOM      1  C   UNL     1      28.571  40.388   7.329  1.00  0.00     0.154 C 
ENDROOT
BRANCH   1   2
ATOM      2  C   UNL     1      29.317  39.155   7.748  1.00  0.00     0.165 C 
BRANCH   2   3
ATOM      3  C   UNL     1      28.872  38.700   9.133  1.00  0.00     0.176 C 
BRANCH   3   4
ATOM      4  C   UNL     1      28.410  37.248   9.017  1.00  0.00     0.178 C 
ATOM      5  C   UNL     1      28.851  35.443   7.596  1.00  0.00     0.269 C 
ATOM      6  C   UNL     1      27.428  35.298   7.159  1.00  0.00     0.112 C 
ATOM      7  O   UNL     1      29.194  36.647   8.115  1.00  0.00    -0.332 OA
ATOM      8  C   UNL     1      26.520  36.398   7.593  1.00  0.00     0.145 C 
ATOM      9  C   UNL     1      26.924  37.132   8.828  1.00  0.00     0.142 C 
BRANCH   5  10
ATOM     10  O   UNL     1      29.665  35.252   6.476  1.00  0.00    -0.357 OA
ATOM     11  H   UNL     1      30.569  34.930   6.713  1.00  0.00     0.214 HD
ENDBRANCH   5  10
BRANCH   5  12
ATOM     12  C   UNL     1      29.248  34.402   8.568  1.00  0.00     0.364 C 
ATOM     13  O   UNL     1      30.450  34.081   8.677  1.00  0.00    -0.246 OA
BRANCH  12  14
ATOM     14  O   UNL     1      28.352  33.731   9.396  1.00  0.00    -0.477 OA
ATOM     15  H   UNL     1      27.723  33.014   9.003  1.00  0.00     0.296 HD
ENDBRANCH  12  14
ENDBRANCH   5  12
BRANCH   8  16
ATOM     16  O   UNL     1      26.387  37.278   6.509  1.00  0.00    -0.391 OA
ATOM     17  H   UNL     1      25.483  37.202   6.120  1.00  0.00     0.211 HD
ENDBRANCH   8  16
BRANCH   9  18
ATOM     18  N   UNL     1      26.265  36.701  10.031  1.00  0.00    -0.348 N 
ATOM     19  C   UNL     1      25.336  37.487  10.751  1.00  0.00     0.217 C 
ATOM     20  H   UNL     1      26.469  35.744  10.425  1.00  0.00     0.163 HD
ATOM     21  C   UNL     1      24.648  37.066  11.990  1.00  0.00     0.114 C 
ATOM     22  O   UNL     1      25.104  38.621  10.267  1.00  0.00    -0.275 OA
ENDBRANCH   9  18
ENDBRANCH   3   4
BRANCH   3  23
ATOM     23  O   UNL     1      27.867  39.500   9.650  1.00  0.00    -0.388 OA
ATOM     24  H   UNL     1      28.286  40.332   9.991  1.00  0.00     0.211 HD
ENDBRANCH   3  23
ENDBRANCH   2   3
BRANCH   2  25
ATOM     25  O   UNL     1      30.672  39.329   7.777  1.00  0.00    -0.388 OA
ATOM     26  H   UNL     1      30.915  40.050   8.429  1.00  0.00     0.211 HD
ENDBRANCH   2  25
ENDBRANCH   1   2
BRANCH   1  27
ATOM     27  N   UNL     1      27.313  40.101   6.731  1.00  0.00    -0.319 N 
ATOM     28  C   UNL     1      26.067  40.548   7.204  1.00  0.00     0.407 C 
ATOM     29  H   UNL     1      27.291  39.496   5.850  1.00  0.00     0.167 HD
ATOM     30  O   UNL     1      25.947  41.252   8.224  1.00  0.00    -0.225 OA
BRANCH  28  31
ATOM     31  O   UNL     1      24.899  40.193   6.502  1.00  0.00    -0.443 OA
BRANCH  31  32
ATOM     32  C   UNL     1      23.648  40.419   7.119  1.00  0.00     0.294 C 
BRANCH  32  33
ATOM     33  C   UNL     1      23.079  39.164   7.610  1.00  0.00     0.120 A 
ATOM     34  C   UNL     1      21.995  39.052   8.472  1.00  0.00     0.138 A 
ATOM     35  N   UNL     1      23.482  37.925   7.332  1.00  0.00    -0.132 NA
ATOM     36  N   UNL     1      21.782  37.747   8.684  1.00  0.00    -0.249 N 
ATOM     37  N   UNL     1      22.689  37.097   7.987  1.00  0.00    -0.067 NA
BRANCH  36  38
ATOM     38  C   UNL     1      20.767  37.137   9.505  1.00  0.00     0.112 C 
ATOM     39  C   UNL     1      19.436  37.186   8.756  1.00  0.00     0.046 C 
ATOM     40  C   UNL     1      21.149  35.682   9.672  1.00  0.00     0.046 C 
ATOM     41  C   UNL     1      18.439  36.335   9.495  1.00  0.00     0.058 C 
ATOM     42  C   UNL     1      20.003  34.895  10.221  1.00  0.00     0.058 C 
ATOM     43  N   UNL     1      18.825  34.939   9.413  1.00  0.00    -0.300 NA
ATOM     44  C   UNL     1      18.537  36.595  10.987  1.00  0.00     0.021 C 
ATOM     45  C   UNL     1      19.542  35.608  11.498  1.00  0.00     0.021 C 
ATOM     46  C   UNL     1      19.021  34.489   8.066  1.00  0.00     0.105 C 
ENDBRANCH  36  38
ENDBRANCH  32  33
ENDBRANCH  31  32
ENDBRANCH  28  31
ENDBRANCH   1  27
TORSDOF 15
BEGIN_RES LYS A 131
REMARK  4 active torsions:
REMARK  status: ('A' for Active; 'I' for Inactive)
REMARK    1  A    between atoms: CA   and  CB  
REMARK    2  A    between atoms: CB   and  CG  
REMARK    3  A    between atoms: CG   and  CD  
REMARK    4  A    between atoms: CD   and  CE  
ROOT
ATOM      1  CA  LYS A 131      29.867  25.555  16.977  1.00 20.52     0.186 C 
ENDROOT
BRANCH   1   2
ATOM      2  CB  LYS A 131      28.345  25.722  17.026  1.00 20.94     0.034 C 
BRANCH   2   3
ATOM      3  CG  LYS A 131      27.602  24.400  16.910  1.00 22.96     0.005 C 
BRANCH   3   4
ATOM      4  CD  LYS A 131      26.582  24.226  18.001  1.00 24.33     0.041 C 
BRANCH   4   5
ATOM      5  CE  LYS A 131      25.661  23.061  17.656  1.00 26.91     0.338 C 
ATOM      6  NZ  LYS A 131      24.908  22.621  18.855  1.00 27.40     0.618 N 
ENDBRANCH   4   5
ENDBRANCH   3   4
ENDBRANCH   2   3
ENDBRANCH   1   2
END_RES LYS A 131
BEGIN_RES LYS A 135
REMARK  4 active torsions:
REMARK  status: ('A' for Active; 'I' for Inactive)
REMARK    5  A    between atoms: CA   and  CB  
REMARK    6  A    between atoms: CB   and  CG  
REMARK    7  A    between atoms: CG   and  CD  
REMARK    8  A    between atoms: CD   and  CE  
ROOT
ATOM      7  CA  LYS A 135      33.193  34.663   9.290  1.00 25.02     0.186 C 
ENDROOT
BRANCH   7   8
ATOM      8  CB  LYS A 135      32.060  35.360  10.034  1.00 26.63     0.034 C 
BRANCH   8   9
ATOM      9  CG  LYS A 135      32.229  35.353  11.531  1.00 29.45     0.005 C 
BRANCH   9  10
ATOM     10  CD  LYS A 135      32.268  36.774  12.073  1.00 32.00     0.041 C 
BRANCH  10  11
ATOM     11  CE  LYS A 135      31.851  37.764  11.003  1.00 34.25     0.338 C 
ATOM     12  NZ  LYS A 135      31.470  39.073  11.602  1.00 35.99     0.618 N 
ENDBRANCH  10  11
ENDBRANCH   9  10
ENDBRANCH   8   9
ENDBRANCH   7   8
END_RES LYS A 135
