REMARK VINA RESULT:    -5.076      1.986      3.011
REMARK INTER + INTRA:         -15.340
REMARK INTER:                  -8.576
REMARK INTRA:                  -6.764
REMARK UNBOUND:                -6.554
REMARK SMILES CC(=O)N[C@@H]1[C@@H](O)C[C@](O)(C(=O)O)O[C@H]1C(O)[C@H](O)CNC(=O)OCc1cn(C23CC4CC(CC(C4)C2)C3)nn1
REMARK SMILES IDX 20 1 18 2 16 3 15 4 9 5 8 6 14 7 6 8 5 9 10 10 11 12 12 13
REMARK SMILES IDX 13 14 7 16 4 18 2 19 1 21 3 22 17 23 19 25 21 27 22 28 23 30
REMARK SMILES IDX 24 31 25 32 26 33 27 34 40 35 28 36 39 37 29 38 38 39 37 40
REMARK SMILES IDX 30 41 33 42 35 43 31 44 32 45 34 46 36 47
REMARK H PARENT 10 11 13 15 7 17 4 20 17 24 19 26 21 29
REMARK Flexibility Score: inf
ROOT
ATOM      1  C   UNL     1      26.068  28.306  18.712  1.00  0.00     0.154 C 
ENDROOT
BRANCH   1   2
ATOM      2  C   UNL     1      27.538  28.013  18.548  1.00  0.00     0.165 C 
BRANCH   2   3
ATOM      3  C   UNL     1      28.115  27.249  19.722  1.00  0.00     0.176 C 
BRANCH   3   4
ATOM      4  C   UNL     1      28.819  28.213  20.683  1.00  0.00     0.178 C 
ATOM      5  C   UNL     1      31.095  27.723  20.968  1.00  0.00     0.269 C 
ATOM      6  C   UNL     1      30.644  26.618  21.889  1.00  0.00     0.112 C 
ATOM      7  O   UNL     1      30.120  28.434  20.359  1.00  0.00    -0.332 OA
ATOM      8  C   UNL     1      29.613  27.138  22.827  1.00  0.00     0.145 C 
ATOM      9  C   UNL     1      28.539  27.911  22.109  1.00  0.00     0.142 C 
BRANCH   5  10
ATOM     10  O   UNL     1      31.831  27.070  19.951  1.00  0.00    -0.357 OA
ATOM     11  H   UNL     1      31.189  26.868  19.221  1.00  0.00     0.214 HD
ENDBRANCH   5  10
BRANCH   5  12
ATOM     12  C   UNL     1      32.062  28.555  21.727  1.00  0.00     0.364 C 
ATOM     13  O   UNL     1      31.856  29.775  21.967  1.00  0.00    -0.246 OA
BRANCH  12  14
ATOM     14  O   UNL     1      33.230  27.993  22.194  1.00  0.00    -0.477 OA
ATOM     15  H   UNL     1      33.293  27.021  22.498  1.00  0.00     0.296 HD
ENDBRANCH  12  14
ENDBRANCH   5  12
BRANCH   8  16
ATOM     16  O   UNL     1      29.084  26.033  23.532  1.00  0.00    -0.391 OA
ATOM     17  H   UNL     1      28.527  25.491  22.934  1.00  0.00     0.211 HD
ENDBRANCH   8  16
BRANCH   9  18
ATOM     18  N   UNL     1      28.290  29.165  22.808  1.00  0.00    -0.348 N 
ATOM     19  C   UNL     1      27.457  29.244  23.954  1.00  0.00     0.217 C 
ATOM     20  H   UNL     1      28.743  30.058  22.456  1.00  0.00     0.163 HD
ATOM     21  C   UNL     1      27.261  30.551  24.597  1.00  0.00     0.114 C 
ATOM     22  O   UNL     1      26.915  28.178  24.376  1.00  0.00    -0.275 OA
ENDBRANCH   9  18
ENDBRANCH   3   4
BRANCH   3  23
ATOM     23  O   UNL     1      27.208  26.451  20.350  1.00  0.00    -0.388 OA
ATOM     24  H   UNL     1      27.147  25.531  20.053  1.00  0.00     0.211 HD
ENDBRANCH   3  23
ENDBRANCH   2   3
BRANCH   2  25
ATOM     25  O   UNL     1      28.190  29.226  18.344  1.00  0.00    -0.388 OA
ATOM     26  H   UNL     1      27.813  29.901  18.993  1.00  0.00     0.211 HD
ENDBRANCH   2  25
ENDBRANCH   1   2
BRANCH   1  27
ATOM     27  N   UNL     1      25.944  29.730  18.966  1.00  0.00    -0.319 N 
ATOM     28  C   UNL     1      25.639  30.245  20.273  1.00  0.00     0.407 C 
ATOM     29  H   UNL     1      26.066  30.459  18.224  1.00  0.00     0.167 HD
ATOM     30  O   UNL     1      25.484  29.412  21.200  1.00  0.00    -0.225 OA
BRANCH  28  31
ATOM     31  O   UNL     1      25.518  31.589  20.529  1.00  0.00    -0.443 OA
BRANCH  31  32
ATOM     32  C   UNL     1      26.549  32.254  21.223  1.00  0.00     0.294 C 
BRANCH  32  33
ATOM     33  C   UNL     1      27.779  32.179  20.371  1.00  0.00     0.120 A 
ATOM     34  C   UNL     1      27.909  32.798  19.142  1.00  0.00     0.138 A 
ATOM     35  N   UNL     1      28.933  31.550  20.576  1.00  0.00    -0.132 NA
ATOM     36  N   UNL     1      29.114  32.520  18.668  1.00  0.00    -0.246 N 
ATOM     37  N   UNL     1      29.728  31.760  19.550  1.00  0.00    -0.066 NA
BRANCH  36  38
ATOM     38  C   UNL     1      29.631  32.997  17.382  1.00  0.00     0.065 C 
ATOM     39  C   UNL     1      31.114  33.270  17.593  1.00  0.00     0.034 C 
ATOM     40  C   UNL     1      28.926  34.247  16.954  1.00  0.00     0.034 C 
ATOM     41  C   UNL     1      29.424  31.932  16.335  1.00  0.00     0.034 C 
ATOM     42  C   UNL     1      31.722  33.745  16.288  1.00  0.00    -0.008 C 
ATOM     43  C   UNL     1      29.576  34.746  15.683  1.00  0.00    -0.008 C 
ATOM     44  C   UNL     1      30.044  32.399  15.036  1.00  0.00    -0.008 C 
ATOM     45  C   UNL     1      31.521  32.675  15.255  1.00  0.00     0.007 C 
ATOM     46  C   UNL     1      31.032  35.029  15.903  1.00  0.00     0.007 C 
ATOM     47  C   UNL     1      29.368  33.685  14.626  1.00  0.00     0.007 C 
ENDBRANCH  36  38
ENDBRANCH  32  33
ENDBRANCH  31  32
ENDBRANCH  28  31
ENDBRANCH   1  27
TORSDOF 15
BEGIN_RES LYS A 131
REMARK  4 active torsions:
REMARK  status: ('A' for Active; 'I' for Inactive)
REMARK    1  A    between atoms: CA   and  CB  
REMARK    2  A    between atoms: CB   and  CG  
REMARK    3  A    between atoms: CG   and  CD  
REMARK    4  A    between atoms: CD   and  CE  
ROOT
ATOM      1  CA  LYS A 131      29.867  25.555  16.977  1.00 20.52     0.186 C 
ENDROOT
BRANCH   1   2
ATOM      2  CB  LYS A 131      28.345  25.722  17.026  1.00 20.94     0.034 C 
BRANCH   2   3
ATOM      3  CG  LYS A 131      27.599  24.424  16.759  1.00 22.96     0.005 C 
BRANCH   3   4
ATOM      4  CD  LYS A 131      26.641  24.083  17.866  1.00 24.33     0.041 C 
BRANCH   4   5
ATOM      5  CE  LYS A 131      25.222  24.015  17.308  1.00 26.91     0.338 C 
ATOM      6  NZ  LYS A 131      24.494  25.275  17.588  1.00 27.40     0.618 N 
ENDBRANCH   4   5
ENDBRANCH   3   4
ENDBRANCH   2   3
ENDBRANCH   1   2
END_RES LYS A 131
BEGIN_RES LYS A 135
REMARK  4 active torsions:
REMARK  status: ('A' for Active; 'I' for Inactive)
REMARK    5  A    between atoms: CA   and  CB  
REMARK    6  A    between atoms: CB   and  CG  
REMARK    7  A    between atoms: CG   and  CD  
REMARK    8  A    between atoms: CD   and  CE  
ROOT
ATOM      7  CA  LYS A 135      33.193  34.663   9.290  1.00 25.02     0.186 C 
ENDROOT
BRANCH   7   8
ATOM      8  CB  LYS A 135      32.060  35.360  10.034  1.00 26.63     0.034 C 
BRANCH   8   9
ATOM      9  CG  LYS A 135      30.765  34.590  10.017  1.00 29.45     0.005 C 
BRANCH   9  10
ATOM     10  CD  LYS A 135      30.260  34.419   8.593  1.00 32.00     0.041 C 
BRANCH  10  11
ATOM     11  CE  LYS A 135      29.583  35.688   8.112  1.00 34.25     0.338 C 
ATOM     12  NZ  LYS A 135      28.967  35.492   6.770  1.00 35.99     0.618 N 
ENDBRANCH  10  11
ENDBRANCH   9  10
ENDBRANCH   8   9
ENDBRANCH   7   8
END_RES LYS A 135
