REMARK VINA RESULT:    -4.190      3.369      6.161
REMARK INTER + INTRA:         -13.537
REMARK INTER:                  -7.251
REMARK INTRA:                  -6.285
REMARK UNBOUND:                -6.285
REMARK SMILES CC(=O)N[C@@H]1[C@@H](O)C[C@](O)(C(=O)O)O[C@H]1C(O)[C@H](O)CNC(=O)OCc1cn(-c2ccccc2I)nn1
REMARK SMILES IDX 20 1 18 2 16 3 15 4 9 5 8 6 14 7 6 8 5 9 10 10 11 12 12 13
REMARK SMILES IDX 13 14 7 16 4 18 2 19 1 21 3 22 17 23 19 25 21 27 22 28 23 30
REMARK SMILES IDX 24 31 25 32 26 33 27 34 37 35 28 36 36 37 29 38 30 39 34 40
REMARK SMILES IDX 31 41 33 42 35 43 32 44
REMARK H PARENT 10 11 13 15 7 17 4 20 17 24 19 26 21 29
REMARK Flexibility Score: inf
ROOT
ATOM      1  C   UNL     1      31.517  33.311  20.087  1.00  0.00     0.154 C 
ENDROOT
BRANCH   1   2
ATOM      2  C   UNL     1      31.299  34.363  19.024  1.00  0.00     0.165 C 
BRANCH   2   3
ATOM      3  C   UNL     1      31.265  33.748  17.670  1.00  0.00     0.176 C 
BRANCH   3   4
ATOM      4  C   UNL     1      29.902  33.619  17.040  1.00  0.00     0.178 C 
ATOM      5  C   UNL     1      29.179  31.377  16.982  1.00  0.00     0.269 C 
ATOM      6  C   UNL     1      28.931  31.467  15.490  1.00  0.00     0.112 C 
ATOM      7  O   UNL     1      29.285  32.561  17.618  1.00  0.00    -0.332 OA
ATOM      8  C   UNL     1      29.990  32.377  14.923  1.00  0.00     0.145 C 
ATOM      9  C   UNL     1      29.836  33.730  15.569  1.00  0.00     0.142 C 
BRANCH   5  10
ATOM     10  O   UNL     1      30.382  30.687  17.123  1.00  0.00    -0.357 OA
ATOM     11  H   UNL     1      30.860  30.766  16.243  1.00  0.00     0.214 HD
ENDBRANCH   5  10
BRANCH   5  12
ATOM     12  C   UNL     1      28.101  30.505  17.547  1.00  0.00     0.364 C 
ATOM     13  O   UNL     1      27.160  30.945  18.243  1.00  0.00    -0.246 OA
BRANCH  12  14
ATOM     14  O   UNL     1      28.152  29.153  17.285  1.00  0.00    -0.477 OA
ATOM     15  H   UNL     1      28.252  28.772  16.342  1.00  0.00     0.296 HD
ENDBRANCH  12  14
ENDBRANCH   5  12
BRANCH   8  16
ATOM     16  O   UNL     1      31.221  31.780  15.201  1.00  0.00    -0.391 OA
ATOM     17  H   UNL     1      31.326  31.569  16.161  1.00  0.00     0.211 HD
ENDBRANCH   8  16
BRANCH   9  18
ATOM     18  N   UNL     1      28.513  34.238  15.161  1.00  0.00    -0.348 N 
ATOM     19  C   UNL     1      28.338  35.009  13.986  1.00  0.00     0.217 C 
ATOM     20  H   UNL     1      27.677  34.033  15.742  1.00  0.00     0.163 HD
ATOM     21  C   UNL     1      26.977  35.481  13.644  1.00  0.00     0.114 C 
ATOM     22  O   UNL     1      29.319  35.294  13.236  1.00  0.00    -0.275 OA
ENDBRANCH   9  18
ENDBRANCH   3   4
BRANCH   3  23
ATOM     23  O   UNL     1      32.234  34.260  16.819  1.00  0.00    -0.388 OA
ATOM     24  H   UNL     1      33.145  33.928  17.057  1.00  0.00     0.211 HD
ENDBRANCH   3  23
ENDBRANCH   2   3
BRANCH   2  25
ATOM     25  O   UNL     1      32.392  35.260  19.156  1.00  0.00    -0.388 OA
ATOM     26  H   UNL     1      32.773  35.173  20.072  1.00  0.00     0.211 HD
ENDBRANCH   2  25
ENDBRANCH   1   2
BRANCH   1  27
ATOM     27  N   UNL     1      30.294  32.780  20.643  1.00  0.00    -0.319 N 
ATOM     28  C   UNL     1      30.074  31.367  20.605  1.00  0.00     0.407 C 
ATOM     29  H   UNL     1      29.611  33.436  21.060  1.00  0.00     0.167 HD
ATOM     30  O   UNL     1      30.947  30.647  20.093  1.00  0.00    -0.225 OA
BRANCH  28  31
ATOM     31  O   UNL     1      28.894  30.885  21.145  1.00  0.00    -0.443 OA
BRANCH  31  32
ATOM     32  C   UNL     1      28.896  29.623  21.761  1.00  0.00     0.294 C 
BRANCH  32  33
ATOM     33  C   UNL     1      28.195  28.672  20.865  1.00  0.00     0.121 A 
ATOM     34  C   UNL     1      26.806  28.625  20.701  1.00  0.00     0.144 A 
ATOM     35  N   UNL     1      28.688  27.715  20.070  1.00  0.00    -0.131 NA
ATOM     36  N   UNL     1      26.584  27.643  19.822  1.00  0.00    -0.219 N 
ATOM     37  N   UNL     1      27.714  27.086  19.434  1.00  0.00    -0.062 NA
BRANCH  36  38
ATOM     38  C   UNL     1      25.305  27.246  19.360  1.00  0.00     0.080 A 
ATOM     39  C   UNL     1      24.827  27.775  18.162  1.00  0.00     0.029 A 
ATOM     40  C   UNL     1      24.572  26.355  20.094  1.00  0.00     0.039 A 
ATOM     41  C   UNL     1      23.584  27.394  17.704  1.00  0.00     0.002 A 
ATOM     42  C   UNL     1      23.327  25.985  19.618  1.00  0.00     0.017 A 
ATOM     43  I   UNL     1      25.252  25.529  21.908  1.00  0.00    -0.042 I 
ATOM     44  C   UNL     1      22.832  26.498  18.432  1.00  0.00     0.001 A 
ENDBRANCH  36  38
ENDBRANCH  32  33
ENDBRANCH  31  32
ENDBRANCH  28  31
ENDBRANCH   1  27
TORSDOF 15
BEGIN_RES LYS A 131
REMARK  4 active torsions:
REMARK  status: ('A' for Active; 'I' for Inactive)
REMARK    1  A    between atoms: CA   and  CB  
REMARK    2  A    between atoms: CB   and  CG  
REMARK    3  A    between atoms: CG   and  CD  
REMARK    4  A    between atoms: CD   and  CE  
ROOT
ATOM      1  CA  LYS A 131      29.867  25.555  16.977  1.00 20.52     0.186 C 
ENDROOT
BRANCH   1   2
ATOM      2  CB  LYS A 131      28.345  25.722  17.026  1.00 20.94     0.034 C 
BRANCH   2   3
ATOM      3  CG  LYS A 131      27.600  24.417  16.791  1.00 22.96     0.005 C 
BRANCH   3   4
ATOM      4  CD  LYS A 131      26.936  23.911  18.042  1.00 24.33     0.041 C 
BRANCH   4   5
ATOM      5  CE  LYS A 131      25.666  23.151  17.672  1.00 26.91     0.338 C 
ATOM      6  NZ  LYS A 131      24.753  24.017  16.889  1.00 27.40     0.618 N 
ENDBRANCH   4   5
ENDBRANCH   3   4
ENDBRANCH   2   3
ENDBRANCH   1   2
END_RES LYS A 131
BEGIN_RES LYS A 135
REMARK  4 active torsions:
REMARK  status: ('A' for Active; 'I' for Inactive)
REMARK    5  A    between atoms: CA   and  CB  
REMARK    6  A    between atoms: CB   and  CG  
REMARK    7  A    between atoms: CG   and  CD  
REMARK    8  A    between atoms: CD   and  CE  
ROOT
ATOM      7  CA  LYS A 135      33.193  34.663   9.290  1.00 25.02     0.186 C 
ENDROOT
BRANCH   7   8
ATOM      8  CB  LYS A 135      32.060  35.360  10.034  1.00 26.63     0.034 C 
BRANCH   8   9
ATOM      9  CG  LYS A 135      30.909  35.756   9.145  1.00 29.45     0.005 C 
BRANCH   9  10
ATOM     10  CD  LYS A 135      30.385  34.552   8.378  1.00 32.00     0.041 C 
BRANCH  10  11
ATOM     11  CE  LYS A 135      28.930  34.753   8.000  1.00 34.25     0.338 C 
ATOM     12  NZ  LYS A 135      28.807  35.472   6.702  1.00 35.99     0.618 N 
ENDBRANCH  10  11
ENDBRANCH   9  10
ENDBRANCH   8   9
ENDBRANCH   7   8
END_RES LYS A 135
