REMARK VINA RESULT:    -4.826      3.943      6.656
REMARK INTER + INTRA:         -14.270
REMARK INTER:                  -7.707
REMARK INTRA:                  -6.563
REMARK UNBOUND:                -5.917
REMARK SMILES CC(=O)N[C@@H]1[C@@H](O)C[C@](O)(C(=O)O)O[C@H]1C(O)[C@H](O)CNC(=O)OCc1cn(-c2c(C)cc(C)cc2C)nn1
REMARK SMILES IDX 20 1 18 2 16 3 15 4 9 5 8 6 14 7 6 8 5 9 10 10 11 12 12 13
REMARK SMILES IDX 13 14 7 16 4 18 2 19 1 21 3 22 17 23 19 25 21 27 22 28 23 30
REMARK SMILES IDX 24 31 25 32 26 33 27 34 39 35 28 36 38 37 29 38 30 39 36 40
REMARK SMILES IDX 31 41 32 42 35 43 37 44 33 45 34 46
REMARK H PARENT 10 11 13 15 7 17 4 20 17 24 19 26 21 29
REMARK Flexibility Score: inf
ROOT
ATOM      1  C   UNL     1      30.075  34.171  20.755  1.00  0.00     0.154 C 
ENDROOT
BRANCH   1   2
ATOM      2  C   UNL     1      31.044  33.087  20.447  1.00  0.00     0.165 C 
BRANCH   2   3
ATOM      3  C   UNL     1      30.466  31.869  19.803  1.00  0.00     0.176 C 
BRANCH   3   4
ATOM      4  C   UNL     1      30.632  31.764  18.333  1.00  0.00     0.178 C 
ATOM      5  C   UNL     1      30.841  33.249  16.539  1.00  0.00     0.269 C 
ATOM      6  C   UNL     1      30.560  32.143  15.562  1.00  0.00     0.112 C 
ATOM      7  O   UNL     1      31.253  32.841  17.771  1.00  0.00    -0.332 OA
ATOM      8  C   UNL     1      29.917  30.946  16.175  1.00  0.00     0.145 C 
ATOM      9  C   UNL     1      29.412  31.333  17.577  1.00  0.00     0.142 C 
BRANCH   5  10
ATOM     10  O   UNL     1      29.694  34.033  16.636  1.00  0.00    -0.357 OA
ATOM     11  H   UNL     1      28.909  33.445  16.439  1.00  0.00     0.214 HD
ENDBRANCH   5  10
BRANCH   5  12
ATOM     12  C   UNL     1      31.925  34.078  15.947  1.00  0.00     0.364 C 
ATOM     13  O   UNL     1      32.343  35.093  16.540  1.00  0.00    -0.246 OA
BRANCH  12  14
ATOM     14  O   UNL     1      32.497  33.737  14.715  1.00  0.00    -0.477 OA
ATOM     15  H   UNL     1      33.287  34.300  14.370  1.00  0.00     0.296 HD
ENDBRANCH  12  14
ENDBRANCH   5  12
BRANCH   8  16
ATOM     16  O   UNL     1      28.920  30.374  15.411  1.00  0.00    -0.391 OA
ATOM     17  H   UNL     1      29.060  30.677  14.465  1.00  0.00     0.211 HD
ENDBRANCH   8  16
BRANCH   9  18
ATOM     18  N   UNL     1      28.839  30.125  18.111  1.00  0.00    -0.348 N 
ATOM     19  C   UNL     1      27.555  30.196  18.715  1.00  0.00     0.217 C 
ATOM     20  H   UNL     1      29.333  29.199  18.070  1.00  0.00     0.163 HD
ATOM     21  C   UNL     1      26.879  29.007  19.297  1.00  0.00     0.114 C 
ATOM     22  O   UNL     1      26.941  31.290  18.776  1.00  0.00    -0.275 OA
ENDBRANCH   9  18
ENDBRANCH   3   4
BRANCH   3  23
ATOM     23  O   UNL     1      31.030  30.753  20.416  1.00  0.00    -0.388 OA
ATOM     24  H   UNL     1      30.828  30.805  21.383  1.00  0.00     0.211 HD
ENDBRANCH   3  23
ENDBRANCH   2   3
BRANCH   2  25
ATOM     25  O   UNL     1      31.837  32.783  21.556  1.00  0.00    -0.388 OA
ATOM     26  H   UNL     1      32.675  33.309  21.568  1.00  0.00     0.211 HD
ENDBRANCH   2  25
ENDBRANCH   1   2
BRANCH   1  27
ATOM     27  N   UNL     1      29.404  34.685  19.578  1.00  0.00    -0.319 N 
ATOM     28  C   UNL     1      27.990  34.666  19.419  1.00  0.00     0.407 C 
ATOM     29  H   UNL     1      29.937  35.110  18.762  1.00  0.00     0.167 HD
ATOM     30  O   UNL     1      27.264  34.191  20.311  1.00  0.00    -0.225 OA
BRANCH  28  31
ATOM     31  O   UNL     1      27.388  35.175  18.265  1.00  0.00    -0.443 OA
BRANCH  31  32
ATOM     32  C   UNL     1      26.019  34.839  17.988  1.00  0.00     0.294 C 
BRANCH  32  33
ATOM     33  C   UNL     1      25.998  33.873  16.860  1.00  0.00     0.121 A 
ATOM     34  C   UNL     1      24.879  33.199  16.400  1.00  0.00     0.144 A 
ATOM     35  N   UNL     1      27.002  33.475  16.092  1.00  0.00    -0.131 NA
ATOM     36  N   UNL     1      25.225  32.415  15.376  1.00  0.00    -0.220 N 
ATOM     37  N   UNL     1      26.544  32.619  15.222  1.00  0.00    -0.062 NA
BRANCH  36  38
ATOM     38  C   UNL     1      24.433  31.541  14.584  1.00  0.00     0.072 A 
ATOM     39  C   UNL     1      23.712  32.031  13.518  1.00  0.00    -0.025 A 
ATOM     40  C   UNL     1      24.354  30.182  14.849  1.00  0.00    -0.025 A 
ATOM     41  C   UNL     1      23.780  33.477  13.212  1.00  0.00     0.047 C 
ATOM     42  C   UNL     1      22.933  31.165  12.739  1.00  0.00     0.009 A 
ATOM     43  C   UNL     1      23.583  29.338  14.075  1.00  0.00     0.009 A 
ATOM     44  C   UNL     1      25.150  29.665  16.019  1.00  0.00     0.047 C 
ATOM     45  C   UNL     1      22.857  29.815  13.005  1.00  0.00    -0.050 A 
ATOM     46  C   UNL     1      22.019  28.913  12.159  1.00  0.00     0.044 C 
ENDBRANCH  36  38
ENDBRANCH  32  33
ENDBRANCH  31  32
ENDBRANCH  28  31
ENDBRANCH   1  27
TORSDOF 15
BEGIN_RES LYS A 131
REMARK  4 active torsions:
REMARK  status: ('A' for Active; 'I' for Inactive)
REMARK    1  A    between atoms: CA   and  CB  
REMARK    2  A    between atoms: CB   and  CG  
REMARK    3  A    between atoms: CG   and  CD  
REMARK    4  A    between atoms: CD   and  CE  
ROOT
ATOM      1  CA  LYS A 131      29.867  25.555  16.977  1.00 20.52     0.186 C 
ENDROOT
BRANCH   1   2
ATOM      2  CB  LYS A 131      28.345  25.722  17.026  1.00 20.94     0.034 C 
BRANCH   2   3
ATOM      3  CG  LYS A 131      27.601  24.403  16.888  1.00 22.96     0.005 C 
BRANCH   3   4
ATOM      4  CD  LYS A 131      26.653  24.164  18.030  1.00 24.33     0.041 C 
BRANCH   4   5
ATOM      5  CE  LYS A 131      25.985  25.479  18.420  1.00 26.91     0.338 C 
ATOM      6  NZ  LYS A 131      25.726  25.517  19.878  1.00 27.40     0.618 N 
ENDBRANCH   4   5
ENDBRANCH   3   4
ENDBRANCH   2   3
ENDBRANCH   1   2
END_RES LYS A 131
BEGIN_RES LYS A 135
REMARK  4 active torsions:
REMARK  status: ('A' for Active; 'I' for Inactive)
REMARK    5  A    between atoms: CA   and  CB  
REMARK    6  A    between atoms: CB   and  CG  
REMARK    7  A    between atoms: CG   and  CD  
REMARK    8  A    between atoms: CD   and  CE  
ROOT
ATOM      7  CA  LYS A 135      33.193  34.663   9.290  1.00 25.02     0.186 C 
ENDROOT
BRANCH   7   8
ATOM      8  CB  LYS A 135      32.060  35.360  10.034  1.00 26.63     0.034 C 
BRANCH   8   9
ATOM      9  CG  LYS A 135      30.706  34.748   9.781  1.00 29.45     0.005 C 
BRANCH   9  10
ATOM     10  CD  LYS A 135      30.466  34.576   8.289  1.00 32.00     0.041 C 
BRANCH  10  11
ATOM     11  CE  LYS A 135      29.011  34.840   7.950  1.00 34.25     0.338 C 
ATOM     12  NZ  LYS A 135      28.885  35.569   6.658  1.00 35.99     0.618 N 
ENDBRANCH  10  11
ENDBRANCH   9  10
ENDBRANCH   8   9
ENDBRANCH   7   8
END_RES LYS A 135
