REMARK VINA RESULT:    -7.731      2.702      5.755
REMARK INTER + INTRA:         -13.061
REMARK INTER:                  -7.982
REMARK INTRA:                  -5.079
REMARK UNBOUND:                 3.032
REMARK SMILES CC(=O)N[C@@H]1[C@@H](O)C[C@](O)(C(=O)O)O[C@H]1C(O)[C@H](O)CNC(=O)OCc1cn(C2CC(O)C=C[C@@H](O)C2)nn1
REMARK SMILES IDX 21 1 22 2 23 3 20 5 18 6 16 7 15 8 9 9 8 10 14 11 6 12 5 13
REMARK SMILES IDX 10 14 11 16 12 17 13 18 7 20 4 22 2 23 1 25 3 26 17 27 19 29
REMARK SMILES IDX 24 31 25 32 26 33 27 34 39 35 28 36 38 37 29 38 30 39 31 40
REMARK SMILES IDX 32 42 37 44 35 45 34 46 33 47 36 49
REMARK H PARENT 21 4 10 15 13 19 7 21 4 24 17 28 19 30 32 43 36 50
REMARK Flexibility Score: 90.00
ROOT
ATOM      1  N   UNL     1      31.200  32.073  15.193  1.00  0.00    -0.319 N 
ATOM      2  C   UNL     1      31.654  33.323  15.711  1.00  0.00     0.407 C 
ATOM      3  O   UNL     1      31.602  33.612  16.935  1.00  0.00    -0.225 OA
ATOM      4  H   UNL     1      31.255  31.860  14.173  1.00  0.00     0.167 HD
ENDROOT
BRANCH   1   5
ATOM      5  C   UNL     1      30.663  31.129  16.173  1.00  0.00     0.154 C 
BRANCH   5   6
ATOM      6  C   UNL     1      29.175  31.019  15.895  1.00  0.00     0.165 C 
BRANCH   6   7
ATOM      7  C   UNL     1      28.334  31.233  17.133  1.00  0.00     0.176 C 
BRANCH   7   8
ATOM      8  C   UNL     1      29.089  30.946  18.393  1.00  0.00     0.178 C 
ATOM      9  C   UNL     1      29.202  29.819  20.371  1.00  0.00     0.269 C 
ATOM     10  C   UNL     1      30.570  30.467  20.359  1.00  0.00     0.112 C 
ATOM     11  O   UNL     1      28.557  29.934  19.146  1.00  0.00    -0.332 OA
ATOM     12  C   UNL     1      30.486  31.954  20.077  1.00  0.00     0.145 C 
ATOM     13  C   UNL     1      29.237  32.169  19.272  1.00  0.00     0.142 C 
BRANCH   9  14
ATOM     14  O   UNL     1      28.424  30.298  21.419  1.00  0.00    -0.357 OA
ATOM     15  H   UNL     1      27.931  31.123  21.169  1.00  0.00     0.214 HD
ENDBRANCH   9  14
BRANCH   9  16
ATOM     16  C   UNL     1      29.423  28.371  20.601  1.00  0.00     0.364 C 
ATOM     17  O   UNL     1      28.536  27.619  21.089  1.00  0.00    -0.246 OA
BRANCH  16  18
ATOM     18  O   UNL     1      30.639  27.815  20.272  1.00  0.00    -0.477 OA
ATOM     19  H   UNL     1      30.755  26.944  19.763  1.00  0.00     0.296 HD
ENDBRANCH  16  18
ENDBRANCH   9  16
BRANCH  12  20
ATOM     20  O   UNL     1      30.491  32.608  21.287  1.00  0.00    -0.391 OA
ATOM     21  H   UNL     1      30.045  33.500  21.146  1.00  0.00     0.211 HD
ENDBRANCH  12  20
BRANCH  13  22
ATOM     22  N   UNL     1      29.172  33.392  18.564  1.00  0.00    -0.348 N 
ATOM     23  C   UNL     1      28.384  34.518  18.926  1.00  0.00     0.217 C 
ATOM     24  H   UNL     1      29.745  33.490  17.699  1.00  0.00     0.163 HD
ATOM     25  C   UNL     1      28.384  35.768  18.108  1.00  0.00     0.114 C 
ATOM     26  O   UNL     1      27.688  34.426  19.956  1.00  0.00    -0.275 OA
ENDBRANCH  13  22
ENDBRANCH   7   8
BRANCH   7  27
ATOM     27  O   UNL     1      27.116  30.606  17.039  1.00  0.00    -0.388 OA
ATOM     28  H   UNL     1      27.266  29.659  16.825  1.00  0.00     0.211 HD
ENDBRANCH   7  27
ENDBRANCH   6   7
BRANCH   6  29
ATOM     29  O   UNL     1      28.881  29.704  15.464  1.00  0.00    -0.388 OA
ATOM     30  H   UNL     1      29.234  29.544  14.544  1.00  0.00     0.211 HD
ENDBRANCH   6  29
ENDBRANCH   5   6
ENDBRANCH   1   5
BRANCH   2  31
ATOM     31  O   UNL     1      32.172  34.262  14.854  1.00  0.00    -0.443 OA
BRANCH  31  32
ATOM     32  C   UNL     1      31.549  35.499  14.555  1.00  0.00     0.294 C 
BRANCH  32  33
ATOM     33  C   UNL     1      30.227  35.225  13.944  1.00  0.00     0.120 A 
ATOM     34  C   UNL     1      29.003  35.058  14.552  1.00  0.00     0.138 A 
ATOM     35  N   UNL     1      30.017  35.090  12.620  1.00  0.00    -0.132 NA
ATOM     36  N   UNL     1      28.084  34.828  13.595  1.00  0.00    -0.249 N 
ATOM     37  N   UNL     1      28.744  34.856  12.434  1.00  0.00    -0.067 NA
BRANCH  36  38
ATOM     38  C   UNL     1      26.654  34.597  13.805  1.00  0.00     0.115 C 
BRANCH  38  39
ATOM     39  C   UNL     1      26.515  33.534  14.841  1.00  0.00     0.063 C 
BRANCH  39  40
ATOM     40  C   UNL     1      25.150  33.397  15.418  1.00  0.00     0.139 CG0
ATOM     41  G   UNL     1      24.177  32.794  14.493  1.00  0.00     0.000 G0
BRANCH  40  42
ATOM     42  O   UNL     1      25.159  32.755  16.677  1.00  0.00    -0.389 OA
ATOM     43  H   UNL     1      25.109  31.786  16.532  1.00  0.00     0.211 HD
ENDBRANCH  40  42
ENDBRANCH  39  40
ENDBRANCH  38  39
BRANCH  38  44
ATOM     44  C   UNL     1      26.052  34.257  12.485  1.00  0.00     0.063 C 
BRANCH  44  45
ATOM     45  C   UNL     1      24.553  34.280  12.460  1.00  0.00     0.139 C 
BRANCH  45  46
ATOM     46  C   UNL     1      23.929  33.181  13.228  1.00  0.00     0.002 C 
ATOM     47  C   UNL     1      24.176  32.810  14.464  1.00  0.00     0.002 CG0
ATOM     48  G   UNL     1      25.133  33.378  15.428  1.00  0.00     0.000 G0
ENDBRANCH  45  46
BRANCH  45  49
ATOM     49  O   UNL     1      24.031  35.517  12.834  1.00  0.00    -0.389 OA
ATOM     50  H   UNL     1      23.512  35.454  13.675  1.00  0.00     0.211 HD
ENDBRANCH  45  49
ENDBRANCH  44  45
ENDBRANCH  38  44
ENDBRANCH  36  38
ENDBRANCH  32  33
ENDBRANCH  31  32
ENDBRANCH   2  31
TORSDOF 17
BEGIN_RES LYS A 131
REMARK  4 active torsions:
REMARK  status: ('A' for Active; 'I' for Inactive)
REMARK    1  A    between atoms: CA   and  CB  
REMARK    2  A    between atoms: CB   and  CG  
REMARK    3  A    between atoms: CG   and  CD  
REMARK    4  A    between atoms: CD   and  CE  
ROOT
ATOM      1  CA  LYS A 131      29.867  25.555  16.977  1.00 20.52     0.186 C 
ENDROOT
BRANCH   1   2
ATOM      2  CB  LYS A 131      28.345  25.722  17.026  1.00 20.94     0.034 C 
BRANCH   2   3
ATOM      3  CG  LYS A 131      27.602  24.398  16.932  1.00 22.96     0.005 C 
BRANCH   3   4
ATOM      4  CD  LYS A 131      26.625  24.216  18.060  1.00 24.33     0.041 C 
BRANCH   4   5
ATOM      5  CE  LYS A 131      25.624  25.367  18.057  1.00 26.91     0.338 C 
ATOM      6  NZ  LYS A 131      24.237  24.849  17.978  1.00 27.40     0.618 N 
ENDBRANCH   4   5
ENDBRANCH   3   4
ENDBRANCH   2   3
ENDBRANCH   1   2
END_RES LYS A 131
BEGIN_RES LYS A 135
REMARK  4 active torsions:
REMARK  status: ('A' for Active; 'I' for Inactive)
REMARK    5  A    between atoms: CA   and  CB  
REMARK    6  A    between atoms: CB   and  CG  
REMARK    7  A    between atoms: CG   and  CD  
REMARK    8  A    between atoms: CD   and  CE  
ROOT
ATOM      7  CA  LYS A 135      33.193  34.663   9.290  1.00 25.02     0.186 C 
ENDROOT
BRANCH   7   8
ATOM      8  CB  LYS A 135      32.060  35.360  10.034  1.00 26.63     0.034 C 
BRANCH   8   9
ATOM      9  CG  LYS A 135      30.818  35.548   9.201  1.00 29.45     0.005 C 
BRANCH   9  10
ATOM     10  CD  LYS A 135      30.070  34.233   9.049  1.00 32.00     0.041 C 
BRANCH  10  11
ATOM     11  CE  LYS A 135      28.626  34.483   8.658  1.00 34.25     0.338 C 
ATOM     12  NZ  LYS A 135      28.541  35.266   7.394  1.00 35.99     0.618 N 
ENDBRANCH  10  11
ENDBRANCH   9  10
ENDBRANCH   8   9
ENDBRANCH   7   8
END_RES LYS A 135
