REMARK VINA RESULT:    -4.913      1.413      2.003
REMARK INTER + INTRA:         -17.254
REMARK INTER:                 -11.246
REMARK INTRA:                  -6.008
REMARK UNBOUND:                -7.171
REMARK SMILES CCOCCc1c(-c2ccccc2)nc(N)nc1-n1cc(COC(=O)NC[C@@H](O)C(O)[C@@H]2O[C@@](O)(C(=O)O)C[C@H](O)[C@H]2NC(C)=O)nn1
REMARK SMILES IDX 23 1 24 2 26 3 25 5 27 6 28 7 30 8 32 9 34 10 39 11 33 12
REMARK SMILES IDX 40 13 42 14 35 15 36 17 37 18 38 19 41 21 43 23 44 24 45 26
REMARK SMILES IDX 46 27 31 28 29 30 22 32 21 33 20 34 47 35 19 36 48 37 18 38
REMARK SMILES IDX 17 39 6 40 15 41 7 42 14 43 5 44 4 45 3 46 2 47 1 48 16 49
REMARK SMILES IDX 8 52 9 53 13 54 10 55 12 56 11 57
REMARK H PARENT 26 4 35 16 38 20 41 22 43 25 31 29 29 31 16 50 16 51
REMARK Flexibility Score: inf
ROOT
ATOM      1  O   UNL     1      25.897  36.561   9.945  1.00  0.00    -0.443 OA
ENDROOT
BRANCH   1   2
ATOM      2  C   UNL     1      25.120  37.095   8.941  1.00  0.00     0.407 C 
ATOM      3  N   UNL     1      23.974  37.925   9.229  1.00  0.00    -0.319 N 
ATOM      4  H   UNL     1      23.794  38.073  10.242  1.00  0.00     0.167 HD
ATOM      5  O   UNL     1      25.434  36.842   7.751  1.00  0.00    -0.225 OA
BRANCH   3   6
ATOM      6  C   UNL     1      23.196  38.459   8.137  1.00  0.00     0.154 C 
BRANCH   6   7
ATOM      7  C   UNL     1      21.730  38.162   8.425  1.00  0.00     0.165 C 
BRANCH   7   8
ATOM      8  C   UNL     1      21.362  36.964   7.583  1.00  0.00     0.176 C 
BRANCH   8   9
ATOM      9  C   UNL     1      21.289  35.666   8.327  1.00  0.00     0.178 C 
ATOM     10  C   UNL     1      18.982  35.370   8.042  1.00  0.00     0.269 C 
ATOM     11  C   UNL     1      18.817  35.947   9.438  1.00  0.00     0.112 C 
ATOM     12  O   UNL     1      20.252  34.934   7.797  1.00  0.00    -0.332 OA
ATOM     13  C   UNL     1      19.885  35.346  10.328  1.00  0.00     0.145 C 
ATOM     14  C   UNL     1      21.280  35.750   9.809  1.00  0.00     0.142 C 
BRANCH  10  15
ATOM     15  O   UNL     1      18.570  36.381   7.164  1.00  0.00    -0.357 OA
ATOM     16  H   UNL     1      17.663  36.701   7.365  1.00  0.00     0.214 HD
ENDBRANCH  10  15
BRANCH  10  17
ATOM     17  C   UNL     1      18.073  34.223   7.845  1.00  0.00     0.364 C 
ATOM     18  O   UNL     1      17.335  33.859   8.781  1.00  0.00    -0.246 OA
BRANCH  17  19
ATOM     19  O   UNL     1      18.040  33.561   6.646  1.00  0.00    -0.477 OA
ATOM     20  H   UNL     1      18.435  33.911   5.782  1.00  0.00     0.296 HD
ENDBRANCH  17  19
ENDBRANCH  10  17
BRANCH  13  21
ATOM     21  O   UNL     1      19.711  35.724  11.639  1.00  0.00    -0.391 OA
ATOM     22  H   UNL     1      19.405  34.974  12.193  1.00  0.00     0.211 HD
ENDBRANCH  13  21
BRANCH  14  23
ATOM     23  N   UNL     1      22.194  34.783  10.432  1.00  0.00    -0.348 N 
ATOM     24  C   UNL     1      23.015  35.192  11.510  1.00  0.00     0.217 C 
ATOM     25  H   UNL     1      22.249  33.798  10.095  1.00  0.00     0.163 HD
ATOM     26  C   UNL     1      23.967  34.262  12.190  1.00  0.00     0.114 C 
ATOM     27  O   UNL     1      22.920  36.392  11.891  1.00  0.00    -0.275 OA
ENDBRANCH  14  23
ENDBRANCH   8   9
BRANCH   8  28
ATOM     28  O   UNL     1      22.503  36.817   6.728  1.00  0.00    -0.388 OA
ATOM     29  H   UNL     1      22.464  37.476   6.007  1.00  0.00     0.211 HD
ENDBRANCH   8  28
ENDBRANCH   7   8
BRANCH   7  30
ATOM     30  O   UNL     1      21.031  39.316   8.109  1.00  0.00    -0.388 OA
ATOM     31  H   UNL     1      20.070  39.150   8.006  1.00  0.00     0.211 HD
ENDBRANCH   7  30
ENDBRANCH   6   7
ENDBRANCH   3   6
ENDBRANCH   1   2
BRANCH   1  32
ATOM     32  C   UNL     1      26.907  37.243  10.655  1.00  0.00     0.294 C 
BRANCH  32  33
ATOM     33  C   UNL     1      27.687  36.269  11.481  1.00  0.00     0.121 A 
ATOM     34  C   UNL     1      28.911  36.451  12.075  1.00  0.00     0.146 A 
ATOM     35  N   UNL     1      27.323  35.006  11.795  1.00  0.00    -0.131 NA
ATOM     36  N   UNL     1      29.278  35.312  12.737  1.00  0.00    -0.202 N 
ATOM     37  N   UNL     1      28.274  34.468  12.534  1.00  0.00    -0.060 NA
BRANCH  36  38
ATOM     38  C   UNL     1      30.479  35.100  13.457  1.00  0.00     0.164 A 
ATOM     39  N   UNL     1      31.661  35.016  12.830  1.00  0.00    -0.193 NA
ATOM     40  C   UNL     1      30.461  34.946  14.848  1.00  0.00     0.026 A 
ATOM     41  C   UNL     1      32.811  34.787  13.513  1.00  0.00     0.222 A 
ATOM     42  C   UNL     1      31.617  34.712  15.538  1.00  0.00     0.081 A 
ATOM     43  N   UNL     1      32.808  34.634  14.841  1.00  0.00    -0.213 NA
BRANCH  40  44
ATOM     44  C   UNL     1      29.159  35.006  15.543  1.00  0.00     0.070 C 
BRANCH  44  45
ATOM     45  C   UNL     1      28.868  36.307  16.237  1.00  0.00     0.165 C 
BRANCH  45  46
ATOM     46  O   UNL     1      28.561  37.315  15.365  1.00  0.00    -0.381 OA
BRANCH  46  47
ATOM     47  C   UNL     1      29.266  38.478  15.574  1.00  0.00     0.156 C 
ATOM     48  C   UNL     1      30.367  38.293  16.596  1.00  0.00     0.035 C 
ENDBRANCH  46  47
ENDBRANCH  45  46
ENDBRANCH  44  45
ENDBRANCH  40  44
BRANCH  41  49
ATOM     49  N   UNL     1      34.035  34.706  12.810  1.00  0.00    -0.368 N 
ATOM     50  H   UNL     1      34.682  35.514  12.795  1.00  0.00     0.159 HD
ATOM     51  H   UNL     1      34.317  33.850  12.297  1.00  0.00     0.159 HD
ENDBRANCH  41  49
BRANCH  42  52
ATOM     52  C   UNL     1      31.648  34.430  16.960  1.00  0.00     0.001 A 
ATOM     53  C   UNL     1      31.098  33.397  17.625  1.00  0.00     0.010 A 
ATOM     54  C   UNL     1      32.374  35.360  17.737  1.00  0.00     0.010 A 
ATOM     55  C   UNL     1      31.249  33.266  19.019  1.00  0.00     0.001 A 
ATOM     56  C   UNL     1      32.529  35.244  19.090  1.00  0.00     0.001 A 
ATOM     57  C   UNL     1      31.959  34.177  19.763  1.00  0.00     0.000 A 
ENDBRANCH  42  52
ENDBRANCH  36  38
ENDBRANCH  32  33
ENDBRANCH   1  32
TORSDOF 21
BEGIN_RES LYS A 131
REMARK  4 active torsions:
REMARK  status: ('A' for Active; 'I' for Inactive)
REMARK    1  A    between atoms: CA   and  CB  
REMARK    2  A    between atoms: CB   and  CG  
REMARK    3  A    between atoms: CG   and  CD  
REMARK    4  A    between atoms: CD   and  CE  
ROOT
ATOM      1  CA  LYS A 131      29.867  25.555  16.977  1.00 20.52     0.186 C 
ENDROOT
BRANCH   1   2
ATOM      2  CB  LYS A 131      28.345  25.722  17.026  1.00 20.94     0.034 C 
BRANCH   2   3
ATOM      3  CG  LYS A 131      27.599  24.476  16.574  1.00 22.96     0.005 C 
BRANCH   3   4
ATOM      4  CD  LYS A 131      27.139  23.639  17.736  1.00 24.33     0.041 C 
BRANCH   4   5
ATOM      5  CE  LYS A 131      25.623  23.485  17.683  1.00 26.91     0.338 C 
ATOM      6  NZ  LYS A 131      25.086  23.173  19.029  1.00 27.40     0.618 N 
ENDBRANCH   4   5
ENDBRANCH   3   4
ENDBRANCH   2   3
ENDBRANCH   1   2
END_RES LYS A 131
BEGIN_RES LYS A 135
REMARK  4 active torsions:
REMARK  status: ('A' for Active; 'I' for Inactive)
REMARK    5  A    between atoms: CA   and  CB  
REMARK    6  A    between atoms: CB   and  CG  
REMARK    7  A    between atoms: CG   and  CD  
REMARK    8  A    between atoms: CD   and  CE  
ROOT
ATOM      7  CA  LYS A 135      33.193  34.663   9.290  1.00 25.02     0.186 C 
ENDROOT
BRANCH   7   8
ATOM      8  CB  LYS A 135      32.060  35.360  10.034  1.00 26.63     0.034 C 
BRANCH   8   9
ATOM      9  CG  LYS A 135      30.799  35.497   9.220  1.00 29.45     0.005 C 
BRANCH   9  10
ATOM     10  CD  LYS A 135      30.018  34.192   9.217  1.00 32.00     0.041 C 
BRANCH  10  11
ATOM     11  CE  LYS A 135      28.687  34.369   8.511  1.00 34.25     0.338 C 
ATOM     12  NZ  LYS A 135      28.656  35.642   7.738  1.00 35.99     0.618 N 
ENDBRANCH  10  11
ENDBRANCH   9  10
ENDBRANCH   8   9
ENDBRANCH   7   8
END_RES LYS A 135
