REMARK VINA RESULT:    -5.267      2.187      4.124
REMARK INTER + INTRA:         -16.446
REMARK INTER:                  -9.646
REMARK INTRA:                  -6.801
REMARK UNBOUND:                -6.408
REMARK SMILES CC(=O)N[C@@H]1[C@@H](O)C[C@](O)(C(=O)O)O[C@H]1C(O)[C@H](O)CNC(=O)OCc1cn(-c2ccc(S(=O)(=O)Nc3nccs3)cc2)nn1
REMARK SMILES IDX 21 1 22 2 23 3 20 5 18 6 16 7 15 8 9 9 8 10 14 11 6 12 5 13
REMARK SMILES IDX 10 14 11 16 12 17 13 18 7 20 4 22 2 23 1 25 3 26 17 27 19 29
REMARK SMILES IDX 24 31 25 32 26 33 27 34 45 35 28 36 44 37 29 38 30 39 43 40
REMARK SMILES IDX 31 41 42 42 32 43 33 44 34 45 35 46 36 47 37 49 38 50 41 51
REMARK SMILES IDX 39 52 40 53
REMARK H PARENT 21 4 10 15 13 19 7 21 4 24 17 28 19 30 36 48
REMARK Flexibility Score: inf
ROOT
ATOM      1  N   UNL     1      27.616  27.824  20.448  1.00  0.00    -0.319 N 
ATOM      2  C   UNL     1      27.022  27.164  19.350  1.00  0.00     0.407 C 
ATOM      3  O   UNL     1      26.091  26.318  19.576  1.00  0.00    -0.225 OA
ATOM      4  H   UNL     1      28.369  28.510  20.273  1.00  0.00     0.167 HD
ENDROOT
BRANCH   1   5
ATOM      5  C   UNL     1      27.201  27.567  21.801  1.00  0.00     0.154 C 
BRANCH   5   6
ATOM      6  C   UNL     1      28.362  27.317  22.731  1.00  0.00     0.165 C 
BRANCH   6   7
ATOM      7  C   UNL     1      29.684  27.408  22.024  1.00  0.00     0.176 C 
BRANCH   7   8
ATOM      8  C   UNL     1      30.572  28.488  22.667  1.00  0.00     0.178 C 
ATOM      9  C   UNL     1      30.452  30.274  21.130  1.00  0.00     0.269 C 
ATOM     10  C   UNL     1      31.963  30.244  21.005  1.00  0.00     0.112 C 
ATOM     11  O   UNL     1      30.068  29.693  22.288  1.00  0.00    -0.332 OA
ATOM     12  C   UNL     1      32.345  28.783  20.994  1.00  0.00     0.145 C 
ATOM     13  C   UNL     1      31.985  28.202  22.339  1.00  0.00     0.142 C 
BRANCH   9  14
ATOM     14  O   UNL     1      29.970  29.522  20.050  1.00  0.00    -0.357 OA
ATOM     15  H   UNL     1      30.669  29.028  19.584  1.00  0.00     0.214 HD
ENDBRANCH   9  14
BRANCH   9  16
ATOM     16  C   UNL     1      29.933  31.656  20.968  1.00  0.00     0.364 C 
ATOM     17  O   UNL     1      30.719  32.581  20.720  1.00  0.00    -0.246 OA
BRANCH  16  18
ATOM     18  O   UNL     1      28.583  31.924  21.093  1.00  0.00    -0.477 OA
ATOM     19  H   UNL     1      28.269  32.795  21.546  1.00  0.00     0.296 HD
ENDBRANCH  16  18
ENDBRANCH   9  16
BRANCH  12  20
ATOM     20  O   UNL     1      31.720  28.137  19.934  1.00  0.00    -0.391 OA
ATOM     21  H   UNL     1      31.292  27.310  20.302  1.00  0.00     0.211 HD
ENDBRANCH  12  20
BRANCH  13  22
ATOM     22  N   UNL     1      32.951  28.665  23.282  1.00  0.00    -0.348 N 
ATOM     23  C   UNL     1      33.946  27.792  23.774  1.00  0.00     0.217 C 
ATOM     24  H   UNL     1      32.929  29.643  23.616  1.00  0.00     0.163 HD
ATOM     25  C   UNL     1      34.987  28.189  24.755  1.00  0.00     0.114 C 
ATOM     26  O   UNL     1      33.948  26.626  23.361  1.00  0.00    -0.275 OA
ENDBRANCH  13  22
ENDBRANCH   7   8
BRANCH   7  27
ATOM     27  O   UNL     1      30.377  26.175  22.025  1.00  0.00    -0.388 OA
ATOM     28  H   UNL     1      29.986  25.622  22.726  1.00  0.00     0.211 HD
ENDBRANCH   7  27
ENDBRANCH   6   7
BRANCH   6  29
ATOM     29  O   UNL     1      28.148  26.025  23.256  1.00  0.00    -0.388 OA
ATOM     30  H   UNL     1      28.604  25.400  22.640  1.00  0.00     0.211 HD
ENDBRANCH   6  29
ENDBRANCH   5   6
ENDBRANCH   1   5
BRANCH   2  31
ATOM     31  O   UNL     1      27.388  27.377  18.037  1.00  0.00    -0.443 OA
BRANCH  31  32
ATOM     32  C   UNL     1      26.719  28.341  17.211  1.00  0.00     0.294 C 
BRANCH  32  33
ATOM     33  C   UNL     1      27.456  29.626  17.394  1.00  0.00     0.121 A 
ATOM     34  C   UNL     1      28.309  30.240  16.474  1.00  0.00     0.144 A 
ATOM     35  N   UNL     1      27.460  30.456  18.458  1.00  0.00    -0.131 NA
ATOM     36  N   UNL     1      28.783  31.381  16.999  1.00  0.00    -0.220 N 
ATOM     37  N   UNL     1      28.244  31.473  18.199  1.00  0.00    -0.062 NA
BRANCH  36  38
ATOM     38  C   UNL     1      29.680  32.272  16.350  1.00  0.00     0.066 A 
ATOM     39  C   UNL     1      30.844  32.711  16.936  1.00  0.00     0.030 A 
ATOM     40  C   UNL     1      29.389  32.728  15.082  1.00  0.00     0.030 A 
ATOM     41  C   UNL     1      31.710  33.587  16.281  1.00  0.00     0.024 A 
ATOM     42  C   UNL     1      30.242  33.593  14.433  1.00  0.00     0.024 A 
ATOM     43  C   UNL     1      31.430  34.048  15.016  1.00  0.00     0.088 A 
BRANCH  43  44
ATOM     44  S   UNL     1      32.484  35.130  14.156  1.00  0.00     0.263 S 
ATOM     45  O   UNL     1      32.026  35.128  12.703  1.00  0.00    -0.201 OA
ATOM     46  O   UNL     1      33.852  34.539  14.166  1.00  0.00    -0.201 OA
BRANCH  44  47
ATOM     47  N   UNL     1      32.485  36.726  14.738  1.00  0.00    -0.255 N 
ATOM     48  H   UNL     1      32.130  37.482  14.090  1.00  0.00     0.182 HD
BRANCH  47  49
ATOM     49  C   UNL     1      32.910  37.169  16.000  1.00  0.00     0.196 A 
ATOM     50  N   UNL     1      33.917  37.405  16.650  1.00  0.00    -0.228 NA
ATOM     51  S   UNL     1      31.614  37.618  17.299  1.00  0.00    -0.105 S 
ATOM     52  C   UNL     1      34.015  37.835  17.867  1.00  0.00     0.125 A 
ATOM     53  C   UNL     1      32.888  38.076  18.574  1.00  0.00     0.089 A 
ENDBRANCH  47  49
ENDBRANCH  44  47
ENDBRANCH  43  44
ENDBRANCH  36  38
ENDBRANCH  32  33
ENDBRANCH  31  32
ENDBRANCH   2  31
TORSDOF 18
BEGIN_RES LYS A 131
REMARK  4 active torsions:
REMARK  status: ('A' for Active; 'I' for Inactive)
REMARK    1  A    between atoms: CA   and  CB  
REMARK    2  A    between atoms: CB   and  CG  
REMARK    3  A    between atoms: CG   and  CD  
REMARK    4  A    between atoms: CD   and  CE  
ROOT
ATOM      1  CA  LYS A 131      29.867  25.555  16.977  1.00 20.52     0.186 C 
ENDROOT
BRANCH   1   2
ATOM      2  CB  LYS A 131      28.345  25.722  17.026  1.00 20.94     0.034 C 
BRANCH   2   3
ATOM      3  CG  LYS A 131      27.599  24.479  16.566  1.00 22.96     0.005 C 
BRANCH   3   4
ATOM      4  CD  LYS A 131      27.245  23.574  17.713  1.00 24.33     0.041 C 
BRANCH   4   5
ATOM      5  CE  LYS A 131      25.737  23.343  17.732  1.00 26.91     0.338 C 
ATOM      6  NZ  LYS A 131      25.043  24.379  16.930  1.00 27.40     0.618 N 
ENDBRANCH   4   5
ENDBRANCH   3   4
ENDBRANCH   2   3
ENDBRANCH   1   2
END_RES LYS A 131
BEGIN_RES LYS A 135
REMARK  4 active torsions:
REMARK  status: ('A' for Active; 'I' for Inactive)
REMARK    5  A    between atoms: CA   and  CB  
REMARK    6  A    between atoms: CB   and  CG  
REMARK    7  A    between atoms: CG   and  CD  
REMARK    8  A    between atoms: CD   and  CE  
ROOT
ATOM      7  CA  LYS A 135      33.193  34.663   9.290  1.00 25.02     0.186 C 
ENDROOT
BRANCH   7   8
ATOM      8  CB  LYS A 135      32.060  35.360  10.034  1.00 26.63     0.034 C 
BRANCH   8   9
ATOM      9  CG  LYS A 135      30.854  35.636   9.173  1.00 29.45     0.005 C 
BRANCH   9  10
ATOM     10  CD  LYS A 135      30.248  34.336   8.666  1.00 32.00     0.041 C 
BRANCH  10  11
ATOM     11  CE  LYS A 135      28.795  34.539   8.285  1.00 34.25     0.338 C 
ATOM     12  NZ  LYS A 135      28.673  35.387   7.066  1.00 35.99     0.618 N 
ENDBRANCH  10  11
ENDBRANCH   9  10
ENDBRANCH   8   9
ENDBRANCH   7   8
END_RES LYS A 135
