REMARK VINA RESULT:    -4.407      5.786     10.866
REMARK INTER + INTRA:         -14.690
REMARK INTER:                  -8.305
REMARK INTRA:                  -6.384
REMARK UNBOUND:                -6.804
REMARK SMILES CC(=O)N[C@@H]1[C@@H](O)C[C@](O)(C(=O)O)O[C@H]1C(O)[C@H](O)CNC(=O)OCc1cn(-c2ccccc2C(C)=O)nn1
REMARK SMILES IDX 21 1 22 2 23 3 20 5 18 6 16 7 15 8 9 9 8 10 14 11 6 12 5 13
REMARK SMILES IDX 10 14 11 16 12 17 13 18 7 20 4 22 2 23 1 25 3 26 17 27 19 29
REMARK SMILES IDX 24 31 25 32 26 33 27 34 39 35 28 36 38 37 29 38 34 39 30 40
REMARK SMILES IDX 33 41 31 42 32 43 35 44 37 45 36 46
REMARK H PARENT 21 4 10 15 13 19 7 21 4 24 17 28 19 30
REMARK Flexibility Score: inf
ROOT
ATOM      1  N   UNL     1      21.470  40.618  10.045  1.00  0.00    -0.319 N 
ATOM      2  C   UNL     1      22.622  40.499  10.897  1.00  0.00     0.407 C 
ATOM      3  O   UNL     1      22.580  39.699  11.862  1.00  0.00    -0.225 OA
ATOM      4  H   UNL     1      21.547  41.285   9.252  1.00  0.00     0.167 HD
ENDROOT
BRANCH   1   5
ATOM      5  C   UNL     1      20.297  39.842  10.317  1.00  0.00     0.154 C 
BRANCH   5   6
ATOM      6  C   UNL     1      19.544  39.333   9.132  1.00  0.00     0.165 C 
BRANCH   6   7
ATOM      7  C   UNL     1      19.010  37.941   9.289  1.00  0.00     0.176 C 
BRANCH   7   8
ATOM      8  C   UNL     1      20.049  36.907   9.637  1.00  0.00     0.178 C 
ATOM      9  C   UNL     1      22.275  36.611  10.176  1.00  0.00     0.269 C 
ATOM     10  C   UNL     1      22.514  35.599   9.071  1.00  0.00     0.112 C 
ATOM     11  O   UNL     1      21.273  37.446   9.837  1.00  0.00    -0.332 OA
ATOM     12  C   UNL     1      21.449  35.647   8.027  1.00  0.00     0.145 C 
ATOM     13  C   UNL     1      20.083  35.832   8.573  1.00  0.00     0.142 C 
BRANCH   9  14
ATOM     14  O   UNL     1      23.507  37.347  10.229  1.00  0.00    -0.357 OA
ATOM     15  H   UNL     1      24.131  36.966   9.537  1.00  0.00     0.214 HD
ENDBRANCH   9  14
BRANCH   9  16
ATOM     16  C   UNL     1      22.194  35.915  11.465  1.00  0.00     0.364 C 
ATOM     17  O   UNL     1      22.098  34.672  11.575  1.00  0.00    -0.246 OA
BRANCH  16  18
ATOM     18  O   UNL     1      22.224  36.622  12.669  1.00  0.00    -0.477 OA
ATOM     19  H   UNL     1      21.957  37.600  12.698  1.00  0.00     0.296 HD
ENDBRANCH  16  18
ENDBRANCH   9  16
BRANCH  12  20
ATOM     20  O   UNL     1      21.735  36.717   7.161  1.00  0.00    -0.391 OA
ATOM     21  H   UNL     1      21.172  36.709   6.350  1.00  0.00     0.211 HD
ENDBRANCH  12  20
BRANCH  13  22
ATOM     22  N   UNL     1      19.497  34.593   8.975  1.00  0.00    -0.348 N 
ATOM     23  C   UNL     1      18.175  34.209   8.617  1.00  0.00     0.217 C 
ATOM     24  H   UNL     1      20.050  33.931   9.550  1.00  0.00     0.163 HD
ATOM     25  C   UNL     1      17.612  32.908   9.061  1.00  0.00     0.114 C 
ATOM     26  O   UNL     1      17.443  34.955   7.917  1.00  0.00    -0.275 OA
ENDBRANCH  13  22
ENDBRANCH   7   8
BRANCH   7  27
ATOM     27  O   UNL     1      18.107  37.567   8.328  1.00  0.00    -0.388 OA
ATOM     28  H   UNL     1      18.042  38.325   7.674  1.00  0.00     0.211 HD
ENDBRANCH   7  27
ENDBRANCH   6   7
BRANCH   6  29
ATOM     29  O   UNL     1      20.535  39.235   8.069  1.00  0.00    -0.388 OA
ATOM     30  H   UNL     1      20.144  39.799   7.350  1.00  0.00     0.211 HD
ENDBRANCH   6  29
ENDBRANCH   5   6
ENDBRANCH   1   5
BRANCH   2  31
ATOM     31  O   UNL     1      23.774  41.225  10.704  1.00  0.00    -0.443 OA
BRANCH  31  32
ATOM     32  C   UNL     1      24.312  41.449   9.404  1.00  0.00     0.294 C 
BRANCH  32  33
ATOM     33  C   UNL     1      24.590  40.170   8.704  1.00  0.00     0.121 A 
ATOM     34  C   UNL     1      25.763  39.464   8.660  1.00  0.00     0.144 A 
ATOM     35  N   UNL     1      23.705  39.450   7.959  1.00  0.00    -0.131 NA
ATOM     36  N   UNL     1      25.555  38.343   7.893  1.00  0.00    -0.220 N 
ATOM     37  N   UNL     1      24.298  38.381   7.494  1.00  0.00    -0.062 NA
BRANCH  36  38
ATOM     38  C   UNL     1      26.489  37.341   7.529  1.00  0.00     0.077 A 
ATOM     39  C   UNL     1      27.542  37.525   6.701  1.00  0.00     0.043 A 
ATOM     40  C   UNL     1      26.248  36.083   8.124  1.00  0.00     0.029 A 
ATOM     41  C   UNL     1      28.393  36.446   6.441  1.00  0.00     0.014 A 
ATOM     42  C   UNL     1      27.091  35.033   7.860  1.00  0.00     0.002 A 
ATOM     43  C   UNL     1      28.153  35.235   7.019  1.00  0.00     0.001 A 
BRANCH  39  44
ATOM     44  C   UNL     1      27.853  38.776   6.046  1.00  0.00     0.161 C 
ATOM     45  O   UNL     1      28.635  39.585   6.693  1.00  0.00    -0.294 OA
ATOM     46  C   UNL     1      27.394  39.247   4.740  1.00  0.00     0.093 C 
ENDBRANCH  39  44
ENDBRANCH  36  38
ENDBRANCH  32  33
ENDBRANCH  31  32
ENDBRANCH   2  31
TORSDOF 16
BEGIN_RES LYS A 131
REMARK  4 active torsions:
REMARK  status: ('A' for Active; 'I' for Inactive)
REMARK    1  A    between atoms: CA   and  CB  
REMARK    2  A    between atoms: CB   and  CG  
REMARK    3  A    between atoms: CG   and  CD  
REMARK    4  A    between atoms: CD   and  CE  
ROOT
ATOM      1  CA  LYS A 131      29.867  25.555  16.977  1.00 20.52     0.186 C 
ENDROOT
BRANCH   1   2
ATOM      2  CB  LYS A 131      28.345  25.722  17.026  1.00 20.94     0.034 C 
BRANCH   2   3
ATOM      3  CG  LYS A 131      27.602  24.397  16.941  1.00 22.96     0.005 C 
BRANCH   3   4
ATOM      4  CD  LYS A 131      26.133  24.553  17.221  1.00 24.33     0.041 C 
BRANCH   4   5
ATOM      5  CE  LYS A 131      25.920  25.707  18.195  1.00 26.91     0.338 C 
ATOM      6  NZ  LYS A 131      25.728  25.194  19.572  1.00 27.40     0.618 N 
ENDBRANCH   4   5
ENDBRANCH   3   4
ENDBRANCH   2   3
ENDBRANCH   1   2
END_RES LYS A 131
BEGIN_RES LYS A 135
REMARK  4 active torsions:
REMARK  status: ('A' for Active; 'I' for Inactive)
REMARK    5  A    between atoms: CA   and  CB  
REMARK    6  A    between atoms: CB   and  CG  
REMARK    7  A    between atoms: CG   and  CD  
REMARK    8  A    between atoms: CD   and  CE  
ROOT
ATOM      7  CA  LYS A 135      33.193  34.663   9.290  1.00 25.02     0.186 C 
ENDROOT
BRANCH   7   8
ATOM      8  CB  LYS A 135      32.060  35.360  10.034  1.00 26.63     0.034 C 
BRANCH   8   9
ATOM      9  CG  LYS A 135      30.691  35.011   9.510  1.00 29.45     0.005 C 
BRANCH   9  10
ATOM     10  CD  LYS A 135      29.672  34.995  10.639  1.00 32.00     0.041 C 
BRANCH  10  11
ATOM     11  CE  LYS A 135      30.367  34.874  11.982  1.00 34.25     0.338 C 
ATOM     12  NZ  LYS A 135      29.490  35.354  13.086  1.00 35.99     0.618 N 
ENDBRANCH  10  11
ENDBRANCH   9  10
ENDBRANCH   8   9
ENDBRANCH   7   8
END_RES LYS A 135
