REMARK VINA RESULT:    -5.036      2.671      5.257
REMARK INTER + INTRA:         -14.952
REMARK INTER:                  -7.691
REMARK INTRA:                  -7.262
REMARK UNBOUND:                -5.794
REMARK SMILES CC(=O)N[C@@H]1[C@@H](O)C[C@](O)(C(=O)O)O[C@H]1C(O)[C@H](O)CNC(=O)OCc1cn(Cc2cc(Br)cc(Br)c2O)nn1
REMARK SMILES IDX 21 1 22 2 23 3 20 5 18 6 16 7 15 8 9 9 8 10 14 11 6 12 5 13
REMARK SMILES IDX 10 14 11 16 12 17 13 18 7 20 4 22 2 23 1 25 3 26 17 27 19 29
REMARK SMILES IDX 24 31 25 32 26 33 27 34 40 35 28 36 39 37 29 38 30 39 31 40
REMARK SMILES IDX 37 41 32 42 35 43 33 44 34 45 36 46 38 47
REMARK H PARENT 21 4 10 15 13 19 7 21 4 24 17 28 19 30 38 48
REMARK Flexibility Score: inf
ROOT
ATOM      1  N   UNL     1      32.627  28.862  20.812  1.00  0.00    -0.319 N 
ATOM      2  C   UNL     1      33.273  29.263  22.016  1.00  0.00     0.407 C 
ATOM      3  O   UNL     1      32.959  28.699  23.089  1.00  0.00    -0.225 OA
ATOM      4  H   UNL     1      32.904  29.343  19.938  1.00  0.00     0.167 HD
ENDROOT
BRANCH   1   5
ATOM      5  C   UNL     1      31.624  27.832  20.789  1.00  0.00     0.154 C 
BRANCH   5   6
ATOM      6  C   UNL     1      30.246  28.416  20.913  1.00  0.00     0.165 C 
BRANCH   6   7
ATOM      7  C   UNL     1      29.169  27.354  20.872  1.00  0.00     0.176 C 
BRANCH   7   8
ATOM      8  C   UNL     1      27.935  27.850  21.648  1.00  0.00     0.178 C 
ATOM      9  C   UNL     1      26.913  29.948  21.349  1.00  0.00     0.269 C 
ATOM     10  C   UNL     1      26.556  29.858  22.840  1.00  0.00     0.112 C 
ATOM     11  O   UNL     1      27.313  28.745  20.873  1.00  0.00    -0.332 OA
ATOM     12  C   UNL     1      27.892  29.559  23.503  1.00  0.00     0.145 C 
ATOM     13  C   UNL     1      28.308  28.198  23.027  1.00  0.00     0.142 C 
BRANCH   9  14
ATOM     14  O   UNL     1      27.850  30.957  21.251  1.00  0.00    -0.357 OA
ATOM     15  H   UNL     1      27.537  31.745  20.744  1.00  0.00     0.214 HD
ENDBRANCH   9  14
BRANCH   9  16
ATOM     16  C   UNL     1      25.704  30.358  20.591  1.00  0.00     0.364 C 
ATOM     17  O   UNL     1      24.728  29.568  20.538  1.00  0.00    -0.246 OA
BRANCH  16  18
ATOM     18  O   UNL     1      25.614  31.584  19.939  1.00  0.00    -0.477 OA
ATOM     19  H   UNL     1      26.006  31.605  18.986  1.00  0.00     0.296 HD
ENDBRANCH  16  18
ENDBRANCH   9  16
BRANCH  12  20
ATOM     20  O   UNL     1      28.830  30.540  23.190  1.00  0.00    -0.391 OA
ATOM     21  H   UNL     1      28.341  31.326  22.869  1.00  0.00     0.211 HD
ENDBRANCH  12  20
BRANCH  13  22
ATOM     22  N   UNL     1      27.820  27.237  24.015  1.00  0.00    -0.348 N 
ATOM     23  C   UNL     1      28.580  26.128  24.463  1.00  0.00     0.217 C 
ATOM     24  H   UNL     1      26.857  27.339  24.442  1.00  0.00     0.163 HD
ATOM     25  C   UNL     1      28.039  25.171  25.475  1.00  0.00     0.114 C 
ATOM     26  O   UNL     1      29.734  25.941  24.000  1.00  0.00    -0.275 OA
ENDBRANCH  13  22
ENDBRANCH   7   8
BRANCH   7  27
ATOM     27  O   UNL     1      28.854  26.923  19.607  1.00  0.00    -0.388 OA
ATOM     28  H   UNL     1      28.620  27.659  19.004  1.00  0.00     0.211 HD
ENDBRANCH   7  27
ENDBRANCH   6   7
BRANCH   6  29
ATOM     29  O   UNL     1      30.072  29.430  19.998  1.00  0.00    -0.388 OA
ATOM     30  H   UNL     1      30.774  29.491  19.323  1.00  0.00     0.211 HD
ENDBRANCH   6  29
ENDBRANCH   5   6
ENDBRANCH   1   5
BRANCH   2  31
ATOM     31  O   UNL     1      34.227  30.250  22.006  1.00  0.00    -0.443 OA
BRANCH  31  32
ATOM     32  C   UNL     1      33.946  31.569  22.441  1.00  0.00     0.294 C 
BRANCH  32  33
ATOM     33  C   UNL     1      32.671  32.014  21.819  1.00  0.00     0.120 A 
ATOM     34  C   UNL     1      32.518  32.977  20.830  1.00  0.00     0.138 A 
ATOM     35  N   UNL     1      31.415  31.598  22.064  1.00  0.00    -0.132 NA
ATOM     36  N   UNL     1      31.218  33.100  20.528  1.00  0.00    -0.248 N 
ATOM     37  N   UNL     1      30.550  32.234  21.307  1.00  0.00    -0.067 NA
BRANCH  36  38
ATOM     38  C   UNL     1      30.614  33.976  19.562  1.00  0.00     0.185 C 
BRANCH  38  39
ATOM     39  C   UNL     1      30.686  33.450  18.175  1.00  0.00     0.018 A 
ATOM     40  C   UNL     1      31.567  34.047  17.296  1.00  0.00     0.025 A 
ATOM     41  C   UNL     1      29.919  32.401  17.725  1.00  0.00     0.134 A 
ATOM     42  C   UNL     1      31.714  33.642  15.988  1.00  0.00     0.019 A 
ATOM     43  C   UNL     1      30.048  31.970  16.401  1.00  0.00     0.061 A 
ATOM     44  Br  UNL     1      32.937  34.482  14.801  1.00  0.00    -0.051 Br
ATOM     45  C   UNL     1      30.932  32.582  15.546  1.00  0.00     0.035 A 
ATOM     46  Br  UNL     1      28.940  30.500  15.855  1.00  0.00    -0.047 Br
BRANCH  41  47
ATOM     47  O   UNL     1      29.027  31.781  18.580  1.00  0.00    -0.506 OA
ATOM     48  H   UNL     1      28.079  31.618  18.269  1.00  0.00     0.293 HD
ENDBRANCH  41  47
ENDBRANCH  38  39
ENDBRANCH  36  38
ENDBRANCH  32  33
ENDBRANCH  31  32
ENDBRANCH   2  31
TORSDOF 17
BEGIN_RES LYS A 131
REMARK  4 active torsions:
REMARK  status: ('A' for Active; 'I' for Inactive)
REMARK    1  A    between atoms: CA   and  CB  
REMARK    2  A    between atoms: CB   and  CG  
REMARK    3  A    between atoms: CG   and  CD  
REMARK    4  A    between atoms: CD   and  CE  
ROOT
ATOM      1  CA  LYS A 131      29.867  25.555  16.977  1.00 20.52     0.186 C 
ENDROOT
BRANCH   1   2
ATOM      2  CB  LYS A 131      28.345  25.722  17.026  1.00 20.94     0.034 C 
BRANCH   2   3
ATOM      3  CG  LYS A 131      27.602  24.399  16.921  1.00 22.96     0.005 C 
BRANCH   3   4
ATOM      4  CD  LYS A 131      26.154  24.531  17.303  1.00 24.33     0.041 C 
BRANCH   4   5
ATOM      5  CE  LYS A 131      25.940  25.848  18.043  1.00 26.91     0.338 C 
ATOM      6  NZ  LYS A 131      25.667  25.598  19.478  1.00 27.40     0.618 N 
ENDBRANCH   4   5
ENDBRANCH   3   4
ENDBRANCH   2   3
ENDBRANCH   1   2
END_RES LYS A 131
BEGIN_RES LYS A 135
REMARK  4 active torsions:
REMARK  status: ('A' for Active; 'I' for Inactive)
REMARK    5  A    between atoms: CA   and  CB  
REMARK    6  A    between atoms: CB   and  CG  
REMARK    7  A    between atoms: CG   and  CD  
REMARK    8  A    between atoms: CD   and  CE  
ROOT
ATOM      7  CA  LYS A 135      33.193  34.663   9.290  1.00 25.02     0.186 C 
ENDROOT
BRANCH   7   8
ATOM      8  CB  LYS A 135      32.060  35.360  10.034  1.00 26.63     0.034 C 
BRANCH   8   9
ATOM      9  CG  LYS A 135      30.728  34.671   9.885  1.00 29.45     0.005 C 
BRANCH   9  10
ATOM     10  CD  LYS A 135      30.359  34.528   8.416  1.00 32.00     0.041 C 
BRANCH  10  11
ATOM     11  CE  LYS A 135      28.853  34.565   8.239  1.00 34.25     0.338 C 
ATOM     12  NZ  LYS A 135      28.433  35.768   7.468  1.00 35.99     0.618 N 
ENDBRANCH  10  11
ENDBRANCH   9  10
ENDBRANCH   8   9
ENDBRANCH   7   8
END_RES LYS A 135
