REMARK VINA RESULT:    -5.000      7.219     12.293
REMARK INTER + INTRA:         -14.450
REMARK INTER:                  -9.101
REMARK INTRA:                  -5.350
REMARK UNBOUND:                -5.212
REMARK SMILES CC(=O)N[C@@H]1[C@@H](O)C[C@](O)(C(=O)O)O[C@H]1C(O)[C@H](O)CNC(=O)OCc1cn(Cc2cccc(C#N)c2)nn1
REMARK SMILES IDX 21 1 22 2 23 3 20 5 18 6 16 7 15 8 9 9 8 10 14 11 6 12 5 13
REMARK SMILES IDX 10 14 11 16 12 17 13 18 7 20 4 22 2 23 1 25 3 26 17 27 19 29
REMARK SMILES IDX 24 31 25 32 26 33 27 34 39 35 28 36 38 37 29 38 30 39 31 40
REMARK SMILES IDX 37 41 32 42 34 43 33 44 35 45 36 46
REMARK H PARENT 21 4 10 15 13 19 7 21 4 24 17 28 19 30
REMARK Flexibility Score: inf
ROOT
ATOM      1  N   UNL     1      19.325  34.430   8.478  1.00  0.00    -0.319 N 
ATOM      2  C   UNL     1      20.268  35.360   8.027  1.00  0.00     0.407 C 
ATOM      3  O   UNL     1      19.920  36.342   7.340  1.00  0.00    -0.225 OA
ATOM      4  H   UNL     1      19.697  33.622   9.062  1.00  0.00     0.167 HD
ENDROOT
BRANCH   1   5
ATOM      5  C   UNL     1      17.916  34.514   8.198  1.00  0.00     0.154 C 
BRANCH   5   6
ATOM      6  C   UNL     1      17.352  33.244   7.626  1.00  0.00     0.165 C 
BRANCH   6   7
ATOM      7  C   UNL     1      17.651  32.008   8.382  1.00  0.00     0.176 C 
BRANCH   7   8
ATOM      8  C   UNL     1      16.803  30.786   7.994  1.00  0.00     0.178 C 
ATOM      9  C   UNL     1      16.677  29.121   6.445  1.00  0.00     0.269 C 
ATOM     10  C   UNL     1      15.351  29.643   5.931  1.00  0.00     0.112 C 
ATOM     11  O   UNL     1      17.376  30.189   6.943  1.00  0.00    -0.332 OA
ATOM     12  C   UNL     1      14.538  30.251   7.042  1.00  0.00     0.145 C 
ATOM     13  C   UNL     1      15.357  31.107   7.963  1.00  0.00     0.142 C 
BRANCH   9  14
ATOM     14  O   UNL     1      17.380  28.581   5.337  1.00  0.00    -0.357 OA
ATOM     15  H   UNL     1      17.134  29.183   4.577  1.00  0.00     0.214 HD
ENDBRANCH   9  14
BRANCH   9  16
ATOM     16  C   UNL     1      16.440  28.005   7.366  1.00  0.00     0.364 C 
ATOM     17  O   UNL     1      15.345  27.399   7.410  1.00  0.00    -0.246 OA
BRANCH  16  18
ATOM     18  O   UNL     1      17.413  27.528   8.269  1.00  0.00    -0.477 OA
ATOM     19  H   UNL     1      18.025  28.248   8.660  1.00  0.00     0.296 HD
ENDBRANCH  16  18
ENDBRANCH   9  16
BRANCH  12  20
ATOM     20  O   UNL     1      13.522  31.005   6.456  1.00  0.00    -0.391 OA
ATOM     21  H   UNL     1      13.597  31.043   5.480  1.00  0.00     0.211 HD
ENDBRANCH  12  20
BRANCH  13  22
ATOM     22  N   UNL     1      14.782  31.045   9.292  1.00  0.00    -0.348 N 
ATOM     23  C   UNL     1      13.817  32.009   9.763  1.00  0.00     0.217 C 
ATOM     24  H   UNL     1      15.019  30.309  10.005  1.00  0.00     0.163 HD
ATOM     25  C   UNL     1      13.252  31.905  11.145  1.00  0.00     0.114 C 
ATOM     26  O   UNL     1      13.446  32.937   9.018  1.00  0.00    -0.275 OA
ENDBRANCH  13  22
ENDBRANCH   7   8
BRANCH   7  27
ATOM     27  O   UNL     1      17.510  32.158   9.763  1.00  0.00    -0.388 OA
ATOM     28  H   UNL     1      17.257  31.318  10.218  1.00  0.00     0.211 HD
ENDBRANCH   7  27
ENDBRANCH   6   7
BRANCH   6  29
ATOM     29  O   UNL     1      17.662  33.210   6.267  1.00  0.00    -0.388 OA
ATOM     30  H   UNL     1      17.665  34.140   5.935  1.00  0.00     0.211 HD
ENDBRANCH   6  29
ENDBRANCH   5   6
ENDBRANCH   1   5
BRANCH   2  31
ATOM     31  O   UNL     1      21.630  35.249   8.307  1.00  0.00    -0.443 OA
BRANCH  31  32
ATOM     32  C   UNL     1      22.202  36.144   9.227  1.00  0.00     0.294 C 
BRANCH  32  33
ATOM     33  C   UNL     1      22.098  35.569  10.583  1.00  0.00     0.120 A 
ATOM     34  C   UNL     1      22.933  34.654  11.186  1.00  0.00     0.138 A 
ATOM     35  N   UNL     1      21.144  35.851  11.488  1.00  0.00    -0.132 NA
ATOM     36  N   UNL     1      22.468  34.410  12.425  1.00  0.00    -0.248 N 
ATOM     37  N   UNL     1      21.380  35.158  12.566  1.00  0.00    -0.067 NA
BRANCH  36  38
ATOM     38  C   UNL     1      22.973  33.549  13.461  1.00  0.00     0.181 C 
BRANCH  38  39
ATOM     39  C   UNL     1      22.782  32.107  13.091  1.00  0.00    -0.025 A 
ATOM     40  C   UNL     1      23.854  31.244  13.122  1.00  0.00     0.006 A 
ATOM     41  C   UNL     1      21.559  31.613  12.724  1.00  0.00     0.025 A 
ATOM     42  C   UNL     1      23.682  29.896  12.785  1.00  0.00     0.002 A 
ATOM     43  C   UNL     1      21.352  30.292  12.387  1.00  0.00     0.052 A 
ATOM     44  C   UNL     1      22.424  29.430  12.419  1.00  0.00     0.019 A 
BRANCH  43  45
ATOM     45  C   UNL     1      20.081  29.752  12.001  1.00  0.00     0.099 C 
ATOM     46  N   UNL     1      19.049  29.320  11.669  1.00  0.00    -0.192 NA
ENDBRANCH  43  45
ENDBRANCH  38  39
ENDBRANCH  36  38
ENDBRANCH  32  33
ENDBRANCH  31  32
ENDBRANCH   2  31
TORSDOF 17
BEGIN_RES LYS A 131
REMARK  4 active torsions:
REMARK  status: ('A' for Active; 'I' for Inactive)
REMARK    1  A    between atoms: CA   and  CB  
REMARK    2  A    between atoms: CB   and  CG  
REMARK    3  A    between atoms: CG   and  CD  
REMARK    4  A    between atoms: CD   and  CE  
ROOT
ATOM      1  CA  LYS A 131      29.867  25.555  16.977  1.00 20.52     0.186 C 
ENDROOT
BRANCH   1   2
ATOM      2  CB  LYS A 131      28.345  25.722  17.026  1.00 20.94     0.034 C 
BRANCH   2   3
ATOM      3  CG  LYS A 131      27.604  24.394  17.003  1.00 22.96     0.005 C 
BRANCH   3   4
ATOM      4  CD  LYS A 131      26.118  24.572  17.150  1.00 24.33     0.041 C 
BRANCH   4   5
ATOM      5  CE  LYS A 131      25.830  25.507  18.320  1.00 26.91     0.338 C 
ATOM      6  NZ  LYS A 131      25.626  24.732  19.566  1.00 27.40     0.618 N 
ENDBRANCH   4   5
ENDBRANCH   3   4
ENDBRANCH   2   3
ENDBRANCH   1   2
END_RES LYS A 131
BEGIN_RES LYS A 135
REMARK  4 active torsions:
REMARK  status: ('A' for Active; 'I' for Inactive)
REMARK    5  A    between atoms: CA   and  CB  
REMARK    6  A    between atoms: CB   and  CG  
REMARK    7  A    between atoms: CG   and  CD  
REMARK    8  A    between atoms: CD   and  CE  
ROOT
ATOM      7  CA  LYS A 135      33.193  34.663   9.290  1.00 25.02     0.186 C 
ENDROOT
BRANCH   7   8
ATOM      8  CB  LYS A 135      32.060  35.360  10.034  1.00 26.63     0.034 C 
BRANCH   8   9
ATOM      9  CG  LYS A 135      30.804  35.509   9.215  1.00 29.45     0.005 C 
BRANCH   9  10
ATOM     10  CD  LYS A 135      30.093  34.172   9.075  1.00 32.00     0.041 C 
BRANCH  10  11
ATOM     11  CE  LYS A 135      28.646  34.379   8.669  1.00 34.25     0.338 C 
ATOM     12  NZ  LYS A 135      27.722  33.673   9.600  1.00 35.99     0.618 N 
ENDBRANCH  10  11
ENDBRANCH   9  10
ENDBRANCH   8   9
ENDBRANCH   7   8
END_RES LYS A 135
