REMARK VINA RESULT:    -4.845      2.322      5.155
REMARK INTER + INTRA:         -14.164
REMARK INTER:                  -8.976
REMARK INTRA:                  -5.188
REMARK UNBOUND:                -5.212
REMARK SMILES CC(=O)N[C@@H]1[C@@H](O)C[C@](O)(C(=O)O)O[C@H]1C(O)[C@H](O)CNC(=O)OCc1cn(Cc2cccc(C#N)c2)nn1
REMARK SMILES IDX 21 1 22 2 23 3 20 5 18 6 16 7 15 8 9 9 8 10 14 11 6 12 5 13
REMARK SMILES IDX 10 14 11 16 12 17 13 18 7 20 4 22 2 23 1 25 3 26 17 27 19 29
REMARK SMILES IDX 24 31 25 32 26 33 27 34 39 35 28 36 38 37 29 38 30 39 31 40
REMARK SMILES IDX 37 41 32 42 34 43 33 44 35 45 36 46
REMARK H PARENT 21 4 10 15 13 19 7 21 4 24 17 28 19 30
REMARK Flexibility Score: inf
ROOT
ATOM      1  N   UNL     1      27.618  35.870  11.301  1.00  0.00    -0.319 N 
ATOM      2  C   UNL     1      26.936  34.950  10.497  1.00  0.00     0.407 C 
ATOM      3  O   UNL     1      27.302  33.758  10.437  1.00  0.00    -0.225 OA
ATOM      4  H   UNL     1      27.243  36.866  11.304  1.00  0.00     0.167 HD
ENDROOT
BRANCH   1   5
ATOM      5  C   UNL     1      28.767  35.540  12.102  1.00  0.00     0.154 C 
BRANCH   5   6
ATOM      6  C   UNL     1      28.624  35.959  13.538  1.00  0.00     0.165 C 
BRANCH   6   7
ATOM      7  C   UNL     1      27.945  34.993  14.428  1.00  0.00     0.176 C 
BRANCH   7   8
ATOM      8  C   UNL     1      28.874  34.220  15.379  1.00  0.00     0.178 C 
ATOM      9  C   UNL     1      31.080  33.841  15.801  1.00  0.00     0.269 C 
ATOM     10  C   UNL     1      30.932  32.370  15.472  1.00  0.00     0.112 C 
ATOM     11  O   UNL     1      30.140  34.523  15.073  1.00  0.00    -0.332 OA
ATOM     12  C   UNL     1      29.575  31.856  15.871  1.00  0.00     0.145 C 
ATOM     13  C   UNL     1      28.466  32.803  15.516  1.00  0.00     0.142 C 
BRANCH   9  14
ATOM     14  O   UNL     1      32.374  34.242  15.383  1.00  0.00    -0.357 OA
ATOM     15  H   UNL     1      32.955  34.049  16.172  1.00  0.00     0.214 HD
ENDBRANCH   9  14
BRANCH   9  16
ATOM     16  C   UNL     1      31.042  34.024  17.256  1.00  0.00     0.364 C 
ATOM     17  O   UNL     1      30.908  35.153  17.781  1.00  0.00    -0.246 OA
BRANCH  16  18
ATOM     18  O   UNL     1      31.153  32.958  18.172  1.00  0.00    -0.477 OA
ATOM     19  H   UNL     1      30.295  32.418  18.309  1.00  0.00     0.296 HD
ENDBRANCH  16  18
ENDBRANCH   9  16
BRANCH  12  20
ATOM     20  O   UNL     1      29.385  30.629  15.236  1.00  0.00    -0.391 OA
ATOM     21  H   UNL     1      29.695  29.873  15.777  1.00  0.00     0.211 HD
ENDBRANCH  12  20
BRANCH  13  22
ATOM     22  N   UNL     1      27.401  32.660  16.489  1.00  0.00    -0.348 N 
ATOM     23  C   UNL     1      26.378  31.649  16.375  1.00  0.00     0.217 C 
ATOM     24  H   UNL     1      27.290  33.271  17.338  1.00  0.00     0.163 HD
ATOM     25  C   UNL     1      25.297  31.541  17.404  1.00  0.00     0.114 C 
ATOM     26  O   UNL     1      26.390  30.855  15.413  1.00  0.00    -0.275 OA
ENDBRANCH  13  22
ENDBRANCH   7   8
BRANCH   7  27
ATOM     27  O   UNL     1      27.206  34.031  13.736  1.00  0.00    -0.388 OA
ATOM     28  H   UNL     1      27.743  33.239  13.486  1.00  0.00     0.211 HD
ENDBRANCH   7  27
ENDBRANCH   6   7
BRANCH   6  29
ATOM     29  O   UNL     1      28.115  37.257  13.557  1.00  0.00    -0.388 OA
ATOM     30  H   UNL     1      28.158  37.613  12.636  1.00  0.00     0.211 HD
ENDBRANCH   6  29
ENDBRANCH   5   6
ENDBRANCH   1   5
BRANCH   2  31
ATOM     31  O   UNL     1      25.828  35.299   9.725  1.00  0.00    -0.443 OA
BRANCH  31  32
ATOM     32  C   UNL     1      24.847  36.128  10.294  1.00  0.00     0.294 C 
BRANCH  32  33
ATOM     33  C   UNL     1      24.317  35.478  11.509  1.00  0.00     0.120 A 
ATOM     34  C   UNL     1      23.252  34.612  11.617  1.00  0.00     0.138 A 
ATOM     35  N   UNL     1      24.801  35.625  12.756  1.00  0.00    -0.132 NA
ATOM     36  N   UNL     1      23.121  34.260  12.909  1.00  0.00    -0.248 N 
ATOM     37  N   UNL     1      24.083  34.899  13.565  1.00  0.00    -0.067 NA
BRANCH  36  38
ATOM     38  C   UNL     1      22.181  33.379  13.548  1.00  0.00     0.181 C 
BRANCH  38  39
ATOM     39  C   UNL     1      22.461  31.950  13.183  1.00  0.00    -0.025 A 
ATOM     40  C   UNL     1      23.744  31.459  13.273  1.00  0.00     0.006 A 
ATOM     41  C   UNL     1      21.468  31.106  12.762  1.00  0.00     0.025 A 
ATOM     42  C   UNL     1      24.011  30.126  12.940  1.00  0.00     0.002 A 
ATOM     43  C   UNL     1      21.694  29.787  12.427  1.00  0.00     0.052 A 
ATOM     44  C   UNL     1      22.977  29.297  12.519  1.00  0.00     0.019 A 
BRANCH  43  45
ATOM     45  C   UNL     1      20.672  28.885  11.986  1.00  0.00     0.099 C 
ATOM     46  N   UNL     1      19.846  28.153  11.608  1.00  0.00    -0.192 NA
ENDBRANCH  43  45
ENDBRANCH  38  39
ENDBRANCH  36  38
ENDBRANCH  32  33
ENDBRANCH  31  32
ENDBRANCH   2  31
TORSDOF 17
BEGIN_RES LYS A 131
REMARK  4 active torsions:
REMARK  status: ('A' for Active; 'I' for Inactive)
REMARK    1  A    between atoms: CA   and  CB  
REMARK    2  A    between atoms: CB   and  CG  
REMARK    3  A    between atoms: CG   and  CD  
REMARK    4  A    between atoms: CD   and  CE  
ROOT
ATOM      1  CA  LYS A 131      29.867  25.555  16.977  1.00 20.52     0.186 C 
ENDROOT
BRANCH   1   2
ATOM      2  CB  LYS A 131      28.345  25.722  17.026  1.00 20.94     0.034 C 
BRANCH   2   3
ATOM      3  CG  LYS A 131      27.603  24.396  16.963  1.00 22.96     0.005 C 
BRANCH   3   4
ATOM      4  CD  LYS A 131      26.429  24.359  17.901  1.00 24.33     0.041 C 
BRANCH   4   5
ATOM      5  CE  LYS A 131      25.134  24.342  17.096  1.00 26.91     0.338 C 
ATOM      6  NZ  LYS A 131      23.960  24.372  18.000  1.00 27.40     0.618 N 
ENDBRANCH   4   5
ENDBRANCH   3   4
ENDBRANCH   2   3
ENDBRANCH   1   2
END_RES LYS A 131
BEGIN_RES LYS A 135
REMARK  4 active torsions:
REMARK  status: ('A' for Active; 'I' for Inactive)
REMARK    5  A    between atoms: CA   and  CB  
REMARK    6  A    between atoms: CB   and  CG  
REMARK    7  A    between atoms: CG   and  CD  
REMARK    8  A    between atoms: CD   and  CE  
ROOT
ATOM      7  CA  LYS A 135      33.193  34.663   9.290  1.00 25.02     0.186 C 
ENDROOT
BRANCH   7   8
ATOM      8  CB  LYS A 135      32.060  35.360  10.034  1.00 26.63     0.034 C 
BRANCH   8   9
ATOM      9  CG  LYS A 135      30.738  35.296   9.314  1.00 29.45     0.005 C 
BRANCH   9  10
ATOM     10  CD  LYS A 135      30.330  36.674   8.816  1.00 32.00     0.041 C 
BRANCH  10  11
ATOM     11  CE  LYS A 135      29.066  36.588   7.984  1.00 34.25     0.338 C 
ATOM     12  NZ  LYS A 135      28.895  35.225   7.407  1.00 35.99     0.618 N 
ENDBRANCH  10  11
ENDBRANCH   9  10
ENDBRANCH   8   9
ENDBRANCH   7   8
END_RES LYS A 135
