REMARK VINA RESULT:    -6.397      3.341      6.339
REMARK INTER + INTRA:         -15.967
REMARK INTER:                 -10.447
REMARK INTRA:                  -5.519
REMARK UNBOUND:                -3.774
REMARK SMILES CC(=O)N[C@@H]1[C@@H](O)C[C@](O)(C(=O)O)O[C@H]1C(O)[C@H](O)CNC(=O)OCc1cn(COCc2ccccc2)nn1
REMARK SMILES IDX 21 1 22 2 23 3 20 5 18 6 16 7 15 8 9 9 8 10 14 11 6 12 5 13
REMARK SMILES IDX 10 14 11 16 12 17 13 18 7 20 4 22 2 23 1 25 3 26 17 27 19 29
REMARK SMILES IDX 24 31 25 32 26 33 27 34 39 35 28 36 38 37 29 38 30 39 31 40
REMARK SMILES IDX 32 41 33 42 37 43 34 44 36 45 35 46
REMARK H PARENT 21 4 10 15 13 19 7 21 4 24 17 28 19 30
REMARK Flexibility Score: inf
ROOT
ATOM      1  N   UNL     1      21.878  41.028   7.128  1.00  0.00    -0.319 N 
ATOM      2  C   UNL     1      22.840  42.050   6.878  1.00  0.00     0.407 C 
ATOM      3  O   UNL     1      22.879  43.102   7.584  1.00  0.00    -0.225 OA
ATOM      4  H   UNL     1      21.876  40.184   6.533  1.00  0.00     0.167 HD
ENDROOT
BRANCH   1   5
ATOM      5  C   UNL     1      20.951  41.245   8.221  1.00  0.00     0.154 C 
BRANCH   5   6
ATOM      6  C   UNL     1      21.304  40.427   9.434  1.00  0.00     0.165 C 
BRANCH   6   7
ATOM      7  C   UNL     1      20.709  39.041   9.315  1.00  0.00     0.176 C 
BRANCH   7   8
ATOM      8  C   UNL     1      21.741  37.963   9.351  1.00  0.00     0.178 C 
ATOM      9  C   UNL     1      24.002  37.646   9.815  1.00  0.00     0.269 C 
ATOM     10  C   UNL     1      23.866  36.391   8.964  1.00  0.00     0.112 C 
ATOM     11  O   UNL     1      22.974  38.557   9.602  1.00  0.00    -0.332 OA
ATOM     12  C   UNL     1      23.182  36.807   7.680  1.00  0.00     0.145 C 
ATOM     13  C   UNL     1      21.755  37.158   8.070  1.00  0.00     0.142 C 
BRANCH   9  14
ATOM     14  O   UNL     1      25.166  38.271   9.373  1.00  0.00    -0.357 OA
ATOM     15  H   UNL     1      25.864  37.619   9.111  1.00  0.00     0.214 HD
ENDBRANCH   9  14
BRANCH   9  16
ATOM     16  C   UNL     1      24.163  37.296  11.231  1.00  0.00     0.364 C 
ATOM     17  O   UNL     1      24.241  38.210  12.089  1.00  0.00    -0.246 OA
BRANCH  16  18
ATOM     18  O   UNL     1      24.236  35.988  11.695  1.00  0.00    -0.477 OA
ATOM     19  H   UNL     1      24.857  35.348  11.209  1.00  0.00     0.296 HD
ENDBRANCH  16  18
ENDBRANCH   9  16
BRANCH  12  20
ATOM     20  O   UNL     1      23.811  37.901   7.095  1.00  0.00    -0.391 OA
ATOM     21  H   UNL     1      23.926  38.613   7.797  1.00  0.00     0.211 HD
ENDBRANCH  12  20
BRANCH  13  22
ATOM     22  N   UNL     1      21.059  35.908   8.289  1.00  0.00    -0.348 N 
ATOM     23  C   UNL     1      19.754  35.716   7.760  1.00  0.00     0.217 C 
ATOM     24  H   UNL     1      21.467  35.106   8.830  1.00  0.00     0.163 HD
ATOM     25  C   UNL     1      18.994  34.451   7.955  1.00  0.00     0.114 C 
ATOM     26  O   UNL     1      19.191  36.626   7.098  1.00  0.00    -0.275 OA
ENDBRANCH  13  22
ENDBRANCH   7   8
BRANCH   7  27
ATOM     27  O   UNL     1      19.856  38.993   8.240  1.00  0.00    -0.388 OA
ATOM     28  H   UNL     1      20.366  39.304   7.439  1.00  0.00     0.211 HD
ENDBRANCH   7  27
ENDBRANCH   6   7
BRANCH   6  29
ATOM     29  O   UNL     1      20.846  41.085  10.570  1.00  0.00    -0.388 OA
ATOM     30  H   UNL     1      19.885  41.315  10.461  1.00  0.00     0.211 HD
ENDBRANCH   6  29
ENDBRANCH   5   6
ENDBRANCH   1   5
BRANCH   2  31
ATOM     31  O   UNL     1      23.777  41.951   5.858  1.00  0.00    -0.443 OA
BRANCH  31  32
ATOM     32  C   UNL     1      25.169  42.098   6.050  1.00  0.00     0.294 C 
BRANCH  32  33
ATOM     33  C   UNL     1      25.878  40.802   6.122  1.00  0.00     0.120 A 
ATOM     34  C   UNL     1      26.682  40.162   5.203  1.00  0.00     0.141 A 
ATOM     35  N   UNL     1      25.844  39.979   7.185  1.00  0.00    -0.132 NA
ATOM     36  N   UNL     1      27.109  38.985   5.723  1.00  0.00    -0.226 N 
ATOM     37  N   UNL     1      26.575  38.917   6.928  1.00  0.00    -0.065 NA
BRANCH  36  38
ATOM     38  C   UNL     1      27.984  37.990   5.082  1.00  0.00     0.307 C 
BRANCH  38  39
ATOM     39  O   UNL     1      27.673  36.725   5.570  1.00  0.00    -0.355 OA
BRANCH  39  40
ATOM     40  C   UNL     1      28.766  36.080   6.102  1.00  0.00     0.198 C 
BRANCH  40  41
ATOM     41  C   UNL     1      28.481  35.294   7.319  1.00  0.00    -0.022 A 
ATOM     42  C   UNL     1      27.175  35.084   7.710  1.00  0.00     0.006 A 
ATOM     43  C   UNL     1      29.495  34.760   8.074  1.00  0.00     0.006 A 
ATOM     44  C   UNL     1      26.882  34.339   8.855  1.00  0.00     0.000 A 
ATOM     45  C   UNL     1      29.199  34.021   9.209  1.00  0.00     0.000 A 
ATOM     46  C   UNL     1      27.915  33.809   9.602  1.00  0.00     0.000 A 
ENDBRANCH  40  41
ENDBRANCH  39  40
ENDBRANCH  38  39
ENDBRANCH  36  38
ENDBRANCH  32  33
ENDBRANCH  31  32
ENDBRANCH   2  31
TORSDOF 18
BEGIN_RES LYS A 131
REMARK  4 active torsions:
REMARK  status: ('A' for Active; 'I' for Inactive)
REMARK    1  A    between atoms: CA   and  CB  
REMARK    2  A    between atoms: CB   and  CG  
REMARK    3  A    between atoms: CG   and  CD  
REMARK    4  A    between atoms: CD   and  CE  
ROOT
ATOM      1  CA  LYS A 131      29.867  25.555  16.977  1.00 20.52     0.186 C 
ENDROOT
BRANCH   1   2
ATOM      2  CB  LYS A 131      28.345  25.722  17.026  1.00 20.94     0.034 C 
BRANCH   2   3
ATOM      3  CG  LYS A 131      27.601  24.404  16.879  1.00 22.96     0.005 C 
BRANCH   3   4
ATOM      4  CD  LYS A 131      26.155  24.522  17.274  1.00 24.33     0.041 C 
BRANCH   4   5
ATOM      5  CE  LYS A 131      25.768  23.336  18.152  1.00 26.91     0.338 C 
ATOM      6  NZ  LYS A 131      25.521  23.780  19.544  1.00 27.40     0.618 N 
ENDBRANCH   4   5
ENDBRANCH   3   4
ENDBRANCH   2   3
ENDBRANCH   1   2
END_RES LYS A 131
BEGIN_RES LYS A 135
REMARK  4 active torsions:
REMARK  status: ('A' for Active; 'I' for Inactive)
REMARK    5  A    between atoms: CA   and  CB  
REMARK    6  A    between atoms: CB   and  CG  
REMARK    7  A    between atoms: CG   and  CD  
REMARK    8  A    between atoms: CD   and  CE  
ROOT
ATOM      7  CA  LYS A 135      33.193  34.663   9.290  1.00 25.02     0.186 C 
ENDROOT
BRANCH   7   8
ATOM      8  CB  LYS A 135      32.060  35.360  10.034  1.00 26.63     0.034 C 
BRANCH   8   9
ATOM      9  CG  LYS A 135      32.081  35.123  11.522  1.00 29.45     0.005 C 
BRANCH   9  10
ATOM     10  CD  LYS A 135      32.505  36.383  12.260  1.00 32.00     0.041 C 
BRANCH  10  11
ATOM     11  CE  LYS A 135      32.183  36.269  13.738  1.00 34.25     0.338 C 
ATOM     12  NZ  LYS A 135      31.468  37.481  14.226  1.00 35.99     0.618 N 
ENDBRANCH  10  11
ENDBRANCH   9  10
ENDBRANCH   8   9
ENDBRANCH   7   8
END_RES LYS A 135
