REMARK VINA RESULT:    -3.806      1.918      4.681
REMARK INTER + INTRA:         -13.282
REMARK INTER:                  -6.399
REMARK INTRA:                  -6.883
REMARK UNBOUND:                -6.362
REMARK SMILES CC(=O)N[C@@H]1[C@@H](O)C[C@](O)(C(=O)O)O[C@H]1C(O)[C@H](O)CNC(=O)OCc1cn(CC(=O)O)nn1
REMARK SMILES IDX 21 1 22 2 23 3 20 5 18 6 16 7 15 8 9 9 8 10 14 11 6 12 5 13
REMARK SMILES IDX 10 14 11 16 12 17 13 18 7 20 4 22 2 23 1 25 3 26 17 27 19 29
REMARK SMILES IDX 24 31 25 32 26 33 27 34 34 35 28 36 33 37 29 38 30 39 31 40
REMARK SMILES IDX 32 41
REMARK H PARENT 21 4 10 15 13 19 7 21 4 24 17 28 19 30 32 42
REMARK Flexibility Score: inf
ROOT
ATOM      1  N   UNL     1      32.302  34.729  16.572  1.00  0.00    -0.319 N 
ATOM      2  C   UNL     1      32.089  36.030  16.079  1.00  0.00     0.407 C 
ATOM      3  O   UNL     1      31.423  36.864  16.693  1.00  0.00    -0.225 OA
ATOM      4  H   UNL     1      32.902  34.107  15.949  1.00  0.00     0.167 HD
ENDROOT
BRANCH   1   5
ATOM      5  C   UNL     1      31.796  34.179  17.802  1.00  0.00     0.154 C 
BRANCH   5   6
ATOM      6  C   UNL     1      30.481  33.472  17.707  1.00  0.00     0.165 C 
BRANCH   6   7
ATOM      7  C   UNL     1      30.583  32.070  17.237  1.00  0.00     0.176 C 
BRANCH   7   8
ATOM      8  C   UNL     1      29.422  31.182  17.598  1.00  0.00     0.178 C 
ATOM      9  C   UNL     1      27.075  31.235  17.752  1.00  0.00     0.269 C 
ATOM     10  C   UNL     1      27.074  30.315  18.928  1.00  0.00     0.112 C 
ATOM     11  O   UNL     1      28.219  31.890  17.458  1.00  0.00    -0.332 OA
ATOM     12  C   UNL     1      28.361  29.558  19.018  1.00  0.00     0.145 C 
ATOM     13  C   UNL     1      29.466  30.631  18.998  1.00  0.00     0.142 C 
BRANCH   9  14
ATOM     14  O   UNL     1      26.011  32.160  17.974  1.00  0.00    -0.357 OA
ATOM     15  H   UNL     1      26.324  32.737  18.722  1.00  0.00     0.214 HD
ENDBRANCH   9  14
BRANCH   9  16
ATOM     16  C   UNL     1      26.628  30.458  16.558  1.00  0.00     0.364 C 
ATOM     17  O   UNL     1      26.073  29.341  16.606  1.00  0.00    -0.246 OA
BRANCH  16  18
ATOM     18  O   UNL     1      26.837  31.001  15.307  1.00  0.00    -0.477 OA
ATOM     19  H   UNL     1      27.094  31.975  15.162  1.00  0.00     0.296 HD
ENDBRANCH  16  18
ENDBRANCH   9  16
BRANCH  12  20
ATOM     20  O   UNL     1      28.455  28.792  20.176  1.00  0.00    -0.391 OA
ATOM     21  H   UNL     1      27.802  28.051  20.086  1.00  0.00     0.211 HD
ENDBRANCH  12  20
BRANCH  13  22
ATOM     22  N   UNL     1      30.691  30.038  19.423  1.00  0.00    -0.348 N 
ATOM     23  C   UNL     1      31.194  30.185  20.751  1.00  0.00     0.217 C 
ATOM     24  H   UNL     1      31.247  29.464  18.763  1.00  0.00     0.163 HD
ATOM     25  C   UNL     1      32.461  29.586  21.228  1.00  0.00     0.114 C 
ATOM     26  O   UNL     1      30.518  30.864  21.559  1.00  0.00    -0.275 OA
ENDBRANCH  13  22
ENDBRANCH   7   8
BRANCH   7  27
ATOM     27  O   UNL     1      30.938  32.001  15.901  1.00  0.00    -0.388 OA
ATOM     28  H   UNL     1      31.725  32.567  15.693  1.00  0.00     0.211 HD
ENDBRANCH   7  27
ENDBRANCH   6   7
BRANCH   6  29
ATOM     29  O   UNL     1      29.632  34.231  16.887  1.00  0.00    -0.388 OA
ATOM     30  H   UNL     1      29.955  34.269  15.959  1.00  0.00     0.211 HD
ENDBRANCH   6  29
ENDBRANCH   5   6
ENDBRANCH   1   5
BRANCH   2  31
ATOM     31  O   UNL     1      32.632  36.431  14.861  1.00  0.00    -0.443 OA
BRANCH  31  32
ATOM     32  C   UNL     1      32.005  36.306  13.624  1.00  0.00     0.294 C 
BRANCH  32  33
ATOM     33  C   UNL     1      30.758  35.504  13.642  1.00  0.00     0.120 A 
ATOM     34  C   UNL     1      29.477  35.873  13.371  1.00  0.00     0.139 A 
ATOM     35  N   UNL     1      30.686  34.176  13.954  1.00  0.00    -0.132 NA
ATOM     36  N   UNL     1      28.679  34.801  13.518  1.00  0.00    -0.241 N 
ATOM     37  N   UNL     1      29.421  33.785  13.869  1.00  0.00    -0.066 NA
BRANCH  36  38
ATOM     38  C   UNL     1      27.244  34.792  13.316  1.00  0.00     0.268 C 
BRANCH  38  39
ATOM     39  C   UNL     1      26.563  34.500  14.593  1.00  0.00     0.325 C 
ATOM     40  O   UNL     1      25.338  34.780  14.716  1.00  0.00    -0.250 OA
BRANCH  39  41
ATOM     41  O   UNL     1      27.252  33.927  15.641  1.00  0.00    -0.480 OA
ATOM     42  H   UNL     1      28.133  34.374  15.912  1.00  0.00     0.296 HD
ENDBRANCH  39  41
ENDBRANCH  38  39
ENDBRANCH  36  38
ENDBRANCH  32  33
ENDBRANCH  31  32
ENDBRANCH   2  31
TORSDOF 17
BEGIN_RES LYS A 131
REMARK  4 active torsions:
REMARK  status: ('A' for Active; 'I' for Inactive)
REMARK    1  A    between atoms: CA   and  CB  
REMARK    2  A    between atoms: CB   and  CG  
REMARK    3  A    between atoms: CG   and  CD  
REMARK    4  A    between atoms: CD   and  CE  
ROOT
ATOM      1  CA  LYS A 131      29.867  25.555  16.977  1.00 20.52     0.186 C 
ENDROOT
BRANCH   1   2
ATOM      2  CB  LYS A 131      28.345  25.722  17.026  1.00 20.94     0.034 C 
BRANCH   2   3
ATOM      3  CG  LYS A 131      27.601  24.402  16.889  1.00 22.96     0.005 C 
BRANCH   3   4
ATOM      4  CD  LYS A 131      26.505  24.262  17.909  1.00 24.33     0.041 C 
BRANCH   4   5
ATOM      5  CE  LYS A 131      25.155  24.509  17.242  1.00 26.91     0.338 C 
ATOM      6  NZ  LYS A 131      24.130  24.852  18.256  1.00 27.40     0.618 N 
ENDBRANCH   4   5
ENDBRANCH   3   4
ENDBRANCH   2   3
ENDBRANCH   1   2
END_RES LYS A 131
BEGIN_RES LYS A 135
REMARK  4 active torsions:
REMARK  status: ('A' for Active; 'I' for Inactive)
REMARK    5  A    between atoms: CA   and  CB  
REMARK    6  A    between atoms: CB   and  CG  
REMARK    7  A    between atoms: CG   and  CD  
REMARK    8  A    between atoms: CD   and  CE  
ROOT
ATOM      7  CA  LYS A 135      33.193  34.663   9.290  1.00 25.02     0.186 C 
ENDROOT
BRANCH   7   8
ATOM      8  CB  LYS A 135      32.060  35.360  10.034  1.00 26.63     0.034 C 
BRANCH   8   9
ATOM      9  CG  LYS A 135      30.796  35.488   9.224  1.00 29.45     0.005 C 
BRANCH   9  10
ATOM     10  CD  LYS A 135      30.109  34.138   9.086  1.00 32.00     0.041 C 
BRANCH  10  11
ATOM     11  CE  LYS A 135      28.779  34.140   9.816  1.00 34.25     0.338 C 
ATOM     12  NZ  LYS A 135      27.640  34.161   8.857  1.00 35.99     0.618 N 
ENDBRANCH  10  11
ENDBRANCH   9  10
ENDBRANCH   8   9
ENDBRANCH   7   8
END_RES LYS A 135
