REMARK VINA RESULT:    -4.546      2.261      4.474
REMARK INTER + INTRA:         -15.379
REMARK INTER:                  -9.100
REMARK INTRA:                  -6.280
REMARK UNBOUND:                -6.980
REMARK SMILES CC(=O)N[C@@H]1[C@@H](O)C[C@](O)(C(=O)O)O[C@H]1C(O)[C@H](O)CNC(=O)OCc1cn(Cc2ccc(C#N)cc2)nn1
REMARK SMILES IDX 21 1 22 2 23 3 20 5 18 6 16 7 15 8 9 9 8 10 14 11 6 12 5 13
REMARK SMILES IDX 10 14 11 16 12 17 13 18 7 20 4 22 2 23 1 25 3 26 17 27 19 29
REMARK SMILES IDX 24 31 25 32 26 33 27 34 39 35 28 36 38 37 29 38 30 39 31 40
REMARK SMILES IDX 37 41 32 42 36 43 33 44 34 45 35 46
REMARK H PARENT 21 4 10 15 13 19 7 21 4 24 17 28 19 30
REMARK Flexibility Score: inf
ROOT
ATOM      1  N   UNL     1      31.091  30.083  19.785  1.00  0.00    -0.319 N 
ATOM      2  C   UNL     1      30.397  31.200  20.335  1.00  0.00     0.407 C 
ATOM      3  O   UNL     1      30.343  31.333  21.607  1.00  0.00    -0.225 OA
ATOM      4  H   UNL     1      31.125  29.999  18.753  1.00  0.00     0.167 HD
ENDROOT
BRANCH   1   5
ATOM      5  C   UNL     1      31.702  29.143  20.653  1.00  0.00     0.154 C 
BRANCH   5   6
ATOM      6  C   UNL     1      31.154  27.737  20.611  1.00  0.00     0.165 C 
BRANCH   6   7
ATOM      7  C   UNL     1      29.841  27.584  21.352  1.00  0.00     0.176 C 
BRANCH   7   8
ATOM      8  C   UNL     1      28.668  27.488  20.437  1.00  0.00     0.178 C 
ATOM      9  C   UNL     1      27.360  28.780  19.009  1.00  0.00     0.269 C 
ATOM     10  C   UNL     1      26.696  27.449  18.739  1.00  0.00     0.112 C 
ATOM     11  O   UNL     1      28.526  28.675  19.708  1.00  0.00    -0.332 OA
ATOM     12  C   UNL     1      26.429  26.666  19.975  1.00  0.00     0.145 C 
ATOM     13  C   UNL     1      27.346  27.215  21.082  1.00  0.00     0.142 C 
BRANCH   9  14
ATOM     14  O   UNL     1      26.424  29.620  19.650  1.00  0.00    -0.357 OA
ATOM     15  H   UNL     1      25.753  29.028  20.102  1.00  0.00     0.214 HD
ENDBRANCH   9  14
BRANCH   9  16
ATOM     16  C   UNL     1      27.657  29.384  17.693  1.00  0.00     0.364 C 
ATOM     17  O   UNL     1      26.843  29.243  16.753  1.00  0.00    -0.246 OA
BRANCH  16  18
ATOM     18  O   UNL     1      28.817  30.096  17.498  1.00  0.00    -0.477 OA
ATOM     19  H   UNL     1      29.034  30.978  17.928  1.00  0.00     0.296 HD
ENDBRANCH  16  18
ENDBRANCH   9  16
BRANCH  12  20
ATOM     20  O   UNL     1      25.109  26.671  20.379  1.00  0.00    -0.391 OA
ATOM     21  H   UNL     1      24.835  27.636  20.470  1.00  0.00     0.211 HD
ENDBRANCH  12  20
BRANCH  13  22
ATOM     22  N   UNL     1      27.361  26.332  22.206  1.00  0.00    -0.348 N 
ATOM     23  C   UNL     1      26.496  26.546  23.334  1.00  0.00     0.217 C 
ATOM     24  H   UNL     1      27.995  25.484  22.255  1.00  0.00     0.163 HD
ATOM     25  C   UNL     1      26.521  25.617  24.502  1.00  0.00     0.114 C 
ATOM     26  O   UNL     1      25.704  27.518  23.361  1.00  0.00    -0.275 OA
ENDBRANCH  13  22
ENDBRANCH   7   8
BRANCH   7  27
ATOM     27  O   UNL     1      29.742  28.504  22.344  1.00  0.00    -0.388 OA
ATOM     28  H   UNL     1      30.341  28.406  23.085  1.00  0.00     0.211 HD
ENDBRANCH   7  27
ENDBRANCH   6   7
BRANCH   6  29
ATOM     29  O   UNL     1      32.146  26.961  21.265  1.00  0.00    -0.388 OA
ATOM     30  H   UNL     1      32.713  27.505  21.842  1.00  0.00     0.211 HD
ENDBRANCH   6  29
ENDBRANCH   5   6
ENDBRANCH   1   5
BRANCH   2  31
ATOM     31  O   UNL     1      29.764  32.176  19.587  1.00  0.00    -0.443 OA
BRANCH  31  32
ATOM     32  C   UNL     1      30.506  33.298  19.162  1.00  0.00     0.294 C 
BRANCH  32  33
ATOM     33  C   UNL     1      30.968  33.160  17.761  1.00  0.00     0.120 A 
ATOM     34  C   UNL     1      31.635  34.095  16.984  1.00  0.00     0.138 A 
ATOM     35  N   UNL     1      30.816  32.075  16.991  1.00  0.00    -0.132 NA
ATOM     36  N   UNL     1      31.863  33.552  15.785  1.00  0.00    -0.248 N 
ATOM     37  N   UNL     1      31.358  32.337  15.820  1.00  0.00    -0.067 NA
BRANCH  36  38
ATOM     38  C   UNL     1      32.538  34.160  14.658  1.00  0.00     0.181 C 
BRANCH  38  39
ATOM     39  C   UNL     1      31.711  35.108  13.911  1.00  0.00    -0.026 A 
ATOM     40  C   UNL     1      32.186  36.363  13.632  1.00  0.00     0.007 A 
ATOM     41  C   UNL     1      30.444  34.737  13.489  1.00  0.00     0.007 A 
ATOM     42  C   UNL     1      31.415  37.271  12.931  1.00  0.00     0.020 A 
ATOM     43  C   UNL     1      29.649  35.630  12.783  1.00  0.00     0.020 A 
ATOM     44  C   UNL     1      30.155  36.903  12.511  1.00  0.00     0.052 A 
BRANCH  44  45
ATOM     45  C   UNL     1      29.345  37.837  11.786  1.00  0.00     0.099 C 
ATOM     46  N   UNL     1      28.672  38.601  11.207  1.00  0.00    -0.192 NA
ENDBRANCH  44  45
ENDBRANCH  38  39
ENDBRANCH  36  38
ENDBRANCH  32  33
ENDBRANCH  31  32
ENDBRANCH   2  31
TORSDOF 17
BEGIN_RES LYS A 131
REMARK  4 active torsions:
REMARK  status: ('A' for Active; 'I' for Inactive)
REMARK    1  A    between atoms: CA   and  CB  
REMARK    2  A    between atoms: CB   and  CG  
REMARK    3  A    between atoms: CG   and  CD  
REMARK    4  A    between atoms: CD   and  CE  
ROOT
ATOM      1  CA  LYS A 131      29.867  25.555  16.977  1.00 20.52     0.186 C 
ENDROOT
BRANCH   1   2
ATOM      2  CB  LYS A 131      28.345  25.722  17.026  1.00 20.94     0.034 C 
BRANCH   2   3
ATOM      3  CG  LYS A 131      27.599  24.449  16.657  1.00 22.96     0.005 C 
BRANCH   3   4
ATOM      4  CD  LYS A 131      27.030  23.756  17.863  1.00 24.33     0.041 C 
BRANCH   4   5
ATOM      5  CE  LYS A 131      25.572  23.392  17.602  1.00 26.91     0.338 C 
ATOM      6  NZ  LYS A 131      24.782  24.607  17.293  1.00 27.40     0.618 N 
ENDBRANCH   4   5
ENDBRANCH   3   4
ENDBRANCH   2   3
ENDBRANCH   1   2
END_RES LYS A 131
BEGIN_RES LYS A 135
REMARK  4 active torsions:
REMARK  status: ('A' for Active; 'I' for Inactive)
REMARK    5  A    between atoms: CA   and  CB  
REMARK    6  A    between atoms: CB   and  CG  
REMARK    7  A    between atoms: CG   and  CD  
REMARK    8  A    between atoms: CD   and  CE  
ROOT
ATOM      7  CA  LYS A 135      33.193  34.663   9.290  1.00 25.02     0.186 C 
ENDROOT
BRANCH   7   8
ATOM      8  CB  LYS A 135      32.060  35.360  10.034  1.00 26.63     0.034 C 
BRANCH   8   9
ATOM      9  CG  LYS A 135      30.788  35.464   9.233  1.00 29.45     0.005 C 
BRANCH   9  10
ATOM     10  CD  LYS A 135      29.985  34.176   9.331  1.00 32.00     0.041 C 
BRANCH  10  11
ATOM     11  CE  LYS A 135      28.587  34.377   8.778  1.00 34.25     0.338 C 
ATOM     12  NZ  LYS A 135      27.580  33.632   9.584  1.00 35.99     0.618 N 
ENDBRANCH  10  11
ENDBRANCH   9  10
ENDBRANCH   8   9
ENDBRANCH   7   8
END_RES LYS A 135
