REMARK VINA RESULT:    -8.822      4.702      7.319
REMARK INTER + INTRA:         -12.776
REMARK INTER:                  -7.533
REMARK INTRA:                  -5.243
REMARK UNBOUND:                 4.555
REMARK SMILES CC(=O)N[C@@H]1[C@@H](O)C[C@](O)(C(=O)O)O[C@H]1C(O)[C@H](O)CNC(=O)OCc1cn(C2CCc3ccccc3NC2=O)nn1
REMARK SMILES IDX 24 1 22 2 21 3 23 5 20 6 18 7 16 8 15 9 9 10 8 11 14 12 6 13
REMARK SMILES IDX 5 14 10 15 11 17 12 18 13 19 7 21 4 23 2 24 1 26 3 27 17 28
REMARK SMILES IDX 19 30 25 32 26 33 27 34 42 35 28 36 41 37 29 38 39 40 38 41
REMARK SMILES IDX 40 42 37 44 32 45 36 46 33 47 35 48 34 49 31 50 30 51
REMARK H PARENT 21 4 10 16 13 20 7 22 4 25 17 29 19 31 38 43
REMARK Flexibility Score: 80.00
ROOT
ATOM      1  O   UNL     1      19.170  38.026   8.651  1.00  0.00    -0.443 OA
ENDROOT
BRANCH   1   2
ATOM      2  C   UNL     1      20.191  37.275   8.120  1.00  0.00     0.407 C 
ATOM      3  N   UNL     1      21.513  37.825   8.024  1.00  0.00    -0.319 N 
ATOM      4  H   UNL     1      21.631  38.803   8.379  1.00  0.00     0.167 HD
ATOM      5  O   UNL     1      20.015  36.102   7.704  1.00  0.00    -0.225 OA
BRANCH   3   6
ATOM      6  C   UNL     1      22.619  37.069   7.467  1.00  0.00     0.154 C 
BRANCH   6   7
ATOM      7  C   UNL     1      23.483  36.585   8.606  1.00  0.00     0.165 C 
BRANCH   7   8
ATOM      8  C   UNL     1      24.962  36.714   8.307  1.00  0.00     0.176 C 
BRANCH   8   9
ATOM      9  C   UNL     1      25.720  37.211   9.548  1.00  0.00     0.178 C 
ATOM     10  C   UNL     1      25.111  37.867  11.716  1.00  0.00     0.269 C 
ATOM     11  C   UNL     1      26.257  38.828  11.635  1.00  0.00     0.112 C 
ATOM     12  O   UNL     1      24.884  37.121  10.592  1.00  0.00    -0.332 OA
ATOM     13  C   UNL     1      26.094  39.571  10.319  1.00  0.00     0.145 C 
ATOM     14  C   UNL     1      26.253  38.564   9.208  1.00  0.00     0.142 C 
BRANCH  10  15
ATOM     15  O   UNL     1      23.933  38.613  11.927  1.00  0.00    -0.357 OA
ATOM     16  H   UNL     1      24.131  39.515  11.564  1.00  0.00     0.214 HD
ENDBRANCH  10  15
BRANCH  10  17
ATOM     17  C   UNL     1      25.238  36.933  12.863  1.00  0.00     0.364 C 
ATOM     18  O   UNL     1      26.282  36.259  12.991  1.00  0.00    -0.246 OA
BRANCH  17  19
ATOM     19  O   UNL     1      24.229  36.778  13.810  1.00  0.00    -0.477 OA
ATOM     20  H   UNL     1      23.407  36.232  13.512  1.00  0.00     0.296 HD
ENDBRANCH  17  19
ENDBRANCH  10  17
BRANCH  13  21
ATOM     21  O   UNL     1      24.796  40.070  10.287  1.00  0.00    -0.391 OA
ATOM     22  H   UNL     1      24.355  39.703   9.484  1.00  0.00     0.211 HD
ENDBRANCH  13  21
BRANCH  14  23
ATOM     23  N   UNL     1      27.678  38.432   8.961  1.00  0.00    -0.348 N 
ATOM     24  C   UNL     1      28.300  38.797   7.739  1.00  0.00     0.217 C 
ATOM     25  H   UNL     1      28.295  38.039   9.737  1.00  0.00     0.163 HD
ATOM     26  C   UNL     1      29.765  38.614   7.606  1.00  0.00     0.114 C 
ATOM     27  O   UNL     1      27.581  39.262   6.816  1.00  0.00    -0.275 OA
ENDBRANCH  14  23
ENDBRANCH   8   9
BRANCH   8  28
ATOM     28  O   UNL     1      25.079  37.692   7.313  1.00  0.00    -0.388 OA
ATOM     29  H   UNL     1      25.238  37.322   6.419  1.00  0.00     0.211 HD
ENDBRANCH   8  28
ENDBRANCH   7   8
BRANCH   7  30
ATOM     30  O   UNL     1      23.165  35.281   8.964  1.00  0.00    -0.388 OA
ATOM     31  H   UNL     1      23.067  35.165   9.932  1.00  0.00     0.211 HD
ENDBRANCH   7  30
ENDBRANCH   6   7
ENDBRANCH   3   6
ENDBRANCH   1   2
BRANCH   1  32
ATOM     32  C   UNL     1      18.675  37.792   9.959  1.00  0.00     0.294 C 
BRANCH  32  33
ATOM     33  C   UNL     1      19.745  37.290  10.858  1.00  0.00     0.120 A 
ATOM     34  C   UNL     1      19.797  35.992  11.377  1.00  0.00     0.139 A 
ATOM     35  N   UNL     1      20.832  37.908  11.353  1.00  0.00    -0.132 NA
ATOM     36  N   UNL     1      20.888  35.877  12.151  1.00  0.00    -0.240 N 
ATOM     37  N   UNL     1      21.486  37.048  12.112  1.00  0.00    -0.066 NA
BRANCH  36  38
ATOM     38  C   UNL     1      21.313  34.705  12.885  1.00  0.00     0.198 CG0
ATOM     39  G   UNL     1      22.543  34.152  12.243  1.00  0.00     0.000 G0
BRANCH  38  40
ATOM     40  C   UNL     1      20.216  33.702  12.988  1.00  0.00     0.249 C 
ATOM     41  N   UNL     1      20.188  32.301  12.790  1.00  0.00    -0.324 N 
ATOM     42  O   UNL     1      19.122  34.227  13.312  1.00  0.00    -0.272 OA
ATOM     43  H   UNL     1      19.267  31.828  12.664  1.00  0.00     0.170 HD
BRANCH  41  44
ATOM     44  C   UNL     1      21.313  31.405  12.739  1.00  0.00     0.044 A 
ATOM     45  C   UNL     1      22.648  31.732  12.889  1.00  0.00    -0.024 A 
ATOM     46  C   UNL     1      20.895  30.108  12.516  1.00  0.00     0.026 A 
ATOM     47  C   UNL     1      23.571  30.735  12.809  1.00  0.00     0.006 A 
ATOM     48  C   UNL     1      21.831  29.100  12.436  1.00  0.00     0.002 A 
ATOM     49  C   UNL     1      23.160  29.427  12.585  1.00  0.00     0.000 A 
BRANCH  45  50
ATOM     50  C   UNL     1      23.210  33.088  13.132  1.00  0.00     0.040 C 
BRANCH  50  51
ATOM     51  C   UNL     1      22.564  34.147  12.255  1.00  0.00     0.042 CG0
ATOM     52  G   UNL     1      21.324  34.712  12.866  1.00  0.00     0.000 G0
ENDBRANCH  50  51
ENDBRANCH  45  50
ENDBRANCH  41  44
ENDBRANCH  38  40
ENDBRANCH  36  38
ENDBRANCH  32  33
ENDBRANCH   1  32
TORSDOF 15
BEGIN_RES LYS A 131
REMARK  4 active torsions:
REMARK  status: ('A' for Active; 'I' for Inactive)
REMARK    1  A    between atoms: CA   and  CB  
REMARK    2  A    between atoms: CB   and  CG  
REMARK    3  A    between atoms: CG   and  CD  
REMARK    4  A    between atoms: CD   and  CE  
ROOT
ATOM      1  CA  LYS A 131      29.867  25.555  16.977  1.00 20.52     0.186 C 
ENDROOT
BRANCH   1   2
ATOM      2  CB  LYS A 131      28.345  25.722  17.026  1.00 20.94     0.034 C 
BRANCH   2   3
ATOM      3  CG  LYS A 131      27.602  24.398  16.934  1.00 22.96     0.005 C 
BRANCH   3   4
ATOM      4  CD  LYS A 131      26.154  24.533  17.316  1.00 24.33     0.041 C 
BRANCH   4   5
ATOM      5  CE  LYS A 131      26.051  24.945  18.781  1.00 26.91     0.338 C 
ATOM      6  NZ  LYS A 131      24.996  24.163  19.467  1.00 27.40     0.618 N 
ENDBRANCH   4   5
ENDBRANCH   3   4
ENDBRANCH   2   3
ENDBRANCH   1   2
END_RES LYS A 131
BEGIN_RES LYS A 135
REMARK  4 active torsions:
REMARK  status: ('A' for Active; 'I' for Inactive)
REMARK    5  A    between atoms: CA   and  CB  
REMARK    6  A    between atoms: CB   and  CG  
REMARK    7  A    between atoms: CG   and  CD  
REMARK    8  A    between atoms: CD   and  CE  
ROOT
ATOM      7  CA  LYS A 135      33.193  34.663   9.290  1.00 25.02     0.186 C 
ENDROOT
BRANCH   7   8
ATOM      8  CB  LYS A 135      32.060  35.360  10.034  1.00 26.63     0.034 C 
BRANCH   8   9
ATOM      9  CG  LYS A 135      30.795  35.485   9.225  1.00 29.45     0.005 C 
BRANCH   9  10
ATOM     10  CD  LYS A 135      30.127  34.128   9.060  1.00 32.00     0.041 C 
BRANCH  10  11
ATOM     11  CE  LYS A 135      28.726  34.150   9.640  1.00 34.25     0.338 C 
ATOM     12  NZ  LYS A 135      28.748  34.514  11.084  1.00 35.99     0.618 N 
ENDBRANCH  10  11
ENDBRANCH   9  10
ENDBRANCH   8   9
ENDBRANCH   7   8
END_RES LYS A 135
