REMARK VINA RESULT:    -4.112      3.401      6.179
REMARK INTER + INTRA:         -13.671
REMARK INTER:                  -9.177
REMARK INTRA:                  -4.494
REMARK UNBOUND:                -6.555
REMARK SMILES CC(=O)N[C@@H]1[C@@H](O)C[C@](O)(C(=O)O)O[C@H]1C(O)[C@H](O)CNC(=O)OCc1cn([C@H]2C[C@H]3CC[C@@H](C2)N3C)nn1
REMARK SMILES IDX 20 1 18 2 16 3 15 4 9 5 8 6 14 7 6 8 5 9 10 10 11 12 12 13
REMARK SMILES IDX 13 14 7 16 4 18 2 19 1 21 3 22 17 23 19 25 21 27 22 28 23 30
REMARK SMILES IDX 24 31 25 32 26 33 27 34 39 35 28 36 38 37 29 38 35 39 30 40
REMARK SMILES IDX 34 41 31 42 36 43 33 44 32 45 37 46
REMARK H PARENT 10 11 13 15 7 17 4 20 17 24 19 26 21 29
REMARK Flexibility Score: inf
ROOT
ATOM      1  C   UNL     1      26.559  36.672  15.808  1.00  0.00     0.154 C 
ENDROOT
BRANCH   1   2
ATOM      2  C   UNL     1      27.819  35.950  15.471  1.00  0.00     0.165 C 
BRANCH   2   3
ATOM      3  C   UNL     1      27.725  34.463  15.616  1.00  0.00     0.176 C 
BRANCH   3   4
ATOM      4  C   UNL     1      28.976  33.853  16.205  1.00  0.00     0.178 C 
ATOM      5  C   UNL     1      31.103  33.160  15.622  1.00  0.00     0.269 C 
ATOM      6  C   UNL     1      31.057  32.700  17.054  1.00  0.00     0.112 C 
ATOM      7  O   UNL     1      29.979  33.880  15.247  1.00  0.00    -0.332 OA
ATOM      8  C   UNL     1      29.825  31.917  17.393  1.00  0.00     0.145 C 
ATOM      9  C   UNL     1      28.699  32.397  16.519  1.00  0.00     0.142 C 
BRANCH   5  10
ATOM     10  O   UNL     1      31.342  32.114  14.732  1.00  0.00    -0.357 OA
ATOM     11  H   UNL     1      32.311  31.980  14.609  1.00  0.00     0.214 HD
ENDBRANCH   5  10
BRANCH   5  12
ATOM     12  C   UNL     1      32.268  34.094  15.503  1.00  0.00     0.364 C 
ATOM     13  O   UNL     1      32.598  34.850  16.477  1.00  0.00    -0.246 OA
BRANCH  12  14
ATOM     14  O   UNL     1      33.037  34.191  14.366  1.00  0.00    -0.477 OA
ATOM     15  H   UNL     1      33.596  33.373  14.096  1.00  0.00     0.296 HD
ENDBRANCH  12  14
ENDBRANCH   5  12
BRANCH   8  16
ATOM     16  O   UNL     1      30.007  30.554  17.371  1.00  0.00    -0.391 OA
ATOM     17  H   UNL     1      30.130  30.249  18.308  1.00  0.00     0.211 HD
ENDBRANCH   8  16
BRANCH   9  18
ATOM     18  N   UNL     1      27.397  32.199  17.105  1.00  0.00    -0.348 N 
ATOM     19  C   UNL     1      26.627  31.019  16.879  1.00  0.00     0.217 C 
ATOM     20  H   UNL     1      26.972  32.926  17.724  1.00  0.00     0.163 HD
ATOM     21  C   UNL     1      25.299  30.877  17.510  1.00  0.00     0.114 C 
ATOM     22  O   UNL     1      27.119  30.134  16.141  1.00  0.00    -0.275 OA
ENDBRANCH   9  18
ENDBRANCH   3   4
BRANCH   3  23
ATOM     23  O   UNL     1      27.524  33.896  14.359  1.00  0.00    -0.388 OA
ATOM     24  H   UNL     1      27.430  32.928  14.401  1.00  0.00     0.211 HD
ENDBRANCH   3  23
ENDBRANCH   2   3
BRANCH   2  25
ATOM     25  O   UNL     1      28.890  36.399  16.278  1.00  0.00    -0.388 OA
ATOM     26  H   UNL     1      29.701  35.958  15.898  1.00  0.00     0.211 HD
ENDBRANCH   2  25
ENDBRANCH   1   2
BRANCH   1  27
ATOM     27  N   UNL     1      25.622  36.686  14.710  1.00  0.00    -0.319 N 
ATOM     28  C   UNL     1      24.337  36.105  14.873  1.00  0.00     0.407 C 
ATOM     29  H   UNL     1      25.843  37.111  13.778  1.00  0.00     0.167 HD
ATOM     30  O   UNL     1      23.957  35.563  15.946  1.00  0.00    -0.225 OA
BRANCH  28  31
ATOM     31  O   UNL     1      23.393  36.092  13.846  1.00  0.00    -0.443 OA
BRANCH  31  32
ATOM     32  C   UNL     1      23.210  34.979  12.993  1.00  0.00     0.294 C 
BRANCH  32  33
ATOM     33  C   UNL     1      24.390  34.823  12.100  1.00  0.00     0.120 A 
ATOM     34  C   UNL     1      24.441  35.214  10.779  1.00  0.00     0.138 A 
ATOM     35  N   UNL     1      25.600  34.301  12.363  1.00  0.00    -0.132 NA
ATOM     36  N   UNL     1      25.672  34.920  10.274  1.00  0.00    -0.249 N 
ATOM     37  N   UNL     1      26.333  34.368  11.277  1.00  0.00    -0.067 NA
BRANCH  36  38
ATOM     38  C   UNL     1      26.149  35.166   8.916  1.00  0.00     0.112 C 
ATOM     39  C   UNL     1      27.367  34.347   8.700  1.00  0.00     0.046 C 
ATOM     40  C   UNL     1      26.329  36.635   8.757  1.00  0.00     0.046 C 
ATOM     41  C   UNL     1      28.389  34.939   7.798  1.00  0.00     0.058 C 
ATOM     42  C   UNL     1      27.617  37.030   8.083  1.00  0.00     0.058 C 
ATOM     43  N   UNL     1      27.871  36.055   7.038  1.00  0.00    -0.300 NA
ATOM     44  C   UNL     1      29.448  35.608   8.661  1.00  0.00     0.021 C 
ATOM     45  C   UNL     1      28.735  36.876   9.083  1.00  0.00     0.021 C 
ATOM     46  C   UNL     1      28.858  36.514   6.094  1.00  0.00     0.105 C 
ENDBRANCH  36  38
ENDBRANCH  32  33
ENDBRANCH  31  32
ENDBRANCH  28  31
ENDBRANCH   1  27
TORSDOF 15
BEGIN_RES LYS A 131
REMARK  4 active torsions:
REMARK  status: ('A' for Active; 'I' for Inactive)
REMARK    1  A    between atoms: CA   and  CB  
REMARK    2  A    between atoms: CB   and  CG  
REMARK    3  A    between atoms: CG   and  CD  
REMARK    4  A    between atoms: CD   and  CE  
ROOT
ATOM      1  CA  LYS A 131      29.867  25.555  16.977  1.00 20.52     0.186 C 
ENDROOT
BRANCH   1   2
ATOM      2  CB  LYS A 131      28.345  25.722  17.026  1.00 20.94     0.034 C 
BRANCH   2   3
ATOM      3  CG  LYS A 131      27.601  24.402  16.893  1.00 22.96     0.005 C 
BRANCH   3   4
ATOM      4  CD  LYS A 131      26.152  24.528  17.271  1.00 24.33     0.041 C 
BRANCH   4   5
ATOM      5  CE  LYS A 131      25.635  23.180  17.764  1.00 26.91     0.338 C 
ATOM      6  NZ  LYS A 131      25.521  23.176  19.241  1.00 27.40     0.618 N 
ENDBRANCH   4   5
ENDBRANCH   3   4
ENDBRANCH   2   3
ENDBRANCH   1   2
END_RES LYS A 131
BEGIN_RES LYS A 135
REMARK  4 active torsions:
REMARK  status: ('A' for Active; 'I' for Inactive)
REMARK    5  A    between atoms: CA   and  CB  
REMARK    6  A    between atoms: CB   and  CG  
REMARK    7  A    between atoms: CG   and  CD  
REMARK    8  A    between atoms: CD   and  CE  
ROOT
ATOM      7  CA  LYS A 135      33.193  34.663   9.290  1.00 25.02     0.186 C 
ENDROOT
BRANCH   7   8
ATOM      8  CB  LYS A 135      32.060  35.360  10.034  1.00 26.63     0.034 C 
BRANCH   8   9
ATOM      9  CG  LYS A 135      32.501  36.036  11.306  1.00 29.45     0.005 C 
BRANCH   9  10
ATOM     10  CD  LYS A 135      31.887  37.423  11.418  1.00 32.00     0.041 C 
BRANCH  10  11
ATOM     11  CE  LYS A 135      30.907  37.481  12.573  1.00 34.25     0.338 C 
ATOM     12  NZ  LYS A 135      29.815  38.457  12.302  1.00 35.99     0.618 N 
ENDBRANCH  10  11
ENDBRANCH   9  10
ENDBRANCH   8   9
ENDBRANCH   7   8
END_RES LYS A 135
