REMARK VINA RESULT:    -4.513      1.782      2.043
REMARK INTER + INTRA:         -16.381
REMARK INTER:                  -8.924
REMARK INTRA:                  -7.457
REMARK UNBOUND:                -7.118
REMARK SMILES CC(=O)N[C@@H]1[C@@H](O)C[C@](O)(C(=O)O)O[C@H]1C(O)[C@H](O)CNC(=O)OCc1cn(C[C@H](CC(=O)O)CC(C)C)nn1
REMARK SMILES IDX 24 1 22 2 21 3 23 5 20 6 18 7 16 8 15 9 9 10 8 11 14 12 6 13
REMARK SMILES IDX 5 14 10 15 11 17 12 18 13 19 7 21 4 23 2 24 1 26 3 27 17 28
REMARK SMILES IDX 19 30 25 32 26 33 27 34 40 35 28 36 39 37 29 38 30 39 31 40
REMARK SMILES IDX 32 41 33 42 34 43 35 45 36 46 37 47 38 48
REMARK H PARENT 21 4 10 16 13 20 7 22 4 25 17 29 19 31 34 44
REMARK Flexibility Score: inf
ROOT
ATOM      1  O   UNL     1      25.196  30.695  18.336  1.00  0.00    -0.443 OA
ENDROOT
BRANCH   1   2
ATOM      2  C   UNL     1      25.661  29.993  19.463  1.00  0.00     0.407 C 
ATOM      3  N   UNL     1      26.005  28.622  19.384  1.00  0.00    -0.319 N 
ATOM      4  H   UNL     1      25.892  28.165  18.425  1.00  0.00     0.167 HD
ATOM      5  O   UNL     1      25.761  30.622  20.543  1.00  0.00    -0.225 OA
BRANCH   3   6
ATOM      6  C   UNL     1      26.483  27.851  20.510  1.00  0.00     0.154 C 
BRANCH   6   7
ATOM      7  C   UNL     1      27.707  27.100  20.115  1.00  0.00     0.165 C 
BRANCH   7   8
ATOM      8  C   UNL     1      28.927  27.435  20.957  1.00  0.00     0.176 C 
BRANCH   8   9
ATOM      9  C   UNL     1      29.041  28.906  21.205  1.00  0.00     0.178 C 
ATOM     10  C   UNL     1      30.420  30.267  19.924  1.00  0.00     0.269 C 
ATOM     11  C   UNL     1      30.813  31.149  21.084  1.00  0.00     0.112 C 
ATOM     12  O   UNL     1      29.173  29.685  20.093  1.00  0.00    -0.332 OA
ATOM     13  C   UNL     1      30.119  30.735  22.365  1.00  0.00     0.145 C 
ATOM     14  C   UNL     1      30.054  29.203  22.306  1.00  0.00     0.142 C 
BRANCH  10  15
ATOM     15  O   UNL     1      31.410  29.315  19.663  1.00  0.00    -0.357 OA
ATOM     16  H   UNL     1      31.981  29.128  20.432  1.00  0.00     0.214 HD
ENDBRANCH  10  15
BRANCH  10  17
ATOM     17  C   UNL     1      30.332  31.136  18.721  1.00  0.00     0.364 C 
ATOM     18  O   UNL     1      30.227  32.390  18.879  1.00  0.00    -0.246 OA
BRANCH  17  19
ATOM     19  O   UNL     1      30.360  30.656  17.428  1.00  0.00    -0.477 OA
ATOM     20  H   UNL     1      30.280  31.322  16.645  1.00  0.00     0.296 HD
ENDBRANCH  17  19
ENDBRANCH  10  17
BRANCH  13  21
ATOM     21  O   UNL     1      30.751  31.187  23.496  1.00  0.00    -0.391 OA
ATOM     22  H   UNL     1      30.029  31.467  24.139  1.00  0.00     0.211 HD
ENDBRANCH  13  21
BRANCH  14  23
ATOM     23  N   UNL     1      29.564  28.662  23.549  1.00  0.00    -0.348 N 
ATOM     24  C   UNL     1      30.336  27.713  24.287  1.00  0.00     0.217 C 
ATOM     25  H   UNL     1      28.639  28.927  23.969  1.00  0.00     0.163 HD
ATOM     26  C   UNL     1      29.863  27.141  25.562  1.00  0.00     0.114 C 
ATOM     27  O   UNL     1      31.454  27.350  23.843  1.00  0.00    -0.275 OA
ENDBRANCH  14  23
ENDBRANCH   8   9
BRANCH   8  28
ATOM     28  O   UNL     1      30.059  26.854  20.432  1.00  0.00    -0.388 OA
ATOM     29  H   UNL     1      30.571  27.535  19.947  1.00  0.00     0.211 HD
ENDBRANCH   8  28
ENDBRANCH   7   8
BRANCH   7  30
ATOM     30  O   UNL     1      28.025  27.445  18.780  1.00  0.00    -0.388 OA
ATOM     31  H   UNL     1      28.776  28.081  18.747  1.00  0.00     0.211 HD
ENDBRANCH   7  30
ENDBRANCH   6   7
ENDBRANCH   3   6
ENDBRANCH   1   2
BRANCH   1  32
ATOM     32  C   UNL     1      25.738  30.349  17.087  1.00  0.00     0.294 C 
BRANCH  32  33
ATOM     33  C   UNL     1      26.788  31.287  16.650  1.00  0.00     0.120 A 
ATOM     34  C   UNL     1      27.000  32.613  16.995  1.00  0.00     0.138 A 
ATOM     35  N   UNL     1      27.773  30.993  15.793  1.00  0.00    -0.132 NA
ATOM     36  N   UNL     1      28.087  33.066  16.347  1.00  0.00    -0.252 N 
ATOM     37  N   UNL     1      28.535  32.069  15.628  1.00  0.00    -0.067 NA
BRANCH  36  38
ATOM     38  C   UNL     1      28.632  34.446  16.462  1.00  0.00     0.150 C 
BRANCH  38  39
ATOM     39  C   UNL     1      29.741  34.630  15.486  1.00  0.00     0.022 C 
BRANCH  39  40
ATOM     40  C   UNL     1      31.045  34.325  16.202  1.00  0.00     0.128 C 
BRANCH  40  41
ATOM     41  C   UNL     1      31.913  33.512  15.312  1.00  0.00     0.303 C 
ATOM     42  O   UNL     1      32.937  33.996  14.799  1.00  0.00    -0.252 OA
BRANCH  41  43
ATOM     43  O   UNL     1      31.531  32.188  15.078  1.00  0.00    -0.481 OA
ATOM     44  H   UNL     1      31.048  31.956  14.232  1.00  0.00     0.296 HD
ENDBRANCH  41  43
ENDBRANCH  40  41
ENDBRANCH  39  40
BRANCH  39  45
ATOM     45  C   UNL     1      29.708  35.929  14.793  1.00  0.00     0.009 C 
BRANCH  45  46
ATOM     46  C   UNL     1      29.798  35.941  13.315  1.00  0.00    -0.017 C 
ATOM     47  C   UNL     1      31.216  36.492  12.991  1.00  0.00     0.007 C 
ATOM     48  C   UNL     1      29.674  34.632  12.612  1.00  0.00     0.007 C 
ENDBRANCH  45  46
ENDBRANCH  39  45
ENDBRANCH  38  39
ENDBRANCH  36  38
ENDBRANCH  32  33
ENDBRANCH   1  32
TORSDOF 21
BEGIN_RES LYS A 131
REMARK  4 active torsions:
REMARK  status: ('A' for Active; 'I' for Inactive)
REMARK    1  A    between atoms: CA   and  CB  
REMARK    2  A    between atoms: CB   and  CG  
REMARK    3  A    between atoms: CG   and  CD  
REMARK    4  A    between atoms: CD   and  CE  
ROOT
ATOM      1  CA  LYS A 131      29.867  25.555  16.977  1.00 20.52     0.186 C 
ENDROOT
BRANCH   1   2
ATOM      2  CB  LYS A 131      28.345  25.722  17.026  1.00 20.94     0.034 C 
BRANCH   2   3
ATOM      3  CG  LYS A 131      27.603  24.396  16.962  1.00 22.96     0.005 C 
BRANCH   3   4
ATOM      4  CD  LYS A 131      26.142  24.548  17.286  1.00 24.33     0.041 C 
BRANCH   4   5
ATOM      5  CE  LYS A 131      25.577  23.203  17.730  1.00 26.91     0.338 C 
ATOM      6  NZ  LYS A 131      25.503  23.134  19.209  1.00 27.40     0.618 N 
ENDBRANCH   4   5
ENDBRANCH   3   4
ENDBRANCH   2   3
ENDBRANCH   1   2
END_RES LYS A 131
BEGIN_RES LYS A 135
REMARK  4 active torsions:
REMARK  status: ('A' for Active; 'I' for Inactive)
REMARK    5  A    between atoms: CA   and  CB  
REMARK    6  A    between atoms: CB   and  CG  
REMARK    7  A    between atoms: CG   and  CD  
REMARK    8  A    between atoms: CD   and  CE  
ROOT
ATOM      7  CA  LYS A 135      33.193  34.663   9.290  1.00 25.02     0.186 C 
ENDROOT
BRANCH   7   8
ATOM      8  CB  LYS A 135      32.060  35.360  10.034  1.00 26.63     0.034 C 
BRANCH   8   9
ATOM      9  CG  LYS A 135      30.822  35.559   9.198  1.00 29.45     0.005 C 
BRANCH   9  10
ATOM     10  CD  LYS A 135      30.278  34.222   8.718  1.00 32.00     0.041 C 
BRANCH  10  11
ATOM     11  CE  LYS A 135      28.787  34.129   8.978  1.00 34.25     0.338 C 
ATOM     12  NZ  LYS A 135      28.015  34.879   7.949  1.00 35.99     0.618 N 
ENDBRANCH  10  11
ENDBRANCH   9  10
ENDBRANCH   8   9
ENDBRANCH   7   8
END_RES LYS A 135
