REMARK VINA RESULT:    -4.858      2.913      6.655
REMARK INTER + INTRA:         -15.288
REMARK INTER:                 -10.241
REMARK INTRA:                  -5.047
REMARK UNBOUND:                -5.744
REMARK SMILES CC(=O)N[C@@H]1[C@@H](O)C[C@](O)(C(=O)O)O[C@H]1C(O)[C@H](O)CNC(=O)OCc1cn([C@@H](CC(=O)O)C(=O)O)nn1
REMARK SMILES IDX 21 1 22 2 23 3 20 5 18 6 16 7 15 8 9 9 8 10 14 11 6 12 5 13
REMARK SMILES IDX 10 14 11 16 12 17 13 18 7 20 4 22 2 23 1 25 3 26 17 27 19 29
REMARK SMILES IDX 24 31 25 32 26 33 27 34 38 35 28 36 37 37 29 38 30 39 31 40
REMARK SMILES IDX 32 41 33 42 34 44 35 45 36 46
REMARK H PARENT 21 4 10 15 13 19 7 21 4 24 17 28 19 30 33 43 36 47
REMARK Flexibility Score: inf
ROOT
ATOM      1  N   UNL     1      28.093  29.749  16.604  1.00  0.00    -0.319 N 
ATOM      2  C   UNL     1      26.667  29.806  16.583  1.00  0.00     0.407 C 
ATOM      3  O   UNL     1      26.117  30.605  15.817  1.00  0.00    -0.225 OA
ATOM      4  H   UNL     1      28.491  29.046  17.281  1.00  0.00     0.167 HD
ENDROOT
BRANCH   1   5
ATOM      5  C   UNL     1      28.952  30.556  15.796  1.00  0.00     0.154 C 
BRANCH   5   6
ATOM      6  C   UNL     1      29.666  31.596  16.636  1.00  0.00     0.165 C 
BRANCH   6   7
ATOM      7  C   UNL     1      30.535  32.493  15.774  1.00  0.00     0.176 C 
BRANCH   7   8
ATOM      8  C   UNL     1      29.802  33.200  14.692  1.00  0.00     0.178 C 
ATOM      9  C   UNL     1      31.525  34.710  14.307  1.00  0.00     0.269 C 
ATOM     10  C   UNL     1      31.021  35.577  15.383  1.00  0.00     0.112 C 
ATOM     11  O   UNL     1      30.669  33.786  13.766  1.00  0.00    -0.332 OA
ATOM     12  C   UNL     1      29.621  35.420  15.827  1.00  0.00     0.145 C 
ATOM     13  C   UNL     1      28.879  34.265  15.216  1.00  0.00     0.142 C 
BRANCH   9  14
ATOM     14  O   UNL     1      32.657  33.969  14.737  1.00  0.00    -0.357 OA
ATOM     15  H   UNL     1      32.712  33.203  14.105  1.00  0.00     0.214 HD
ENDBRANCH   9  14
BRANCH   9  16
ATOM     16  C   UNL     1      32.039  35.519  13.168  1.00  0.00     0.364 C 
ATOM     17  O   UNL     1      31.559  36.619  12.811  1.00  0.00    -0.246 OA
BRANCH  16  18
ATOM     18  O   UNL     1      33.120  35.017  12.460  1.00  0.00    -0.477 OA
ATOM     19  H   UNL     1      33.832  34.420  12.899  1.00  0.00     0.296 HD
ENDBRANCH  16  18
ENDBRANCH   9  16
BRANCH  12  20
ATOM     20  O   UNL     1      29.555  35.333  17.215  1.00  0.00    -0.391 OA
ATOM     21  H   UNL     1      28.672  35.130  17.566  1.00  0.00     0.211 HD
ENDBRANCH  12  20
BRANCH  13  22
ATOM     22  N   UNL     1      28.029  34.742  14.098  1.00  0.00    -0.348 N 
ATOM     23  C   UNL     1      26.665  34.380  14.017  1.00  0.00     0.217 C 
ATOM     24  H   UNL     1      28.413  35.352  13.345  1.00  0.00     0.163 HD
ATOM     25  C   UNL     1      25.774  34.835  12.910  1.00  0.00     0.114 C 
ATOM     26  O   UNL     1      26.191  33.649  14.912  1.00  0.00    -0.275 OA
ENDBRANCH  13  22
ENDBRANCH   7   8
BRANCH   7  27
ATOM     27  O   UNL     1      31.461  31.576  15.199  1.00  0.00    -0.388 OA
ATOM     28  H   UNL     1      31.578  30.792  15.785  1.00  0.00     0.211 HD
ENDBRANCH   7  27
ENDBRANCH   6   7
BRANCH   6  29
ATOM     29  O   UNL     1      30.366  30.937  17.638  1.00  0.00    -0.388 OA
ATOM     30  H   UNL     1      29.840  30.227  18.083  1.00  0.00     0.211 HD
ENDBRANCH   6  29
ENDBRANCH   5   6
ENDBRANCH   1   5
BRANCH   2  31
ATOM     31  O   UNL     1      25.880  28.999  17.387  1.00  0.00    -0.443 OA
BRANCH  31  32
ATOM     32  C   UNL     1      26.300  27.697  17.708  1.00  0.00     0.294 C 
BRANCH  32  33
ATOM     33  C   UNL     1      26.830  27.590  19.089  1.00  0.00     0.120 A 
ATOM     34  C   UNL     1      28.175  27.536  19.367  1.00  0.00     0.139 A 
ATOM     35  N   UNL     1      26.194  27.529  20.256  1.00  0.00    -0.132 NA
ATOM     36  N   UNL     1      28.316  27.444  20.714  1.00  0.00    -0.237 N 
ATOM     37  N   UNL     1      27.110  27.442  21.207  1.00  0.00    -0.066 NA
BRANCH  36  38
ATOM     38  C   UNL     1      29.621  27.367  21.365  1.00  0.00     0.229 C 
BRANCH  38  39
ATOM     39  C   UNL     1      30.366  28.655  21.148  1.00  0.00     0.161 C 
BRANCH  39  40
ATOM     40  C   UNL     1      31.728  28.438  20.635  1.00  0.00     0.306 C 
ATOM     41  O   UNL     1      32.611  29.298  20.877  1.00  0.00    -0.252 OA
BRANCH  40  42
ATOM     42  O   UNL     1      32.002  27.295  19.901  1.00  0.00    -0.481 OA
ATOM     43  H   UNL     1      32.981  26.976  19.823  1.00  0.00     0.296 HD
ENDBRANCH  40  42
ENDBRANCH  39  40
ENDBRANCH  38  39
BRANCH  38  44
ATOM     44  C   UNL     1      29.403  27.229  22.831  1.00  0.00     0.329 C 
ATOM     45  O   UNL     1      29.730  28.103  23.673  1.00  0.00    -0.250 OA
BRANCH  44  46
ATOM     46  O   UNL     1      28.807  26.070  23.296  1.00  0.00    -0.480 OA
ATOM     47  H   UNL     1      28.980  25.699  24.223  1.00  0.00     0.296 HD
ENDBRANCH  44  46
ENDBRANCH  38  44
ENDBRANCH  36  38
ENDBRANCH  32  33
ENDBRANCH  31  32
ENDBRANCH   2  31
TORSDOF 20
BEGIN_RES LYS A 131
REMARK  4 active torsions:
REMARK  status: ('A' for Active; 'I' for Inactive)
REMARK    1  A    between atoms: CA   and  CB  
REMARK    2  A    between atoms: CB   and  CG  
REMARK    3  A    between atoms: CG   and  CD  
REMARK    4  A    between atoms: CD   and  CE  
ROOT
ATOM      1  CA  LYS A 131      29.867  25.555  16.977  1.00 20.52     0.186 C 
ENDROOT
BRANCH   1   2
ATOM      2  CB  LYS A 131      28.345  25.722  17.026  1.00 20.94     0.034 C 
BRANCH   2   3
ATOM      3  CG  LYS A 131      27.600  24.413  16.815  1.00 22.96     0.005 C 
BRANCH   3   4
ATOM      4  CD  LYS A 131      26.890  23.958  18.060  1.00 24.33     0.041 C 
BRANCH   4   5
ATOM      5  CE  LYS A 131      25.382  24.042  17.846  1.00 26.91     0.338 C 
ATOM      6  NZ  LYS A 131      24.846  22.729  17.415  1.00 27.40     0.618 N 
ENDBRANCH   4   5
ENDBRANCH   3   4
ENDBRANCH   2   3
ENDBRANCH   1   2
END_RES LYS A 131
BEGIN_RES LYS A 135
REMARK  4 active torsions:
REMARK  status: ('A' for Active; 'I' for Inactive)
REMARK    5  A    between atoms: CA   and  CB  
REMARK    6  A    between atoms: CB   and  CG  
REMARK    7  A    between atoms: CG   and  CD  
REMARK    8  A    between atoms: CD   and  CE  
ROOT
ATOM      7  CA  LYS A 135      33.193  34.663   9.290  1.00 25.02     0.186 C 
ENDROOT
BRANCH   7   8
ATOM      8  CB  LYS A 135      32.060  35.360  10.034  1.00 26.63     0.034 C 
BRANCH   8   9
ATOM      9  CG  LYS A 135      30.700  34.780   9.741  1.00 29.45     0.005 C 
BRANCH   9  10
ATOM     10  CD  LYS A 135      30.452  34.724   8.242  1.00 32.00     0.041 C 
BRANCH  10  11
ATOM     11  CE  LYS A 135      29.000  35.033   7.930  1.00 34.25     0.338 C 
ATOM     12  NZ  LYS A 135      28.845  35.526   6.533  1.00 35.99     0.618 N 
ENDBRANCH  10  11
ENDBRANCH   9  10
ENDBRANCH   8   9
ENDBRANCH   7   8
END_RES LYS A 135
