REMARK VINA RESULT:    -5.340      5.455      9.883
REMARK INTER + INTRA:         -14.969
REMARK INTER:                  -8.548
REMARK INTRA:                  -6.421
REMARK UNBOUND:                -5.414
REMARK SMILES CC(=O)N[C@@H]1[C@@H](O)C[C@](O)(C(=O)O)O[C@H]1C(O)[C@H](O)CNC(=O)OCc1cn(-c2ccccc2C(N)=O)nn1
REMARK SMILES IDX 21 1 22 2 23 3 20 5 18 6 16 7 15 8 9 9 8 10 14 11 6 12 5 13
REMARK SMILES IDX 10 14 11 16 12 17 13 18 7 20 4 22 2 23 1 25 3 26 17 27 19 29
REMARK SMILES IDX 24 31 25 32 26 33 27 34 39 35 28 36 38 37 29 38 34 39 30 40
REMARK SMILES IDX 33 41 31 42 32 43 35 44 37 45 36 46
REMARK H PARENT 21 4 10 15 13 19 7 21 4 24 17 28 19 30 36 47 36 48
REMARK Flexibility Score: inf
ROOT
ATOM      1  N   UNL     1      21.556  37.162  11.298  1.00  0.00    -0.319 N 
ATOM      2  C   UNL     1      22.619  38.102  11.302  1.00  0.00     0.407 C 
ATOM      3  O   UNL     1      23.388  38.141  12.279  1.00  0.00    -0.225 OA
ATOM      4  H   UNL     1      20.938  37.182  10.436  1.00  0.00     0.167 HD
ENDROOT
BRANCH   1   5
ATOM      5  C   UNL     1      21.284  36.221  12.356  1.00  0.00     0.154 C 
BRANCH   5   6
ATOM      6  C   UNL     1      21.642  34.795  11.972  1.00  0.00     0.165 C 
BRANCH   6   7
ATOM      7  C   UNL     1      23.026  34.426  12.417  1.00  0.00     0.176 C 
BRANCH   7   8
ATOM      8  C   UNL     1      23.256  32.974  12.591  1.00  0.00     0.178 C 
ATOM      9  C   UNL     1      22.023  31.072  13.171  1.00  0.00     0.269 C 
ATOM     10  C   UNL     1      23.294  30.391  12.758  1.00  0.00     0.112 C 
ATOM     11  O   UNL     1      22.003  32.413  12.955  1.00  0.00    -0.332 OA
ATOM     12  C   UNL     1      24.533  31.043  13.267  1.00  0.00     0.145 C 
ATOM     13  C   UNL     1      24.229  32.501  13.594  1.00  0.00     0.142 C 
BRANCH   9  14
ATOM     14  O   UNL     1      21.735  30.734  14.515  1.00  0.00    -0.357 OA
ATOM     15  H   UNL     1      21.403  31.564  14.967  1.00  0.00     0.214 HD
ENDBRANCH   9  14
BRANCH   9  16
ATOM     16  C   UNL     1      20.926  30.461  12.365  1.00  0.00     0.364 C 
ATOM     17  O   UNL     1      21.067  29.259  11.981  1.00  0.00    -0.246 OA
BRANCH  16  18
ATOM     18  O   UNL     1      19.772  31.125  12.013  1.00  0.00    -0.477 OA
ATOM     19  H   UNL     1      19.556  31.322  11.048  1.00  0.00     0.296 HD
ENDBRANCH  16  18
ENDBRANCH   9  16
BRANCH  12  20
ATOM     20  O   UNL     1      24.979  30.357  14.385  1.00  0.00    -0.391 OA
ATOM     21  H   UNL     1      25.835  30.698  14.745  1.00  0.00     0.211 HD
ENDBRANCH  12  20
BRANCH  13  22
ATOM     22  N   UNL     1      25.390  33.264  13.845  1.00  0.00    -0.348 N 
ATOM     23  C   UNL     1      25.892  33.462  15.149  1.00  0.00     0.217 C 
ATOM     24  H   UNL     1      25.929  33.690  13.066  1.00  0.00     0.163 HD
ATOM     25  C   UNL     1      27.102  34.249  15.469  1.00  0.00     0.114 C 
ATOM     26  O   UNL     1      25.273  32.936  16.099  1.00  0.00    -0.275 OA
ENDBRANCH  13  22
ENDBRANCH   7   8
BRANCH   7  27
ATOM     27  O   UNL     1      24.043  35.166  11.861  1.00  0.00    -0.388 OA
ATOM     28  H   UNL     1      24.786  34.556  11.565  1.00  0.00     0.211 HD
ENDBRANCH   7  27
ENDBRANCH   6   7
BRANCH   6  29
ATOM     29  O   UNL     1      21.333  34.507  10.673  1.00  0.00    -0.388 OA
ATOM     30  H   UNL     1      22.152  34.307  10.142  1.00  0.00     0.211 HD
ENDBRANCH   6  29
ENDBRANCH   5   6
ENDBRANCH   1   5
BRANCH   2  31
ATOM     31  O   UNL     1      22.835  38.985  10.251  1.00  0.00    -0.443 OA
BRANCH  31  32
ATOM     32  C   UNL     1      22.990  38.543   8.913  1.00  0.00     0.294 C 
BRANCH  32  33
ATOM     33  C   UNL     1      23.847  37.319   8.869  1.00  0.00     0.121 A 
ATOM     34  C   UNL     1      25.215  37.305   8.673  1.00  0.00     0.144 A 
ATOM     35  N   UNL     1      23.471  36.039   9.007  1.00  0.00    -0.131 NA
ATOM     36  N   UNL     1      25.617  35.998   8.700  1.00  0.00    -0.220 N 
ATOM     37  N   UNL     1      24.556  35.272   8.900  1.00  0.00    -0.062 NA
BRANCH  36  38
ATOM     38  C   UNL     1      26.967  35.554   8.525  1.00  0.00     0.079 A 
ATOM     39  C   UNL     1      27.702  35.026   9.560  1.00  0.00     0.065 A 
ATOM     40  C   UNL     1      27.532  35.669   7.259  1.00  0.00     0.029 A 
ATOM     41  C   UNL     1      29.014  34.614   9.309  1.00  0.00     0.016 A 
ATOM     42  C   UNL     1      28.824  35.260   7.033  1.00  0.00     0.002 A 
ATOM     43  C   UNL     1      29.555  34.735   8.065  1.00  0.00     0.001 A 
BRANCH  39  44
ATOM     44  C   UNL     1      27.171  34.876  10.906  1.00  0.00     0.250 C 
ATOM     45  O   UNL     1      26.631  33.761  11.201  1.00  0.00    -0.269 OA
ATOM     46  N   UNL     1      27.234  35.908  11.881  1.00  0.00    -0.366 N 
ATOM     47  H   UNL     1      28.116  36.187  12.339  1.00  0.00     0.159 HD
ATOM     48  H   UNL     1      26.312  36.381  12.125  1.00  0.00     0.159 HD
ENDBRANCH  39  44
ENDBRANCH  36  38
ENDBRANCH  32  33
ENDBRANCH  31  32
ENDBRANCH   2  31
TORSDOF 16
BEGIN_RES LYS A 131
REMARK  4 active torsions:
REMARK  status: ('A' for Active; 'I' for Inactive)
REMARK    1  A    between atoms: CA   and  CB  
REMARK    2  A    between atoms: CB   and  CG  
REMARK    3  A    between atoms: CG   and  CD  
REMARK    4  A    between atoms: CD   and  CE  
ROOT
ATOM      1  CA  LYS A 131      29.867  25.555  16.977  1.00 20.52     0.186 C 
ENDROOT
BRANCH   1   2
ATOM      2  CB  LYS A 131      28.345  25.722  17.026  1.00 20.94     0.034 C 
BRANCH   2   3
ATOM      3  CG  LYS A 131      27.603  24.395  16.974  1.00 22.96     0.005 C 
BRANCH   3   4
ATOM      4  CD  LYS A 131      26.600  24.263  18.086  1.00 24.33     0.041 C 
BRANCH   4   5
ATOM      5  CE  LYS A 131      25.246  23.867  17.506  1.00 26.91     0.338 C 
ATOM      6  NZ  LYS A 131      25.092  22.393  17.509  1.00 27.40     0.618 N 
ENDBRANCH   4   5
ENDBRANCH   3   4
ENDBRANCH   2   3
ENDBRANCH   1   2
END_RES LYS A 131
BEGIN_RES LYS A 135
REMARK  4 active torsions:
REMARK  status: ('A' for Active; 'I' for Inactive)
REMARK    5  A    between atoms: CA   and  CB  
REMARK    6  A    between atoms: CB   and  CG  
REMARK    7  A    between atoms: CG   and  CD  
REMARK    8  A    between atoms: CD   and  CE  
ROOT
ATOM      7  CA  LYS A 135      33.193  34.663   9.290  1.00 25.02     0.186 C 
ENDROOT
BRANCH   7   8
ATOM      8  CB  LYS A 135      32.060  35.360  10.034  1.00 26.63     0.034 C 
BRANCH   8   9
ATOM      9  CG  LYS A 135      32.531  36.225  11.175  1.00 29.45     0.005 C 
BRANCH   9  10
ATOM     10  CD  LYS A 135      32.109  35.630  12.509  1.00 32.00     0.041 C 
BRANCH  10  11
ATOM     11  CE  LYS A 135      30.736  34.994  12.398  1.00 34.25     0.338 C 
ATOM     12  NZ  LYS A 135      30.432  34.164  13.597  1.00 35.99     0.618 N 
ENDBRANCH  10  11
ENDBRANCH   9  10
ENDBRANCH   8   9
ENDBRANCH   7   8
END_RES LYS A 135
