REMARK VINA RESULT:    -5.378      3.440      7.658
REMARK INTER + INTRA:         -15.391
REMARK INTER:                  -8.995
REMARK INTRA:                  -6.396
REMARK UNBOUND:                -6.084
REMARK SMILES CC(=O)N[C@@H]1[C@@H](O)C[C@](O)(C(=O)O)O[C@H]1C(O)[C@H](O)CNC(=O)OCc1cn(-c2c3ccccc3nc3ccccc23)nn1
REMARK SMILES IDX 20 1 18 2 16 3 15 4 9 5 8 6 14 7 6 8 5 9 10 10 11 12 12 13
REMARK SMILES IDX 13 14 7 16 4 18 2 19 1 21 3 22 17 23 19 25 21 27 22 28 23 30
REMARK SMILES IDX 24 31 25 32 26 33 27 34 44 35 28 36 43 37 29 38 30 39 42 40
REMARK SMILES IDX 31 41 35 42 37 43 41 44 32 45 34 46 36 47 38 48 40 49 33 50
REMARK SMILES IDX 39 51
REMARK H PARENT 10 11 13 15 7 17 4 20 17 24 19 26 21 29
REMARK Flexibility Score: inf
ROOT
ATOM      1  C   UNL     1      28.187  36.777  16.325  1.00  0.00     0.154 C 
ENDROOT
BRANCH   1   2
ATOM      2  C   UNL     1      27.570  35.480  15.876  1.00  0.00     0.165 C 
BRANCH   2   3
ATOM      3  C   UNL     1      28.507  34.870  14.881  1.00  0.00     0.176 C 
BRANCH   3   4
ATOM      4  C   UNL     1      29.978  35.087  15.205  1.00  0.00     0.178 C 
ATOM      5  C   UNL     1      31.937  35.451  14.126  1.00  0.00     0.269 C 
ATOM      6  C   UNL     1      32.705  34.343  14.796  1.00  0.00     0.112 C 
ATOM      7  O   UNL     1      30.614  35.176  13.998  1.00  0.00    -0.332 OA
ATOM      8  C   UNL     1      31.820  33.390  15.545  1.00  0.00     0.145 C 
ATOM      9  C   UNL     1      30.544  33.992  16.030  1.00  0.00     0.142 C 
BRANCH   5  10
ATOM     10  O   UNL     1      32.421  35.566  12.780  1.00  0.00    -0.357 OA
ATOM     11  H   UNL     1      31.784  36.103  12.249  1.00  0.00     0.214 HD
ENDBRANCH   5  10
BRANCH   5  12
ATOM     12  C   UNL     1      32.274  36.759  14.740  1.00  0.00     0.364 C 
ATOM     13  O   UNL     1      32.959  36.844  15.794  1.00  0.00    -0.246 OA
BRANCH  12  14
ATOM     14  O   UNL     1      31.855  37.981  14.190  1.00  0.00    -0.477 OA
ATOM     15  H   UNL     1      31.788  38.072  13.188  1.00  0.00     0.296 HD
ENDBRANCH  12  14
ENDBRANCH   5  12
BRANCH   8  16
ATOM     16  O   UNL     1      31.576  32.278  14.732  1.00  0.00    -0.391 OA
ATOM     17  H   UNL     1      32.077  32.338  13.880  1.00  0.00     0.211 HD
ENDBRANCH   8  16
BRANCH   9  18
ATOM     18  N   UNL     1      30.698  34.337  17.448  1.00  0.00    -0.348 N 
ATOM     19  C   UNL     1      30.602  33.370  18.487  1.00  0.00     0.217 C 
ATOM     20  H   UNL     1      30.888  35.316  17.755  1.00  0.00     0.163 HD
ATOM     21  C   UNL     1      30.765  33.741  19.926  1.00  0.00     0.114 C 
ATOM     22  O   UNL     1      30.374  32.166  18.204  1.00  0.00    -0.275 OA
ENDBRANCH   9  18
ENDBRANCH   3   4
BRANCH   3  23
ATOM     23  O   UNL     1      28.260  35.413  13.630  1.00  0.00    -0.388 OA
ATOM     24  H   UNL     1      28.010  34.672  13.025  1.00  0.00     0.211 HD
ENDBRANCH   3  23
ENDBRANCH   2   3
BRANCH   2  25
ATOM     25  O   UNL     1      26.307  35.698  15.377  1.00  0.00    -0.388 OA
ATOM     26  H   UNL     1      26.322  35.466  14.400  1.00  0.00     0.211 HD
ENDBRANCH   2  25
ENDBRANCH   1   2
BRANCH   1  27
ATOM     27  N   UNL     1      27.921  37.918  15.518  1.00  0.00    -0.319 N 
ATOM     28  C   UNL     1      28.774  39.033  15.394  1.00  0.00     0.407 C 
ATOM     29  H   UNL     1      27.013  37.992  14.935  1.00  0.00     0.167 HD
ATOM     30  O   UNL     1      29.856  39.105  16.013  1.00  0.00    -0.225 OA
BRANCH  28  31
ATOM     31  O   UNL     1      28.456  40.122  14.567  1.00  0.00    -0.443 OA
BRANCH  31  32
ATOM     32  C   UNL     1      29.188  40.354  13.364  1.00  0.00     0.294 C 
BRANCH  32  33
ATOM     33  C   UNL     1      28.938  39.207  12.459  1.00  0.00     0.121 A 
ATOM     34  C   UNL     1      28.027  39.160  11.424  1.00  0.00     0.144 A 
ATOM     35  N   UNL     1      29.525  37.986  12.444  1.00  0.00    -0.131 NA
ATOM     36  N   UNL     1      28.080  37.959  10.824  1.00  0.00    -0.219 N 
ATOM     37  N   UNL     1      28.995  37.260  11.458  1.00  0.00    -0.062 NA
BRANCH  36  38
ATOM     38  C   UNL     1      27.314  37.511   9.725  1.00  0.00     0.085 A 
ATOM     39  C   UNL     1      27.761  37.728   8.419  1.00  0.00     0.027 A 
ATOM     40  C   UNL     1      26.113  36.844   9.891  1.00  0.00     0.027 A 
ATOM     41  C   UNL     1      28.950  38.386   8.187  1.00  0.00     0.012 A 
ATOM     42  C   UNL     1      27.049  37.303   7.341  1.00  0.00     0.073 A 
ATOM     43  C   UNL     1      25.406  36.421   8.786  1.00  0.00     0.073 A 
ATOM     44  C   UNL     1      25.674  36.633  11.174  1.00  0.00     0.012 A 
ATOM     45  C   UNL     1      29.434  38.625   6.918  1.00  0.00     0.001 A 
ATOM     46  C   UNL     1      27.525  37.537   6.055  1.00  0.00     0.029 A 
ATOM     47  N   UNL     1      25.884  36.657   7.545  1.00  0.00    -0.248 NA
ATOM     48  C   UNL     1      24.218  35.765   8.999  1.00  0.00     0.029 A 
ATOM     49  C   UNL     1      24.462  35.963  11.358  1.00  0.00     0.001 A 
ATOM     50  C   UNL     1      28.709  38.192   5.803  1.00  0.00     0.002 A 
ATOM     51  C   UNL     1      23.724  35.524  10.281  1.00  0.00     0.002 A 
ENDBRANCH  36  38
ENDBRANCH  32  33
ENDBRANCH  31  32
ENDBRANCH  28  31
ENDBRANCH   1  27
TORSDOF 15
BEGIN_RES LYS A 131
REMARK  4 active torsions:
REMARK  status: ('A' for Active; 'I' for Inactive)
REMARK    1  A    between atoms: CA   and  CB  
REMARK    2  A    between atoms: CB   and  CG  
REMARK    3  A    between atoms: CG   and  CD  
REMARK    4  A    between atoms: CD   and  CE  
ROOT
ATOM      1  CA  LYS A 131      29.867  25.555  16.977  1.00 20.52     0.186 C 
ENDROOT
BRANCH   1   2
ATOM      2  CB  LYS A 131      28.345  25.722  17.026  1.00 20.94     0.034 C 
BRANCH   2   3
ATOM      3  CG  LYS A 131      27.602  24.400  16.915  1.00 22.96     0.005 C 
BRANCH   3   4
ATOM      4  CD  LYS A 131      26.145  24.538  17.260  1.00 24.33     0.041 C 
BRANCH   4   5
ATOM      5  CE  LYS A 131      25.782  23.532  18.347  1.00 26.91     0.338 C 
ATOM      6  NZ  LYS A 131      24.951  22.440  17.787  1.00 27.40     0.618 N 
ENDBRANCH   4   5
ENDBRANCH   3   4
ENDBRANCH   2   3
ENDBRANCH   1   2
END_RES LYS A 131
BEGIN_RES LYS A 135
REMARK  4 active torsions:
REMARK  status: ('A' for Active; 'I' for Inactive)
REMARK    5  A    between atoms: CA   and  CB  
REMARK    6  A    between atoms: CB   and  CG  
REMARK    7  A    between atoms: CG   and  CD  
REMARK    8  A    between atoms: CD   and  CE  
ROOT
ATOM      7  CA  LYS A 135      33.193  34.663   9.290  1.00 25.02     0.186 C 
ENDROOT
BRANCH   7   8
ATOM      8  CB  LYS A 135      32.060  35.360  10.034  1.00 26.63     0.034 C 
BRANCH   8   9
ATOM      9  CG  LYS A 135      30.779  35.438   9.244  1.00 29.45     0.005 C 
BRANCH   9  10
ATOM     10  CD  LYS A 135      30.065  34.095   9.246  1.00 32.00     0.041 C 
BRANCH  10  11
ATOM     11  CE  LYS A 135      28.660  34.238   8.694  1.00 34.25     0.338 C 
ATOM     12  NZ  LYS A 135      27.657  33.642   9.620  1.00 35.99     0.618 N 
ENDBRANCH  10  11
ENDBRANCH   9  10
ENDBRANCH   8   9
ENDBRANCH   7   8
END_RES LYS A 135
