REMARK VINA RESULT:    -5.047      6.980     10.697
REMARK INTER + INTRA:         -13.221
REMARK INTER:                  -7.867
REMARK INTRA:                  -5.354
REMARK UNBOUND:                -4.485
REMARK SMILES CC(=O)N[C@@H]1[C@@H](O)C[C@](O)(C(=O)O)O[C@H]1C(O)[C@H](O)CNC(=O)OCc1cn(-c2ccccc2)nn1
REMARK SMILES IDX 20 1 18 2 16 3 15 4 9 5 8 6 14 7 6 8 5 9 10 10 11 12 12 13
REMARK SMILES IDX 13 14 7 16 4 18 2 19 1 21 3 22 17 23 19 25 21 27 22 28 23 30
REMARK SMILES IDX 24 31 25 32 26 33 27 34 36 35 28 36 35 37 29 38 30 39 34 40
REMARK SMILES IDX 31 41 33 42 32 43
REMARK H PARENT 10 11 13 15 7 17 4 20 17 24 19 26 21 29
REMARK Flexibility Score: inf
ROOT
ATOM      1  C   UNL     1      26.368  34.693  16.267  1.00  0.00     0.154 C 
ENDROOT
BRANCH   1   2
ATOM      2  C   UNL     1      26.803  33.629  15.280  1.00  0.00     0.165 C 
BRANCH   2   3
ATOM      3  C   UNL     1      27.831  32.694  15.877  1.00  0.00     0.176 C 
BRANCH   3   4
ATOM      4  C   UNL     1      28.935  33.418  16.573  1.00  0.00     0.178 C 
ATOM      5  C   UNL     1      30.697  33.708  15.047  1.00  0.00     0.269 C 
ATOM      6  C   UNL     1      31.453  32.538  15.570  1.00  0.00     0.112 C 
ATOM      7  O   UNL     1      29.704  34.207  15.802  1.00  0.00    -0.332 OA
ATOM      8  C   UNL     1      30.722  31.720  16.594  1.00  0.00     0.145 C 
ATOM      9  C   UNL     1      29.785  32.529  17.434  1.00  0.00     0.142 C 
BRANCH   5  10
ATOM     10  O   UNL     1      30.148  33.307  13.810  1.00  0.00    -0.357 OA
ATOM     11  H   UNL     1      29.343  32.754  14.018  1.00  0.00     0.214 HD
ENDBRANCH   5  10
BRANCH   5  12
ATOM     12  C   UNL     1      31.639  34.812  14.720  1.00  0.00     0.364 C 
ATOM     13  O   UNL     1      32.030  35.042  13.555  1.00  0.00    -0.246 OA
BRANCH  12  14
ATOM     14  O   UNL     1      32.111  35.627  15.725  1.00  0.00    -0.477 OA
ATOM     15  H   UNL     1      31.668  36.489  16.019  1.00  0.00     0.296 HD
ENDBRANCH  12  14
ENDBRANCH   5  12
BRANCH   8  16
ATOM     16  O   UNL     1      30.022  30.674  15.969  1.00  0.00    -0.391 OA
ATOM     17  H   UNL     1      29.196  30.444  16.437  1.00  0.00     0.211 HD
ENDBRANCH   8  16
BRANCH   9  18
ATOM     18  N   UNL     1      30.600  33.401  18.284  1.00  0.00    -0.348 N 
ATOM     19  C   UNL     1      31.029  32.995  19.577  1.00  0.00     0.217 C 
ATOM     20  H   UNL     1      30.890  34.349  17.963  1.00  0.00     0.163 HD
ATOM     21  C   UNL     1      31.856  33.865  20.455  1.00  0.00     0.114 C 
ATOM     22  O   UNL     1      30.717  31.861  20.034  1.00  0.00    -0.275 OA
ENDBRANCH   9  18
ENDBRANCH   3   4
BRANCH   3  23
ATOM     23  O   UNL     1      27.115  31.884  16.775  1.00  0.00    -0.388 OA
ATOM     24  H   UNL     1      27.686  31.857  17.600  1.00  0.00     0.211 HD
ENDBRANCH   3  23
ENDBRANCH   2   3
BRANCH   2  25
ATOM     25  O   UNL     1      27.193  34.184  14.074  1.00  0.00    -0.388 OA
ATOM     26  H   UNL     1      26.446  34.546  13.555  1.00  0.00     0.211 HD
ENDBRANCH   2  25
ENDBRANCH   1   2
BRANCH   1  27
ATOM     27  N   UNL     1      26.198  35.985  15.680  1.00  0.00    -0.319 N 
ATOM     28  C   UNL     1      26.859  37.155  16.143  1.00  0.00     0.407 C 
ATOM     29  H   UNL     1      25.559  36.112  14.860  1.00  0.00     0.167 HD
ATOM     30  O   UNL     1      27.638  37.117  17.104  1.00  0.00    -0.225 OA
BRANCH  28  31
ATOM     31  O   UNL     1      26.657  38.389  15.535  1.00  0.00    -0.443 OA
BRANCH  31  32
ATOM     32  C   UNL     1      27.601  38.879  14.595  1.00  0.00     0.294 C 
BRANCH  32  33
ATOM     33  C   UNL     1      27.887  37.781  13.644  1.00  0.00     0.121 A 
ATOM     34  C   UNL     1      27.200  37.477  12.490  1.00  0.00     0.144 A 
ATOM     35  N   UNL     1      28.887  36.884  13.759  1.00  0.00    -0.131 NA
ATOM     36  N   UNL     1      27.816  36.409  11.958  1.00  0.00    -0.220 N 
ATOM     37  N   UNL     1      28.826  36.064  12.729  1.00  0.00    -0.062 NA
BRANCH  36  38
ATOM     38  C   UNL     1      27.425  35.765  10.751  1.00  0.00     0.066 A 
ATOM     39  C   UNL     1      26.672  36.463   9.824  1.00  0.00     0.028 A 
ATOM     40  C   UNL     1      27.790  34.455  10.501  1.00  0.00     0.028 A 
ATOM     41  C   UNL     1      26.309  35.806   8.662  1.00  0.00     0.002 A 
ATOM     42  C   UNL     1      27.422  33.819   9.342  1.00  0.00     0.002 A 
ATOM     43  C   UNL     1      26.672  34.508   8.415  1.00  0.00     0.000 A 
ENDBRANCH  36  38
ENDBRANCH  32  33
ENDBRANCH  31  32
ENDBRANCH  28  31
ENDBRANCH   1  27
TORSDOF 15
BEGIN_RES LYS A 131
REMARK  4 active torsions:
REMARK  status: ('A' for Active; 'I' for Inactive)
REMARK    1  A    between atoms: CA   and  CB  
REMARK    2  A    between atoms: CB   and  CG  
REMARK    3  A    between atoms: CG   and  CD  
REMARK    4  A    between atoms: CD   and  CE  
ROOT
ATOM      1  CA  LYS A 131      29.867  25.555  16.977  1.00 20.52     0.186 C 
ENDROOT
BRANCH   1   2
ATOM      2  CB  LYS A 131      28.345  25.722  17.026  1.00 20.94     0.034 C 
BRANCH   2   3
ATOM      3  CG  LYS A 131      27.601  24.403  16.887  1.00 22.96     0.005 C 
BRANCH   3   4
ATOM      4  CD  LYS A 131      26.570  24.217  17.966  1.00 24.33     0.041 C 
BRANCH   4   5
ATOM      5  CE  LYS A 131      25.238  23.825  17.336  1.00 26.91     0.338 C 
ATOM      6  NZ  LYS A 131      24.953  22.391  17.577  1.00 27.40     0.618 N 
ENDBRANCH   4   5
ENDBRANCH   3   4
ENDBRANCH   2   3
ENDBRANCH   1   2
END_RES LYS A 131
BEGIN_RES LYS A 135
REMARK  4 active torsions:
REMARK  status: ('A' for Active; 'I' for Inactive)
REMARK    5  A    between atoms: CA   and  CB  
REMARK    6  A    between atoms: CB   and  CG  
REMARK    7  A    between atoms: CG   and  CD  
REMARK    8  A    between atoms: CD   and  CE  
ROOT
ATOM      7  CA  LYS A 135      33.193  34.663   9.290  1.00 25.02     0.186 C 
ENDROOT
BRANCH   7   8
ATOM      8  CB  LYS A 135      32.060  35.360  10.034  1.00 26.63     0.034 C 
BRANCH   8   9
ATOM      9  CG  LYS A 135      30.811  35.530   9.207  1.00 29.45     0.005 C 
BRANCH   9  10
ATOM     10  CD  LYS A 135      30.377  36.988   9.186  1.00 32.00     0.041 C 
BRANCH  10  11
ATOM     11  CE  LYS A 135      29.621  37.299   7.908  1.00 34.25     0.338 C 
ATOM     12  NZ  LYS A 135      29.793  38.726   7.518  1.00 35.99     0.618 N 
ENDBRANCH  10  11
ENDBRANCH   9  10
ENDBRANCH   8   9
ENDBRANCH   7   8
END_RES LYS A 135
