REMARK VINA RESULT:    -5.985      3.661      7.845
REMARK INTER + INTRA:         -14.892
REMARK INTER:                  -8.744
REMARK INTRA:                  -6.148
REMARK UNBOUND:                -4.533
REMARK SMILES CC(=O)N[C@@H]1[C@@H](O)C[C@](O)(C(=O)O)O[C@H]1C(O)[C@H](O)CNC(=O)OCc1cn(-c2cnc3ccccc3c2)nn1
REMARK SMILES IDX 20 1 18 2 16 3 15 4 9 5 8 6 14 7 6 8 5 9 10 10 11 12 12 13
REMARK SMILES IDX 13 14 7 16 4 18 2 19 1 21 3 22 17 23 19 25 21 27 22 28 23 30
REMARK SMILES IDX 24 31 25 32 26 33 27 34 40 35 28 36 39 37 29 38 30 39 38 40
REMARK SMILES IDX 31 41 37 42 32 43 36 44 33 45 35 46 34 47
REMARK H PARENT 10 11 13 15 7 17 4 20 17 24 19 26 21 29
REMARK Flexibility Score: inf
ROOT
ATOM      1  C   UNL     1      31.498  33.802  17.560  1.00  0.00     0.154 C 
ENDROOT
BRANCH   1   2
ATOM      2  C   UNL     1      30.192  33.159  17.185  1.00  0.00     0.165 C 
BRANCH   2   3
ATOM      3  C   UNL     1      30.336  31.766  16.635  1.00  0.00     0.176 C 
BRANCH   3   4
ATOM      4  C   UNL     1      29.103  30.918  16.763  1.00  0.00     0.178 C 
ATOM      5  C   UNL     1      26.814  31.195  16.517  1.00  0.00     0.269 C 
ATOM      6  C   UNL     1      26.610  29.810  17.078  1.00  0.00     0.112 C 
ATOM      7  O   UNL     1      28.060  31.379  15.974  1.00  0.00    -0.332 OA
ATOM      8  C   UNL     1      27.663  29.491  18.086  1.00  0.00     0.145 C 
ATOM      9  C   UNL     1      28.721  30.613  18.170  1.00  0.00     0.142 C 
BRANCH   5  10
ATOM     10  O   UNL     1      26.487  32.111  17.513  1.00  0.00    -0.357 OA
ATOM     11  H   UNL     1      25.687  31.866  18.016  1.00  0.00     0.214 HD
ENDBRANCH   5  10
BRANCH   5  12
ATOM     12  C   UNL     1      25.815  31.374  15.420  1.00  0.00     0.364 C 
ATOM     13  O   UNL     1      25.401  30.346  14.828  1.00  0.00    -0.246 OA
BRANCH  12  14
ATOM     14  O   UNL     1      25.340  32.616  15.040  1.00  0.00    -0.477 OA
ATOM     15  H   UNL     1      25.117  33.315  15.755  1.00  0.00     0.296 HD
ENDBRANCH  12  14
ENDBRANCH   5  12
BRANCH   8  16
ATOM     16  O   UNL     1      27.096  29.297  19.358  1.00  0.00    -0.391 OA
ATOM     17  H   UNL     1      26.701  30.142  19.680  1.00  0.00     0.211 HD
ENDBRANCH   8  16
BRANCH   9  18
ATOM     18  N   UNL     1      29.900  30.066  18.850  1.00  0.00    -0.348 N 
ATOM     19  C   UNL     1      30.390  30.571  20.081  1.00  0.00     0.217 C 
ATOM     20  H   UNL     1      30.414  29.273  18.426  1.00  0.00     0.163 HD
ATOM     21  C   UNL     1      31.591  30.005  20.754  1.00  0.00     0.114 C 
ATOM     22  O   UNL     1      29.812  31.530  20.651  1.00  0.00    -0.275 OA
ENDBRANCH   9  18
ENDBRANCH   3   4
BRANCH   3  23
ATOM     23  O   UNL     1      30.722  31.898  15.286  1.00  0.00    -0.388 OA
ATOM     24  H   UNL     1      31.526  32.473  15.283  1.00  0.00     0.211 HD
ENDBRANCH   3  23
ENDBRANCH   2   3
BRANCH   2  25
ATOM     25  O   UNL     1      29.470  33.979  16.294  1.00  0.00    -0.388 OA
ATOM     26  H   UNL     1      29.571  33.519  15.402  1.00  0.00     0.211 HD
ENDBRANCH   2  25
ENDBRANCH   1   2
BRANCH   1  27
ATOM     27  N   UNL     1      31.962  34.623  16.467  1.00  0.00    -0.319 N 
ATOM     28  C   UNL     1      31.697  36.004  16.369  1.00  0.00     0.407 C 
ATOM     29  H   UNL     1      32.533  34.214  15.676  1.00  0.00     0.167 HD
ATOM     30  O   UNL     1      31.034  36.608  17.237  1.00  0.00    -0.225 OA
BRANCH  28  31
ATOM     31  O   UNL     1      32.159  36.784  15.300  1.00  0.00    -0.443 OA
BRANCH  31  32
ATOM     32  C   UNL     1      32.261  36.211  13.988  1.00  0.00     0.294 C 
BRANCH  32  33
ATOM     33  C   UNL     1      31.004  35.522  13.629  1.00  0.00     0.121 A 
ATOM     34  C   UNL     1      29.830  36.072  13.218  1.00  0.00     0.144 A 
ATOM     35  N   UNL     1      30.835  34.196  13.661  1.00  0.00    -0.131 NA
ATOM     36  N   UNL     1      28.974  35.029  13.012  1.00  0.00    -0.219 N 
ATOM     37  N   UNL     1      29.600  33.908  13.285  1.00  0.00    -0.062 NA
BRANCH  36  38
ATOM     38  C   UNL     1      27.632  35.127  12.576  1.00  0.00     0.085 A 
ATOM     39  C   UNL     1      26.619  35.141  13.518  1.00  0.00     0.140 A 
ATOM     40  C   UNL     1      27.364  35.207  11.228  1.00  0.00     0.040 A 
ATOM     41  N   UNL     1      25.345  35.234  13.103  1.00  0.00    -0.254 NA
ATOM     42  C   UNL     1      26.038  35.302  10.820  1.00  0.00     0.002 A 
ATOM     43  C   UNL     1      25.045  35.314  11.777  1.00  0.00     0.070 A 
ATOM     44  C   UNL     1      25.743  35.381   9.493  1.00  0.00     0.010 A 
ATOM     45  C   UNL     1      23.728  35.409  11.375  1.00  0.00     0.029 A 
ATOM     46  C   UNL     1      24.415  35.478   9.078  1.00  0.00     0.001 A 
ATOM     47  C   UNL     1      23.417  35.491  10.022  1.00  0.00     0.002 A 
ENDBRANCH  36  38
ENDBRANCH  32  33
ENDBRANCH  31  32
ENDBRANCH  28  31
ENDBRANCH   1  27
TORSDOF 15
BEGIN_RES LYS A 131
REMARK  4 active torsions:
REMARK  status: ('A' for Active; 'I' for Inactive)
REMARK    1  A    between atoms: CA   and  CB  
REMARK    2  A    between atoms: CB   and  CG  
REMARK    3  A    between atoms: CG   and  CD  
REMARK    4  A    between atoms: CD   and  CE  
ROOT
ATOM      1  CA  LYS A 131      29.867  25.555  16.977  1.00 20.52     0.186 C 
ENDROOT
BRANCH   1   2
ATOM      2  CB  LYS A 131      28.345  25.722  17.026  1.00 20.94     0.034 C 
BRANCH   2   3
ATOM      3  CG  LYS A 131      27.602  24.398  16.932  1.00 22.96     0.005 C 
BRANCH   3   4
ATOM      4  CD  LYS A 131      26.150  24.536  17.299  1.00 24.33     0.041 C 
BRANCH   4   5
ATOM      5  CE  LYS A 131      25.947  25.818  18.099  1.00 26.91     0.338 C 
ATOM      6  NZ  LYS A 131      25.805  25.512  19.542  1.00 27.40     0.618 N 
ENDBRANCH   4   5
ENDBRANCH   3   4
ENDBRANCH   2   3
ENDBRANCH   1   2
END_RES LYS A 131
BEGIN_RES LYS A 135
REMARK  4 active torsions:
REMARK  status: ('A' for Active; 'I' for Inactive)
REMARK    5  A    between atoms: CA   and  CB  
REMARK    6  A    between atoms: CB   and  CG  
REMARK    7  A    between atoms: CG   and  CD  
REMARK    8  A    between atoms: CD   and  CE  
ROOT
ATOM      7  CA  LYS A 135      33.193  34.663   9.290  1.00 25.02     0.186 C 
ENDROOT
BRANCH   7   8
ATOM      8  CB  LYS A 135      32.060  35.360  10.034  1.00 26.63     0.034 C 
BRANCH   8   9
ATOM      9  CG  LYS A 135      30.727  34.674   9.882  1.00 29.45     0.005 C 
BRANCH   9  10
ATOM     10  CD  LYS A 135      30.345  34.564   8.414  1.00 32.00     0.041 C 
BRANCH  10  11
ATOM     11  CE  LYS A 135      29.428  35.705   8.015  1.00 34.25     0.338 C 
ATOM     12  NZ  LYS A 135      28.401  35.251   7.038  1.00 35.99     0.618 N 
ENDBRANCH  10  11
ENDBRANCH   9  10
ENDBRANCH   8   9
ENDBRANCH   7   8
END_RES LYS A 135
