REMARK VINA RESULT:    -5.968      2.978      8.169
REMARK INTER + INTRA:         -16.418
REMARK INTER:                 -11.967
REMARK INTRA:                  -4.452
REMARK UNBOUND:                -5.216
REMARK SMILES CC(=O)N[C@@H]1[C@@H](O)C[C@](O)(C(=O)O)O[C@H]1C(O)[C@H](O)CNC(=O)OCc1cn(-c2cc(C(=O)O)nc(-c3ccccc3)c2)nn1
REMARK SMILES IDX 21 1 22 2 23 3 20 5 18 6 16 7 15 8 9 9 8 10 14 11 6 12 5 13
REMARK SMILES IDX 10 14 11 16 12 17 13 18 7 20 4 22 2 23 1 25 3 26 17 27 19 29
REMARK SMILES IDX 24 31 25 32 26 33 27 34 45 35 28 36 44 37 29 38 30 39 43 40
REMARK SMILES IDX 31 41 36 42 35 43 32 44 33 45 34 46 37 48 38 49 42 50 39 51
REMARK SMILES IDX 41 52 40 53
REMARK H PARENT 21 4 10 15 13 19 7 21 4 24 17 28 19 30 34 47
REMARK Flexibility Score: inf
ROOT
ATOM      1  N   UNL     1      24.830  36.275  12.098  1.00  0.00    -0.319 N 
ATOM      2  C   UNL     1      23.856  35.230  12.018  1.00  0.00     0.407 C 
ATOM      3  O   UNL     1      23.171  35.134  10.966  1.00  0.00    -0.225 OA
ATOM      4  H   UNL     1      25.371  36.301  13.010  1.00  0.00     0.167 HD
ENDROOT
BRANCH   1   5
ATOM      5  C   UNL     1      25.069  37.220  11.042  1.00  0.00     0.154 C 
BRANCH   5   6
ATOM      6  C   UNL     1      26.330  36.897  10.300  1.00  0.00     0.165 C 
BRANCH   6   7
ATOM      7  C   UNL     1      25.975  35.966   9.147  1.00  0.00     0.176 C 
BRANCH   7   8
ATOM      8  C   UNL     1      27.066  35.966   8.135  1.00  0.00     0.178 C 
ATOM      9  C   UNL     1      29.371  35.699   7.973  1.00  0.00     0.269 C 
ATOM     10  C   UNL     1      29.014  35.667   6.492  1.00  0.00     0.112 C 
ATOM     11  O   UNL     1      28.273  35.645   8.793  1.00  0.00    -0.332 OA
ATOM     12  C   UNL     1      28.198  36.874   6.196  1.00  0.00     0.145 C 
ATOM     13  C   UNL     1      27.324  37.246   7.415  1.00  0.00     0.142 C 
BRANCH   9  14
ATOM     14  O   UNL     1      30.087  36.909   8.138  1.00  0.00    -0.357 OA
ATOM     15  H   UNL     1      30.279  36.964   9.110  1.00  0.00     0.214 HD
ENDBRANCH   9  14
BRANCH   9  16
ATOM     16  C   UNL     1      30.265  34.583   8.333  1.00  0.00     0.364 C 
ATOM     17  O   UNL     1      29.870  33.689   9.104  1.00  0.00    -0.246 OA
BRANCH  16  18
ATOM     18  O   UNL     1      31.543  34.517   7.820  1.00  0.00    -0.477 OA
ATOM     19  H   UNL     1      31.736  34.453   6.824  1.00  0.00     0.296 HD
ENDBRANCH  16  18
ENDBRANCH   9  16
BRANCH  12  20
ATOM     20  O   UNL     1      28.930  37.960   5.769  1.00  0.00    -0.391 OA
ATOM     21  H   UNL     1      29.436  38.356   6.512  1.00  0.00     0.211 HD
ENDBRANCH  12  20
BRANCH  13  22
ATOM     22  N   UNL     1      26.165  37.952   6.941  1.00  0.00    -0.348 N 
ATOM     23  C   UNL     1      26.074  39.389   7.029  1.00  0.00     0.217 C 
ATOM     24  H   UNL     1      25.386  37.438   6.522  1.00  0.00     0.163 HD
ATOM     25  C   UNL     1      24.908  40.150   6.556  1.00  0.00     0.114 C 
ATOM     26  O   UNL     1      27.077  39.963   7.548  1.00  0.00    -0.275 OA
ENDBRANCH  13  22
ENDBRANCH   7   8
BRANCH   7  27
ATOM     27  O   UNL     1      24.729  36.185   8.625  1.00  0.00    -0.388 OA
ATOM     28  H   UNL     1      24.280  37.001   8.912  1.00  0.00     0.211 HD
ENDBRANCH   7  27
ENDBRANCH   6   7
BRANCH   6  29
ATOM     29  O   UNL     1      27.139  36.196  11.218  1.00  0.00    -0.388 OA
ATOM     30  H   UNL     1      27.901  36.786  11.398  1.00  0.00     0.211 HD
ENDBRANCH   6  29
ENDBRANCH   5   6
ENDBRANCH   1   5
BRANCH   2  31
ATOM     31  O   UNL     1      23.677  34.350  13.075  1.00  0.00    -0.443 OA
BRANCH  31  32
ATOM     32  C   UNL     1      23.023  33.125  12.813  1.00  0.00     0.294 C 
BRANCH  32  33
ATOM     33  C   UNL     1      23.807  32.059  13.488  1.00  0.00     0.121 A 
ATOM     34  C   UNL     1      24.866  32.235  14.388  1.00  0.00     0.144 A 
ATOM     35  N   UNL     1      23.690  30.714  13.400  1.00  0.00    -0.131 NA
ATOM     36  N   UNL     1      25.326  31.036  14.790  1.00  0.00    -0.220 N 
ATOM     37  N   UNL     1      24.597  30.134  14.176  1.00  0.00    -0.062 NA
BRANCH  36  38
ATOM     38  C   UNL     1      26.415  30.866  15.719  1.00  0.00     0.071 A 
ATOM     39  C   UNL     1      26.401  29.880  16.673  1.00  0.00     0.064 A 
ATOM     40  C   UNL     1      27.518  31.710  15.671  1.00  0.00     0.057 A 
ATOM     41  C   UNL     1      27.425  29.691  17.577  1.00  0.00     0.151 A 
ATOM     42  C   UNL     1      28.543  31.533  16.564  1.00  0.00     0.073 A 
ATOM     43  N   UNL     1      28.460  30.539  17.477  1.00  0.00    -0.241 NA
BRANCH  41  44
ATOM     44  C   UNL     1      27.389  28.638  18.579  1.00  0.00     0.354 C 
ATOM     45  O   UNL     1      27.293  27.452  18.207  1.00  0.00    -0.245 OA
BRANCH  44  46
ATOM     46  O   UNL     1      27.459  28.921  19.927  1.00  0.00    -0.477 OA
ATOM     47  H   UNL     1      28.090  29.631  20.314  1.00  0.00     0.297 HD
ENDBRANCH  44  46
ENDBRANCH  41  44
BRANCH  42  48
ATOM     48  C   UNL     1      29.725  32.415  16.537  1.00  0.00     0.000 A 
ATOM     49  C   UNL     1      30.635  32.247  15.516  1.00  0.00     0.010 A 
ATOM     50  C   UNL     1      29.901  33.366  17.500  1.00  0.00     0.010 A 
ATOM     51  C   UNL     1      31.739  33.067  15.487  1.00  0.00     0.001 A 
ATOM     52  C   UNL     1      31.024  34.169  17.434  1.00  0.00     0.001 A 
ATOM     53  C   UNL     1      31.963  34.043  16.435  1.00  0.00     0.000 A 
ENDBRANCH  42  48
ENDBRANCH  36  38
ENDBRANCH  32  33
ENDBRANCH  31  32
ENDBRANCH   2  31
TORSDOF 18
BEGIN_RES LYS A 131
REMARK  4 active torsions:
REMARK  status: ('A' for Active; 'I' for Inactive)
REMARK    1  A    between atoms: CA   and  CB  
REMARK    2  A    between atoms: CB   and  CG  
REMARK    3  A    between atoms: CG   and  CD  
REMARK    4  A    between atoms: CD   and  CE  
ROOT
ATOM      1  CA  LYS A 131      29.867  25.555  16.977  1.00 20.52     0.186 C 
ENDROOT
BRANCH   1   2
ATOM      2  CB  LYS A 131      28.345  25.722  17.026  1.00 20.94     0.034 C 
BRANCH   2   3
ATOM      3  CG  LYS A 131      27.599  24.434  16.713  1.00 22.96     0.005 C 
BRANCH   3   4
ATOM      4  CD  LYS A 131      27.003  23.811  17.945  1.00 24.33     0.041 C 
BRANCH   4   5
ATOM      5  CE  LYS A 131      25.601  24.368  18.170  1.00 26.91     0.338 C 
ATOM      6  NZ  LYS A 131      24.857  24.431  16.891  1.00 27.40     0.618 N 
ENDBRANCH   4   5
ENDBRANCH   3   4
ENDBRANCH   2   3
ENDBRANCH   1   2
END_RES LYS A 131
BEGIN_RES LYS A 135
REMARK  4 active torsions:
REMARK  status: ('A' for Active; 'I' for Inactive)
REMARK    5  A    between atoms: CA   and  CB  
REMARK    6  A    between atoms: CB   and  CG  
REMARK    7  A    between atoms: CG   and  CD  
REMARK    8  A    between atoms: CD   and  CE  
ROOT
ATOM      7  CA  LYS A 135      33.193  34.663   9.290  1.00 25.02     0.186 C 
ENDROOT
BRANCH   7   8
ATOM      8  CB  LYS A 135      32.060  35.360  10.034  1.00 26.63     0.034 C 
BRANCH   8   9
ATOM      9  CG  LYS A 135      32.506  36.059  11.292  1.00 29.45     0.005 C 
BRANCH   9  10
ATOM     10  CD  LYS A 135      31.912  37.457  11.368  1.00 32.00     0.041 C 
BRANCH  10  11
ATOM     11  CE  LYS A 135      31.390  37.739  12.764  1.00 34.25     0.338 C 
ATOM     12  NZ  LYS A 135      31.991  36.808  13.760  1.00 35.99     0.618 N 
ENDBRANCH  10  11
ENDBRANCH   9  10
ENDBRANCH   8   9
ENDBRANCH   7   8
END_RES LYS A 135
