REMARK VINA RESULT:    -4.912      6.943     14.046
REMARK INTER + INTRA:         -15.770
REMARK INTER:                  -7.907
REMARK INTRA:                  -7.863
REMARK UNBOUND:                -6.408
REMARK SMILES CC(=O)N[C@@H]1[C@@H](O)C[C@](O)(C(=O)O)O[C@H]1C(O)[C@H](O)CNC(=O)OCc1cn(-c2ccc(S(=O)(=O)Nc3nccs3)cc2)nn1
REMARK SMILES IDX 21 1 22 2 23 3 20 5 18 6 16 7 15 8 9 9 8 10 14 11 6 12 5 13
REMARK SMILES IDX 10 14 11 16 12 17 13 18 7 20 4 22 2 23 1 25 3 26 17 27 19 29
REMARK SMILES IDX 24 31 25 32 26 33 27 34 45 35 28 36 44 37 29 38 30 39 43 40
REMARK SMILES IDX 31 41 42 42 32 43 33 44 34 45 35 46 36 47 37 49 38 50 41 51
REMARK SMILES IDX 39 52 40 53
REMARK H PARENT 21 4 10 15 13 19 7 21 4 24 17 28 19 30 36 48
REMARK Flexibility Score: inf
ROOT
ATOM      1  N   UNL     1      25.303  41.886   7.107  1.00  0.00    -0.319 N 
ATOM      2  C   UNL     1      24.587  40.790   7.636  1.00  0.00     0.407 C 
ATOM      3  O   UNL     1      24.419  39.758   6.900  1.00  0.00    -0.225 OA
ATOM      4  H   UNL     1      25.444  42.724   7.697  1.00  0.00     0.167 HD
ENDROOT
BRANCH   1   5
ATOM      5  C   UNL     1      25.842  41.867   5.774  1.00  0.00     0.154 C 
BRANCH   5   6
ATOM      6  C   UNL     1      27.339  41.677   5.752  1.00  0.00     0.165 C 
BRANCH   6   7
ATOM      7  C   UNL     1      27.725  40.227   5.705  1.00  0.00     0.176 C 
BRANCH   7   8
ATOM      8  C   UNL     1      28.016  39.695   7.120  1.00  0.00     0.178 C 
ATOM      9  C   UNL     1      30.344  39.311   7.087  1.00  0.00     0.269 C 
ATOM     10  C   UNL     1      30.092  37.864   7.464  1.00  0.00     0.112 C 
ATOM     11  O   UNL     1      29.285  40.075   7.433  1.00  0.00    -0.332 OA
ATOM     12  C   UNL     1      28.878  37.440   6.674  1.00  0.00     0.145 C 
ATOM     13  C   UNL     1      27.703  38.251   7.161  1.00  0.00     0.142 C 
BRANCH   9  14
ATOM     14  O   UNL     1      30.487  39.319   5.693  1.00  0.00    -0.357 OA
ATOM     15  H   UNL     1      29.660  39.104   5.222  1.00  0.00     0.214 HD
ENDBRANCH   9  14
BRANCH   9  16
ATOM     16  C   UNL     1      31.626  39.795   7.660  1.00  0.00     0.364 C 
ATOM     17  O   UNL     1      31.928  40.993   7.561  1.00  0.00    -0.246 OA
BRANCH  16  18
ATOM     18  O   UNL     1      32.487  38.926   8.301  1.00  0.00    -0.477 OA
ATOM     19  H   UNL     1      33.364  39.277   8.714  1.00  0.00     0.296 HD
ENDBRANCH  16  18
ENDBRANCH   9  16
BRANCH  12  20
ATOM     20  O   UNL     1      29.120  37.591   5.313  1.00  0.00    -0.391 OA
ATOM     21  H   UNL     1      28.515  36.954   4.832  1.00  0.00     0.211 HD
ENDBRANCH  12  20
BRANCH  13  22
ATOM     22  N   UNL     1      27.318  37.732   8.434  1.00  0.00    -0.348 N 
ATOM     23  C   UNL     1      26.116  37.006   8.576  1.00  0.00     0.217 C 
ATOM     24  H   UNL     1      27.915  37.885   9.264  1.00  0.00     0.163 HD
ATOM     25  C   UNL     1      25.639  36.432   9.860  1.00  0.00     0.114 C 
ATOM     26  O   UNL     1      25.418  36.839   7.568  1.00  0.00    -0.275 OA
ENDBRANCH  13  22
ENDBRANCH   7   8
BRANCH   7  27
ATOM     27  O   UNL     1      26.727  39.426   5.104  1.00  0.00    -0.388 OA
ATOM     28  H   UNL     1      26.044  40.026   4.752  1.00  0.00     0.211 HD
ENDBRANCH   7  27
ENDBRANCH   6   7
BRANCH   6  29
ATOM     29  O   UNL     1      27.811  42.296   6.930  1.00  0.00    -0.388 OA
ATOM     30  H   UNL     1      27.948  43.249   6.703  1.00  0.00     0.211 HD
ENDBRANCH   6  29
ENDBRANCH   5   6
ENDBRANCH   1   5
BRANCH   2  31
ATOM     31  O   UNL     1      24.052  40.762   8.907  1.00  0.00    -0.443 OA
BRANCH  31  32
ATOM     32  C   UNL     1      24.488  41.666   9.932  1.00  0.00     0.294 C 
BRANCH  32  33
ATOM     33  C   UNL     1      25.944  41.402  10.127  1.00  0.00     0.121 A 
ATOM     34  C   UNL     1      26.519  40.257  10.683  1.00  0.00     0.144 A 
ATOM     35  N   UNL     1      26.996  42.187   9.818  1.00  0.00    -0.131 NA
ATOM     36  N   UNL     1      27.856  40.389  10.690  1.00  0.00    -0.220 N 
ATOM     37  N   UNL     1      28.101  41.570  10.158  1.00  0.00    -0.062 NA
BRANCH  36  38
ATOM     38  C   UNL     1      28.772  39.421  11.182  1.00  0.00     0.066 A 
ATOM     39  C   UNL     1      30.135  39.550  11.041  1.00  0.00     0.030 A 
ATOM     40  C   UNL     1      28.299  38.299  11.827  1.00  0.00     0.030 A 
ATOM     41  C   UNL     1      31.017  38.587  11.530  1.00  0.00     0.024 A 
ATOM     42  C   UNL     1      29.167  37.347  12.311  1.00  0.00     0.024 A 
ATOM     43  C   UNL     1      30.555  37.464  12.176  1.00  0.00     0.088 A 
BRANCH  43  44
ATOM     44  S   UNL     1      31.616  36.244  12.813  1.00  0.00     0.263 S 
ATOM     45  O   UNL     1      31.964  36.661  14.237  1.00  0.00    -0.201 OA
ATOM     46  O   UNL     1      32.888  36.294  12.038  1.00  0.00    -0.201 OA
BRANCH  44  47
ATOM     47  N   UNL     1      30.958  34.677  12.836  1.00  0.00    -0.255 N 
ATOM     48  H   UNL     1      31.203  34.033  12.036  1.00  0.00     0.182 HD
BRANCH  47  49
ATOM     49  C   UNL     1      30.109  34.128  13.810  1.00  0.00     0.196 A 
ATOM     50  N   UNL     1      28.948  34.132  14.189  1.00  0.00    -0.228 NA
ATOM     51  S   UNL     1      30.825  32.922  15.076  1.00  0.00    -0.105 S 
ATOM     52  C   UNL     1      28.415  33.483  15.174  1.00  0.00     0.125 A 
ATOM     53  C   UNL     1      29.191  32.672  15.928  1.00  0.00     0.089 A 
ENDBRANCH  47  49
ENDBRANCH  44  47
ENDBRANCH  43  44
ENDBRANCH  36  38
ENDBRANCH  32  33
ENDBRANCH  31  32
ENDBRANCH   2  31
TORSDOF 18
BEGIN_RES LYS A 131
REMARK  4 active torsions:
REMARK  status: ('A' for Active; 'I' for Inactive)
REMARK    1  A    between atoms: CA   and  CB  
REMARK    2  A    between atoms: CB   and  CG  
REMARK    3  A    between atoms: CG   and  CD  
REMARK    4  A    between atoms: CD   and  CE  
ROOT
ATOM      1  CA  LYS A 131      29.867  25.555  16.977  1.00 20.52     0.186 C 
ENDROOT
BRANCH   1   2
ATOM      2  CB  LYS A 131      28.345  25.722  17.026  1.00 20.94     0.034 C 
BRANCH   2   3
ATOM      3  CG  LYS A 131      27.601  24.401  16.904  1.00 22.96     0.005 C 
BRANCH   3   4
ATOM      4  CD  LYS A 131      26.152  24.529  17.284  1.00 24.33     0.041 C 
BRANCH   4   5
ATOM      5  CE  LYS A 131      25.786  23.429  18.275  1.00 26.91     0.338 C 
ATOM      6  NZ  LYS A 131      25.112  22.308  17.579  1.00 27.40     0.618 N 
ENDBRANCH   4   5
ENDBRANCH   3   4
ENDBRANCH   2   3
ENDBRANCH   1   2
END_RES LYS A 131
BEGIN_RES LYS A 135
REMARK  4 active torsions:
REMARK  status: ('A' for Active; 'I' for Inactive)
REMARK    5  A    between atoms: CA   and  CB  
REMARK    6  A    between atoms: CB   and  CG  
REMARK    7  A    between atoms: CG   and  CD  
REMARK    8  A    between atoms: CD   and  CE  
ROOT
ATOM      7  CA  LYS A 135      33.193  34.663   9.290  1.00 25.02     0.186 C 
ENDROOT
BRANCH   7   8
ATOM      8  CB  LYS A 135      32.060  35.360  10.034  1.00 26.63     0.034 C 
BRANCH   8   9
ATOM      9  CG  LYS A 135      30.795  35.487   9.224  1.00 29.45     0.005 C 
BRANCH   9  10
ATOM     10  CD  LYS A 135      30.168  34.121   8.992  1.00 32.00     0.041 C 
BRANCH  10  11
ATOM     11  CE  LYS A 135      28.701  34.262   8.635  1.00 34.25     0.338 C 
ATOM     12  NZ  LYS A 135      27.833  33.655   9.681  1.00 35.99     0.618 N 
ENDBRANCH  10  11
ENDBRANCH   9  10
ENDBRANCH   8   9
ENDBRANCH   7   8
END_RES LYS A 135
