REMARK VINA RESULT:    -5.306      3.706      7.466
REMARK INTER + INTRA:         -16.487
REMARK INTER:                 -10.558
REMARK INTRA:                  -5.929
REMARK UNBOUND:                -6.527
REMARK SMILES CC(=O)N[C@@H]1[C@@H](O)C[C@](O)(C(=O)O)O[C@H]1C(O)[C@H](O)CNC(=O)OCc1cn(-c2ccc(S(=O)(=O)c3ccc(N)cc3)cc2)nn1
REMARK SMILES IDX 21 1 22 2 23 3 20 5 18 6 16 7 15 8 9 9 8 10 14 11 6 12 5 13
REMARK SMILES IDX 10 14 11 16 12 17 13 18 7 20 4 22 2 23 1 25 3 26 17 27 19 29
REMARK SMILES IDX 24 31 25 32 26 33 27 34 46 35 28 36 45 37 29 38 30 39 44 40
REMARK SMILES IDX 31 41 43 42 32 43 33 44 34 45 35 46 36 47 37 48 42 49 38 50
REMARK SMILES IDX 41 51 39 52 40 53
REMARK H PARENT 21 4 10 15 13 19 7 21 4 24 17 28 19 30 40 54 40 55
REMARK Flexibility Score: inf
ROOT
ATOM      1  N   UNL     1      29.574  30.509  21.265  1.00  0.00    -0.319 N 
ATOM      2  C   UNL     1      30.160  30.929  20.047  1.00  0.00     0.407 C 
ATOM      3  O   UNL     1      31.006  30.221  19.491  1.00  0.00    -0.225 OA
ATOM      4  H   UNL     1      28.852  31.182  21.671  1.00  0.00     0.167 HD
ENDROOT
BRANCH   1   5
ATOM      5  C   UNL     1      29.881  29.281  21.959  1.00  0.00     0.154 C 
BRANCH   5   6
ATOM      6  C   UNL     1      28.714  28.359  21.871  1.00  0.00     0.165 C 
BRANCH   6   7
ATOM      7  C   UNL     1      28.854  27.332  20.767  1.00  0.00     0.176 C 
BRANCH   7   8
ATOM      8  C   UNL     1      27.924  27.525  19.617  1.00  0.00     0.178 C 
ATOM      9  C   UNL     1      27.076  29.275  18.359  1.00  0.00     0.269 C 
ATOM     10  C   UNL     1      26.063  28.339  17.778  1.00  0.00     0.112 C 
ATOM     11  O   UNL     1      28.199  28.635  18.853  1.00  0.00    -0.332 OA
ATOM     12  C   UNL     1      25.751  27.158  18.625  1.00  0.00     0.145 C 
ATOM     13  C   UNL     1      26.469  27.347  19.972  1.00  0.00     0.142 C 
BRANCH   9  14
ATOM     14  O   UNL     1      26.497  30.127  19.327  1.00  0.00    -0.357 OA
ATOM     15  H   UNL     1      26.695  29.769  20.209  1.00  0.00     0.214 HD
ENDBRANCH   9  14
BRANCH   9  16
ATOM     16  C   UNL     1      27.536  30.175  17.261  1.00  0.00     0.364 C 
ATOM     17  O   UNL     1      26.909  31.261  17.064  1.00  0.00    -0.246 OA
BRANCH  16  18
ATOM     18  O   UNL     1      28.603  29.905  16.442  1.00  0.00    -0.477 OA
ATOM     19  H   UNL     1      29.343  29.275  16.747  1.00  0.00     0.296 HD
ENDBRANCH  16  18
ENDBRANCH   9  16
BRANCH  12  20
ATOM     20  O   UNL     1      24.394  26.950  18.819  1.00  0.00    -0.391 OA
ATOM     21  H   UNL     1      24.132  26.070  18.398  1.00  0.00     0.211 HD
ENDBRANCH  12  20
BRANCH  13  22
ATOM     22  N   UNL     1      26.347  26.108  20.731  1.00  0.00    -0.348 N 
ATOM     23  C   UNL     1      25.699  26.108  21.990  1.00  0.00     0.217 C 
ATOM     24  H   UNL     1      26.724  25.202  20.381  1.00  0.00     0.163 HD
ATOM     25  C   UNL     1      25.560  24.846  22.800  1.00  0.00     0.114 C 
ATOM     26  O   UNL     1      25.212  27.139  22.501  1.00  0.00    -0.275 OA
ENDBRANCH  13  22
ENDBRANCH   7   8
BRANCH   7  27
ATOM     27  O   UNL     1      30.197  27.381  20.374  1.00  0.00    -0.388 OA
ATOM     28  H   UNL     1      30.689  26.717  20.902  1.00  0.00     0.211 HD
ENDBRANCH   7  27
ENDBRANCH   6   7
BRANCH   6  29
ATOM     29  O   UNL     1      27.521  29.065  21.810  1.00  0.00    -0.388 OA
ATOM     30  H   UNL     1      27.605  29.764  21.113  1.00  0.00     0.211 HD
ENDBRANCH   6  29
ENDBRANCH   5   6
ENDBRANCH   1   5
BRANCH   2  31
ATOM     31  O   UNL     1      29.828  32.127  19.424  1.00  0.00    -0.443 OA
BRANCH  31  32
ATOM     32  C   UNL     1      30.736  32.811  18.574  1.00  0.00     0.294 C 
BRANCH  32  33
ATOM     33  C   UNL     1      30.302  32.766  17.149  1.00  0.00     0.121 A 
ATOM     34  C   UNL     1      29.349  33.586  16.610  1.00  0.00     0.144 A 
ATOM     35  N   UNL     1      30.734  31.961  16.169  1.00  0.00    -0.131 NA
ATOM     36  N   UNL     1      29.218  33.261  15.303  1.00  0.00    -0.220 N 
ATOM     37  N   UNL     1      30.061  32.290  15.085  1.00  0.00    -0.062 NA
BRANCH  36  38
ATOM     38  C   UNL     1      28.313  33.910  14.425  1.00  0.00     0.066 A 
ATOM     39  C   UNL     1      28.777  34.805  13.486  1.00  0.00     0.030 A 
ATOM     40  C   UNL     1      26.954  33.684  14.467  1.00  0.00     0.030 A 
ATOM     41  C   UNL     1      27.929  35.460  12.610  1.00  0.00     0.023 A 
ATOM     42  C   UNL     1      26.088  34.340  13.587  1.00  0.00     0.023 A 
ATOM     43  C   UNL     1      26.576  35.229  12.659  1.00  0.00     0.072 A 
BRANCH  43  44
ATOM     44  S   UNL     1      25.517  36.047  11.565  1.00  0.00     0.206 S 
ATOM     45  O   UNL     1      25.352  37.468  11.984  1.00  0.00    -0.219 OA
ATOM     46  O   UNL     1      24.154  35.422  11.505  1.00  0.00    -0.219 OA
BRANCH  44  47
ATOM     47  C   UNL     1      26.220  35.931   9.955  1.00  0.00     0.072 A 
ATOM     48  C   UNL     1      26.707  34.723   9.532  1.00  0.00     0.023 A 
ATOM     49  C   UNL     1      26.287  37.035   9.110  1.00  0.00     0.023 A 
ATOM     50  C   UNL     1      27.270  34.586   8.269  1.00  0.00     0.027 A 
ATOM     51  C   UNL     1      26.843  36.933   7.844  1.00  0.00     0.027 A 
ATOM     52  C   UNL     1      27.321  35.703   7.458  1.00  0.00     0.031 A 
BRANCH  52  53
ATOM     53  N   UNL     1      27.891  35.577   6.171  1.00  0.00    -0.399 N 
ATOM     54  H   UNL     1      28.737  35.002   6.028  1.00  0.00     0.156 HD
ATOM     55  H   UNL     1      27.454  36.067   5.372  1.00  0.00     0.156 HD
ENDBRANCH  52  53
ENDBRANCH  44  47
ENDBRANCH  43  44
ENDBRANCH  36  38
ENDBRANCH  32  33
ENDBRANCH  31  32
ENDBRANCH   2  31
TORSDOF 18
BEGIN_RES LYS A 131
REMARK  4 active torsions:
REMARK  status: ('A' for Active; 'I' for Inactive)
REMARK    1  A    between atoms: CA   and  CB  
REMARK    2  A    between atoms: CB   and  CG  
REMARK    3  A    between atoms: CG   and  CD  
REMARK    4  A    between atoms: CD   and  CE  
ROOT
ATOM      1  CA  LYS A 131      29.867  25.555  16.977  1.00 20.52     0.186 C 
ENDROOT
BRANCH   1   2
ATOM      2  CB  LYS A 131      28.345  25.722  17.026  1.00 20.94     0.034 C 
BRANCH   2   3
ATOM      3  CG  LYS A 131      27.599  24.429  16.735  1.00 22.96     0.005 C 
BRANCH   3   4
ATOM      4  CD  LYS A 131      27.031  23.810  17.982  1.00 24.33     0.041 C 
BRANCH   4   5
ATOM      5  CE  LYS A 131      25.625  23.291  17.698  1.00 26.91     0.338 C 
ATOM      6  NZ  LYS A 131      24.889  24.237  16.825  1.00 27.40     0.618 N 
ENDBRANCH   4   5
ENDBRANCH   3   4
ENDBRANCH   2   3
ENDBRANCH   1   2
END_RES LYS A 131
BEGIN_RES LYS A 135
REMARK  4 active torsions:
REMARK  status: ('A' for Active; 'I' for Inactive)
REMARK    5  A    between atoms: CA   and  CB  
REMARK    6  A    between atoms: CB   and  CG  
REMARK    7  A    between atoms: CG   and  CD  
REMARK    8  A    between atoms: CD   and  CE  
ROOT
ATOM      7  CA  LYS A 135      33.193  34.663   9.290  1.00 25.02     0.186 C 
ENDROOT
BRANCH   7   8
ATOM      8  CB  LYS A 135      32.060  35.360  10.034  1.00 26.63     0.034 C 
BRANCH   8   9
ATOM      9  CG  LYS A 135      30.774  35.423   9.251  1.00 29.45     0.005 C 
BRANCH   9  10
ATOM     10  CD  LYS A 135      30.414  36.864   8.925  1.00 32.00     0.041 C 
BRANCH  10  11
ATOM     11  CE  LYS A 135      29.854  37.563  10.149  1.00 34.25     0.338 C 
ATOM     12  NZ  LYS A 135      30.713  38.711  10.551  1.00 35.99     0.618 N 
ENDBRANCH  10  11
ENDBRANCH   9  10
ENDBRANCH   8   9
ENDBRANCH   7   8
END_RES LYS A 135
