REMARK VINA RESULT:    -4.088      7.949     12.726
REMARK INTER + INTRA:         -14.356
REMARK INTER:                  -8.418
REMARK INTRA:                  -5.939
REMARK UNBOUND:                -7.042
REMARK SMILES CC(=O)N[C@@H]1[C@@H](O)C[C@](O)(C(=O)O)O[C@H]1C(O)[C@H](O)CNC(=O)OCc1cn(-c2ncccc2C#N)nn1
REMARK SMILES IDX 21 1 22 2 23 3 20 5 18 6 16 7 15 8 9 9 8 10 14 11 6 12 5 13
REMARK SMILES IDX 10 14 11 16 12 17 13 18 7 20 4 22 2 23 1 25 3 26 17 27 19 29
REMARK SMILES IDX 24 31 25 32 26 33 27 34 38 35 28 36 37 37 29 38 30 39 34 40
REMARK SMILES IDX 31 41 33 42 32 43 35 44 36 45
REMARK H PARENT 21 4 10 15 13 19 7 21 4 24 17 28 19 30
REMARK Flexibility Score: inf
ROOT
ATOM      1  N   UNL     1      28.254  29.197  18.763  1.00  0.00    -0.319 N 
ATOM      2  C   UNL     1      26.960  29.327  18.154  1.00  0.00     0.407 C 
ATOM      3  O   UNL     1      25.935  29.448  18.832  1.00  0.00    -0.225 OA
ATOM      4  H   UNL     1      29.046  29.124  18.041  1.00  0.00     0.167 HD
ENDROOT
BRANCH   1   5
ATOM      5  C   UNL     1      28.501  29.210  20.125  1.00  0.00     0.154 C 
BRANCH   5   6
ATOM      6  C   UNL     1      29.198  27.977  20.751  1.00  0.00     0.165 C 
BRANCH   6   7
ATOM      7  C   UNL     1      30.596  28.419  20.954  1.00  0.00     0.176 C 
BRANCH   7   8
ATOM      8  C   UNL     1      31.517  27.602  21.786  1.00  0.00     0.178 C 
ATOM      9  C   UNL     1      30.762  26.831  23.876  1.00  0.00     0.269 C 
ATOM     10  C   UNL     1      32.150  26.622  24.429  1.00  0.00     0.112 C 
ATOM     11  O   UNL     1      30.718  26.660  22.490  1.00  0.00    -0.332 OA
ATOM     12  C   UNL     1      33.204  27.127  23.422  1.00  0.00     0.145 C 
ATOM     13  C   UNL     1      32.463  28.265  22.679  1.00  0.00     0.142 C 
BRANCH   9  14
ATOM     14  O   UNL     1      30.241  28.038  24.313  1.00  0.00    -0.357 OA
ATOM     15  H   UNL     1      30.551  28.326  25.185  1.00  0.00     0.214 HD
ENDBRANCH   9  14
BRANCH   9  16
ATOM     16  C   UNL     1      29.948  25.714  24.399  1.00  0.00     0.364 C 
ATOM     17  O   UNL     1      30.232  24.746  24.993  1.00  0.00    -0.246 OA
BRANCH  16  18
ATOM     18  O   UNL     1      28.511  25.893  24.097  1.00  0.00    -0.477 OA
ATOM     19  H   UNL     1      27.962  26.335  24.838  1.00  0.00     0.296 HD
ENDBRANCH  16  18
ENDBRANCH   9  16
BRANCH  12  20
ATOM     20  O   UNL     1      34.324  27.587  24.065  1.00  0.00    -0.391 OA
ATOM     21  H   UNL     1      34.104  28.214  24.776  1.00  0.00     0.211 HD
ENDBRANCH  12  20
BRANCH  13  22
ATOM     22  N   UNL     1      33.493  29.051  21.984  1.00  0.00    -0.348 N 
ATOM     23  C   UNL     1      33.545  30.435  22.211  1.00  0.00     0.217 C 
ATOM     24  H   UNL     1      34.147  28.591  21.380  1.00  0.00     0.163 HD
ATOM     25  C   UNL     1      34.371  31.501  21.780  1.00  0.00     0.114 C 
ATOM     26  O   UNL     1      32.544  30.774  23.073  1.00  0.00    -0.275 OA
ENDBRANCH  13  22
ENDBRANCH   7   8
BRANCH   7  27
ATOM     27  O   UNL     1      31.110  28.997  19.829  1.00  0.00    -0.388 OA
ATOM     28  H   UNL     1      31.113  28.383  19.048  1.00  0.00     0.211 HD
ENDBRANCH   7  27
ENDBRANCH   6   7
BRANCH   6  29
ATOM     29  O   UNL     1      28.956  26.950  19.884  1.00  0.00    -0.388 OA
ATOM     30  H   UNL     1      28.900  26.098  20.386  1.00  0.00     0.211 HD
ENDBRANCH   6  29
ENDBRANCH   5   6
ENDBRANCH   1   5
BRANCH   2  31
ATOM     31  O   UNL     1      26.872  29.319  16.761  1.00  0.00    -0.443 OA
BRANCH  31  32
ATOM     32  C   UNL     1      26.737  30.550  16.019  1.00  0.00     0.294 C 
BRANCH  32  33
ATOM     33  C   UNL     1      28.129  31.130  16.082  1.00  0.00     0.121 A 
ATOM     34  C   UNL     1      28.468  32.389  16.479  1.00  0.00     0.146 A 
ATOM     35  N   UNL     1      29.248  30.449  15.836  1.00  0.00    -0.131 NA
ATOM     36  N   UNL     1      29.836  32.423  16.465  1.00  0.00    -0.201 N 
ATOM     37  N   UNL     1      30.271  31.219  16.068  1.00  0.00    -0.060 NA
BRANCH  36  38
ATOM     38  C   UNL     1      30.654  33.491  16.820  1.00  0.00     0.173 A 
ATOM     39  N   UNL     1      31.038  34.436  15.864  1.00  0.00    -0.236 NA
ATOM     40  C   UNL     1      31.238  33.686  18.054  1.00  0.00     0.097 A 
ATOM     41  C   UNL     1      31.854  35.356  16.166  1.00  0.00     0.113 A 
ATOM     42  C   UNL     1      32.092  34.650  18.354  1.00  0.00     0.025 A 
ATOM     43  C   UNL     1      32.501  35.625  17.399  1.00  0.00     0.022 A 
BRANCH  40  44
ATOM     44  C   UNL     1      30.939  32.669  19.136  1.00  0.00     0.103 C 
ATOM     45  N   UNL     1      30.722  31.997  19.858  1.00  0.00    -0.192 NA
ENDBRANCH  40  44
ENDBRANCH  36  38
ENDBRANCH  32  33
ENDBRANCH  31  32
ENDBRANCH   2  31
TORSDOF 16
BEGIN_RES LYS A 131
REMARK  4 active torsions:
REMARK  status: ('A' for Active; 'I' for Inactive)
REMARK    1  A    between atoms: CA   and  CB  
REMARK    2  A    between atoms: CB   and  CG  
REMARK    3  A    between atoms: CG   and  CD  
REMARK    4  A    between atoms: CD   and  CE  
ROOT
ATOM      1  CA  LYS A 131      29.867  25.555  16.977  1.00 20.52     0.186 C 
ENDROOT
BRANCH   1   2
ATOM      2  CB  LYS A 131      28.345  25.722  17.026  1.00 20.94     0.034 C 
BRANCH   2   3
ATOM      3  CG  LYS A 131      27.601  24.403  16.885  1.00 22.96     0.005 C 
BRANCH   3   4
ATOM      4  CD  LYS A 131      26.665  24.155  18.035  1.00 24.33     0.041 C 
BRANCH   4   5
ATOM      5  CE  LYS A 131      25.519  23.260  17.575  1.00 26.91     0.338 C 
ATOM      6  NZ  LYS A 131      24.468  24.064  16.907  1.00 27.40     0.618 N 
ENDBRANCH   4   5
ENDBRANCH   3   4
ENDBRANCH   2   3
ENDBRANCH   1   2
END_RES LYS A 131
BEGIN_RES LYS A 135
REMARK  4 active torsions:
REMARK  status: ('A' for Active; 'I' for Inactive)
REMARK    5  A    between atoms: CA   and  CB  
REMARK    6  A    between atoms: CB   and  CG  
REMARK    7  A    between atoms: CG   and  CD  
REMARK    8  A    between atoms: CD   and  CE  
ROOT
ATOM      7  CA  LYS A 135      33.193  34.663   9.290  1.00 25.02     0.186 C 
ENDROOT
BRANCH   7   8
ATOM      8  CB  LYS A 135      32.060  35.360  10.034  1.00 26.63     0.034 C 
BRANCH   8   9
ATOM      9  CG  LYS A 135      30.691  34.856   9.656  1.00 29.45     0.005 C 
BRANCH   9  10
ATOM     10  CD  LYS A 135      30.620  34.562   8.166  1.00 32.00     0.041 C 
BRANCH  10  11
ATOM     11  CE  LYS A 135      29.295  35.030   7.594  1.00 34.25     0.338 C 
ATOM     12  NZ  LYS A 135      29.145  36.506   7.724  1.00 35.99     0.618 N 
ENDBRANCH  10  11
ENDBRANCH   9  10
ENDBRANCH   8   9
ENDBRANCH   7   8
END_RES LYS A 135
