REMARK VINA RESULT:    -4.920      2.799      5.410
REMARK INTER + INTRA:         -13.671
REMARK INTER:                  -8.039
REMARK INTRA:                  -5.632
REMARK UNBOUND:                -4.724
REMARK SMILES CC(=O)N[C@@H]1[C@@H](O)C[C@](O)(C(=O)O)O[C@H]1C(O)[C@H](O)CNC(=O)OCc1cn([C@@H](C)C(=O)O)nn1
REMARK SMILES IDX 21 1 22 2 23 3 20 5 18 6 16 7 15 8 9 9 8 10 14 11 6 12 5 13
REMARK SMILES IDX 10 14 11 16 12 17 13 18 7 20 4 22 2 23 1 25 3 26 17 27 19 29
REMARK SMILES IDX 24 31 25 32 26 33 27 34 35 35 28 36 34 37 29 38 30 39 31 40
REMARK SMILES IDX 32 41 33 42
REMARK H PARENT 21 4 10 15 13 19 7 21 4 24 17 28 19 30 33 43
REMARK Flexibility Score: inf
ROOT
ATOM      1  N   UNL     1      32.903  34.768  19.651  1.00  0.00    -0.319 N 
ATOM      2  C   UNL     1      32.582  34.195  20.902  1.00  0.00     0.407 C 
ATOM      3  O   UNL     1      31.599  34.590  21.578  1.00  0.00    -0.225 OA
ATOM      4  H   UNL     1      33.725  34.406  19.132  1.00  0.00     0.167 HD
ENDROOT
BRANCH   1   5
ATOM      5  C   UNL     1      32.128  35.830  19.080  1.00  0.00     0.154 C 
BRANCH   5   6
ATOM      6  C   UNL     1      31.652  35.523  17.656  1.00  0.00     0.165 C 
BRANCH   6   7
ATOM      7  C   UNL     1      30.698  34.383  17.745  1.00  0.00     0.176 C 
BRANCH   7   8
ATOM      8  C   UNL     1      29.704  34.257  16.640  1.00  0.00     0.178 C 
ATOM      9  C   UNL     1      29.594  31.927  16.522  1.00  0.00     0.269 C 
ATOM     10  C   UNL     1      30.803  31.998  15.678  1.00  0.00     0.112 C 
ATOM     11  O   UNL     1      28.975  33.099  16.869  1.00  0.00    -0.332 OA
ATOM     12  C   UNL     1      30.927  33.158  14.755  1.00  0.00     0.145 C 
ATOM     13  C   UNL     1      30.202  34.376  15.251  1.00  0.00     0.142 C 
BRANCH   9  14
ATOM     14  O   UNL     1      30.005  31.346  17.751  1.00  0.00    -0.357 OA
ATOM     15  H   UNL     1      30.555  30.566  17.529  1.00  0.00     0.214 HD
ENDBRANCH   9  14
BRANCH   9  16
ATOM     16  C   UNL     1      28.627  30.968  15.921  1.00  0.00     0.364 C 
ATOM     17  O   UNL     1      27.421  31.276  15.716  1.00  0.00    -0.246 OA
BRANCH  16  18
ATOM     18  O   UNL     1      29.023  29.692  15.561  1.00  0.00    -0.477 OA
ATOM     19  H   UNL     1      29.566  29.488  14.728  1.00  0.00     0.296 HD
ENDBRANCH  16  18
ENDBRANCH   9  16
BRANCH  12  20
ATOM     20  O   UNL     1      32.301  33.409  14.581  1.00  0.00    -0.391 OA
ATOM     21  H   UNL     1      32.773  32.690  15.067  1.00  0.00     0.211 HD
ENDBRANCH  12  20
BRANCH  13  22
ATOM     22  N   UNL     1      29.011  34.585  14.402  1.00  0.00    -0.348 N 
ATOM     23  C   UNL     1      29.086  35.343  13.212  1.00  0.00     0.217 C 
ATOM     24  H   UNL     1      28.086  34.188  14.646  1.00  0.00     0.163 HD
ATOM     25  C   UNL     1      27.925  35.578  12.334  1.00  0.00     0.114 C 
ATOM     26  O   UNL     1      30.197  35.858  12.858  1.00  0.00    -0.275 OA
ENDBRANCH  13  22
ENDBRANCH   7   8
BRANCH   7  27
ATOM     27  O   UNL     1      29.907  34.656  18.909  1.00  0.00    -0.388 OA
ATOM     28  H   UNL     1      29.114  34.074  18.804  1.00  0.00     0.211 HD
ENDBRANCH   7  27
ENDBRANCH   6   7
BRANCH   6  29
ATOM     29  O   UNL     1      32.803  35.181  16.956  1.00  0.00    -0.388 OA
ATOM     30  H   UNL     1      32.526  34.597  16.205  1.00  0.00     0.211 HD
ENDBRANCH   6  29
ENDBRANCH   5   6
ENDBRANCH   1   5
BRANCH   2  31
ATOM     31  O   UNL     1      33.359  33.151  21.440  1.00  0.00    -0.443 OA
BRANCH  31  32
ATOM     32  C   UNL     1      32.788  32.210  22.331  1.00  0.00     0.294 C 
BRANCH  32  33
ATOM     33  C   UNL     1      32.061  31.146  21.595  1.00  0.00     0.120 A 
ATOM     34  C   UNL     1      32.155  29.771  21.826  1.00  0.00     0.139 A 
ATOM     35  N   UNL     1      31.180  31.260  20.577  1.00  0.00    -0.132 NA
ATOM     36  N   UNL     1      31.354  29.133  20.968  1.00  0.00    -0.238 N 
ATOM     37  N   UNL     1      30.770  30.034  20.219  1.00  0.00    -0.066 NA
BRANCH  36  38
ATOM     38  C   UNL     1      31.150  27.683  20.865  1.00  0.00     0.215 C 
ATOM     39  C   UNL     1      31.963  26.974  21.934  1.00  0.00     0.046 C 
BRANCH  38  40
ATOM     40  C   UNL     1      29.738  27.321  20.971  1.00  0.00     0.328 C 
ATOM     41  O   UNL     1      29.163  27.362  22.082  1.00  0.00    -0.250 OA
BRANCH  40  42
ATOM     42  O   UNL     1      28.959  26.918  19.888  1.00  0.00    -0.480 OA
ATOM     43  H   UNL     1      28.944  27.451  19.026  1.00  0.00     0.296 HD
ENDBRANCH  40  42
ENDBRANCH  38  40
ENDBRANCH  36  38
ENDBRANCH  32  33
ENDBRANCH  31  32
ENDBRANCH   2  31
TORSDOF 17
BEGIN_RES LYS A 131
REMARK  4 active torsions:
REMARK  status: ('A' for Active; 'I' for Inactive)
REMARK    1  A    between atoms: CA   and  CB  
REMARK    2  A    between atoms: CB   and  CG  
REMARK    3  A    between atoms: CG   and  CD  
REMARK    4  A    between atoms: CD   and  CE  
ROOT
ATOM      1  CA  LYS A 131      29.867  25.555  16.977  1.00 20.52     0.186 C 
ENDROOT
BRANCH   1   2
ATOM      2  CB  LYS A 131      28.345  25.722  17.026  1.00 20.94     0.034 C 
BRANCH   2   3
ATOM      3  CG  LYS A 131      27.601  24.400  16.909  1.00 22.96     0.005 C 
BRANCH   3   4
ATOM      4  CD  LYS A 131      26.537  24.254  17.960  1.00 24.33     0.041 C 
BRANCH   4   5
ATOM      5  CE  LYS A 131      25.245  23.767  17.313  1.00 26.91     0.338 C 
ATOM      6  NZ  LYS A 131      24.989  22.351  17.665  1.00 27.40     0.618 N 
ENDBRANCH   4   5
ENDBRANCH   3   4
ENDBRANCH   2   3
ENDBRANCH   1   2
END_RES LYS A 131
BEGIN_RES LYS A 135
REMARK  4 active torsions:
REMARK  status: ('A' for Active; 'I' for Inactive)
REMARK    5  A    between atoms: CA   and  CB  
REMARK    6  A    between atoms: CB   and  CG  
REMARK    7  A    between atoms: CG   and  CD  
REMARK    8  A    between atoms: CD   and  CE  
ROOT
ATOM      7  CA  LYS A 135      33.193  34.663   9.290  1.00 25.02     0.186 C 
ENDROOT
BRANCH   7   8
ATOM      8  CB  LYS A 135      32.060  35.360  10.034  1.00 26.63     0.034 C 
BRANCH   8   9
ATOM      9  CG  LYS A 135      30.778  35.436   9.245  1.00 29.45     0.005 C 
BRANCH   9  10
ATOM     10  CD  LYS A 135      30.195  34.048   9.033  1.00 32.00     0.041 C 
BRANCH  10  11
ATOM     11  CE  LYS A 135      28.680  34.097   9.061  1.00 34.25     0.338 C 
ATOM     12  NZ  LYS A 135      28.148  34.907   7.930  1.00 35.99     0.618 N 
ENDBRANCH  10  11
ENDBRANCH   9  10
ENDBRANCH   8   9
ENDBRANCH   7   8
END_RES LYS A 135
