REMARK VINA RESULT:    -3.656      5.093      8.728
REMARK INTER + INTRA:         -16.417
REMARK INTER:                  -6.434
REMARK INTRA:                  -9.983
REMARK UNBOUND:                -9.983
REMARK SMILES CC(=O)N[C@@H]1[C@@H](O)C[C@](O)(C(=O)O)O[C@H]1C(O)[C@H](O)CNC(=O)OCc1cn(-c2nc(C)nc(N)n2)nn1
REMARK SMILES IDX 21 1 22 2 23 3 20 5 18 6 16 7 15 8 9 9 8 10 14 11 6 12 5 13
REMARK SMILES IDX 10 14 11 16 12 17 13 18 7 20 4 22 2 23 1 25 3 26 17 27 19 29
REMARK SMILES IDX 24 31 25 32 26 33 27 34 38 35 28 36 37 37 29 38 36 39 30 40
REMARK SMILES IDX 34 41 31 42 33 43 32 44 35 45
REMARK H PARENT 21 4 10 15 13 19 7 21 4 24 17 28 19 30 35 46 35 47
REMARK Flexibility Score: inf
ROOT
ATOM      1  N   UNL     1      24.696  40.293   6.287  1.00  0.00    -0.319 N 
ATOM      2  C   UNL     1      25.792  41.127   6.625  1.00  0.00     0.407 C 
ATOM      3  O   UNL     1      25.761  41.936   7.571  1.00  0.00    -0.225 OA
ATOM      4  H   UNL     1      24.855  39.657   5.450  1.00  0.00     0.167 HD
ENDROOT
BRANCH   1   5
ATOM      5  C   UNL     1      23.426  40.259   6.987  1.00  0.00     0.154 C 
BRANCH   5   6
ATOM      6  C   UNL     1      23.251  39.030   7.771  1.00  0.00     0.165 C 
BRANCH   6   7
ATOM      7  C   UNL     1      23.445  39.164   9.282  1.00  0.00     0.176 C 
BRANCH   7   8
ATOM      8  C   UNL     1      23.280  37.878  10.036  1.00  0.00     0.178 C 
ATOM      9  C   UNL     1      24.477  35.945  10.574  1.00  0.00     0.269 C 
ATOM     10  C   UNL     1      23.358  35.095  10.020  1.00  0.00     0.112 C 
ATOM     11  O   UNL     1      24.471  37.233  10.131  1.00  0.00    -0.332 OA
ATOM     12  C   UNL     1      22.047  35.766  10.301  1.00  0.00     0.145 C 
ATOM     13  C   UNL     1      22.079  37.137   9.612  1.00  0.00     0.142 C 
BRANCH   9  14
ATOM     14  O   UNL     1      25.659  35.360  10.043  1.00  0.00    -0.357 OA
ATOM     15  H   UNL     1      26.283  36.087   9.790  1.00  0.00     0.214 HD
ENDBRANCH   9  14
BRANCH   9  16
ATOM     16  C   UNL     1      24.518  35.789  12.027  1.00  0.00     0.364 C 
ATOM     17  O   UNL     1      24.814  36.807  12.743  1.00  0.00    -0.246 OA
BRANCH  16  18
ATOM     18  O   UNL     1      24.263  34.635  12.744  1.00  0.00    -0.477 OA
ATOM     19  H   UNL     1      23.928  33.796  12.246  1.00  0.00     0.296 HD
ENDBRANCH  16  18
ENDBRANCH   9  16
BRANCH  12  20
ATOM     20  O   UNL     1      20.986  35.018   9.783  1.00  0.00    -0.391 OA
ATOM     21  H   UNL     1      21.386  34.357   9.149  1.00  0.00     0.211 HD
ENDBRANCH  12  20
BRANCH  13  22
ATOM     22  N   UNL     1      20.899  37.832  10.161  1.00  0.00    -0.348 N 
ATOM     23  C   UNL     1      19.761  37.992   9.336  1.00  0.00     0.217 C 
ATOM     24  H   UNL     1      20.891  38.199  11.135  1.00  0.00     0.163 HD
ATOM     25  C   UNL     1      18.524  38.685   9.822  1.00  0.00     0.114 C 
ATOM     26  O   UNL     1      19.813  37.531   8.162  1.00  0.00    -0.275 OA
ENDBRANCH  13  22
ENDBRANCH   7   8
BRANCH   7  27
ATOM     27  O   UNL     1      24.821  39.577   9.358  1.00  0.00    -0.388 OA
ATOM     28  H   UNL     1      25.310  38.704   9.253  1.00  0.00     0.211 HD
ENDBRANCH   7  27
ENDBRANCH   6   7
BRANCH   6  29
ATOM     29  O   UNL     1      23.956  37.956   7.289  1.00  0.00    -0.388 OA
ATOM     30  H   UNL     1      24.820  37.806   7.747  1.00  0.00     0.211 HD
ENDBRANCH   6  29
ENDBRANCH   5   6
ENDBRANCH   1   5
BRANCH   2  31
ATOM     31  O   UNL     1      26.977  41.074   5.893  1.00  0.00    -0.443 OA
BRANCH  31  32
ATOM     32  C   UNL     1      27.790  39.942   5.841  1.00  0.00     0.294 C 
BRANCH  32  33
ATOM     33  C   UNL     1      27.654  39.081   7.044  1.00  0.00     0.121 A 
ATOM     34  C   UNL     1      28.458  39.122   8.164  1.00  0.00     0.148 A 
ATOM     35  N   UNL     1      26.754  38.103   7.306  1.00  0.00    -0.131 NA
ATOM     36  N   UNL     1      28.046  38.199   9.058  1.00  0.00    -0.185 N 
ATOM     37  N   UNL     1      27.018  37.607   8.504  1.00  0.00    -0.059 NA
BRANCH  36  38
ATOM     38  C   UNL     1      28.605  37.921  10.335  1.00  0.00     0.257 A 
ATOM     39  N   UNL     1      29.621  38.623  10.866  1.00  0.00    -0.175 NA
ATOM     40  N   UNL     1      28.105  36.908  11.063  1.00  0.00    -0.196 NA
ATOM     41  C   UNL     1      30.151  38.361  12.073  1.00  0.00     0.225 A 
ATOM     42  C   UNL     1      28.624  36.619  12.292  1.00  0.00     0.133 A 
ATOM     43  N   UNL     1      29.640  37.353  12.776  1.00  0.00    -0.198 NA
ATOM     44  C   UNL     1      28.063  35.504  13.080  1.00  0.00     0.090 C 
BRANCH  41  45
ATOM     45  N   UNL     1      31.218  39.097  12.631  1.00  0.00    -0.368 N 
ATOM     46  H   UNL     1      31.160  39.426  13.612  1.00  0.00     0.159 HD
ATOM     47  H   UNL     1      32.069  39.323  12.084  1.00  0.00     0.159 HD
ENDBRANCH  41  45
ENDBRANCH  36  38
ENDBRANCH  32  33
ENDBRANCH  31  32
ENDBRANCH   2  31
TORSDOF 16
BEGIN_RES LYS A 135
REMARK  4 active torsions:
REMARK  status: ('A' for Active; 'I' for Inactive)
REMARK    1  A    between atoms: CA   and  CB  
REMARK    2  A    between atoms: CB   and  CG  
REMARK    3  A    between atoms: CG   and  CD  
REMARK    4  A    between atoms: CD   and  CE  
ROOT
ATOM      1  CA  LYS A 135      33.193  34.663   9.290  1.00 25.02     0.186 C 
ENDROOT
BRANCH   1   2
ATOM      2  CB  LYS A 135      32.060  35.360  10.034  1.00 26.63     0.034 C 
BRANCH   2   3
ATOM      3  CG  LYS A 135      30.834  35.587   9.188  1.00 29.45     0.005 C 
BRANCH   3   4
ATOM      4  CD  LYS A 135      30.060  34.291   9.006  1.00 32.00     0.041 C 
BRANCH   4   5
ATOM      5  CE  LYS A 135      28.780  34.539   8.231  1.00 34.25     0.338 C 
ATOM      6  NZ  LYS A 135      29.050  35.297   6.977  1.00 35.99     0.618 N 
ENDBRANCH   4   5
ENDBRANCH   3   4
ENDBRANCH   2   3
ENDBRANCH   1   2
END_RES LYS A 135
BEGIN_RES ARG A 124
REMARK  4 active torsions:
REMARK  status: ('A' for Active; 'I' for Inactive)
REMARK    5  A    between atoms: CA   and  CB  
REMARK    6  A    between atoms: CB   and  CG  
REMARK    7  A    between atoms: CG   and  CD  
REMARK    8  A    between atoms: CD   and  NE  
REMARK       I    between atoms: NE   and  CZ  
ROOT
ATOM      7  CA  ARG A 124      31.045  26.515   9.594  1.00 17.84     0.186 C 
ENDROOT
BRANCH   7   8
ATOM      8  CB  ARG A 124      29.529  26.705   9.647  1.00 16.18     0.036 C 
BRANCH   8   9
ATOM      9  CG  ARG A 124      28.907  26.803  11.086  1.00 16.22     0.029 C 
BRANCH   9  10
ATOM     10  CD  ARG A 124      27.529  26.110  11.193  1.00 15.09     0.145 C 
BRANCH  10  11
ATOM     11  NE  ARG A 124      26.407  27.044  11.428  1.00 16.98    -0.083 NA
ATOM     12  CZ  ARG A 124      26.039  27.505  12.619  1.00 18.21     0.782 C 
ATOM     13  NH1 ARG A 124      26.687  27.158  13.724  1.00 21.11     0.063 N 
ATOM     14  NH2 ARG A 124      25.023  28.349  12.716  1.00 21.25     0.063 N 
ENDBRANCH  10  11
ENDBRANCH   9  10
ENDBRANCH   8   9
ENDBRANCH   7   8
END_RES ARG A 124
BEGIN_RES ASN A 133
REMARK  2 active torsions:
REMARK  status: ('A' for Active; 'I' for Inactive)
REMARK    9  A    between atoms: CA   and  CB  
REMARK   10  A    between atoms: CB   and  CG  
ROOT
ATOM     15  CA  ASN A 133      31.225  30.257  11.749  1.00 18.15     0.196 C 
ENDROOT
BRANCH  15  16
ATOM     16  CB  ASN A 133      30.092  31.240  11.460  1.00 18.27     0.126 C 
BRANCH  16  17
ATOM     17  CG  ASN A 133      28.732  30.620  11.555  1.00 18.94     0.276 C 
ATOM     18  OD1 ASN A 133      28.329  29.831  10.699  1.00 18.09    -0.269 OA
ATOM     19  ND2 ASN A 133      28.002  30.977  12.611  1.00 18.93    -0.107 N 
ENDBRANCH  16  17
ENDBRANCH  15  16
END_RES ASN A 133
BEGIN_RES LYS A 131
REMARK  4 active torsions:
REMARK  status: ('A' for Active; 'I' for Inactive)
REMARK   11  A    between atoms: CA   and  CB  
REMARK   12  A    between atoms: CB   and  CG  
REMARK   13  A    between atoms: CG   and  CD  
REMARK   14  A    between atoms: CD   and  CE  
ROOT
ATOM     20  CA  LYS A 131      29.867  25.555  16.977  1.00 20.52     0.186 C 
ENDROOT
BRANCH  20  21
ATOM     21  CB  LYS A 131      28.345  25.722  17.026  1.00 20.94     0.034 C 
BRANCH  21  22
ATOM     22  CG  LYS A 131      27.599  24.452  16.647  1.00 22.96     0.005 C 
BRANCH  22  23
ATOM     23  CD  LYS A 131      27.051  23.736  17.850  1.00 24.33     0.041 C 
BRANCH  23  24
ATOM     24  CE  LYS A 131      25.655  23.209  17.537  1.00 26.91     0.338 C 
ATOM     25  NZ  LYS A 131      24.802  24.291  16.991  1.00 27.40     0.618 N 
ENDBRANCH  23  24
ENDBRANCH  22  23
ENDBRANCH  21  22
ENDBRANCH  20  21
END_RES LYS A 131
