REMARK VINA RESULT:    -4.531      3.247      5.267
REMARK INTER + INTRA:         -14.294
REMARK INTER:                  -8.107
REMARK INTRA:                  -6.187
REMARK UNBOUND:                -6.187
REMARK SMILES CC(=O)N[C@@H]1[C@@H](O)C[C@](O)(C(=O)O)O[C@H]1C(O)[C@H](O)CNC(=O)OCc1cn(-c2cc(Cl)ccc2C(=O)N(C)C)nn1
REMARK SMILES IDX 21 1 22 2 23 3 20 5 18 6 16 7 15 8 9 9 8 10 14 11 6 12 5 13
REMARK SMILES IDX 10 14 11 16 12 17 13 18 7 20 4 22 2 23 1 25 3 26 17 27 19 29
REMARK SMILES IDX 24 31 25 32 26 33 27 34 42 35 28 36 41 37 29 38 30 39 35 40
REMARK SMILES IDX 31 41 34 42 32 43 33 44 36 45 37 46 38 47 39 48 40 49
REMARK H PARENT 21 4 10 15 13 19 7 21 4 24 17 28 19 30
REMARK Flexibility Score: inf
ROOT
ATOM      1  N   UNL     1      23.598  33.183  14.684  1.00  0.00    -0.319 N 
ATOM      2  C   UNL     1      23.706  31.881  15.196  1.00  0.00     0.407 C 
ATOM      3  O   UNL     1      22.871  31.009  14.880  1.00  0.00    -0.225 OA
ATOM      4  H   UNL     1      24.304  33.905  14.952  1.00  0.00     0.167 HD
ENDROOT
BRANCH   1   5
ATOM      5  C   UNL     1      22.541  33.578  13.790  1.00  0.00     0.154 C 
BRANCH   5   6
ATOM      6  C   UNL     1      23.118  33.941  12.445  1.00  0.00     0.165 C 
BRANCH   6   7
ATOM      7  C   UNL     1      24.536  34.444  12.538  1.00  0.00     0.176 C 
BRANCH   7   8
ATOM      8  C   UNL     1      24.789  35.503  11.534  1.00  0.00     0.178 C 
ATOM      9  C   UNL     1      24.613  36.201   9.357  1.00  0.00     0.269 C 
ATOM     10  C   UNL     1      24.957  37.518  10.006  1.00  0.00     0.112 C 
ATOM     11  O   UNL     1      24.641  35.126  10.211  1.00  0.00    -0.332 OA
ATOM     12  C   UNL     1      26.131  37.435  10.925  1.00  0.00     0.145 C 
ATOM     13  C   UNL     1      26.192  36.098  11.658  1.00  0.00     0.142 C 
BRANCH   9  14
ATOM     14  O   UNL     1      25.584  35.950   8.371  1.00  0.00    -0.357 OA
ATOM     15  H   UNL     1      25.076  35.905   7.505  1.00  0.00     0.214 HD
ENDBRANCH   9  14
BRANCH   9  16
ATOM     16  C   UNL     1      23.296  36.246   8.714  1.00  0.00     0.364 C 
ATOM     17  O   UNL     1      23.005  37.205   7.959  1.00  0.00    -0.246 OA
BRANCH  16  18
ATOM     18  O   UNL     1      22.317  35.279   8.882  1.00  0.00    -0.477 OA
ATOM     19  H   UNL     1      22.465  34.383   8.392  1.00  0.00     0.296 HD
ENDBRANCH  16  18
ENDBRANCH   9  16
BRANCH  12  20
ATOM     20  O   UNL     1      27.302  37.636  10.167  1.00  0.00    -0.391 OA
ATOM     21  H   UNL     1      28.010  37.110  10.628  1.00  0.00     0.211 HD
ENDBRANCH  12  20
BRANCH  13  22
ATOM     22  N   UNL     1      26.603  36.238  13.013  1.00  0.00    -0.348 N 
ATOM     23  C   UNL     1      27.981  36.238  13.348  1.00  0.00     0.217 C 
ATOM     24  H   UNL     1      25.913  36.342  13.781  1.00  0.00     0.163 HD
ATOM     25  C   UNL     1      28.365  36.389  14.792  1.00  0.00     0.114 C 
ATOM     26  O   UNL     1      28.899  36.121  12.517  1.00  0.00    -0.275 OA
ENDBRANCH  13  22
ENDBRANCH   7   8
BRANCH   7  27
ATOM     27  O   UNL     1      25.408  33.384  12.527  1.00  0.00    -0.388 OA
ATOM     28  H   UNL     1      26.341  33.767  12.513  1.00  0.00     0.211 HD
ENDBRANCH   7  27
ENDBRANCH   6   7
BRANCH   6  29
ATOM     29  O   UNL     1      22.361  35.016  11.884  1.00  0.00    -0.388 OA
ATOM     30  H   UNL     1      21.958  35.564  12.586  1.00  0.00     0.211 HD
ENDBRANCH   6  29
ENDBRANCH   5   6
ENDBRANCH   1   5
BRANCH   2  31
ATOM     31  O   UNL     1      24.717  31.482  16.064  1.00  0.00    -0.443 OA
BRANCH  31  32
ATOM     32  C   UNL     1      25.472  30.324  15.768  1.00  0.00     0.294 C 
BRANCH  32  33
ATOM     33  C   UNL     1      26.913  30.612  15.787  1.00  0.00     0.121 A 
ATOM     34  C   UNL     1      27.571  31.823  15.850  1.00  0.00     0.144 A 
ATOM     35  N   UNL     1      27.885  29.685  15.743  1.00  0.00    -0.131 NA
ATOM     36  N   UNL     1      28.914  31.604  15.843  1.00  0.00    -0.219 N 
ATOM     37  N   UNL     1      29.055  30.302  15.778  1.00  0.00    -0.062 NA
BRANCH  36  38
ATOM     38  C   UNL     1      29.957  32.567  15.895  1.00  0.00     0.081 A 
ATOM     39  C   UNL     1      30.382  33.214  14.744  1.00  0.00     0.049 A 
ATOM     40  C   UNL     1      30.546  32.856  17.104  1.00  0.00     0.065 A 
ATOM     41  C   UNL     1      31.388  34.147  14.772  1.00  0.00     0.043 A 
ATOM     42  C   UNL     1      31.564  33.793  17.169  1.00  0.00     0.017 A 
ATOM     43  Cl  UNL     1      31.937  34.974  13.317  1.00  0.00    -0.084 Cl
ATOM     44  C   UNL     1      31.968  34.424  15.993  1.00  0.00     0.021 A 
BRANCH  40  45
ATOM     45  C   UNL     1      30.092  32.176  18.294  1.00  0.00     0.255 C 
ATOM     46  O   UNL     1      30.558  31.064  18.674  1.00  0.00    -0.269 OA
ATOM     47  N   UNL     1      29.079  32.755  19.092  1.00  0.00    -0.345 N 
ATOM     48  C   UNL     1      28.518  34.024  18.697  1.00  0.00     0.146 C 
ATOM     49  C   UNL     1      28.584  32.114  20.301  1.00  0.00     0.146 C 
ENDBRANCH  40  45
ENDBRANCH  36  38
ENDBRANCH  32  33
ENDBRANCH  31  32
ENDBRANCH   2  31
TORSDOF 16
BEGIN_RES LYS A 131
REMARK  4 active torsions:
REMARK  status: ('A' for Active; 'I' for Inactive)
REMARK    1  A    between atoms: CA   and  CB  
REMARK    2  A    between atoms: CB   and  CG  
REMARK    3  A    between atoms: CG   and  CD  
REMARK    4  A    between atoms: CD   and  CE  
ROOT
ATOM      1  CA  LYS A 131      29.867  25.555  16.977  1.00 20.52     0.186 C 
ENDROOT
BRANCH   1   2
ATOM      2  CB  LYS A 131      28.345  25.722  17.026  1.00 20.94     0.034 C 
BRANCH   2   3
ATOM      3  CG  LYS A 131      27.602  24.400  16.914  1.00 22.96     0.005 C 
BRANCH   3   4
ATOM      4  CD  LYS A 131      26.158  24.526  17.313  1.00 24.33     0.041 C 
BRANCH   4   5
ATOM      5  CE  LYS A 131      25.966  25.796  18.135  1.00 26.91     0.338 C 
ATOM      6  NZ  LYS A 131      25.610  25.460  19.534  1.00 27.40     0.618 N 
ENDBRANCH   4   5
ENDBRANCH   3   4
ENDBRANCH   2   3
ENDBRANCH   1   2
END_RES LYS A 131
BEGIN_RES LYS A 135
REMARK  4 active torsions:
REMARK  status: ('A' for Active; 'I' for Inactive)
REMARK    5  A    between atoms: CA   and  CB  
REMARK    6  A    between atoms: CB   and  CG  
REMARK    7  A    between atoms: CG   and  CD  
REMARK    8  A    between atoms: CD   and  CE  
ROOT
ATOM      7  CA  LYS A 135      33.193  34.663   9.290  1.00 25.02     0.186 C 
ENDROOT
BRANCH   7   8
ATOM      8  CB  LYS A 135      32.060  35.360  10.034  1.00 26.63     0.034 C 
BRANCH   8   9
ATOM      9  CG  LYS A 135      30.732  34.661   9.901  1.00 29.45     0.005 C 
BRANCH   9  10
ATOM     10  CD  LYS A 135      30.337  34.532   8.438  1.00 32.00     0.041 C 
BRANCH  10  11
ATOM     11  CE  LYS A 135      28.828  34.539   8.291  1.00 34.25     0.338 C 
ATOM     12  NZ  LYS A 135      28.171  33.903   9.466  1.00 35.99     0.618 N 
ENDBRANCH  10  11
ENDBRANCH   9  10
ENDBRANCH   8   9
ENDBRANCH   7   8
END_RES LYS A 135
