REMARK VINA RESULT:    -4.575      2.645      8.107
REMARK INTER + INTRA:         -14.198
REMARK INTER:                  -7.850
REMARK INTRA:                  -6.348
REMARK UNBOUND:                -5.477
REMARK SMILES CC(=O)N[C@@H]1[C@@H](O)C[C@](O)(C(=O)O)O[C@H]1C(O)[C@H](O)CNC(=O)OCc1cn(CC(O)CO)nn1
REMARK SMILES IDX 21 1 22 2 23 3 20 5 18 6 16 7 15 8 9 9 8 10 14 11 6 12 5 13
REMARK SMILES IDX 10 14 11 16 12 17 13 18 7 20 4 22 2 23 1 25 3 26 17 27 19 29
REMARK SMILES IDX 24 31 25 32 26 33 27 34 35 35 28 36 34 37 29 38 30 39 31 40
REMARK SMILES IDX 32 42 33 43
REMARK H PARENT 21 4 10 15 13 19 7 21 4 24 17 28 19 30 31 41 33 44
REMARK Flexibility Score: inf
ROOT
ATOM      1  N   UNL     1      33.712  35.726  18.603  1.00  0.00    -0.319 N 
ATOM      2  C   UNL     1      33.422  35.426  19.957  1.00  0.00     0.407 C 
ATOM      3  O   UNL     1      32.954  36.287  20.724  1.00  0.00    -0.225 OA
ATOM      4  H   UNL     1      34.111  34.923  18.030  1.00  0.00     0.167 HD
ENDROOT
BRANCH   1   5
ATOM      5  C   UNL     1      33.483  37.021  18.058  1.00  0.00     0.154 C 
BRANCH   5   6
ATOM      6  C   UNL     1      32.525  37.026  16.887  1.00  0.00     0.165 C 
BRANCH   6   7
ATOM      7  C   UNL     1      32.491  35.599  16.354  1.00  0.00     0.176 C 
BRANCH   7   8
ATOM      8  C   UNL     1      31.085  35.258  15.848  1.00  0.00     0.178 C 
ATOM      9  C   UNL     1      30.621  32.987  15.683  1.00  0.00     0.269 C 
ATOM     10  C   UNL     1      29.519  33.247  14.674  1.00  0.00     0.112 C 
ATOM     11  O   UNL     1      30.703  34.106  16.476  1.00  0.00    -0.332 OA
ATOM     12  C   UNL     1      29.981  34.345  13.780  1.00  0.00     0.145 C 
ATOM     13  C   UNL     1      31.075  35.208  14.353  1.00  0.00     0.142 C 
BRANCH   9  14
ATOM     14  O   UNL     1      31.780  32.733  14.953  1.00  0.00    -0.357 OA
ATOM     15  H   UNL     1      32.337  33.535  14.833  1.00  0.00     0.214 HD
ENDBRANCH   9  14
BRANCH   9  16
ATOM     16  C   UNL     1      30.304  31.818  16.542  1.00  0.00     0.364 C 
ATOM     17  O   UNL     1      29.729  30.828  16.021  1.00  0.00    -0.246 OA
BRANCH  16  18
ATOM     18  O   UNL     1      30.638  31.832  17.875  1.00  0.00    -0.477 OA
ATOM     19  H   UNL     1      29.950  31.600  18.584  1.00  0.00     0.296 HD
ENDBRANCH  16  18
ENDBRANCH   9  16
BRANCH  12  20
ATOM     20  O   UNL     1      30.484  33.762  12.610  1.00  0.00    -0.391 OA
ATOM     21  H   UNL     1      30.117  32.865  12.510  1.00  0.00     0.211 HD
ENDBRANCH  12  20
BRANCH  13  22
ATOM     22  N   UNL     1      30.881  36.532  13.802  1.00  0.00    -0.348 N 
ATOM     23  C   UNL     1      31.706  36.967  12.732  1.00  0.00     0.217 C 
ATOM     24  H   UNL     1      30.153  37.193  14.159  1.00  0.00     0.163 HD
ATOM     25  C   UNL     1      31.550  38.333  12.121  1.00  0.00     0.114 C 
ATOM     26  O   UNL     1      32.610  36.252  12.230  1.00  0.00    -0.275 OA
ENDBRANCH  13  22
ENDBRANCH   7   8
BRANCH   7  27
ATOM     27  O   UNL     1      33.453  35.452  15.384  1.00  0.00    -0.388 OA
ATOM     28  H   UNL     1      33.094  34.983  14.579  1.00  0.00     0.211 HD
ENDBRANCH   7  27
ENDBRANCH   6   7
BRANCH   6  29
ATOM     29  O   UNL     1      32.959  37.915  15.904  1.00  0.00    -0.388 OA
ATOM     30  H   UNL     1      32.307  38.641  15.861  1.00  0.00     0.211 HD
ENDBRANCH   6  29
ENDBRANCH   5   6
ENDBRANCH   1   5
BRANCH   2  31
ATOM     31  O   UNL     1      33.652  34.144  20.479  1.00  0.00    -0.443 OA
BRANCH  31  32
ATOM     32  C   UNL     1      33.015  33.790  21.672  1.00  0.00     0.294 C 
BRANCH  32  33
ATOM     33  C   UNL     1      31.912  32.821  21.448  1.00  0.00     0.120 A 
ATOM     34  C   UNL     1      31.807  31.563  21.966  1.00  0.00     0.138 A 
ATOM     35  N   UNL     1      30.827  33.016  20.694  1.00  0.00    -0.132 NA
ATOM     36  N   UNL     1      30.642  31.042  21.496  1.00  0.00    -0.249 N 
ATOM     37  N   UNL     1      30.055  31.941  20.720  1.00  0.00    -0.067 NA
BRANCH  36  38
ATOM     38  C   UNL     1      30.143  29.704  21.812  1.00  0.00     0.180 C 
BRANCH  38  39
ATOM     39  C   UNL     1      30.524  28.825  20.637  1.00  0.00     0.161 C 
BRANCH  39  40
ATOM     40  O   UNL     1      30.901  29.625  19.565  1.00  0.00    -0.389 OA
ATOM     41  H   UNL     1      31.388  30.413  19.928  1.00  0.00     0.211 HD
ENDBRANCH  39  40
BRANCH  39  42
ATOM     42  C   UNL     1      31.686  27.904  21.024  1.00  0.00     0.189 C 
BRANCH  42  43
ATOM     43  O   UNL     1      32.096  27.183  19.901  1.00  0.00    -0.394 OA
ATOM     44  H   UNL     1      32.097  26.204  20.121  1.00  0.00     0.210 HD
ENDBRANCH  42  43
ENDBRANCH  39  42
ENDBRANCH  38  39
ENDBRANCH  36  38
ENDBRANCH  32  33
ENDBRANCH  31  32
ENDBRANCH   2  31
TORSDOF 19
BEGIN_RES LYS A 131
REMARK  4 active torsions:
REMARK  status: ('A' for Active; 'I' for Inactive)
REMARK    1  A    between atoms: CA   and  CB  
REMARK    2  A    between atoms: CB   and  CG  
REMARK    3  A    between atoms: CG   and  CD  
REMARK    4  A    between atoms: CD   and  CE  
ROOT
ATOM      1  CA  LYS A 131      29.867  25.555  16.977  1.00 20.52     0.186 C 
ENDROOT
BRANCH   1   2
ATOM      2  CB  LYS A 131      28.345  25.722  17.026  1.00 20.94     0.034 C 
BRANCH   2   3
ATOM      3  CG  LYS A 131      27.599  24.475  16.576  1.00 22.96     0.005 C 
BRANCH   3   4
ATOM      4  CD  LYS A 131      27.160  23.627  17.737  1.00 24.33     0.041 C 
BRANCH   4   5
ATOM      5  CE  LYS A 131      25.681  23.287  17.589  1.00 26.91     0.338 C 
ATOM      6  NZ  LYS A 131      24.947  24.417  16.972  1.00 27.40     0.618 N 
ENDBRANCH   4   5
ENDBRANCH   3   4
ENDBRANCH   2   3
ENDBRANCH   1   2
END_RES LYS A 131
BEGIN_RES LYS A 135
REMARK  4 active torsions:
REMARK  status: ('A' for Active; 'I' for Inactive)
REMARK    5  A    between atoms: CA   and  CB  
REMARK    6  A    between atoms: CB   and  CG  
REMARK    7  A    between atoms: CG   and  CD  
REMARK    8  A    between atoms: CD   and  CE  
ROOT
ATOM      7  CA  LYS A 135      33.193  34.663   9.290  1.00 25.02     0.186 C 
ENDROOT
BRANCH   7   8
ATOM      8  CB  LYS A 135      32.060  35.360  10.034  1.00 26.63     0.034 C 
BRANCH   8   9
ATOM      9  CG  LYS A 135      30.775  35.426   9.250  1.00 29.45     0.005 C 
BRANCH   9  10
ATOM     10  CD  LYS A 135      30.219  34.030   9.013  1.00 32.00     0.041 C 
BRANCH  10  11
ATOM     11  CE  LYS A 135      28.725  34.000   9.277  1.00 34.25     0.338 C 
ATOM     12  NZ  LYS A 135      28.344  34.995  10.318  1.00 35.99     0.618 N 
ENDBRANCH  10  11
ENDBRANCH   9  10
ENDBRANCH   8   9
ENDBRANCH   7   8
END_RES LYS A 135
