REMARK VINA RESULT:    -5.154      3.643      6.240
REMARK INTER + INTRA:         -15.107
REMARK INTER:                  -9.683
REMARK INTRA:                  -5.425
REMARK UNBOUND:                -5.735
REMARK SMILES CC(=O)N[C@@H]1[C@@H](O)C[C@](O)(C(=O)O)O[C@H]1C(O)[C@H](O)CNC(=O)OCc1cn(-c2ccc(CO)cn2)nn1
REMARK SMILES IDX 21 1 22 2 23 3 20 5 18 6 16 7 15 8 9 9 8 10 14 11 6 12 5 13
REMARK SMILES IDX 10 14 11 16 12 17 13 18 7 20 4 22 2 23 1 25 3 26 17 27 19 29
REMARK SMILES IDX 24 31 25 32 26 33 27 34 38 35 28 36 37 37 29 38 30 39 36 40
REMARK SMILES IDX 31 41 35 42 32 43 33 44 34 45
REMARK H PARENT 21 4 10 15 13 19 7 21 4 24 17 28 19 30 34 46
REMARK Flexibility Score: inf
ROOT
ATOM      1  N   UNL     1      26.405  32.207  16.994  1.00  0.00    -0.319 N 
ATOM      2  C   UNL     1      25.542  32.062  15.857  1.00  0.00     0.407 C 
ATOM      3  O   UNL     1      25.729  31.051  15.144  1.00  0.00    -0.225 OA
ATOM      4  H   UNL     1      26.206  33.055  17.567  1.00  0.00     0.167 HD
ENDROOT
BRANCH   1   5
ATOM      5  C   UNL     1      27.418  31.230  17.288  1.00  0.00     0.154 C 
BRANCH   5   6
ATOM      6  C   UNL     1      28.778  31.764  16.867  1.00  0.00     0.165 C 
BRANCH   6   7
ATOM      7  C   UNL     1      28.721  33.251  17.068  1.00  0.00     0.176 C 
BRANCH   7   8
ATOM      8  C   UNL     1      29.853  34.062  16.507  1.00  0.00     0.178 C 
ATOM      9  C   UNL     1      30.395  34.793  14.330  1.00  0.00     0.269 C 
ATOM     10  C   UNL     1      31.863  34.505  14.522  1.00  0.00     0.112 C 
ATOM     11  O   UNL     1      29.607  34.071  15.159  1.00  0.00    -0.332 OA
ATOM     12  C   UNL     1      31.906  33.282  15.418  1.00  0.00     0.145 C 
ATOM     13  C   UNL     1      31.226  33.615  16.770  1.00  0.00     0.142 C 
BRANCH   9  14
ATOM     14  O   UNL     1      30.116  34.416  12.979  1.00  0.00    -0.357 OA
ATOM     15  H   UNL     1      29.939  33.441  12.945  1.00  0.00     0.214 HD
ENDBRANCH   9  14
BRANCH   9  16
ATOM     16  C   UNL     1      30.056  36.228  14.416  1.00  0.00     0.364 C 
ATOM     17  O   UNL     1      30.909  37.037  14.832  1.00  0.00    -0.246 OA
BRANCH  16  18
ATOM     18  O   UNL     1      28.811  36.693  14.041  1.00  0.00    -0.477 OA
ATOM     19  H   UNL     1      28.731  37.265  13.209  1.00  0.00     0.296 HD
ENDBRANCH  16  18
ENDBRANCH   9  16
BRANCH  12  20
ATOM     20  O   UNL     1      31.355  32.170  14.831  1.00  0.00    -0.391 OA
ATOM     21  H   UNL     1      31.888  31.363  15.081  1.00  0.00     0.211 HD
ENDBRANCH  12  20
BRANCH  13  22
ATOM     22  N   UNL     1      32.099  34.568  17.374  1.00  0.00    -0.348 N 
ATOM     23  C   UNL     1      32.233  34.689  18.767  1.00  0.00     0.217 C 
ATOM     24  H   UNL     1      32.649  35.197  16.764  1.00  0.00     0.163 HD
ATOM     25  C   UNL     1      33.140  35.679  19.394  1.00  0.00     0.114 C 
ATOM     26  O   UNL     1      31.569  33.938  19.509  1.00  0.00    -0.275 OA
ENDBRANCH  13  22
ENDBRANCH   7   8
BRANCH   7  27
ATOM     27  O   UNL     1      28.736  33.492  18.454  1.00  0.00    -0.388 OA
ATOM     28  H   UNL     1      28.049  32.949  18.927  1.00  0.00     0.211 HD
ENDBRANCH   7  27
ENDBRANCH   6   7
BRANCH   6  29
ATOM     29  O   UNL     1      28.813  31.479  15.474  1.00  0.00    -0.388 OA
ATOM     30  H   UNL     1      29.373  32.142  15.039  1.00  0.00     0.211 HD
ENDBRANCH   6  29
ENDBRANCH   5   6
ENDBRANCH   1   5
BRANCH   2  31
ATOM     31  O   UNL     1      24.559  32.959  15.542  1.00  0.00    -0.443 OA
BRANCH  31  32
ATOM     32  C   UNL     1      24.181  33.293  14.241  1.00  0.00     0.294 C 
BRANCH  32  33
ATOM     33  C   UNL     1      25.263  33.930  13.449  1.00  0.00     0.121 A 
ATOM     34  C   UNL     1      25.265  34.014  12.054  1.00  0.00     0.146 A 
ATOM     35  N   UNL     1      26.392  34.520  13.820  1.00  0.00    -0.131 NA
ATOM     36  N   UNL     1      26.376  34.637  11.661  1.00  0.00    -0.202 N 
ATOM     37  N   UNL     1      27.054  34.940  12.741  1.00  0.00    -0.061 NA
BRANCH  36  38
ATOM     38  C   UNL     1      26.755  34.912  10.304  1.00  0.00     0.155 A 
ATOM     39  C   UNL     1      27.553  34.067   9.562  1.00  0.00     0.049 A 
ATOM     40  N   UNL     1      26.338  36.042   9.711  1.00  0.00    -0.237 NA
ATOM     41  C   UNL     1      27.929  34.329   8.271  1.00  0.00     0.011 A 
ATOM     42  C   UNL     1      26.679  36.342   8.449  1.00  0.00     0.119 A 
ATOM     43  C   UNL     1      27.483  35.500   7.688  1.00  0.00    -0.004 A 
BRANCH  43  44
ATOM     44  C   UNL     1      27.831  35.881   6.289  1.00  0.00     0.193 C 
BRANCH  44  45
ATOM     45  O   UNL     1      29.187  35.664   6.087  1.00  0.00    -0.392 OA
ATOM     46  H   UNL     1      29.532  35.030   6.767  1.00  0.00     0.211 HD
ENDBRANCH  44  45
ENDBRANCH  43  44
ENDBRANCH  36  38
ENDBRANCH  32  33
ENDBRANCH  31  32
ENDBRANCH   2  31
TORSDOF 17
BEGIN_RES LYS A 131
REMARK  4 active torsions:
REMARK  status: ('A' for Active; 'I' for Inactive)
REMARK    1  A    between atoms: CA   and  CB  
REMARK    2  A    between atoms: CB   and  CG  
REMARK    3  A    between atoms: CG   and  CD  
REMARK    4  A    between atoms: CD   and  CE  
ROOT
ATOM      1  CA  LYS A 131      29.867  25.555  16.977  1.00 20.52     0.186 C 
ENDROOT
BRANCH   1   2
ATOM      2  CB  LYS A 131      28.345  25.722  17.026  1.00 20.94     0.034 C 
BRANCH   2   3
ATOM      3  CG  LYS A 131      27.602  24.399  16.923  1.00 22.96     0.005 C 
BRANCH   3   4
ATOM      4  CD  LYS A 131      26.517  24.277  17.957  1.00 24.33     0.041 C 
BRANCH   4   5
ATOM      5  CE  LYS A 131      26.282  25.635  18.611  1.00 26.91     0.338 C 
ATOM      6  NZ  LYS A 131      25.023  26.239  18.115  1.00 27.40     0.618 N 
ENDBRANCH   4   5
ENDBRANCH   3   4
ENDBRANCH   2   3
ENDBRANCH   1   2
END_RES LYS A 131
BEGIN_RES LYS A 135
REMARK  4 active torsions:
REMARK  status: ('A' for Active; 'I' for Inactive)
REMARK    5  A    between atoms: CA   and  CB  
REMARK    6  A    between atoms: CB   and  CG  
REMARK    7  A    between atoms: CG   and  CD  
REMARK    8  A    between atoms: CD   and  CE  
ROOT
ATOM      7  CA  LYS A 135      33.193  34.663   9.290  1.00 25.02     0.186 C 
ENDROOT
BRANCH   7   8
ATOM      8  CB  LYS A 135      32.060  35.360  10.034  1.00 26.63     0.034 C 
BRANCH   8   9
ATOM      9  CG  LYS A 135      30.896  35.729   9.151  1.00 29.45     0.005 C 
BRANCH   9  10
ATOM     10  CD  LYS A 135      30.175  36.952   9.695  1.00 32.00     0.041 C 
BRANCH  10  11
ATOM     11  CE  LYS A 135      30.091  38.036   8.637  1.00 34.25     0.338 C 
ATOM     12  NZ  LYS A 135      31.403  38.719   8.464  1.00 35.99     0.618 N 
ENDBRANCH  10  11
ENDBRANCH   9  10
ENDBRANCH   8   9
ENDBRANCH   7   8
END_RES LYS A 135
