REMARK VINA RESULT:    -4.835      3.705      6.793
REMARK INTER + INTRA:         -14.164
REMARK INTER:                  -8.849
REMARK INTRA:                  -5.315
REMARK UNBOUND:                -5.796
REMARK SMILES CC(=O)N[C@@H]1[C@@H](O)C[C@](O)(C(=O)O)O[C@H]1C(O)[C@H](O)CNC(=O)OCc1cn(C2CCCCC2)nn1
REMARK SMILES IDX 20 1 18 2 16 3 15 4 9 5 8 6 14 7 6 8 5 9 10 10 11 12 12 13
REMARK SMILES IDX 13 14 7 16 4 18 2 19 1 21 3 22 17 23 19 25 21 27 22 28 23 30
REMARK SMILES IDX 24 31 25 32 26 33 27 34 36 35 28 36 35 37 29 38 30 39 34 40
REMARK SMILES IDX 31 41 33 42 32 43
REMARK H PARENT 10 11 13 15 7 17 4 20 17 24 19 26 21 29
REMARK Flexibility Score: inf
ROOT
ATOM      1  C   UNL     1      26.076  33.340  16.514  1.00  0.00     0.154 C 
ENDROOT
BRANCH   1   2
ATOM      2  C   UNL     1      27.561  33.198  16.216  1.00  0.00     0.165 C 
BRANCH   2   3
ATOM      3  C   UNL     1      28.242  34.406  16.782  1.00  0.00     0.176 C 
BRANCH   3   4
ATOM      4  C   UNL     1      29.685  34.194  17.187  1.00  0.00     0.178 C 
ATOM      5  C   UNL     1      31.117  34.800  15.419  1.00  0.00     0.269 C 
ATOM      6  C   UNL     1      31.892  33.500  15.557  1.00  0.00     0.112 C 
ATOM      7  O   UNL     1      30.535  35.095  16.606  1.00  0.00    -0.332 OA
ATOM      8  C   UNL     1      30.995  32.377  16.008  1.00  0.00     0.145 C 
ATOM      9  C   UNL     1      30.137  32.776  17.191  1.00  0.00     0.142 C 
BRANCH   5  10
ATOM     10  O   UNL     1      30.259  34.750  14.322  1.00  0.00    -0.357 OA
ATOM     11  H   UNL     1      30.551  35.463  13.672  1.00  0.00     0.214 HD
ENDBRANCH   5  10
BRANCH   5  12
ATOM     12  C   UNL     1      32.146  35.842  15.148  1.00  0.00     0.364 C 
ATOM     13  O   UNL     1      33.233  35.524  14.616  1.00  0.00    -0.246 OA
BRANCH  12  14
ATOM     14  O   UNL     1      31.900  37.143  15.480  1.00  0.00    -0.477 OA
ATOM     15  H   UNL     1      31.428  37.811  14.884  1.00  0.00     0.296 HD
ENDBRANCH  12  14
ENDBRANCH   5  12
BRANCH   8  16
ATOM     16  O   UNL     1      30.231  31.894  14.954  1.00  0.00    -0.391 OA
ATOM     17  H   UNL     1      30.498  30.967  14.739  1.00  0.00     0.211 HD
ENDBRANCH   8  16
BRANCH   9  18
ATOM     18  N   UNL     1      30.851  32.450  18.427  1.00  0.00    -0.348 N 
ATOM     19  C   UNL     1      30.371  31.386  19.220  1.00  0.00     0.217 C 
ATOM     20  H   UNL     1      31.692  32.979  18.728  1.00  0.00     0.163 HD
ATOM     21  C   UNL     1      31.032  30.978  20.498  1.00  0.00     0.114 C 
ATOM     22  O   UNL     1      29.347  30.703  18.901  1.00  0.00    -0.275 OA
ENDBRANCH   9  18
ENDBRANCH   3   4
BRANCH   3  23
ATOM     23  O   UNL     1      27.994  35.553  16.075  1.00  0.00    -0.388 OA
ATOM     24  H   UNL     1      28.789  36.174  16.031  1.00  0.00     0.211 HD
ENDBRANCH   3  23
ENDBRANCH   2   3
BRANCH   2  25
ATOM     25  O   UNL     1      27.704  33.017  14.861  1.00  0.00    -0.388 OA
ATOM     26  H   UNL     1      27.419  32.121  14.622  1.00  0.00     0.211 HD
ENDBRANCH   2  25
ENDBRANCH   1   2
BRANCH   1  27
ATOM     27  N   UNL     1      25.410  33.756  15.302  1.00  0.00    -0.319 N 
ATOM     28  C   UNL     1      24.866  35.043  15.069  1.00  0.00     0.407 C 
ATOM     29  H   UNL     1      25.296  33.075  14.489  1.00  0.00     0.167 HD
ATOM     30  O   UNL     1      24.947  35.917  15.965  1.00  0.00    -0.225 OA
BRANCH  28  31
ATOM     31  O   UNL     1      24.241  35.361  13.867  1.00  0.00    -0.443 OA
BRANCH  31  32
ATOM     32  C   UNL     1      24.854  36.263  12.980  1.00  0.00     0.294 C 
BRANCH  32  33
ATOM     33  C   UNL     1      26.112  35.647  12.485  1.00  0.00     0.120 A 
ATOM     34  C   UNL     1      26.361  35.210  11.177  1.00  0.00     0.138 A 
ATOM     35  N   UNL     1      27.257  35.371  13.138  1.00  0.00    -0.132 NA
ATOM     36  N   UNL     1      27.605  34.706  11.102  1.00  0.00    -0.249 N 
ATOM     37  N   UNL     1      28.125  34.816  12.311  1.00  0.00    -0.067 NA
BRANCH  36  38
ATOM     38  C   UNL     1      28.249  34.148   9.921  1.00  0.00     0.109 C 
ATOM     39  C   UNL     1      27.348  34.351   8.722  1.00  0.00     0.027 C 
ATOM     40  C   UNL     1      29.552  34.867   9.656  1.00  0.00     0.027 C 
ATOM     41  C   UNL     1      27.847  35.475   7.834  1.00  0.00     0.002 C 
ATOM     42  C   UNL     1      30.039  34.406   8.293  1.00  0.00     0.002 C 
ATOM     43  C   UNL     1      29.189  35.115   7.257  1.00  0.00     0.000 C 
ENDBRANCH  36  38
ENDBRANCH  32  33
ENDBRANCH  31  32
ENDBRANCH  28  31
ENDBRANCH   1  27
TORSDOF 15
BEGIN_RES LYS A 131
REMARK  4 active torsions:
REMARK  status: ('A' for Active; 'I' for Inactive)
REMARK    1  A    between atoms: CA   and  CB  
REMARK    2  A    between atoms: CB   and  CG  
REMARK    3  A    between atoms: CG   and  CD  
REMARK    4  A    between atoms: CD   and  CE  
ROOT
ATOM      1  CA  LYS A 131      29.867  25.555  16.977  1.00 20.52     0.186 C 
ENDROOT
BRANCH   1   2
ATOM      2  CB  LYS A 131      28.345  25.722  17.026  1.00 20.94     0.034 C 
BRANCH   2   3
ATOM      3  CG  LYS A 131      27.600  24.416  16.797  1.00 22.96     0.005 C 
BRANCH   3   4
ATOM      4  CD  LYS A 131      26.992  23.881  18.064  1.00 24.33     0.041 C 
BRANCH   4   5
ATOM      5  CE  LYS A 131      25.533  23.514  17.814  1.00 26.91     0.338 C 
ATOM      6  NZ  LYS A 131      24.931  24.432  16.818  1.00 27.40     0.618 N 
ENDBRANCH   4   5
ENDBRANCH   3   4
ENDBRANCH   2   3
ENDBRANCH   1   2
END_RES LYS A 131
BEGIN_RES LYS A 135
REMARK  4 active torsions:
REMARK  status: ('A' for Active; 'I' for Inactive)
REMARK    5  A    between atoms: CA   and  CB  
REMARK    6  A    between atoms: CB   and  CG  
REMARK    7  A    between atoms: CG   and  CD  
REMARK    8  A    between atoms: CD   and  CE  
ROOT
ATOM      7  CA  LYS A 135      33.193  34.663   9.290  1.00 25.02     0.186 C 
ENDROOT
BRANCH   7   8
ATOM      8  CB  LYS A 135      32.060  35.360  10.034  1.00 26.63     0.034 C 
BRANCH   8   9
ATOM      9  CG  LYS A 135      32.459  35.878  11.392  1.00 29.45     0.005 C 
BRANCH   9  10
ATOM     10  CD  LYS A 135      32.211  37.375  11.490  1.00 32.00     0.041 C 
BRANCH  10  11
ATOM     11  CE  LYS A 135      31.489  37.877  10.254  1.00 34.25     0.338 C 
ATOM     12  NZ  LYS A 135      31.096  39.305  10.405  1.00 35.99     0.618 N 
ENDBRANCH  10  11
ENDBRANCH   9  10
ENDBRANCH   8   9
ENDBRANCH   7   8
END_RES LYS A 135
