REMARK VINA RESULT:    -4.394      5.878      9.615
REMARK INTER + INTRA:         -11.567
REMARK INTER:                  -8.800
REMARK INTRA:                  -2.766
REMARK UNBOUND:                -3.320
REMARK  Name = lig_assembled_16.pdb
REMARK  19 active torsions:
REMARK  status: ('A' for Active; 'I' for Inactive)
REMARK    1  A    between atoms: _2  and  _9
REMARK    2  A    between atoms: _4  and  _22
REMARK    3  A    between atoms: _6  and  _7
REMARK    4  A    between atoms: _6  and  _22
REMARK    5  A    between atoms: _9  and  _10
REMARK    6  A    between atoms: _13  and  _14
REMARK    7  A    between atoms: _14  and  _16
REMARK    8  A    between atoms: _18  and  _38
REMARK    9  A    between atoms: _20  and  _26
REMARK   10  A    between atoms: _21  and  _25
REMARK   11  A    between atoms: _25  and  _26
REMARK   12  A    between atoms: _28  and  _29
REMARK   13  A    between atoms: _30  and  _31
REMARK   14  A    between atoms: _32  and  _34
REMARK   15  A    between atoms: _34  and  _35
REMARK   16  A    between atoms: _34  and  _36
REMARK   17  A    between atoms: _36  and  _37
REMARK   18  A    between atoms: _36  and  _38
REMARK   19  A    between atoms: _39  and  _41
REMARK                            x       y       z     vdW  Elec       q    Type
REMARK                         _______ _______ _______ _____ _____    ______ ____
ROOT
ATOM      1  C   UNL     1      -5.766  11.086  14.278  0.00  0.00    +0.163 C 
ENDROOT
BRANCH   1   2
ATOM      2  O   UNL     1      -4.359  11.342  14.134  0.00  0.00    -0.388 OA
ATOM      3  H   UNL     1      -4.027  10.878  13.362  0.00  0.00    +0.210 HD
ENDBRANCH   1   2
BRANCH   1   4
ATOM      4  C   UNL     1      -6.045   9.575  14.355  0.00  0.00    +0.175 C 
BRANCH   4   5
ATOM      5  C   UNL     1      -4.753   8.746  14.318  0.00  0.00    +0.176 C 
ATOM      6  O   UNL     1      -4.360   8.592  12.926  0.00  0.00    -0.332 OA
ATOM      7  C   UNL     1      -3.081   7.912  12.700  0.00  0.00    +0.277 C 
ATOM      8  C   UNL     1      -3.071   6.532  13.403  0.00  0.00    +0.110 C 
ATOM      9  C   UNL     1      -3.513   6.641  14.877  0.00  0.00    +0.143 C 
ATOM     10  C   UNL     1      -4.853   7.367  14.997  0.00  0.00    +0.133 C 
BRANCH  10  11
ATOM     11  N   UNL     1      -5.221   7.541  16.411  0.00  0.00    -0.308 N 
ATOM     12  H   UNL     1      -4.589   8.064  17.001  0.00  0.00    +0.149 HD
ATOM     13  C   UNL     1      -6.334   7.054  16.964  0.00  0.00    +0.210 C 
ATOM     14  C   UNL     1      -7.263   6.240  16.043  0.00  0.00    +0.109 C 
ATOM     15  O   UNL     1      -6.624   7.228  18.148  0.00  0.00    -0.276 OA
ENDBRANCH  10  11
BRANCH   7  16
ATOM     16  C   UNL     1      -1.908   8.766  13.223  0.00  0.00    +0.414 C 
ATOM     17  O   UNL     1      -0.894   8.224  13.663  0.00  0.00    -0.240 OA
ATOM     18  O   UNL     1      -1.974   9.996  13.206  0.00  0.00    -0.240 OA
ENDBRANCH   7  16
BRANCH   7  19
ATOM     19  O   UNL     1      -2.932   7.699  11.273  0.00  0.00    -0.343 OA
ATOM     20  C   UNL     1      -4.137   7.271  10.588  0.00  0.00    +0.198 C 
ENDBRANCH   7  19
BRANCH   9  21
ATOM     21  O   UNL     1      -3.634   5.334  15.441  0.00  0.00    -0.390 OA
ATOM     22  H   UNL     1      -4.359   5.323  16.070  0.00  0.00    +0.210 HD
ENDBRANCH   9  21
ENDBRANCH   4   5
BRANCH   4  23
ATOM     23  O   UNL     1      -6.922   9.177  13.281  0.00  0.00    -0.387 OA
ATOM     24  H   UNL     1      -6.644   8.323  12.941  0.00  0.00    +0.210 HD
ENDBRANCH   4  23
ENDBRANCH   1   4
BRANCH   1  25
ATOM     25  C   UNL     1      -6.293  11.766  15.537  0.00  0.00    +0.141 C 
BRANCH  25  28
ATOM     26  C   UNL     1      -4.965  10.922  17.442  0.00  0.00    +0.401 C 
ATOM     27  O   UNL     1      -3.968  11.592  17.165  0.00  0.00    -0.226 OA
ATOM     28  N   UNL     1      -6.094  10.937  16.732  0.00  0.00    -0.279 N 
ATOM     29  H   UNL     1      -6.855  10.344  17.033  0.00  0.00    +0.152 HD
BRANCH  26  30
ATOM     30  O   UNL     1      -4.931  10.065  18.587  0.00  0.00    -0.444 OA
BRANCH  30  31
ATOM     31  C   UNL     1      -5.993  10.416  19.477  0.00  0.00    +0.292 C 
BRANCH  31  33
ATOM     32  N   UNL     1      -6.590  12.602  20.477  0.00  0.00    -0.131 NA
ATOM     33  C   UNL     1      -5.649  11.636  20.228  0.00  0.00    +0.120 A 
ATOM     34  C   UNL     1      -4.455  12.013  20.800  0.00  0.00    +0.137 A 
ATOM     35  N   UNL     1      -4.761  13.165  21.460  0.00  0.00    -0.247 N 
ATOM     36  N   UNL     1      -6.029  13.546  21.221  0.00  0.00    -0.065 NA
BRANCH  35  37
ATOM     37  C   UNL     1      -3.913  13.937  22.346  0.00  0.00    +0.180 C 
BRANCH  37  38
ATOM     38  C   UNL     1      -3.906  13.358  23.743  0.00  0.00    -0.026 A 
ATOM     39  C   UNL     1      -2.777  12.688  24.235  0.00  0.00    +0.006 A 
ATOM     40  C   UNL     1      -2.763  12.188  25.541  0.00  0.00    +0.015 A 
ATOM     41  C   UNL     1      -3.879  12.339  26.367  0.00  0.00    +0.059 A 
ATOM     42  C   UNL     1      -5.023  12.988  25.878  0.00  0.00    +0.015 A 
ATOM     43  C   UNL     1      -5.036  13.481  24.570  0.00  0.00    +0.006 A 
BRANCH  41  44
ATOM     44  C   UNL     1      -3.784  11.854  27.769  0.00  0.00    +0.337 C 
ATOM     45  O   UNL     1      -4.646  12.082  28.602  0.00  0.00    -0.245 OA
BRANCH  44  46
ATOM     46  O   UNL     1      -2.653  11.176  28.043  0.00  0.00    -0.477 OA
ATOM     47  H   UNL     1      -2.608  10.787  28.935  0.00  0.00    +0.295 HD
ENDBRANCH  44  46
ENDBRANCH  41  44
ENDBRANCH  37  38
ENDBRANCH  35  37
ENDBRANCH  31  33
ENDBRANCH  30  31
ENDBRANCH  26  30
ENDBRANCH  25  28
ENDBRANCH   1  25
TORSDOF 17
