REMARK VINA RESULT:    -5.631      0.000      0.000
REMARK INTER + INTRA:         -14.364
REMARK INTER:                 -10.133
REMARK INTRA:                  -4.231
REMARK UNBOUND:                -3.302
REMARK  Name = lig_assembled_84.pdb
REMARK  21 active torsions:
REMARK  status: ('A' for Active; 'I' for Inactive)
REMARK    1  A    between atoms: _2  and  _11
REMARK    2  A    between atoms: _3  and  _14
REMARK    3  A    between atoms: _4  and  _17
REMARK    4  A    between atoms: _6  and  _28
REMARK    5  A    between atoms: _8  and  _9
REMARK    6  A    between atoms: _8  and  _28
REMARK    7  A    between atoms: _11  and  _12
REMARK    8  A    between atoms: _12  and  _13
REMARK    9  A    between atoms: _12  and  _14
REMARK   10  A    between atoms: _24  and  _44
REMARK   11  A    between atoms: _26  and  _32
REMARK   12  A    between atoms: _27  and  _31
REMARK   13  A    between atoms: _31  and  _32
REMARK   14  A    between atoms: _34  and  _35
REMARK   15  A    between atoms: _36  and  _37
REMARK   16  A    between atoms: _38  and  _40
REMARK   17  A    between atoms: _40  and  _41
REMARK   18  A    between atoms: _40  and  _42
REMARK   19  A    between atoms: _42  and  _43
REMARK   20  A    between atoms: _42  and  _44
REMARK   21  A    between atoms: _45  and  _47
REMARK                            x       y       z     vdW  Elec       q    Type
REMARK                         _______ _______ _______ _____ _____    ______ ____
ROOT
ATOM      1  C   UNL     1      -4.111   7.058  23.343  0.00  0.00    +0.401 C 
ATOM      2  O   UNL     1      -3.855   7.771  22.370  0.00  0.00    -0.226 OA
ATOM      3  N   UNL     1      -5.334   6.898  23.849  0.00  0.00    -0.279 N 
ATOM      4  H   UNL     1      -5.445   6.284  24.644  0.00  0.00    +0.152 HD
ENDROOT
BRANCH   1   5
ATOM      5  O   UNL     1      -3.047   6.347  23.982  0.00  0.00    -0.444 OA
BRANCH   5   6
ATOM      6  C   UNL     1      -3.518   5.782  25.208  0.00  0.00    +0.292 C 
BRANCH   6   8
ATOM      7  N   UNL     1      -1.944   7.376  26.269  0.00  0.00    -0.131 NA
ATOM      8  C   UNL     1      -3.050   6.572  26.362  0.00  0.00    +0.120 A 
ATOM      9  C   UNL     1      -3.544   6.635  27.646  0.00  0.00    +0.137 A 
ATOM     10  N   UNL     1      -2.658   7.438  28.300  0.00  0.00    -0.251 N 
ATOM     11  N   UNL     1      -1.712   7.901  27.465  0.00  0.00    -0.065 NA
BRANCH  10  12
ATOM     12  C   UNL     1      -2.576   7.692  29.725  0.00  0.00    +0.149 C 
BRANCH  12  13
ATOM     13  C   UNL     1      -3.887   7.444  30.490  0.00  0.00    +0.021 C 
ATOM     14  C   UNL     1      -3.620   6.801  31.859  0.00  0.00    +0.010 C 
BRANCH  13  15
ATOM     15  C   UNL     1      -4.670   8.762  30.702  0.00  0.00    +0.089 C 
BRANCH  15  16
ATOM     16  N   UNL     1      -3.888   9.998  30.554  0.00  0.00    -0.299 NA
ATOM     17  C   UNL     1      -3.538  10.542  31.893  0.00  0.00    +0.103 C 
ATOM     18  C   UNL     1      -2.643  11.794  31.785  0.00  0.00    +0.120 C 
ATOM     19  N   UNL     1      -3.328  12.824  30.995  0.00  0.00    -0.327 N 
ATOM     20  C   UNL     1      -3.771  12.374  29.668  0.00  0.00    +0.120 C 
ATOM     21  C   UNL     1      -4.597  11.060  29.796  0.00  0.00    +0.103 C 
BRANCH  19  22
ATOM     22  C   UNL     1      -3.491  14.115  31.441  0.00  0.00    +0.030 A 
ATOM     23  C   UNL     1      -4.136  15.085  30.653  0.00  0.00    +0.024 A 
ATOM     24  C   UNL     1      -4.288  16.410  31.079  0.00  0.00    +0.022 A 
ATOM     25  C   UNL     1      -3.799  16.791  32.317  0.00  0.00    +0.041 A 
ATOM     26 CL   UNL     1      -3.976  18.418  32.846  0.00  0.00    -0.084 Cl
ATOM     27  C   UNL     1      -3.157  15.862  33.129  0.00  0.00    +0.022 A 
ATOM     28  C   UNL     1      -3.006  14.540  32.687  0.00  0.00    +0.024 A 
ENDBRANCH  19  22
ENDBRANCH  15  16
ENDBRANCH  13  15
ENDBRANCH  12  13
ENDBRANCH  10  12
ENDBRANCH   6   8
ENDBRANCH   5   6
ENDBRANCH   1   5
BRANCH   3  29
ATOM     29  C   UNL     1      -6.529   7.563  23.316  0.00  0.00    +0.141 C 
BRANCH  29  30
ATOM     30  C   UNL     1      -6.932   8.769  24.159  0.00  0.00    +0.163 C 
BRANCH  30  31
ATOM     31  O   UNL     1      -6.206   8.767  25.399  0.00  0.00    -0.388 OA
ATOM     32  H   UNL     1      -5.902   7.876  25.591  0.00  0.00    +0.210 HD
ENDBRANCH  30  31
BRANCH  30  33
ATOM     33  C   UNL     1      -6.665  10.061  23.367  0.00  0.00    +0.175 C 
BRANCH  33  34
ATOM     34  C   UNL     1      -5.286  10.657  23.683  0.00  0.00    +0.176 C 
ATOM     35  O   UNL     1      -5.449  11.610  24.770  0.00  0.00    -0.332 OA
ATOM     36  C   UNL     1      -4.211  12.206  25.281  0.00  0.00    +0.277 C 
ATOM     37  C   UNL     1      -3.409  12.859  24.129  0.00  0.00    +0.110 C 
ATOM     38  C   UNL     1      -3.237  11.895  22.936  0.00  0.00    +0.143 C 
ATOM     39  C   UNL     1      -4.586  11.331  22.488  0.00  0.00    +0.133 C 
BRANCH  39  40
ATOM     40  N   UNL     1      -4.401  10.348  21.409  0.00  0.00    -0.308 N 
ATOM     41  H   UNL     1      -3.824   9.541  21.601  0.00  0.00    +0.149 HD
ATOM     42  C   UNL     1      -4.945  10.452  20.194  0.00  0.00    +0.210 C 
ATOM     43  C   UNL     1      -5.798  11.706  19.926  0.00  0.00    +0.109 C 
ATOM     44  O   UNL     1      -4.785   9.605  19.314  0.00  0.00    -0.276 OA
ENDBRANCH  39  40
BRANCH  36  45
ATOM     45  C   UNL     1      -3.338  11.142  25.978  0.00  0.00    +0.414 C 
ATOM     46  O   UNL     1      -2.112  11.241  25.966  0.00  0.00    -0.240 OA
ATOM     47  O   UNL     1      -3.860  10.185  26.552  0.00  0.00    -0.240 OA
ENDBRANCH  36  45
BRANCH  36  48
ATOM     48  O   UNL     1      -4.571  13.242  26.232  0.00  0.00    -0.343 OA
ATOM     49  C   UNL     1      -5.954  13.220  26.666  0.00  0.00    +0.198 C 
ENDBRANCH  36  48
BRANCH  38  50
ATOM     50  O   UNL     1      -2.629  12.583  21.843  0.00  0.00    -0.390 OA
ATOM     51  H   UNL     1      -1.719  12.796  22.065  0.00  0.00    +0.210 HD
ENDBRANCH  38  50
ENDBRANCH  33  34
BRANCH  33  52
ATOM     52  O   UNL     1      -7.699  11.029  23.635  0.00  0.00    -0.387 OA
ATOM     53  H   UNL     1      -8.435  10.599  24.076  0.00  0.00    +0.210 HD
ENDBRANCH  33  52
ENDBRANCH  30  33
ENDBRANCH  29  30
ENDBRANCH   3  29
TORSDOF 18
