REMARK VINA RESULT:    -4.774      3.268      7.835
REMARK INTER + INTRA:         -12.149
REMARK INTER:                  -8.366
REMARK INTRA:                  -3.782
REMARK UNBOUND:                -3.048
REMARK  Name = lig_assembled_50.pdb
REMARK  20 active torsions:
REMARK  status: ('A' for Active; 'I' for Inactive)
REMARK    1  A    between atoms: _2  and  _9
REMARK    2  A    between atoms: _4  and  _17
REMARK    3  A    between atoms: _5  and  _10
REMARK    4  A    between atoms: _5  and  _11
REMARK    5  A    between atoms: _6  and  _7
REMARK    6  A    between atoms: _6  and  _17
REMARK    7  A    between atoms: _9  and  _10
REMARK    8  A    between atoms: _10  and  _12
REMARK    9  A    between atoms: _13  and  _33
REMARK   10  A    between atoms: _15  and  _21
REMARK   11  A    between atoms: _16  and  _20
REMARK   12  A    between atoms: _20  and  _21
REMARK   13  A    between atoms: _23  and  _24
REMARK   14  A    between atoms: _25  and  _26
REMARK   15  A    between atoms: _27  and  _29
REMARK   16  A    between atoms: _29  and  _30
REMARK   17  A    between atoms: _29  and  _31
REMARK   18  A    between atoms: _31  and  _32
REMARK   19  A    between atoms: _31  and  _33
REMARK   20  A    between atoms: _34  and  _36
REMARK                            x       y       z     vdW  Elec       q    Type
REMARK                         _______ _______ _______ _____ _____    ______ ____
ROOT
ATOM      1  C   UNL     1      -1.983   9.094  27.724  0.00  0.00    +0.163 C 
ENDROOT
BRANCH   1   2
ATOM      2  O   UNL     1      -1.953   8.953  26.295  0.00  0.00    -0.388 OA
ATOM      3  H   UNL     1      -2.740   8.486  26.002  0.00  0.00    +0.210 HD
ENDBRANCH   1   2
BRANCH   1   4
ATOM      4  C   UNL     1      -3.194   9.932  28.169  0.00  0.00    +0.175 C 
BRANCH   4   5
ATOM      5  C   UNL     1      -4.009  10.449  26.975  0.00  0.00    +0.176 C 
ATOM      6  O   UNL     1      -3.179  11.390  26.240  0.00  0.00    -0.332 OA
ATOM      7  C   UNL     1      -3.758  11.910  24.998  0.00  0.00    +0.277 C 
ATOM      8  C   UNL     1      -5.147  12.539  25.270  0.00  0.00    +0.110 C 
ATOM      9  C   UNL     1      -6.055  11.587  26.077  0.00  0.00    +0.143 C 
ATOM     10  C   UNL     1      -5.352  11.104  27.347  0.00  0.00    +0.133 C 
BRANCH  10  11
ATOM     11  N   UNL     1      -6.193  10.131  28.062  0.00  0.00    -0.308 N 
ATOM     12  H   UNL     1      -6.448   9.282  27.577  0.00  0.00    +0.149 HD
ATOM     13  C   UNL     1      -6.640  10.296  29.309  0.00  0.00    +0.210 C 
ATOM     14  C   UNL     1      -6.256  11.612  30.011  0.00  0.00    +0.109 C 
ATOM     15  O   UNL     1      -7.331   9.457  29.889  0.00  0.00    -0.276 OA
ENDBRANCH  10  11
BRANCH   7  16
ATOM     16  C   UNL     1      -3.897  10.789  23.947  0.00  0.00    +0.414 C 
ATOM     17  O   UNL     1      -2.994   9.968  23.793  0.00  0.00    -0.240 OA
ATOM     18  O   UNL     1      -4.912  10.705  23.254  0.00  0.00    -0.240 OA
ENDBRANCH   7  16
BRANCH   9  19
ATOM     19  O   UNL     1      -7.262  12.261  26.435  0.00  0.00    -0.390 OA
ATOM     20  H   UNL     1      -7.983  11.628  26.474  0.00  0.00    +0.210 HD
ENDBRANCH   9  19
BRANCH   7  21
ATOM     21  O   UNL     1      -2.878  12.947  24.492  0.00  0.00    -0.343 OA
ATOM     22  C   UNL     1      -3.410  13.714  23.382  0.00  0.00    +0.198 C 
ENDBRANCH   7  21
ENDBRANCH   4   5
BRANCH   4  23
ATOM     23  O   UNL     1      -2.759  11.036  28.988  0.00  0.00    -0.387 OA
ATOM     24  H   UNL     1      -3.319  11.798  28.822  0.00  0.00    +0.210 HD
ENDBRANCH   4  23
ENDBRANCH   1   4
BRANCH   1  25
ATOM     25  C   UNL     1      -2.045   7.720  28.383  0.00  0.00    +0.141 C 
BRANCH  25  28
ATOM     26  C   UNL     1      -3.505   7.368  30.345  0.00  0.00    +0.401 C 
ATOM     27  O   UNL     1      -4.412   6.843  29.693  0.00  0.00    -0.226 OA
ATOM     28  N   UNL     1      -2.366   7.812  29.813  0.00  0.00    -0.279 N 
ATOM     29  H   UNL     1      -1.686   8.237  30.428  0.00  0.00    +0.152 HD
BRANCH  26  30
ATOM     30  O   UNL     1      -3.665   7.523  31.757  0.00  0.00    -0.444 OA
BRANCH  30  31
ATOM     31  C   UNL     1      -4.581   8.589  32.020  0.00  0.00    +0.292 C 
BRANCH  31  33
ATOM     32  N   UNL     1      -2.584  10.036  31.770  0.00  0.00    -0.131 NA
ATOM     33  C   UNL     1      -3.849   9.848  32.268  0.00  0.00    +0.120 A 
ATOM     34  C   UNL     1      -4.235  10.978  32.957  0.00  0.00    +0.137 A 
ATOM     35  N   UNL     1      -3.164  11.807  32.850  0.00  0.00    -0.249 N 
ATOM     36  N   UNL     1      -2.179  11.247  32.122  0.00  0.00    -0.065 NA
BRANCH  35  37
ATOM     37  C   UNL     1      -2.992  13.129  33.409  0.00  0.00    +0.178 C 
BRANCH  37  38
ATOM     38  C   UNL     1      -2.475  14.168  32.408  0.00  0.00    +0.161 C 
BRANCH  38  39
ATOM     39  O   UNL     1      -1.172  13.854  31.910  0.00  0.00    -0.388 OA
ATOM     40  H   UNL     1      -1.059  12.881  31.924  0.00  0.00    +0.210 HD
ENDBRANCH  38  39
BRANCH  38  41
ATOM     41  C   UNL     1      -3.432  14.418  31.234  0.00  0.00    +0.189 C 
BRANCH  41  42
ATOM     42  O   UNL     1      -3.212  13.485  30.177  0.00  0.00    -0.392 OA
ATOM     43  H   UNL     1      -2.278  13.204  30.208  0.00  0.00    +0.210 HD
ENDBRANCH  41  42
ENDBRANCH  38  41
ENDBRANCH  37  38
ENDBRANCH  35  37
ENDBRANCH  31  33
ENDBRANCH  30  31
ENDBRANCH  26  30
ENDBRANCH  25  28
ENDBRANCH   1  25
TORSDOF 18
