REMARK VINA RESULT:    -4.599      2.161      8.252
REMARK INTER + INTRA:         -11.297
REMARK INTER:                  -8.982
REMARK INTRA:                  -2.315
REMARK UNBOUND:                -2.934
REMARK  Name = lig_assembled_72.pdb
REMARK  20 active torsions:
REMARK  status: ('A' for Active; 'I' for Inactive)
REMARK    1  A    between atoms: _2  and  _9
REMARK    2  A    between atoms: _4  and  _17
REMARK    3  A    between atoms: _5  and  _9
REMARK    4  A    between atoms: _5  and  _12
REMARK    5  A    between atoms: _6  and  _7
REMARK    6  A    between atoms: _6  and  _17
REMARK    7  A    between atoms: _9  and  _10
REMARK    8  A    between atoms: _9  and  _11
REMARK    9  A    between atoms: _13  and  _33
REMARK   10  A    between atoms: _15  and  _21
REMARK   11  A    between atoms: _16  and  _20
REMARK   12  A    between atoms: _20  and  _21
REMARK   13  A    between atoms: _23  and  _24
REMARK   14  A    between atoms: _25  and  _26
REMARK   15  A    between atoms: _27  and  _29
REMARK   16  A    between atoms: _29  and  _30
REMARK   17  A    between atoms: _29  and  _31
REMARK   18  A    between atoms: _31  and  _32
REMARK   19  A    between atoms: _31  and  _33
REMARK   20  A    between atoms: _34  and  _36
REMARK                            x       y       z     vdW  Elec       q    Type
REMARK                         _______ _______ _______ _____ _____    ______ ____
ROOT
ATOM      1  C   UNL     1      -4.237   8.967  23.890  0.00  0.00    +0.163 C 
ENDROOT
BRANCH   1   2
ATOM      2  O   UNL     1      -3.701   8.095  22.882  0.00  0.00    -0.388 OA
ATOM      3  H   UNL     1      -4.388   7.499  22.575  0.00  0.00    +0.210 HD
ENDBRANCH   1   2
BRANCH   1   4
ATOM      4  C   UNL     1      -5.582   9.565  23.442  0.00  0.00    +0.175 C 
BRANCH   4   5
ATOM      5  C   UNL     1      -5.399  10.695  22.418  0.00  0.00    +0.176 C 
ATOM      6  O   UNL     1      -4.995  10.094  21.157  0.00  0.00    -0.332 OA
ATOM      7  C   UNL     1      -4.875  11.017  20.024  0.00  0.00    +0.277 C 
ATOM      8  C   UNL     1      -3.921  12.185  20.377  0.00  0.00    +0.110 C 
ATOM      9  C   UNL     1      -4.292  12.835  21.727  0.00  0.00    +0.143 C 
ATOM     10  C   UNL     1      -4.393  11.784  22.833  0.00  0.00    +0.133 C 
BRANCH  10  11
ATOM     11  N   UNL     1      -4.832  12.404  24.093  0.00  0.00    -0.308 N 
ATOM     12  H   UNL     1      -5.790  12.718  24.156  0.00  0.00    +0.149 HD
ATOM     13  C   UNL     1      -4.046  12.577  25.160  0.00  0.00    +0.210 C 
ATOM     14  C   UNL     1      -2.585  12.112  25.023  0.00  0.00    +0.109 C 
ATOM     15  O   UNL     1      -4.445  13.086  26.208  0.00  0.00    -0.276 OA
ENDBRANCH  10  11
BRANCH   7  16
ATOM     16  C   UNL     1      -6.256  11.581  19.629  0.00  0.00    +0.414 C 
ATOM     17  O   UNL     1      -7.271  11.199  20.210  0.00  0.00    -0.240 OA
ATOM     18  O   UNL     1      -6.355  12.418  18.731  0.00  0.00    -0.240 OA
ENDBRANCH   7  16
BRANCH   9  19
ATOM     19  O   UNL     1      -3.303  13.801  22.084  0.00  0.00    -0.390 OA
ATOM     20  H   UNL     1      -3.725  14.549  22.513  0.00  0.00    +0.210 HD
ENDBRANCH   9  19
BRANCH   7  21
ATOM     21  O   UNL     1      -4.308  10.286  18.907  0.00  0.00    -0.343 OA
ATOM     22  C   UNL     1      -5.147   9.226  18.380  0.00  0.00    +0.198 C 
ENDBRANCH   7  21
ENDBRANCH   4   5
BRANCH   4  23
ATOM     23  O   UNL     1      -6.318  10.045  24.585  0.00  0.00    -0.387 OA
ATOM     24  H   UNL     1      -5.777   9.960  25.373  0.00  0.00    +0.210 HD
ENDBRANCH   4  23
ENDBRANCH   1   4
BRANCH   1  25
ATOM     25  C   UNL     1      -4.430   8.201  25.195  0.00  0.00    +0.141 C 
BRANCH  25  28
ATOM     26  C   UNL     1      -2.632   8.803  26.778  0.00  0.00    +0.401 C 
ATOM     27  O   UNL     1      -1.800   8.050  26.267  0.00  0.00    -0.226 OA
ATOM     28  N   UNL     1      -3.887   8.932  26.345  0.00  0.00    -0.279 N 
ATOM     29  H   UNL     1      -4.498   9.570  26.837  0.00  0.00    +0.152 HD
BRANCH  26  30
ATOM     30  O   UNL     1      -2.251   9.594  27.908  0.00  0.00    -0.444 OA
BRANCH  30  31
ATOM     31  C   UNL     1      -2.912   9.104  29.078  0.00  0.00    +0.292 C 
BRANCH  31  33
ATOM     32  N   UNL     1      -2.639  10.009  31.363  0.00  0.00    -0.131 NA
ATOM     33  C   UNL     1      -3.058  10.182  30.073  0.00  0.00    +0.120 A 
ATOM     34  C   UNL     1      -3.585  11.448  29.938  0.00  0.00    +0.137 A 
ATOM     35  N   UNL     1      -3.458  12.001  31.183  0.00  0.00    -0.244 N 
ATOM     36  N   UNL     1      -2.888  11.124  32.032  0.00  0.00    -0.065 NA
BRANCH  35  37
ATOM     37  C   UNL     1      -3.852  13.346  31.625  0.00  0.00    +0.083 C 
ATOM     38  C   UNL     1      -4.987  13.228  32.659  0.00  0.00    +0.038 C 
ATOM     39  C   UNL     1      -4.342  14.166  30.415  0.00  0.00    +0.038 C 
BRANCH  37  40
ATOM     40  C   UNL     1      -2.671  14.095  32.302  0.00  0.00    +0.185 C 
BRANCH  40  41
ATOM     41  O   UNL     1      -1.400  13.698  31.789  0.00  0.00    -0.393 OA
ATOM     42  H   UNL     1      -0.819  13.578  32.571  0.00  0.00    +0.209 HD
ENDBRANCH  40  41
ENDBRANCH  37  40
ENDBRANCH  35  37
ENDBRANCH  31  33
ENDBRANCH  30  31
ENDBRANCH  26  30
ENDBRANCH  25  28
ENDBRANCH   1  25
TORSDOF 16
