REMARK VINA RESULT:    -4.788      1.832      3.923
REMARK INTER + INTRA:         -12.467
REMARK INTER:                  -8.323
REMARK INTRA:                  -4.144
REMARK UNBOUND:                -3.060
REMARK  Name = lig_assembled_37.pdb
REMARK  21 active torsions:
REMARK  status: ('A' for Active; 'I' for Inactive)
REMARK    1  A    between atoms: _2  and  _9
REMARK    2  A    between atoms: _4  and  _24
REMARK    3  A    between atoms: _6  and  _7
REMARK    4  A    between atoms: _6  and  _24
REMARK    5  A    between atoms: _9  and  _10
REMARK    6  A    between atoms: _9  and  _11
REMARK    7  A    between atoms: _11  and  _18
REMARK    8  A    between atoms: _12  and  _13
REMARK    9  A    between atoms: _12  and  _18
REMARK   10  A    between atoms: _20  and  _40
REMARK   11  A    between atoms: _22  and  _28
REMARK   12  A    between atoms: _23  and  _27
REMARK   13  A    between atoms: _27  and  _28
REMARK   14  A    between atoms: _30  and  _31
REMARK   15  A    between atoms: _32  and  _33
REMARK   16  A    between atoms: _34  and  _36
REMARK   17  A    between atoms: _36  and  _37
REMARK   18  A    between atoms: _36  and  _38
REMARK   19  A    between atoms: _38  and  _39
REMARK   20  A    between atoms: _38  and  _40
REMARK   21  A    between atoms: _41  and  _43
REMARK                            x       y       z     vdW  Elec       q    Type
REMARK                         _______ _______ _______ _____ _____    ______ ____
ROOT
ATOM      1  C   UNL     1      -3.843   6.485  28.795  0.00  0.00    +0.141 C 
ENDROOT
BRANCH   1   4
ATOM      2  C   UNL     1      -3.089   6.489  26.441  0.00  0.00    +0.401 C 
ATOM      3  O   UNL     1      -1.919   6.760  26.718  0.00  0.00    -0.226 OA
ATOM      4  N   UNL     1      -4.056   6.348  27.349  0.00  0.00    -0.279 N 
ATOM      5  H   UNL     1      -4.989   6.135  27.023  0.00  0.00    +0.152 HD
BRANCH   2   6
ATOM      6  O   UNL     1      -3.456   6.315  25.070  0.00  0.00    -0.444 OA
BRANCH   6   7
ATOM      7  C   UNL     1      -4.833   6.660  24.897  0.00  0.00    +0.292 C 
BRANCH   7   9
ATOM      8  N   UNL     1      -4.446   6.430  22.459  0.00  0.00    -0.131 NA
ATOM      9  C   UNL     1      -5.096   7.045  23.497  0.00  0.00    +0.120 A 
ATOM     10  C   UNL     1      -5.955   7.993  22.992  0.00  0.00    +0.138 A 
ATOM     11  N   UNL     1      -5.764   7.930  21.643  0.00  0.00    -0.238 N 
ATOM     12  N   UNL     1      -4.869   6.976  21.327  0.00  0.00    -0.065 NA
BRANCH  11  13
ATOM     13  C   UNL     1      -6.422   8.673  20.586  0.00  0.00    +0.214 C 
ATOM     14  C   UNL     1      -7.556   9.538  21.133  0.00  0.00    +0.045 C 
BRANCH  13  15
ATOM     15  C   UNL     1      -5.434   9.526  19.822  0.00  0.00    +0.332 C 
ATOM     16  O   UNL     1      -4.854   9.161  18.805  0.00  0.00    -0.248 OA
BRANCH  15  17
ATOM     17  O   UNL     1      -5.276  10.741  20.412  0.00  0.00    -0.458 OA
BRANCH  17  18
ATOM     18  C   UNL     1      -4.008  10.976  21.044  0.00  0.00    +0.267 C 
BRANCH  18  19
ATOM     19  C   UNL     1      -4.200  11.793  22.295  0.00  0.00    -0.010 A 
ATOM     20  C   UNL     1      -5.474  11.931  22.865  0.00  0.00    +0.007 A 
ATOM     21  C   UNL     1      -5.649  12.666  24.040  0.00  0.00    +0.000 A 
ATOM     22  C   UNL     1      -4.554  13.272  24.654  0.00  0.00    +0.000 A 
ATOM     23  C   UNL     1      -3.285  13.148  24.093  0.00  0.00    +0.000 A 
ATOM     24  C   UNL     1      -3.108  12.415  22.917  0.00  0.00    +0.007 A 
ENDBRANCH  18  19
ENDBRANCH  17  18
ENDBRANCH  15  17
ENDBRANCH  13  15
ENDBRANCH  11  13
ENDBRANCH   7   9
ENDBRANCH   6   7
ENDBRANCH   2   6
ENDBRANCH   1   4
BRANCH   1  25
ATOM     25  C   UNL     1      -4.204   7.880  29.293  0.00  0.00    +0.163 C 
BRANCH  25  26
ATOM     26  O   UNL     1      -5.200   7.791  30.325  0.00  0.00    -0.388 OA
ATOM     27  H   UNL     1      -5.585   6.911  30.324  0.00  0.00    +0.210 HD
ENDBRANCH  25  26
BRANCH  25  28
ATOM     28  C   UNL     1      -2.938   8.585  29.810  0.00  0.00    +0.175 C 
BRANCH  28  29
ATOM     29  C   UNL     1      -3.136  10.101  29.949  0.00  0.00    +0.176 C 
ATOM     30  O   UNL     1      -3.914  10.342  31.154  0.00  0.00    -0.332 OA
ATOM     31  C   UNL     1      -4.114  11.750  31.509  0.00  0.00    +0.277 C 
ATOM     32  C   UNL     1      -4.737  12.524  30.321  0.00  0.00    +0.110 C 
ATOM     33  C   UNL     1      -3.963  12.274  29.010  0.00  0.00    +0.143 C 
ATOM     34  C   UNL     1      -3.810  10.777  28.740  0.00  0.00    +0.133 C 
BRANCH  34  35
ATOM     35  N   UNL     1      -2.996  10.551  27.535  0.00  0.00    -0.308 N 
ATOM     36  H   UNL     1      -2.005  10.736  27.594  0.00  0.00    +0.149 HD
ATOM     37  C   UNL     1      -3.483  10.117  26.369  0.00  0.00    +0.210 C 
ATOM     38  C   UNL     1      -5.002   9.870  26.304  0.00  0.00    +0.109 C 
ATOM     39  O   UNL     1      -2.775   9.923  25.380  0.00  0.00    -0.276 OA
ENDBRANCH  34  35
BRANCH  31  40
ATOM     40  C   UNL     1      -2.777  12.409  31.909  0.00  0.00    +0.414 C 
ATOM     41  O   UNL     1      -1.843  11.719  32.314  0.00  0.00    -0.240 OA
ATOM     42  O   UNL     1      -2.633  13.629  31.827  0.00  0.00    -0.240 OA
ENDBRANCH  31  40
BRANCH  31  43
ATOM     43  O   UNL     1      -5.038  11.805  32.626  0.00  0.00    -0.343 OA
ATOM     44  C   UNL     1      -5.966  10.693  32.708  0.00  0.00    +0.198 C 
ENDBRANCH  31  43
BRANCH  33  45
ATOM     45  O   UNL     1      -4.656  12.880  27.918  0.00  0.00    -0.390 OA
ATOM     46  H   UNL     1      -5.162  12.213  27.450  0.00  0.00    +0.210 HD
ENDBRANCH  33  45
ENDBRANCH  28  29
BRANCH  28  47
ATOM     47  O   UNL     1      -1.824   8.307  28.938  0.00  0.00    -0.387 OA
ATOM     48  H   UNL     1      -1.252   9.077  28.894  0.00  0.00    +0.210 HD
ENDBRANCH  28  47
ENDBRANCH  25  28
ENDBRANCH   1  25
TORSDOF 18
