REMARK VINA RESULT:    -5.078      5.481      9.897
REMARK INTER + INTRA:         -11.877
REMARK INTER:                  -8.961
REMARK INTRA:                  -2.916
REMARK UNBOUND:                -2.792
REMARK  Name = lig_assembled_5.pdb
REMARK  18 active torsions:
REMARK  status: ('A' for Active; 'I' for Inactive)
REMARK    1  A    between atoms: _2  and  _9
REMARK    2  A    between atoms: _4  and  _20
REMARK    3  A    between atoms: _6  and  _7
REMARK    4  A    between atoms: _6  and  _20
REMARK    5  A    between atoms: _12  and  _15
REMARK    6  A    between atoms: _13  and  _15
REMARK    7  A    between atoms: _16  and  _36
REMARK    8  A    between atoms: _18  and  _24
REMARK    9  A    between atoms: _19  and  _23
REMARK   10  A    between atoms: _23  and  _24
REMARK   11  A    between atoms: _26  and  _27
REMARK   12  A    between atoms: _28  and  _29
REMARK   13  A    between atoms: _30  and  _32
REMARK   14  A    between atoms: _32  and  _33
REMARK   15  A    between atoms: _32  and  _34
REMARK   16  A    between atoms: _34  and  _35
REMARK   17  A    between atoms: _34  and  _36
REMARK   18  A    between atoms: _37  and  _39
REMARK                            x       y       z     vdW  Elec       q    Type
REMARK                         _______ _______ _______ _____ _____    ______ ____
ROOT
ATOM      1  C   UNL     1      -1.871   8.522  13.686  0.00  0.00    +0.163 C 
ENDROOT
BRANCH   1   2
ATOM      2  O   UNL     1      -2.028   8.287  12.277  0.00  0.00    -0.388 OA
ATOM      3  H   UNL     1      -1.618   9.003  11.785  0.00  0.00    +0.210 HD
ENDBRANCH   1   2
BRANCH   1   4
ATOM      4  C   UNL     1      -1.996   7.209  14.451  0.00  0.00    +0.141 C 
BRANCH   4   7
ATOM      5  C   UNL     1      -3.565   6.574  16.252  0.00  0.00    +0.401 C 
ATOM      6  O   UNL     1      -2.676   6.241  17.038  0.00  0.00    -0.226 OA
ATOM      7  N   UNL     1      -3.338   7.032  15.020  0.00  0.00    -0.279 N 
ATOM      8  H   UNL     1      -4.134   7.271  14.446  0.00  0.00    +0.152 HD
BRANCH   5   9
ATOM      9  O   UNL     1      -4.931   6.469  16.663  0.00  0.00    -0.444 OA
BRANCH   9  10
ATOM     10  C   UNL     1      -5.590   7.721  16.458  0.00  0.00    +0.292 C 
BRANCH  10  12
ATOM     11  N   UNL     1      -6.688   8.211  18.621  0.00  0.00    -0.131 NA
ATOM     12  C   UNL     1      -5.686   8.463  17.731  0.00  0.00    +0.121 A 
ATOM     13  C   UNL     1      -4.873   9.450  18.237  0.00  0.00    +0.143 A 
ATOM     14  N   UNL     1      -5.407   9.756  19.468  0.00  0.00    -0.220 N 
ATOM     15  N   UNL     1      -6.518   9.004  19.670  0.00  0.00    -0.060 NA
BRANCH  14  16
ATOM     16  C   UNL     1      -4.926  10.667  20.444  0.00  0.00    +0.067 A 
ATOM     17  C   UNL     1      -5.213  12.034  20.351  0.00  0.00    +0.031 A 
ATOM     18  C   UNL     1      -4.680  12.922  21.288  0.00  0.00    +0.048 A 
ATOM     19  C   UNL     1      -3.877  12.464  22.334  0.00  0.00    +0.120 A 
ATOM     20  C   UNL     1      -3.603  11.102  22.439  0.00  0.00    +0.048 A 
ATOM     21  C   UNL     1      -4.124  10.203  21.497  0.00  0.00    +0.031 A 
BRANCH  19  22
ATOM     22  O   UNL     1      -3.370  13.445  23.141  0.00  0.00    -0.495 OA
ATOM     23  C   UNL     1      -2.877  13.027  24.407  0.00  0.00    +0.277 C 
ENDBRANCH  19  22
ENDBRANCH  14  16
ENDBRANCH  10  12
ENDBRANCH   9  10
ENDBRANCH   5   9
ENDBRANCH   4   7
ENDBRANCH   1   4
BRANCH   1  24
ATOM     24  C   UNL     1      -2.926   9.518  14.198  0.00  0.00    +0.175 C 
BRANCH  24  25
ATOM     25  C   UNL     1      -3.277  10.580  13.146  0.00  0.00    +0.176 C 
ATOM     26  O   UNL     1      -2.033  11.078  12.581  0.00  0.00    -0.332 OA
ATOM     27  C   UNL     1      -2.175  12.031  11.477  0.00  0.00    +0.277 C 
ATOM     28  C   UNL     1      -3.071  13.221  11.901  0.00  0.00    +0.110 C 
ATOM     29  C   UNL     1      -4.392  12.741  12.537  0.00  0.00    +0.143 C 
ATOM     30  C   UNL     1      -4.127  11.751  13.672  0.00  0.00    +0.133 C 
BRANCH  30  31
ATOM     31  N   UNL     1      -5.395  11.235  14.212  0.00  0.00    -0.308 N 
ATOM     32  H   UNL     1      -5.949  10.633  13.619  0.00  0.00    +0.149 HD
ATOM     33  C   UNL     1      -5.861  11.510  15.433  0.00  0.00    +0.210 C 
ATOM     34  C   UNL     1      -5.005  12.451  16.302  0.00  0.00    +0.109 C 
ATOM     35  O   UNL     1      -6.919  11.051  15.864  0.00  0.00    -0.276 OA
ENDBRANCH  30  31
BRANCH  27  36
ATOM     36  C   UNL     1      -2.784  11.345  10.236  0.00  0.00    +0.414 C 
ATOM     37  O   UNL     1      -2.706  10.124  10.103  0.00  0.00    -0.240 OA
ATOM     38  O   UNL     1      -3.352  12.011   9.370  0.00  0.00    -0.240 OA
ENDBRANCH  27  36
BRANCH  27  39
ATOM     39  O   UNL     1      -0.857  12.544  11.154  0.00  0.00    -0.343 OA
ATOM     40  C   UNL     1      -0.546  13.839  11.727  0.00  0.00    +0.198 C 
ENDBRANCH  27  39
BRANCH  29  41
ATOM     41  O   UNL     1      -5.116  13.861  13.048  0.00  0.00    -0.390 OA
ATOM     42  H   UNL     1      -5.139  14.557  12.387  0.00  0.00    +0.210 HD
ENDBRANCH  29  41
ENDBRANCH  24  25
BRANCH  24  43
ATOM     43  O   UNL     1      -2.465  10.151  15.409  0.00  0.00    -0.387 OA
ATOM     44  H   UNL     1      -2.364  11.094  15.259  0.00  0.00    +0.210 HD
ENDBRANCH  24  43
ENDBRANCH   1  24
TORSDOF 15
