REMARK VINA RESULT:    -5.095      2.834      4.161
REMARK INTER + INTRA:         -11.562
REMARK INTER:                  -8.410
REMARK INTRA:                  -3.152
REMARK UNBOUND:                -2.447
REMARK  Name = lig_assembled_85.pdb
REMARK  19 active torsions:
REMARK  status: ('A' for Active; 'I' for Inactive)
REMARK    1  A    between atoms: _2  and  _10
REMARK    2  A    between atoms: _3  and  _6
REMARK    3  A    between atoms: _3  and  _17
REMARK    4  A    between atoms: _5  and  _23
REMARK    5  A    between atoms: _7  and  _8
REMARK    6  A    between atoms: _7  and  _23
REMARK    7  A    between atoms: _15  and  _16
REMARK    8  A    between atoms: _19  and  _39
REMARK    9  A    between atoms: _21  and  _27
REMARK   10  A    between atoms: _22  and  _26
REMARK   11  A    between atoms: _26  and  _27
REMARK   12  A    between atoms: _29  and  _30
REMARK   13  A    between atoms: _31  and  _32
REMARK   14  A    between atoms: _33  and  _35
REMARK   15  A    between atoms: _35  and  _36
REMARK   16  A    between atoms: _35  and  _37
REMARK   17  A    between atoms: _37  and  _38
REMARK   18  A    between atoms: _37  and  _39
REMARK   19  A    between atoms: _40  and  _42
REMARK                            x       y       z     vdW  Elec       q    Type
REMARK                         _______ _______ _______ _____ _____    ______ ____
ROOT
ATOM      1  C   UNL     1      -7.539   8.315  22.785  0.00  0.00    +0.141 C 
ENDROOT
BRANCH   1   4
ATOM      2  C   UNL     1      -7.548   8.514  20.322  0.00  0.00    +0.401 C 
ATOM      3  O   UNL     1      -6.682   7.652  20.155  0.00  0.00    -0.226 OA
ATOM      4  N   UNL     1      -8.004   8.891  21.518  0.00  0.00    -0.279 N 
ATOM      5  H   UNL     1      -8.709   9.614  21.553  0.00  0.00    +0.152 HD
BRANCH   2   6
ATOM      6  O   UNL     1      -8.110   9.165  19.180  0.00  0.00    -0.444 OA
BRANCH   6   7
ATOM      7  C   UNL     1      -7.764  10.553  19.203  0.00  0.00    +0.292 C 
BRANCH   7   9
ATOM      8  N   UNL     1      -6.433  12.153  17.875  0.00  0.00    -0.131 NA
ATOM      9  C   UNL     1      -6.872  10.875  18.077  0.00  0.00    +0.121 A 
ATOM     10  C   UNL     1      -6.307  10.045  17.135  0.00  0.00    +0.143 A 
ATOM     11  N   UNL     1      -5.517  10.871  16.373  0.00  0.00    -0.219 N 
ATOM     12  N   UNL     1      -5.589  12.136  16.854  0.00  0.00    -0.060 NA
BRANCH  11  13
ATOM     13  C   UNL     1      -4.646  10.553  15.309  0.00  0.00    +0.080 A 
ATOM     14  C   UNL     1      -4.932  10.795  13.956  0.00  0.00    +0.062 A 
ATOM     15  C   UNL     1      -4.087  10.201  12.990  0.00  0.00    +0.016 A 
ATOM     16  C   UNL     1      -2.985   9.419  13.351  0.00  0.00    +0.021 A 
ATOM     17  C   UNL     1      -2.677   9.253  14.693  0.00  0.00    +0.043 A 
ATOM     18 CL   UNL     1      -1.348   8.266  15.156  0.00  0.00    -0.083 Cl
ATOM     19  C   UNL     1      -3.481   9.836  15.668  0.00  0.00    +0.048 A 
BRANCH  14  20
ATOM     20  C   UNL     1      -6.080  11.547  13.367  0.00  0.00    +0.248 C 
ATOM     21  O   UNL     1      -7.046  10.853  13.041  0.00  0.00    -0.270 OA
ATOM     22  N   UNL     1      -6.067  12.925  13.126  0.00  0.00    -0.304 N 
ATOM     23  C   UNL     1      -5.075  13.900  13.560  0.00  0.00    +0.132 C 
ATOM     24  C   UNL     1      -7.276  13.490  12.533  0.00  0.00    +0.132 C 
ENDBRANCH  14  20
ENDBRANCH  11  13
ENDBRANCH   7   9
ENDBRANCH   6   7
ENDBRANCH   2   6
ENDBRANCH   1   4
BRANCH   1  25
ATOM     25  C   UNL     1      -6.510   9.208  23.472  0.00  0.00    +0.163 C 
BRANCH  25  26
ATOM     26  O   UNL     1      -6.972   9.570  24.784  0.00  0.00    -0.388 OA
ATOM     27  H   UNL     1      -6.459  10.314  25.109  0.00  0.00    +0.210 HD
ENDBRANCH  25  26
BRANCH  25  28
ATOM     28  C   UNL     1      -5.161   8.473  23.547  0.00  0.00    +0.175 C 
BRANCH  28  29
ATOM     29  C   UNL     1      -4.064   9.342  24.180  0.00  0.00    +0.176 C 
ATOM     30  O   UNL     1      -4.357   9.468  25.598  0.00  0.00    -0.332 OA
ATOM     31  C   UNL     1      -3.352  10.182  26.392  0.00  0.00    +0.277 C 
ATOM     32  C   UNL     1      -3.079  11.581  25.787  0.00  0.00    +0.110 C 
ATOM     33  C   UNL     1      -2.794  11.501  24.272  0.00  0.00    +0.143 C 
ATOM     34  C   UNL     1      -3.900  10.735  23.545  0.00  0.00    +0.133 C 
BRANCH  34  35
ATOM     35  N   UNL     1      -3.574  10.590  22.118  0.00  0.00    -0.308 N 
ATOM     36  H   UNL     1      -2.799   9.991  21.869  0.00  0.00    +0.149 HD
ATOM     37  C   UNL     1      -4.234  11.199  21.129  0.00  0.00    +0.210 C 
ATOM     38  C   UNL     1      -5.393  12.126  21.542  0.00  0.00    +0.109 C 
ATOM     39  O   UNL     1      -3.948  11.047  19.941  0.00  0.00    -0.276 OA
ENDBRANCH  34  35
BRANCH  31  40
ATOM     40  C   UNL     1      -2.034   9.382  26.454  0.00  0.00    +0.414 C 
ATOM     41  O   UNL     1      -0.953   9.969  26.481  0.00  0.00    -0.240 OA
ATOM     42  O   UNL     1      -2.052   8.151  26.478  0.00  0.00    -0.240 OA
ENDBRANCH  31  40
BRANCH  33  43
ATOM     43  O   UNL     1      -2.699  12.819  23.729  0.00  0.00    -0.390 OA
ATOM     44  H   UNL     1      -3.046  13.452  24.362  0.00  0.00    +0.210 HD
ENDBRANCH  33  43
BRANCH  31  45
ATOM     45  O   UNL     1      -3.880  10.359  27.731  0.00  0.00    -0.343 OA
ATOM     46  C   UNL     1      -3.821  11.716  28.239  0.00  0.00    +0.198 C 
ENDBRANCH  31  45
ENDBRANCH  28  29
BRANCH  28  47
ATOM     47  O   UNL     1      -4.756   8.042  22.232  0.00  0.00    -0.387 OA
ATOM     48  H   UNL     1      -3.867   7.683  22.272  0.00  0.00    +0.210 HD
ENDBRANCH  28  47
ENDBRANCH  25  28
ENDBRANCH   1  25
TORSDOF 15
