REMARK VINA RESULT:    -5.297      3.242      6.402
REMARK INTER + INTRA:         -11.567
REMARK INTER:                  -8.705
REMARK INTRA:                  -2.862
REMARK UNBOUND:                -1.779
REMARK  Name = lig_assembled_14.pdb
REMARK  18 active torsions:
REMARK  status: ('A' for Active; 'I' for Inactive)
REMARK    1  A    between atoms: _2  and  _10
REMARK    2  A    between atoms: _3  and  _11
REMARK    3  A    between atoms: _5  and  _19
REMARK    4  A    between atoms: _7  and  _8
REMARK    5  A    between atoms: _7  and  _19
REMARK    6  A    between atoms: _10  and  _11
REMARK    7  A    between atoms: _15  and  _35
REMARK    8  A    between atoms: _17  and  _23
REMARK    9  A    between atoms: _18  and  _22
REMARK   10  A    between atoms: _22  and  _23
REMARK   11  A    between atoms: _25  and  _26
REMARK   12  A    between atoms: _27  and  _28
REMARK   13  A    between atoms: _29  and  _31
REMARK   14  A    between atoms: _31  and  _32
REMARK   15  A    between atoms: _31  and  _33
REMARK   16  A    between atoms: _33  and  _34
REMARK   17  A    between atoms: _33  and  _35
REMARK   18  A    between atoms: _36  and  _38
REMARK                            x       y       z     vdW  Elec       q    Type
REMARK                         _______ _______ _______ _____ _____    ______ ____
ROOT
ATOM      1  C   UNL     1      -2.348   9.698  27.026  0.00  0.00    +0.163 C 
ENDROOT
BRANCH   1   2
ATOM      2  O   UNL     1      -1.188   9.926  26.209  0.00  0.00    -0.388 OA
ATOM      3  H   UNL     1      -0.847  10.808  26.375  0.00  0.00    +0.210 HD
ENDBRANCH   1   2
BRANCH   1   4
ATOM      4  C   UNL     1      -3.226   8.581  26.435  0.00  0.00    +0.175 C 
BRANCH   4   5
ATOM      5  C   UNL     1      -4.116   9.090  25.292  0.00  0.00    +0.176 C 
ATOM      6  O   UNL     1      -3.265   9.346  24.142  0.00  0.00    -0.332 OA
ATOM      7  C   UNL     1      -3.960   9.741  22.913  0.00  0.00    +0.277 C 
ATOM      8  C   UNL     1      -4.868  10.967  23.176  0.00  0.00    +0.110 C 
ATOM      9  C   UNL     1      -5.770  10.754  24.410  0.00  0.00    +0.143 C 
ATOM     10  C   UNL     1      -4.944  10.344  25.629  0.00  0.00    +0.133 C 
BRANCH  10  11
ATOM     11  N   UNL     1      -5.823  10.059  26.775  0.00  0.00    -0.308 N 
ATOM     12  H   UNL     1      -6.383   9.219  26.742  0.00  0.00    +0.149 HD
ATOM     13  C   UNL     1      -5.928  10.839  27.854  0.00  0.00    +0.210 C 
ATOM     14  C   UNL     1      -5.081  12.125  27.861  0.00  0.00    +0.109 C 
ATOM     15  O   UNL     1      -6.662  10.568  28.806  0.00  0.00    -0.276 OA
ENDBRANCH  10  11
BRANCH   7  16
ATOM     16  C   UNL     1      -4.813   8.576  22.369  0.00  0.00    +0.414 C 
ATOM     17  O   UNL     1      -5.908   8.797  21.852  0.00  0.00    -0.240 OA
ATOM     18  O   UNL     1      -4.406   7.416  22.446  0.00  0.00    -0.240 OA
ENDBRANCH   7  16
BRANCH   9  19
ATOM     19  O   UNL     1      -6.477  11.960  24.704  0.00  0.00    -0.390 OA
ATOM     20  H   UNL     1      -6.473  12.531  23.932  0.00  0.00    +0.210 HD
ENDBRANCH   9  19
BRANCH   7  21
ATOM     21  O   UNL     1      -2.960  10.114  21.931  0.00  0.00    -0.343 OA
ATOM     22  C   UNL     1      -3.021  11.494  21.489  0.00  0.00    +0.198 C 
ENDBRANCH   7  21
ENDBRANCH   4   5
BRANCH   4  23
ATOM     23  O   UNL     1      -4.036   7.987  27.469  0.00  0.00    -0.387 OA
ATOM     24  H   UNL     1      -3.611   7.187  27.789  0.00  0.00    +0.210 HD
ENDBRANCH   4  23
ENDBRANCH   1   4
BRANCH   1  25
ATOM     25  C   UNL     1      -1.923   9.318  28.440  0.00  0.00    +0.141 C 
BRANCH  25  28
ATOM     26  C   UNL     1      -3.458   9.515  30.366  0.00  0.00    +0.401 C 
ATOM     27  O   UNL     1      -3.667   8.302  30.444  0.00  0.00    -0.226 OA
ATOM     28  N   UNL     1      -2.662  10.077  29.456  0.00  0.00    -0.279 N 
ATOM     29  H   UNL     1      -2.561  11.083  29.467  0.00  0.00    +0.152 HD
BRANCH  26  30
ATOM     30  O   UNL     1      -4.101  10.391  31.295  0.00  0.00    -0.444 OA
BRANCH  30  31
ATOM     31  C   UNL     1      -3.173  10.774  32.313  0.00  0.00    +0.292 C 
BRANCH  31  33
ATOM     32  N   UNL     1      -1.711  12.770  32.289  0.00  0.00    -0.131 NA
ATOM     33  C   UNL     1      -2.972  12.234  32.305  0.00  0.00    +0.120 A 
ATOM     34  C   UNL     1      -3.895  13.256  32.324  0.00  0.00    +0.137 A 
ATOM     35  N   UNL     1      -3.133  14.384  32.332  0.00  0.00    -0.250 N 
ATOM     36  N   UNL     1      -1.822  14.090  32.302  0.00  0.00    -0.065 NA
BRANCH  35  37
ATOM     37  C   UNL     1      -3.571  15.760  32.422  0.00  0.00    +0.160 C 
BRANCH  37  38
ATOM     38  C   UNL     1      -5.093  15.868  32.562  0.00  0.00    +0.107 C 
BRANCH  38  39
ATOM     39  N   UNL     1      -5.729  16.553  31.423  0.00  0.00    -0.301 NA
ATOM     40  C   UNL     1      -4.784  17.342  30.626  0.00  0.00    +0.084 C 
ATOM     41  C   UNL     1      -5.555  17.579  29.343  0.00  0.00    +0.017 C 
ATOM     42  C   UNL     1      -6.295  16.273  29.119  0.00  0.00    +0.017 C 
ATOM     43  C   UNL     1      -6.343  15.598  30.487  0.00  0.00    +0.084 C 
ENDBRANCH  38  39
ENDBRANCH  37  38
ENDBRANCH  35  37
ENDBRANCH  31  33
ENDBRANCH  30  31
ENDBRANCH  26  30
ENDBRANCH  25  28
ENDBRANCH   1  25
TORSDOF 16
