REMARK VINA RESULT:    -4.257      4.980      7.063
REMARK INTER + INTRA:         -10.913
REMARK INTER:                  -8.146
REMARK INTRA:                  -2.767
REMARK UNBOUND:                -2.799
REMARK  Name = lig_assembled_55.pdb
REMARK  20 active torsions:
REMARK  status: ('A' for Active; 'I' for Inactive)
REMARK    1  A    between atoms: _2  and  _10
REMARK    2  A    between atoms: _3  and  _11
REMARK    3  A    between atoms: _3  and  _38
REMARK    4  A    between atoms: _5  and  _18
REMARK    5  A    between atoms: _6  and  _38
REMARK    6  A    between atoms: _7  and  _8
REMARK    7  A    between atoms: _7  and  _18
REMARK    8  A    between atoms: _10  and  _11
REMARK    9  A    between atoms: _14  and  _34
REMARK   10  A    between atoms: _16  and  _22
REMARK   11  A    between atoms: _17  and  _21
REMARK   12  A    between atoms: _21  and  _22
REMARK   13  A    between atoms: _24  and  _25
REMARK   14  A    between atoms: _26  and  _27
REMARK   15  A    between atoms: _28  and  _30
REMARK   16  A    between atoms: _30  and  _31
REMARK   17  A    between atoms: _30  and  _32
REMARK   18  A    between atoms: _32  and  _33
REMARK   19  A    between atoms: _32  and  _34
REMARK   20  A    between atoms: _35  and  _37
REMARK                            x       y       z     vdW  Elec       q    Type
REMARK                         _______ _______ _______ _____ _____    ______ ____
ROOT
ATOM      1  C   UNL     1      -5.046   7.230  23.877  0.00  0.00    +0.163 C 
ENDROOT
BRANCH   1   2
ATOM      2  O   UNL     1      -3.792   6.885  24.488  0.00  0.00    -0.388 OA
ATOM      3  H   UNL     1      -3.142   6.703  23.806  0.00  0.00    +0.210 HD
ENDBRANCH   1   2
BRANCH   1   4
ATOM      4  C   UNL     1      -5.088   8.725  23.515  0.00  0.00    +0.175 C 
BRANCH   4   5
ATOM      5  C   UNL     1      -3.988   9.523  24.229  0.00  0.00    +0.176 C 
ATOM      6  O   UNL     1      -4.308   9.558  25.647  0.00  0.00    -0.332 OA
ATOM      7  C   UNL     1      -3.306  10.193  26.508  0.00  0.00    +0.277 C 
ATOM      8  C   UNL     1      -2.992  11.624  26.007  0.00  0.00    +0.110 C 
ATOM      9  C   UNL     1      -2.676  11.643  24.497  0.00  0.00    +0.143 C 
ATOM     10  C   UNL     1      -3.782  10.954  23.697  0.00  0.00    +0.133 C 
BRANCH  10  11
ATOM     11  N   UNL     1      -3.428  10.901  22.269  0.00  0.00    -0.308 N 
ATOM     12  H   UNL     1      -2.629  10.343  22.002  0.00  0.00    +0.149 HD
ATOM     13  C   UNL     1      -4.094  11.541  21.305  0.00  0.00    +0.210 C 
ATOM     14  C   UNL     1      -5.291  12.404  21.748  0.00  0.00    +0.109 C 
ATOM     15  O   UNL     1      -3.784  11.467  20.115  0.00  0.00    -0.276 OA
ENDBRANCH  10  11
BRANCH   7  16
ATOM     16  C   UNL     1      -2.007   9.362  26.541  0.00  0.00    +0.414 C 
ATOM     17  O   UNL     1      -2.057   8.132  26.534  0.00  0.00    -0.240 OA
ATOM     18  O   UNL     1      -0.909   9.920  26.574  0.00  0.00    -0.240 OA
ENDBRANCH   7  16
BRANCH   7  19
ATOM     19  O   UNL     1      -3.859  10.288  27.846  0.00  0.00    -0.343 OA
ATOM     20  C   UNL     1      -4.048  11.639  28.336  0.00  0.00    +0.198 C 
ENDBRANCH   7  19
BRANCH   9  21
ATOM     21  O   UNL     1      -2.542  12.992  24.049  0.00  0.00    -0.390 OA
ATOM     22  H   UNL     1      -2.377  13.565  24.802  0.00  0.00    +0.210 HD
ENDBRANCH   9  21
ENDBRANCH   4   5
BRANCH   4  23
ATOM     23  O   UNL     1      -6.384   9.274  23.829  0.00  0.00    -0.387 OA
ATOM     24  H   UNL     1      -6.282  10.003  24.445  0.00  0.00    +0.210 HD
ENDBRANCH   4  23
ENDBRANCH   1   4
BRANCH   1  25
ATOM     25  C   UNL     1      -5.260   6.395  22.619  0.00  0.00    +0.141 C 
BRANCH  25  28
ATOM     26  C   UNL     1      -5.947   6.913  20.302  0.00  0.00    +0.401 C 
ATOM     27  O   UNL     1      -5.155   6.118  19.790  0.00  0.00    -0.226 OA
ATOM     28  N   UNL     1      -6.059   7.111  21.616  0.00  0.00    -0.279 N 
ATOM     29  H   UNL     1      -6.731   7.792  21.940  0.00  0.00    +0.152 HD
BRANCH  26  30
ATOM     30  O   UNL     1      -6.804   7.682  19.455  0.00  0.00    -0.444 OA
BRANCH  30  31
ATOM     31  C   UNL     1      -6.581   7.317  18.091  0.00  0.00    +0.292 C 
BRANCH  31  33
ATOM     32  N   UNL     1      -6.684   8.840  16.146  0.00  0.00    -0.131 NA
ATOM     33  C   UNL     1      -6.085   8.473  17.322  0.00  0.00    +0.120 A 
ATOM     34  C   UNL     1      -5.039   9.331  17.581  0.00  0.00    +0.137 A 
ATOM     35  N   UNL     1      -5.041  10.184  16.519  0.00  0.00    -0.250 N 
ATOM     36  N   UNL     1      -6.034   9.887  15.660  0.00  0.00    -0.065 NA
BRANCH  35  37
ATOM     37  C   UNL     1      -4.163  11.306  16.269  0.00  0.00    +0.162 C 
BRANCH  37  38
ATOM     38  C   UNL     1      -3.124  11.047  15.172  0.00  0.00    +0.129 C 
BRANCH  38  39
ATOM     39  N   UNL     1      -3.672  10.324  13.987  0.00  0.00    -0.193 NA
ATOM     40  H   UNL     1      -3.884  10.985  13.229  0.00  0.00    +0.148 HD
BRANCH  39  41
ATOM     41  S   UNL     1      -2.797   8.983  13.463  0.00  0.00    +0.027 S 
ATOM     42  O   UNL     1      -3.440   8.512  12.256  0.00  0.00    -0.158 OA
ATOM     43  O   UNL     1      -1.397   9.342  13.478  0.00  0.00    -0.158 OA
ATOM     44  C   UNL     1      -3.124   7.815  14.763  0.00  0.00    +0.214 C 
ENDBRANCH  39  41
ENDBRANCH  38  39
ENDBRANCH  37  38
ENDBRANCH  35  37
ENDBRANCH  31  33
ENDBRANCH  30  31
ENDBRANCH  26  30
ENDBRANCH  25  28
ENDBRANCH   1  25
TORSDOF 17
