REMARK VINA RESULT:    -4.945      3.166      7.514
REMARK INTER + INTRA:         -11.627
REMARK INTER:                  -8.916
REMARK INTRA:                  -2.712
REMARK UNBOUND:                -2.779
REMARK  Name = lig_assembled_39.pdb
REMARK  17 active torsions:
REMARK  status: ('A' for Active; 'I' for Inactive)
REMARK    1  A    between atoms: _2  and  _9
REMARK    2  A    between atoms: _4  and  _19
REMARK    3  A    between atoms: _6  and  _7
REMARK    4  A    between atoms: _6  and  _19
REMARK    5  A    between atoms: _9  and  _10
REMARK    6  A    between atoms: _15  and  _35
REMARK    7  A    between atoms: _17  and  _23
REMARK    8  A    between atoms: _18  and  _22
REMARK    9  A    between atoms: _22  and  _23
REMARK   10  A    between atoms: _25  and  _26
REMARK   11  A    between atoms: _27  and  _28
REMARK   12  A    between atoms: _29  and  _31
REMARK   13  A    between atoms: _31  and  _32
REMARK   14  A    between atoms: _31  and  _33
REMARK   15  A    between atoms: _33  and  _34
REMARK   16  A    between atoms: _33  and  _35
REMARK   17  A    between atoms: _36  and  _38
REMARK                            x       y       z     vdW  Elec       q    Type
REMARK                         _______ _______ _______ _____ _____    ______ ____
ROOT
ATOM      1  C   UNL     1      -1.923   9.329  27.311  0.00  0.00    +0.163 C 
ENDROOT
BRANCH   1   2
ATOM      2  O   UNL     1      -1.899   8.220  26.398  0.00  0.00    -0.388 OA
ATOM      3  H   UNL     1      -2.013   7.400  26.885  0.00  0.00    +0.210 HD
ENDBRANCH   1   2
BRANCH   1   4
ATOM      4  C   UNL     1      -2.474   8.881  28.661  0.00  0.00    +0.141 C 
BRANCH   4   7
ATOM      5  C   UNL     1      -3.808   9.900  30.474  0.00  0.00    +0.401 C 
ATOM      6  O   UNL     1      -4.309   8.832  30.833  0.00  0.00    -0.226 OA
ATOM      7  N   UNL     1      -2.945  10.016  29.464  0.00  0.00    -0.279 N 
ATOM      8  H   UNL     1      -2.596  10.937  29.238  0.00  0.00    +0.152 HD
BRANCH   5   9
ATOM      9  O   UNL     1      -4.163  11.101  31.165  0.00  0.00    -0.444 OA
BRANCH   9  10
ATOM     10  C   UNL     1      -3.000  11.915  31.335  0.00  0.00    +0.292 C 
BRANCH  10  12
ATOM     11  N   UNL     1      -2.440  14.316  31.559  0.00  0.00    -0.131 NA
ATOM     12  C   UNL     1      -3.384  13.322  31.550  0.00  0.00    +0.120 A 
ATOM     13  C   UNL     1      -4.629  13.880  31.741  0.00  0.00    +0.137 A 
ATOM     14  N   UNL     1      -4.382  15.221  31.777  0.00  0.00    -0.247 N 
ATOM     15  N   UNL     1      -3.061  15.475  31.729  0.00  0.00    -0.065 NA
BRANCH  14  16
ATOM     16  C   UNL     1      -5.349  16.309  31.784  0.00  0.00    +0.181 C 
BRANCH  16  17
ATOM     17  C   UNL     1      -5.517  16.971  30.428  0.00  0.00    -0.012 A 
ATOM     18  C   UNL     1      -4.764  18.110  30.078  0.00  0.00    +0.006 A 
ATOM     19  C   UNL     1      -4.912  18.732  28.836  0.00  0.00    +0.000 A 
ATOM     20  C   UNL     1      -5.835  18.245  27.921  0.00  0.00    +0.001 A 
ATOM     21  C   UNL     1      -6.625  17.147  28.256  0.00  0.00    +0.015 A 
ATOM     22  C   UNL     1      -6.477  16.521  29.502  0.00  0.00    +0.023 A 
ATOM     23 BR   UNL     1      -7.649  15.069  29.870  0.00  0.00    -0.050 Br
ENDBRANCH  16  17
ENDBRANCH  14  16
ENDBRANCH  10  12
ENDBRANCH   9  10
ENDBRANCH   5   9
ENDBRANCH   4   7
ENDBRANCH   1   4
BRANCH   1  24
ATOM     24  C   UNL     1      -2.784  10.478  26.760  0.00  0.00    +0.175 C 
BRANCH  24  25
ATOM     25  C   UNL     1      -3.807   9.987  25.724  0.00  0.00    +0.176 C 
ATOM     26  O   UNL     1      -3.165  10.005  24.420  0.00  0.00    -0.332 OA
ATOM     27  C   UNL     1      -3.963   9.465  23.314  0.00  0.00    +0.277 C 
ATOM     28  C   UNL     1      -5.332  10.183  23.233  0.00  0.00    +0.110 C 
ATOM     29  C   UNL     1      -6.038  10.218  24.605  0.00  0.00    +0.143 C 
ATOM     30  C   UNL     1      -5.118  10.794  25.682  0.00  0.00    +0.133 C 
BRANCH  30  31
ATOM     31  N   UNL     1      -5.771  10.742  26.999  0.00  0.00    -0.308 N 
ATOM     32  H   UNL     1      -6.028   9.835  27.362  0.00  0.00    +0.149 HD
ATOM     33  C   UNL     1      -6.045  11.814  27.747  0.00  0.00    +0.210 C 
ATOM     34  C   UNL     1      -5.664  13.184  27.154  0.00  0.00    +0.109 C 
ATOM     35  O   UNL     1      -6.579  11.739  28.854  0.00  0.00    -0.276 OA
ENDBRANCH  30  31
BRANCH  27  36
ATOM     36  C   UNL     1      -4.185   7.949  23.489  0.00  0.00    +0.414 C 
ATOM     37  O   UNL     1      -5.138   7.394  22.942  0.00  0.00    -0.240 OA
ATOM     38  O   UNL     1      -3.413   7.280  24.177  0.00  0.00    -0.240 OA
ENDBRANCH  27  36
BRANCH  27  39
ATOM     39  O   UNL     1      -3.243   9.713  22.079  0.00  0.00    -0.343 OA
ATOM     40  C   UNL     1      -3.600  10.943  21.398  0.00  0.00    +0.198 C 
ENDBRANCH  27  39
BRANCH  29  41
ATOM     41  O   UNL     1      -7.219  11.017  24.519  0.00  0.00    -0.390 OA
ATOM     42  H   UNL     1      -7.967  10.521  24.860  0.00  0.00    +0.210 HD
ENDBRANCH  29  41
ENDBRANCH  24  25
BRANCH  24  43
ATOM     43  O   UNL     1      -1.943  11.497  26.184  0.00  0.00    -0.387 OA
ATOM     44  H   UNL     1      -2.048  11.497  25.230  0.00  0.00    +0.210 HD
ENDBRANCH  24  43
ENDBRANCH   1  24
TORSDOF 15
