REMARK VINA RESULT:    -3.917      1.536      2.305
REMARK INTER + INTRA:         -11.217
REMARK INTER:                  -8.129
REMARK INTRA:                  -3.088
REMARK UNBOUND:                -3.979
REMARK  Name = lig_assembled_24.pdb
REMARK  19 active torsions:
REMARK  status: ('A' for Active; 'I' for Inactive)
REMARK    1  A    between atoms: _2  and  _9
REMARK    2  A    between atoms: _4  and  _21
REMARK    3  A    between atoms: _6  and  _7
REMARK    4  A    between atoms: _6  and  _21
REMARK    5  A    between atoms: _9  and  _10
REMARK    6  A    between atoms: _13  and  _16
REMARK    7  A    between atoms: _14  and  _16
REMARK    8  A    between atoms: _17  and  _37
REMARK    9  A    between atoms: _19  and  _25
REMARK   10  A    between atoms: _20  and  _24
REMARK   11  A    between atoms: _24  and  _25
REMARK   12  A    between atoms: _27  and  _28
REMARK   13  A    between atoms: _29  and  _30
REMARK   14  A    between atoms: _31  and  _33
REMARK   15  A    between atoms: _33  and  _34
REMARK   16  A    between atoms: _33  and  _35
REMARK   17  A    between atoms: _35  and  _36
REMARK   18  A    between atoms: _35  and  _37
REMARK   19  A    between atoms: _38  and  _40
REMARK                            x       y       z     vdW  Elec       q    Type
REMARK                         _______ _______ _______ _____ _____    ______ ____
ROOT
ATOM      1  C   UNL     1      -6.234   8.368  24.418  0.00  0.00    +0.163 C 
ENDROOT
BRANCH   1   2
ATOM      2  O   UNL     1      -6.162   8.888  25.756  0.00  0.00    -0.388 OA
ATOM      3  H   UNL     1      -5.573   9.647  25.773  0.00  0.00    +0.210 HD
ENDBRANCH   1   2
BRANCH   1   4
ATOM      4  C   UNL     1      -6.336   9.508  23.390  0.00  0.00    +0.175 C 
BRANCH   4   5
ATOM      5  C   UNL     1      -5.172  10.503  23.513  0.00  0.00    +0.176 C 
ATOM      6  O   UNL     1      -5.488  11.429  24.589  0.00  0.00    -0.332 OA
ATOM      7  C   UNL     1      -4.437  12.394  24.924  0.00  0.00    +0.277 C 
ATOM      8  C   UNL     1      -4.005  13.184  23.664  0.00  0.00    +0.110 C 
ATOM      9  C   UNL     1      -3.689  12.242  22.483  0.00  0.00    +0.143 C 
ATOM     10  C   UNL     1      -4.848  11.279  22.223  0.00  0.00    +0.133 C 
BRANCH  10  11
ATOM     11  N   UNL     1      -4.500  10.331  21.153  0.00  0.00    -0.308 N 
ATOM     12  H   UNL     1      -3.714   9.715  21.306  0.00  0.00    +0.149 HD
ATOM     13  C   UNL     1      -5.156  10.230  19.994  0.00  0.00    +0.210 C 
ATOM     14  C   UNL     1      -6.334  11.200  19.782  0.00  0.00    +0.109 C 
ATOM     15  O   UNL     1      -4.852   9.416  19.122  0.00  0.00    -0.276 OA
ENDBRANCH  10  11
BRANCH   7  16
ATOM     16  C   UNL     1      -3.211  11.679  25.530  0.00  0.00    +0.414 C 
ATOM     17  O   UNL     1      -2.077  12.111  25.325  0.00  0.00    -0.240 OA
ATOM     18  O   UNL     1      -3.356  10.671  26.223  0.00  0.00    -0.240 OA
ENDBRANCH   7  16
BRANCH   7  19
ATOM     19  O   UNL     1      -4.980  13.333  25.888  0.00  0.00    -0.343 OA
ATOM     20  C   UNL     1      -6.148  12.865  26.607  0.00  0.00    +0.198 C 
ENDBRANCH   7  19
BRANCH   9  21
ATOM     21  O   UNL     1      -3.444  13.012  21.305  0.00  0.00    -0.390 OA
ATOM     22  H   UNL     1      -4.264  13.126  20.820  0.00  0.00    +0.210 HD
ENDBRANCH   9  21
ENDBRANCH   4   5
BRANCH   4  23
ATOM     23  O   UNL     1      -7.594  10.196  23.533  0.00  0.00    -0.387 OA
ATOM     24  H   UNL     1      -8.315   9.578  23.389  0.00  0.00    +0.210 HD
ENDBRANCH   4  23
ENDBRANCH   1   4
BRANCH   1  25
ATOM     25  C   UNL     1      -5.001   7.522  24.119  0.00  0.00    +0.141 C 
BRANCH  25  28
ATOM     26  C   UNL     1      -2.878   6.968  25.255  0.00  0.00    +0.401 C 
ATOM     27  O   UNL     1      -2.735   5.894  24.668  0.00  0.00    -0.226 OA
ATOM     28  N   UNL     1      -3.911   7.790  25.065  0.00  0.00    -0.279 N 
ATOM     29  H   UNL     1      -3.945   8.646  25.601  0.00  0.00    +0.152 HD
BRANCH  26  30
ATOM     30  O   UNL     1      -1.891   7.377  26.206  0.00  0.00    -0.444 OA
BRANCH  30  31
ATOM     31  C   UNL     1      -2.143   6.739  27.461  0.00  0.00    +0.292 C 
BRANCH  31  33
ATOM     32  N   UNL     1      -4.277   7.864  28.015  0.00  0.00    -0.131 NA
ATOM     33  C   UNL     1      -2.968   7.607  28.322  0.00  0.00    +0.120 A 
ATOM     34  C   UNL     1      -2.645   8.252  29.494  0.00  0.00    +0.137 A 
ATOM     35  N   UNL     1      -3.816   8.828  29.892  0.00  0.00    -0.247 N 
ATOM     36  N   UNL     1      -4.785   8.621  28.976  0.00  0.00    -0.065 NA
BRANCH  35  37
ATOM     37  C   UNL     1      -4.159   9.538  31.114  0.00  0.00    +0.180 C 
BRANCH  37  38
ATOM     38  C   UNL     1      -3.803  11.006  31.114  0.00  0.00    -0.026 A 
ATOM     39  C   UNL     1      -4.377  11.876  30.179  0.00  0.00    +0.009 A 
ATOM     40  C   UNL     1      -4.044  13.234  30.186  0.00  0.00    +0.046 A 
ATOM     41  C   UNL     1      -3.152  13.743  31.133  0.00  0.00    +0.120 A 
ATOM     42  C   UNL     1      -2.560  12.878  32.049  0.00  0.00    +0.046 A 
ATOM     43  C   UNL     1      -2.883  11.516  32.042  0.00  0.00    +0.009 A 
BRANCH  41  44
ATOM     44  O   UNL     1      -2.889  15.081  31.029  0.00  0.00    -0.495 OA
ATOM     45  C   UNL     1      -4.021  15.938  31.133  0.00  0.00    +0.277 C 
ENDBRANCH  41  44
ENDBRANCH  37  38
ENDBRANCH  35  37
ENDBRANCH  31  33
ENDBRANCH  30  31
ENDBRANCH  26  30
ENDBRANCH  25  28
ENDBRANCH   1  25
TORSDOF 16
