REMARK VINA RESULT:    -4.267      2.245      3.795
REMARK INTER + INTRA:         -11.415
REMARK INTER:                  -7.824
REMARK INTRA:                  -3.591
REMARK UNBOUND:                -3.657
REMARK  Name = lig_assembled_88.pdb
REMARK  18 active torsions:
REMARK  status: ('A' for Active; 'I' for Inactive)
REMARK    1  A    between atoms: _2  and  _9
REMARK    2  A    between atoms: _4  and  _20
REMARK    3  A    between atoms: _5  and  _15
REMARK    4  A    between atoms: _6  and  _7
REMARK    5  A    between atoms: _6  and  _20
REMARK    6  A    between atoms: _9  and  _10
REMARK    7  A    between atoms: _16  and  _36
REMARK    8  A    between atoms: _18  and  _24
REMARK    9  A    between atoms: _19  and  _23
REMARK   10  A    between atoms: _23  and  _24
REMARK   11  A    between atoms: _26  and  _27
REMARK   12  A    between atoms: _28  and  _29
REMARK   13  A    between atoms: _30  and  _32
REMARK   14  A    between atoms: _32  and  _33
REMARK   15  A    between atoms: _32  and  _34
REMARK   16  A    between atoms: _34  and  _35
REMARK   17  A    between atoms: _34  and  _36
REMARK   18  A    between atoms: _37  and  _39
REMARK                            x       y       z     vdW  Elec       q    Type
REMARK                         _______ _______ _______ _____ _____    ______ ____
ROOT
ATOM      1  C   UNL     1      -2.930  11.723  24.747  0.00  0.00    +0.163 C 
ENDROOT
BRANCH   1   2
ATOM      2  O   UNL     1      -3.017  11.652  26.180  0.00  0.00    -0.388 OA
ATOM      3  H   UNL     1      -2.744  12.490  26.559  0.00  0.00    +0.210 HD
ENDBRANCH   1   2
BRANCH   1   4
ATOM      4  C   UNL     1      -3.944  10.774  24.086  0.00  0.00    +0.175 C 
BRANCH   4   5
ATOM      5  C   UNL     1      -4.251   9.553  24.966  0.00  0.00    +0.176 C 
ATOM      6  O   UNL     1      -2.985   8.965  25.372  0.00  0.00    -0.332 OA
ATOM      7  C   UNL     1      -3.079   7.842  26.310  0.00  0.00    +0.277 C 
ATOM      8  C   UNL     1      -4.009   6.741  25.744  0.00  0.00    +0.110 C 
ATOM      9  C   UNL     1      -5.357   7.323  25.269  0.00  0.00    +0.143 C 
ATOM     10  C   UNL     1      -5.141   8.487  24.300  0.00  0.00    +0.133 C 
BRANCH  10  11
ATOM     11  N   UNL     1      -6.430   9.089  23.923  0.00  0.00    -0.308 N 
ATOM     12  H   UNL     1      -6.931   9.611  24.628  0.00  0.00    +0.149 HD
ATOM     13  C   UNL     1      -6.981   8.990  22.710  0.00  0.00    +0.210 C 
ATOM     14  C   UNL     1      -6.205   8.165  21.666  0.00  0.00    +0.109 C 
ATOM     15  O   UNL     1      -8.055   9.517  22.418  0.00  0.00    -0.276 OA
ENDBRANCH  10  11
BRANCH   7  16
ATOM     16  C   UNL     1      -3.613   8.315  27.678  0.00  0.00    +0.414 C 
ATOM     17  O   UNL     1      -4.233   7.538  28.403  0.00  0.00    -0.240 OA
ATOM     18  O   UNL     1      -3.423   9.471  28.056  0.00  0.00    -0.240 OA
ENDBRANCH   7  16
BRANCH   7  19
ATOM     19  O   UNL     1      -1.751   7.279  26.472  0.00  0.00    -0.343 OA
ATOM     20  C   UNL     1      -1.683   5.834  26.380  0.00  0.00    +0.198 C 
ENDBRANCH   7  19
BRANCH   9  21
ATOM     21  O   UNL     1      -6.120   6.305  24.619  0.00  0.00    -0.390 OA
ATOM     22  H   UNL     1      -6.961   6.199  25.068  0.00  0.00    +0.210 HD
ENDBRANCH   9  21
ENDBRANCH   4   5
BRANCH   4  23
ATOM     23  O   UNL     1      -3.460  10.348  22.797  0.00  0.00    -0.387 OA
ATOM     24  H   UNL     1      -3.012   9.504  22.886  0.00  0.00    +0.210 HD
ENDBRANCH   4  23
ENDBRANCH   1   4
BRANCH   1  25
ATOM     25  C   UNL     1      -3.188  13.151  24.279  0.00  0.00    +0.141 C 
BRANCH  25  28
ATOM     26  C   UNL     1      -4.922  14.134  22.819  0.00  0.00    +0.401 C 
ATOM     27  O   UNL     1      -5.171  15.068  23.584  0.00  0.00    -0.226 OA
ATOM     28  N   UNL     1      -4.015  13.188  23.066  0.00  0.00    -0.279 N 
ATOM     29  H   UNL     1      -3.889  12.456  22.381  0.00  0.00    +0.152 HD
BRANCH  26  30
ATOM     30  O   UNL     1      -5.641  14.035  21.587  0.00  0.00    -0.444 OA
BRANCH  30  31
ATOM     31  C   UNL     1      -6.503  12.894  21.626  0.00  0.00    +0.292 C 
BRANCH  31  33
ATOM     32  N   UNL     1      -4.789  11.438  20.591  0.00  0.00    -0.131 NA
ATOM     33  C   UNL     1      -6.081  11.893  20.629  0.00  0.00    +0.120 A 
ATOM     34  C   UNL     1      -6.803  11.285  19.625  0.00  0.00    +0.137 A 
ATOM     35  N   UNL     1      -5.875  10.531  18.968  0.00  0.00    -0.247 N 
ATOM     36  N   UNL     1      -4.678  10.586  19.581  0.00  0.00    -0.065 NA
BRANCH  35  37
ATOM     37  C   UNL     1      -6.035   9.798  17.721  0.00  0.00    +0.184 C 
BRANCH  37  38
ATOM     38  C   UNL     1      -4.999  10.162  16.677  0.00  0.00    +0.017 A 
ATOM     39  C   UNL     1      -4.931  11.443  16.094  0.00  0.00    +0.024 A 
ATOM     40  C   UNL     1      -3.962  11.744  15.133  0.00  0.00    +0.019 A 
ATOM     41 BR   UNL     1      -3.935  13.459  14.337  0.00  0.00    -0.050 Br
ATOM     42  C   UNL     1      -3.019  10.795  14.751  0.00  0.00    +0.034 A 
ATOM     43  C   UNL     1      -3.044   9.539  15.352  0.00  0.00    +0.061 A 
ATOM     44 BR   UNL     1      -1.734   8.262  14.856  0.00  0.00    -0.046 Br
ATOM     45  C   UNL     1      -4.021   9.228  16.309  0.00  0.00    +0.136 A 
BRANCH  45  46
ATOM     46  O   UNL     1      -4.044   8.001  16.917  0.00  0.00    -0.505 OA
ATOM     47  H   UNL     1      -3.121   7.695  16.998  0.00  0.00    +0.292 HD
ENDBRANCH  45  46
ENDBRANCH  37  38
ENDBRANCH  35  37
ENDBRANCH  31  33
ENDBRANCH  30  31
ENDBRANCH  26  30
ENDBRANCH  25  28
ENDBRANCH   1  25
TORSDOF 16
