REMARK VINA RESULT:    -5.143      3.553      7.534
REMARK INTER + INTRA:         -11.982
REMARK INTER:                  -8.346
REMARK INTRA:                  -3.636
REMARK UNBOUND:                -2.779
REMARK  Name = lig_assembled_39.pdb
REMARK  17 active torsions:
REMARK  status: ('A' for Active; 'I' for Inactive)
REMARK    1  A    between atoms: _2  and  _9
REMARK    2  A    between atoms: _4  and  _19
REMARK    3  A    between atoms: _6  and  _7
REMARK    4  A    between atoms: _6  and  _19
REMARK    5  A    between atoms: _9  and  _10
REMARK    6  A    between atoms: _15  and  _35
REMARK    7  A    between atoms: _17  and  _23
REMARK    8  A    between atoms: _18  and  _22
REMARK    9  A    between atoms: _22  and  _23
REMARK   10  A    between atoms: _25  and  _26
REMARK   11  A    between atoms: _27  and  _28
REMARK   12  A    between atoms: _29  and  _31
REMARK   13  A    between atoms: _31  and  _32
REMARK   14  A    between atoms: _31  and  _33
REMARK   15  A    between atoms: _33  and  _34
REMARK   16  A    between atoms: _33  and  _35
REMARK   17  A    between atoms: _36  and  _38
REMARK                            x       y       z     vdW  Elec       q    Type
REMARK                         _______ _______ _______ _____ _____    ______ ____
ROOT
ATOM      1  C   UNL     1      -3.376  11.401  22.401  0.00  0.00    +0.163 C 
ENDROOT
BRANCH   1   2
ATOM      2  O   UNL     1      -2.935  12.183  23.523  0.00  0.00    -0.388 OA
ATOM      3  H   UNL     1      -2.849  11.618  24.294  0.00  0.00    +0.210 HD
ENDBRANCH   1   2
BRANCH   1   4
ATOM      4  C   UNL     1      -4.352  12.210  21.552  0.00  0.00    +0.141 C 
BRANCH   4   7
ATOM      5  C   UNL     1      -6.187  13.830  21.890  0.00  0.00    +0.401 C 
ATOM      6  O   UNL     1      -6.544  13.815  20.710  0.00  0.00    -0.226 OA
ATOM      7  N   UNL     1      -5.168  13.116  22.370  0.00  0.00    -0.279 N 
ATOM      8  H   UNL     1      -4.946  13.202  23.352  0.00  0.00    +0.152 HD
BRANCH   5   9
ATOM      9  O   UNL     1      -6.891  14.660  22.818  0.00  0.00    -0.444 OA
BRANCH   9  10
ATOM     10  C   UNL     1      -5.962  15.252  23.730  0.00  0.00    +0.292 C 
BRANCH  10  12
ATOM     11  N   UNL     1      -4.909  13.578  25.219  0.00  0.00    -0.131 NA
ATOM     12  C   UNL     1      -5.913  14.482  24.986  0.00  0.00    +0.120 A 
ATOM     13  C   UNL     1      -6.751  14.517  26.078  0.00  0.00    +0.137 A 
ATOM     14  N   UNL     1      -6.157  13.674  26.971  0.00  0.00    -0.247 N 
ATOM     15  N   UNL     1      -5.085  13.066  26.429  0.00  0.00    -0.065 NA
BRANCH  14  16
ATOM     16  C   UNL     1      -6.510  13.455  28.366  0.00  0.00    +0.181 C 
BRANCH  16  17
ATOM     17  C   UNL     1      -5.625  14.218  29.335  0.00  0.00    -0.012 A 
ATOM     18  C   UNL     1      -5.838  15.588  29.590  0.00  0.00    +0.006 A 
ATOM     19  C   UNL     1      -5.028  16.304  30.475  0.00  0.00    +0.000 A 
ATOM     20  C   UNL     1      -3.967  15.672  31.110  0.00  0.00    +0.001 A 
ATOM     21  C   UNL     1      -3.705  14.330  30.846  0.00  0.00    +0.015 A 
ATOM     22  C   UNL     1      -4.518  13.610  29.958  0.00  0.00    +0.023 A 
ATOM     23 BR   UNL     1      -4.028  11.802  29.630  0.00  0.00    -0.050 Br
ENDBRANCH  16  17
ENDBRANCH  14  16
ENDBRANCH  10  12
ENDBRANCH   9  10
ENDBRANCH   5   9
ENDBRANCH   4   7
ENDBRANCH   1   4
BRANCH   1  24
ATOM     24  C   UNL     1      -4.057  10.103  22.869  0.00  0.00    +0.175 C 
BRANCH  24  25
ATOM     25  C   UNL     1      -4.003   9.940  24.395  0.00  0.00    +0.176 C 
ATOM     26  O   UNL     1      -3.123   8.822  24.695  0.00  0.00    -0.332 OA
ATOM     27  C   UNL     1      -2.866   8.581  26.118  0.00  0.00    +0.277 C 
ATOM     28  C   UNL     1      -4.199   8.420  26.889  0.00  0.00    +0.110 C 
ATOM     29  C   UNL     1      -5.180   9.570  26.578  0.00  0.00    +0.143 C 
ATOM     30  C   UNL     1      -5.372   9.734  25.070  0.00  0.00    +0.133 C 
BRANCH  30  31
ATOM     31  N   UNL     1      -6.240  10.887  24.783  0.00  0.00    -0.308 N 
ATOM     32  H   UNL     1      -5.902  11.806  25.035  0.00  0.00    +0.149 HD
ATOM     33  C   UNL     1      -7.444  10.800  24.212  0.00  0.00    +0.210 C 
ATOM     34  C   UNL     1      -7.941   9.384  23.864  0.00  0.00    +0.109 C 
ATOM     35  O   UNL     1      -8.143  11.785  23.971  0.00  0.00    -0.276 OA
ENDBRANCH  30  31
BRANCH  27  36
ATOM     36  C   UNL     1      -2.053   9.741  26.730  0.00  0.00    +0.414 C 
ATOM     37  O   UNL     1      -1.724   9.709  27.915  0.00  0.00    -0.240 OA
ATOM     38  O   UNL     1      -1.726  10.707  26.039  0.00  0.00    -0.240 OA
ENDBRANCH  27  36
BRANCH  27  39
ATOM     39  O   UNL     1      -2.117   7.344  26.236  0.00  0.00    -0.343 OA
ATOM     40  C   UNL     1      -2.838   6.152  25.835  0.00  0.00    +0.198 C 
ENDBRANCH  27  39
BRANCH  29  41
ATOM     41  O   UNL     1      -6.443   9.304  27.187  0.00  0.00    -0.390 OA
ATOM     42  H   UNL     1      -7.116   9.860  26.787  0.00  0.00    +0.210 HD
ENDBRANCH  29  41
ENDBRANCH  24  25
BRANCH  24  43
ATOM     43  O   UNL     1      -3.449   8.965  22.226  0.00  0.00    -0.387 OA
ATOM     44  H   UNL     1      -3.547   8.191  22.786  0.00  0.00    +0.210 HD
ENDBRANCH  24  43
ENDBRANCH   1  24
TORSDOF 15
