REMARK VINA RESULT:    -4.019      2.169      7.474
REMARK INTER + INTRA:         -12.768
REMARK INTER:                  -8.997
REMARK INTRA:                  -3.771
REMARK UNBOUND:                -4.638
REMARK  Name = lig_assembled_11.pdb
REMARK  22 active torsions:
REMARK  status: ('A' for Active; 'I' for Inactive)
REMARK    1  A    between atoms: _2  and  _9
REMARK    2  A    between atoms: _4  and  _21
REMARK    3  A    between atoms: _5  and  _9
REMARK    4  A    between atoms: _5  and  _13
REMARK    5  A    between atoms: _6  and  _7
REMARK    6  A    between atoms: _6  and  _21
REMARK    7  A    between atoms: _9  and  _10
REMARK    8  A    between atoms: _10  and  _11
REMARK    9  A    between atoms: _11  and  _12
REMARK   10  A    between atoms: _12  and  _15
REMARK   11  A    between atoms: _17  and  _37
REMARK   12  A    between atoms: _19  and  _25
REMARK   13  A    between atoms: _20  and  _24
REMARK   14  A    between atoms: _24  and  _25
REMARK   15  A    between atoms: _27  and  _28
REMARK   16  A    between atoms: _29  and  _30
REMARK   17  A    between atoms: _31  and  _33
REMARK   18  A    between atoms: _33  and  _34
REMARK   19  A    between atoms: _33  and  _35
REMARK   20  A    between atoms: _35  and  _36
REMARK   21  A    between atoms: _35  and  _37
REMARK   22  A    between atoms: _38  and  _40
REMARK                            x       y       z     vdW  Elec       q    Type
REMARK                         _______ _______ _______ _____ _____    ______ ____
ROOT
ATOM      1  C   UNL     1      -3.992   8.787  31.148  0.00  0.00    +0.163 C 
ENDROOT
BRANCH   1   2
ATOM      2  O   UNL     1      -2.903   9.529  31.720  0.00  0.00    -0.388 OA
ATOM      3  H   UNL     1      -2.086   9.037  31.609  0.00  0.00    +0.210 HD
ENDBRANCH   1   2
BRANCH   1   4
ATOM      4  C   UNL     1      -5.096   9.731  30.641  0.00  0.00    +0.175 C 
BRANCH   4   5
ATOM      5  C   UNL     1      -4.642  11.198  30.633  0.00  0.00    +0.176 C 
ATOM      6  O   UNL     1      -4.754  11.708  31.990  0.00  0.00    -0.332 OA
ATOM      7  C   UNL     1      -4.261  13.073  32.197  0.00  0.00    +0.277 C 
ATOM      8  C   UNL     1      -4.947  14.051  31.212  0.00  0.00    +0.110 C 
ATOM      9  C   UNL     1      -4.882  13.536  29.759  0.00  0.00    +0.143 C 
ATOM     10  C   UNL     1      -5.416  12.106  29.660  0.00  0.00    +0.133 C 
BRANCH  10  11
ATOM     11  N   UNL     1      -5.268  11.595  28.288  0.00  0.00    -0.308 N 
ATOM     12  H   UNL     1      -4.340  11.576  27.889  0.00  0.00    +0.149 HD
ATOM     13  C   UNL     1      -6.280  11.155  27.535  0.00  0.00    +0.210 C 
ATOM     14  C   UNL     1      -7.685  11.222  28.162  0.00  0.00    +0.109 C 
ATOM     15  O   UNL     1      -6.124  10.719  26.394  0.00  0.00    -0.276 OA
ENDBRANCH  10  11
BRANCH   7  16
ATOM     16  C   UNL     1      -2.732  13.137  32.006  0.00  0.00    +0.414 C 
ATOM     17  O   UNL     1      -2.021  12.204  32.376  0.00  0.00    -0.240 OA
ATOM     18  O   UNL     1      -2.209  14.121  31.481  0.00  0.00    -0.240 OA
ENDBRANCH   7  16
BRANCH   7  19
ATOM     19  O   UNL     1      -4.601  13.473  33.550  0.00  0.00    -0.343 OA
ATOM     20  C   UNL     1      -4.681  14.905  33.763  0.00  0.00    +0.198 C 
ENDBRANCH   7  19
BRANCH   9  21
ATOM     21  O   UNL     1      -5.653  14.387  28.911  0.00  0.00    -0.390 OA
ATOM     22  H   UNL     1      -5.126  15.147  28.654  0.00  0.00    +0.210 HD
ENDBRANCH   9  21
ENDBRANCH   4   5
BRANCH   4  23
ATOM     23  O   UNL     1      -6.283   9.582  31.445  0.00  0.00    -0.387 OA
ATOM     24  H   UNL     1      -6.700  10.440  31.562  0.00  0.00    +0.210 HD
ENDBRANCH   4  23
ENDBRANCH   1   4
BRANCH   1  25
ATOM     25  C   UNL     1      -3.488   7.927  29.994  0.00  0.00    +0.141 C 
BRANCH  25  28
ATOM     26  C   UNL     1      -1.977   8.174  28.054  0.00  0.00    +0.401 C 
ATOM     27  O   UNL     1      -1.838   6.960  27.888  0.00  0.00    -0.226 OA
ATOM     28  N   UNL     1      -2.725   8.714  29.017  0.00  0.00    -0.279 N 
ATOM     29  H   UNL     1      -2.769   9.721  29.078  0.00  0.00    +0.152 HD
BRANCH  26  30
ATOM     30  O   UNL     1      -1.302   9.077  27.174  0.00  0.00    -0.444 OA
BRANCH  30  31
ATOM     31  C   UNL     1      -1.957  10.348  27.200  0.00  0.00    +0.292 C 
BRANCH  31  33
ATOM     32  N   UNL     1      -3.036   9.621  25.094  0.00  0.00    -0.131 NA
ATOM     33  C   UNL     1      -2.582  10.633  25.895  0.00  0.00    +0.120 A 
ATOM     34  C   UNL     1      -2.825  11.837  25.276  0.00  0.00    +0.138 A 
ATOM     35  N   UNL     1      -3.388  11.495  24.080  0.00  0.00    -0.238 N 
ATOM     36  N   UNL     1      -3.540  10.159  23.992  0.00  0.00    -0.065 NA
BRANCH  35  37
ATOM     37  C   UNL     1      -3.945  12.332  23.023  0.00  0.00    +0.217 C 
BRANCH  37  38
ATOM     38  C   UNL     1      -3.337  12.074  21.652  0.00  0.00    +0.330 C 
ATOM     39  O   UNL     1      -3.089  12.922  20.809  0.00  0.00    -0.249 OA
BRANCH  38  40
ATOM     40  O   UNL     1      -3.078  10.766  21.401  0.00  0.00    -0.479 OA
ATOM     41  H   UNL     1      -2.350  10.351  21.903  0.00  0.00    +0.295 HD
ENDBRANCH  38  40
ENDBRANCH  37  38
BRANCH  37  42
ATOM     42  C   UNL     1      -3.933  13.823  23.406  0.00  0.00    +0.049 C 
BRANCH  42  43
ATOM     43  C   UNL     1      -5.319  14.455  23.584  0.00  0.00    +0.123 C 
BRANCH  43  44
ATOM     44  C   UNL     1      -6.118  13.720  24.636  0.00  0.00    +0.305 C 
ATOM     45  O   UNL     1      -7.167  13.133  24.429  0.00  0.00    -0.251 OA
BRANCH  44  46
ATOM     46  O   UNL     1      -5.557  13.797  25.863  0.00  0.00    -0.481 OA
ATOM     47  H   UNL     1      -6.018  13.282  26.553  0.00  0.00    +0.295 HD
ENDBRANCH  44  46
ENDBRANCH  43  44
ENDBRANCH  42  43
ENDBRANCH  37  42
ENDBRANCH  35  37
ENDBRANCH  31  33
ENDBRANCH  30  31
ENDBRANCH  26  30
ENDBRANCH  25  28
ENDBRANCH   1  25
TORSDOF 20
