REMARK VINA RESULT:    -5.329      3.289     11.626
REMARK INTER + INTRA:         -12.455
REMARK INTER:                 -10.023
REMARK INTRA:                  -2.433
REMARK UNBOUND:                -2.453
REMARK  Name = lig_assembled_75.pdb
REMARK  19 active torsions:
REMARK  status: ('A' for Active; 'I' for Inactive)
REMARK    1  A    between atoms: _2  and  _9
REMARK    2  A    between atoms: _4  and  _23
REMARK    3  A    between atoms: _6  and  _7
REMARK    4  A    between atoms: _6  and  _23
REMARK    5  A    between atoms: _11  and  _12
REMARK    6  A    between atoms: _13  and  _14
REMARK    7  A    between atoms: _14  and  _17
REMARK    8  A    between atoms: _19  and  _39
REMARK    9  A    between atoms: _21  and  _27
REMARK   10  A    between atoms: _22  and  _26
REMARK   11  A    between atoms: _26  and  _27
REMARK   12  A    between atoms: _29  and  _30
REMARK   13  A    between atoms: _31  and  _32
REMARK   14  A    between atoms: _33  and  _35
REMARK   15  A    between atoms: _35  and  _36
REMARK   16  A    between atoms: _35  and  _37
REMARK   17  A    between atoms: _37  and  _38
REMARK   18  A    between atoms: _37  and  _39
REMARK   19  A    between atoms: _40  and  _42
REMARK                            x       y       z     vdW  Elec       q    Type
REMARK                         _______ _______ _______ _____ _____    ______ ____
ROOT
ATOM      1  C   UNL     1      -6.500  10.505  18.016  0.00  0.00    +0.141 C 
ENDROOT
BRANCH   1   4
ATOM      2  C   UNL     1      -4.826  10.804  19.809  0.00  0.00    +0.401 C 
ATOM      3  O   UNL     1      -4.720  12.020  19.636  0.00  0.00    -0.226 OA
ATOM      4  N   UNL     1      -5.630  10.017  19.093  0.00  0.00    -0.279 N 
ATOM      5  H   UNL     1      -5.640   9.029  19.303  0.00  0.00    +0.152 HD
BRANCH   2   6
ATOM      6  O   UNL     1      -4.047  10.177  20.831  0.00  0.00    -0.444 OA
BRANCH   6   7
ATOM      7  C   UNL     1      -3.189  11.146  21.439  0.00  0.00    +0.292 C 
BRANCH   7   9
ATOM      8  N   UNL     1      -2.954  10.143  23.687  0.00  0.00    -0.131 NA
ATOM      9  C   UNL     1      -3.392  11.168  22.900  0.00  0.00    +0.121 A 
ATOM     10  C   UNL     1      -4.000  12.116  23.690  0.00  0.00    +0.143 A 
ATOM     11  N   UNL     1      -3.911  11.622  24.970  0.00  0.00    -0.220 N 
ATOM     12  N   UNL     1      -3.275  10.424  24.943  0.00  0.00    -0.060 NA
BRANCH  11  13
ATOM     13  C   UNL     1      -4.402  12.183  26.178  0.00  0.00    +0.068 A 
ATOM     14  C   UNL     1      -3.793  11.833  27.396  0.00  0.00    +0.035 A 
ATOM     15  C   UNL     1      -4.294  12.316  28.613  0.00  0.00    -0.023 A 
ATOM     16  C   UNL     1      -5.374  13.207  28.590  0.00  0.00    +0.008 A 
ATOM     17  C   UNL     1      -5.968  13.576  27.381  0.00  0.00    +0.003 A 
ATOM     18  C   UNL     1      -5.491  13.060  26.177  0.00  0.00    +0.028 A 
BRANCH  15  19
ATOM     19  C   UNL     1      -3.714  11.939  29.912  0.00  0.00    +0.015 C 
ATOM     20  C   UNL     1      -3.267  10.705  30.199  0.00  0.00    +0.092 C 
BRANCH  20  21
ATOM     21  C   UNL     1      -2.751  10.411  31.549  0.00  0.00    +0.330 C 
ATOM     22  O   UNL     1      -2.974   9.386  32.169  0.00  0.00    -0.246 OA
BRANCH  21  23
ATOM     23  O   UNL     1      -1.982  11.411  32.024  0.00  0.00    -0.478 OA
ATOM     24  H   UNL     1      -1.986  11.523  32.991  0.00  0.00    +0.295 HD
ENDBRANCH  21  23
ENDBRANCH  20  21
ENDBRANCH  15  19
ENDBRANCH  11  13
ENDBRANCH   7   9
ENDBRANCH   6   7
ENDBRANCH   2   6
ENDBRANCH   1   4
BRANCH   1  25
ATOM     25  C   UNL     1      -5.798  10.479  16.662  0.00  0.00    +0.163 C 
BRANCH  25  26
ATOM     26  O   UNL     1      -4.958  11.636  16.521  0.00  0.00    -0.388 OA
ATOM     27  H   UNL     1      -5.128  12.246  17.244  0.00  0.00    +0.210 HD
ENDBRANCH  25  26
BRANCH  25  28
ATOM     28  C   UNL     1      -4.977   9.184  16.534  0.00  0.00    +0.175 C 
BRANCH  28  29
ATOM     29  C   UNL     1      -4.014   9.227  15.338  0.00  0.00    +0.176 C 
ATOM     30  O   UNL     1      -4.718   9.832  14.219  0.00  0.00    -0.332 OA
ATOM     31  C   UNL     1      -3.916  10.054  13.011  0.00  0.00    +0.277 C 
ATOM     32  C   UNL     1      -3.246   8.734  12.557  0.00  0.00    +0.110 C 
ATOM     33  C   UNL     1      -2.512   8.037  13.721  0.00  0.00    +0.143 C 
ATOM     34  C   UNL     1      -3.437   7.860  14.926  0.00  0.00    +0.133 C 
BRANCH  34  35
ATOM     35  N   UNL     1      -2.702   7.275  16.058  0.00  0.00    -0.308 N 
ATOM     36  H   UNL     1      -1.951   7.816  16.464  0.00  0.00    +0.149 HD
ATOM     37  C   UNL     1      -2.962   6.076  16.586  0.00  0.00    +0.210 C 
ATOM     38  C   UNL     1      -4.096   5.265  15.929  0.00  0.00    +0.109 C 
ATOM     39  O   UNL     1      -2.340   5.617  17.544  0.00  0.00    -0.276 OA
ENDBRANCH  34  35
BRANCH  31  40
ATOM     40  C   UNL     1      -2.832  11.122  13.262  0.00  0.00    +0.414 C 
ATOM     41  O   UNL     1      -1.837  11.178  12.541  0.00  0.00    -0.240 OA
ATOM     42  O   UNL     1      -2.952  11.928  14.186  0.00  0.00    -0.240 OA
ENDBRANCH  31  40
BRANCH  31  43
ATOM     43  O   UNL     1      -4.807  10.501  11.957  0.00  0.00    -0.343 OA
ATOM     44  C   UNL     1      -4.856   9.641  10.791  0.00  0.00    +0.198 C 
ENDBRANCH  31  43
BRANCH  33  45
ATOM     45  O   UNL     1      -2.041   6.757  13.298  0.00  0.00    -0.390 OA
ATOM     46  H   UNL     1      -1.946   6.182  14.060  0.00  0.00    +0.210 HD
ENDBRANCH  33  45
ENDBRANCH  28  29
BRANCH  28  47
ATOM     47  O   UNL     1      -5.856   8.047  16.423  0.00  0.00    -0.387 OA
ATOM     48  H   UNL     1      -5.520   7.447  15.753  0.00  0.00    +0.210 HD
ENDBRANCH  28  47
ENDBRANCH  25  28
ENDBRANCH   1  25
TORSDOF 17
