REMARK VINA RESULT:    -4.586      2.160      5.720
REMARK INTER + INTRA:         -10.445
REMARK INTER:                  -7.312
REMARK INTRA:                  -3.133
REMARK UNBOUND:                -2.508
REMARK  Name = lig_assembled_48.pdb
REMARK  16 active torsions:
REMARK  status: ('A' for Active; 'I' for Inactive)
REMARK    1  A    between atoms: _2  and  _9
REMARK    2  A    between atoms: _4  and  _18
REMARK    3  A    between atoms: _6  and  _7
REMARK    4  A    between atoms: _6  and  _18
REMARK    5  A    between atoms: _14  and  _34
REMARK    6  A    between atoms: _16  and  _22
REMARK    7  A    between atoms: _17  and  _21
REMARK    8  A    between atoms: _21  and  _22
REMARK    9  A    between atoms: _24  and  _25
REMARK   10  A    between atoms: _26  and  _27
REMARK   11  A    between atoms: _28  and  _30
REMARK   12  A    between atoms: _30  and  _31
REMARK   13  A    between atoms: _30  and  _32
REMARK   14  A    between atoms: _32  and  _33
REMARK   15  A    between atoms: _32  and  _34
REMARK   16  A    between atoms: _35  and  _37
REMARK                            x       y       z     vdW  Elec       q    Type
REMARK                         _______ _______ _______ _____ _____    ______ ____
ROOT
ATOM      1  C   UNL     1      -3.880  12.428  29.430  0.00  0.00    +0.163 C 
ENDROOT
BRANCH   1   2
ATOM      2  O   UNL     1      -2.984  13.109  30.323  0.00  0.00    -0.388 OA
ATOM      3  H   UNL     1      -3.343  13.091  31.213  0.00  0.00    +0.210 HD
ENDBRANCH   1   2
BRANCH   1   4
ATOM      4  C   UNL     1      -5.134  13.268  29.208  0.00  0.00    +0.141 C 
BRANCH   4   7
ATOM      5  C   UNL     1      -6.555  12.624  27.293  0.00  0.00    +0.401 C 
ATOM      6  O   UNL     1      -7.281  11.883  27.960  0.00  0.00    -0.226 OA
ATOM      7  N   UNL     1      -5.524  13.305  27.793  0.00  0.00    -0.279 N 
ATOM      8  H   UNL     1      -4.982  13.880  27.164  0.00  0.00    +0.152 HD
BRANCH   5   9
ATOM      9  O   UNL     1      -6.813  12.773  25.894  0.00  0.00    -0.444 OA
BRANCH   9  10
ATOM     10  C   UNL     1      -6.123  13.924  25.401  0.00  0.00    +0.292 C 
BRANCH  10  12
ATOM     11  N   UNL     1      -3.815  13.140  24.993  0.00  0.00    -0.131 NA
ATOM     12  C   UNL     1      -5.033  13.512  24.498  0.00  0.00    +0.120 A 
ATOM     13  C   UNL     1      -5.014  13.399  23.125  0.00  0.00    +0.137 A 
ATOM     14  N   UNL     1      -3.791  12.864  22.849  0.00  0.00    -0.248 N 
ATOM     15  N   UNL     1      -3.048  12.782  23.974  0.00  0.00    -0.065 NA
BRANCH  14  16
ATOM     16  C   UNL     1      -3.236  12.350  21.603  0.00  0.00    +0.109 C 
ATOM     17  C   UNL     1      -2.772  10.889  21.765  0.00  0.00    +0.027 C 
ATOM     18  C   UNL     1      -3.959   9.934  21.870  0.00  0.00    +0.002 C 
ATOM     19  C   UNL     1      -4.834  10.018  20.625  0.00  0.00    +0.000 C 
ATOM     20  C   UNL     1      -5.289  11.443  20.324  0.00  0.00    +0.002 C 
ATOM     21  C   UNL     1      -4.147  12.465  20.365  0.00  0.00    +0.027 C 
ENDBRANCH  14  16
ENDBRANCH  10  12
ENDBRANCH   9  10
ENDBRANCH   5   9
ENDBRANCH   4   7
ENDBRANCH   1   4
BRANCH   1  22
ATOM     22  C   UNL     1      -4.277  11.052  29.992  0.00  0.00    +0.175 C 
BRANCH  22  23
ATOM     23  C   UNL     1      -3.893   9.907  29.044  0.00  0.00    +0.176 C 
ATOM     24  O   UNL     1      -4.264  10.301  27.694  0.00  0.00    -0.332 OA
ATOM     25  C   UNL     1      -3.874   9.369  26.632  0.00  0.00    +0.277 C 
ATOM     26  C   UNL     1      -4.416   7.950  26.931  0.00  0.00    +0.110 C 
ATOM     27  C   UNL     1      -4.074   7.500  28.367  0.00  0.00    +0.143 C 
ATOM     28  C   UNL     1      -4.521   8.545  29.391  0.00  0.00    +0.133 C 
BRANCH  28  29
ATOM     29  N   UNL     1      -4.112   8.146  30.747  0.00  0.00    -0.308 N 
ATOM     30  H   UNL     1      -3.124   8.147  30.961  0.00  0.00    +0.149 HD
ATOM     31  C   UNL     1      -4.959   7.782  31.713  0.00  0.00    +0.210 C 
ATOM     32  C   UNL     1      -6.456   7.766  31.347  0.00  0.00    +0.109 C 
ATOM     33  O   UNL     1      -4.589   7.467  32.844  0.00  0.00    -0.276 OA
ENDBRANCH  28  29
BRANCH  25  34
ATOM     34  C   UNL     1      -2.338   9.314  26.489  0.00  0.00    +0.414 C 
ATOM     35  O   UNL     1      -1.680  10.353  26.463  0.00  0.00    -0.240 OA
ATOM     36  O   UNL     1      -1.758   8.231  26.400  0.00  0.00    -0.240 OA
ENDBRANCH  25  34
BRANCH  27  37
ATOM     37  O   UNL     1      -4.719   6.258  28.650  0.00  0.00    -0.390 OA
ATOM     38  H   UNL     1      -4.679   6.083  29.593  0.00  0.00    +0.210 HD
ENDBRANCH  27  37
BRANCH  25  39
ATOM     39  O   UNL     1      -4.463   9.831  25.390  0.00  0.00    -0.343 OA
ATOM     40  C   UNL     1      -5.847   9.448  25.189  0.00  0.00    +0.198 C 
ENDBRANCH  25  39
ENDBRANCH  22  23
BRANCH  22  41
ATOM     41  O   UNL     1      -5.692  11.017  30.266  0.00  0.00    -0.387 OA
ATOM     42  H   UNL     1      -6.008  10.112  30.203  0.00  0.00    +0.210 HD
ENDBRANCH  22  41
ENDBRANCH   1  22
TORSDOF 14
