REMARK VINA RESULT:    -5.051      3.101      4.126
REMARK INTER + INTRA:         -12.305
REMARK INTER:                 -10.314
REMARK INTRA:                  -1.991
REMARK UNBOUND:                -2.678
REMARK  Name = lig_assembled_26.pdb
REMARK  20 active torsions:
REMARK  status: ('A' for Active; 'I' for Inactive)
REMARK    1  A    between atoms: _2  and  _9
REMARK    2  A    between atoms: _4  and  _23
REMARK    3  A    between atoms: _6  and  _7
REMARK    4  A    between atoms: _6  and  _23
REMARK    5  A    between atoms: _9  and  _10
REMARK    6  A    between atoms: _9  and  _11
REMARK    7  A    between atoms: _11  and  _12
REMARK    8  A    between atoms: _12  and  _13
REMARK    9  A    between atoms: _19  and  _39
REMARK   10  A    between atoms: _21  and  _27
REMARK   11  A    between atoms: _22  and  _26
REMARK   12  A    between atoms: _26  and  _27
REMARK   13  A    between atoms: _29  and  _30
REMARK   14  A    between atoms: _31  and  _32
REMARK   15  A    between atoms: _33  and  _35
REMARK   16  A    between atoms: _35  and  _36
REMARK   17  A    between atoms: _35  and  _37
REMARK   18  A    between atoms: _37  and  _38
REMARK   19  A    between atoms: _37  and  _39
REMARK   20  A    between atoms: _40  and  _42
REMARK                            x       y       z     vdW  Elec       q    Type
REMARK                         _______ _______ _______ _____ _____    ______ ____
ROOT
ATOM      1  C   UNL     1      -4.874  11.421  21.176  0.00  0.00    +0.163 C 
ENDROOT
BRANCH   1   2
ATOM      2  O   UNL     1      -5.204  10.026  21.067  0.00  0.00    -0.388 OA
ATOM      3  H   UNL     1      -4.661   9.621  20.386  0.00  0.00    +0.210 HD
ENDBRANCH   1   2
BRANCH   1   4
ATOM      4  C   UNL     1      -3.528  11.613  21.895  0.00  0.00    +0.175 C 
BRANCH   4   5
ATOM      5  C   UNL     1      -3.706  11.845  23.403  0.00  0.00    +0.176 C 
ATOM      6  O   UNL     1      -4.154  10.596  23.998  0.00  0.00    -0.332 OA
ATOM      7  C   UNL     1      -4.278  10.598  25.458  0.00  0.00    +0.277 C 
ATOM      8  C   UNL     1      -5.194  11.757  25.923  0.00  0.00    +0.110 C 
ATOM      9  C   UNL     1      -4.775  13.101  25.291  0.00  0.00    +0.143 C 
ATOM     10  C   UNL     1      -4.675  12.985  23.770  0.00  0.00    +0.133 C 
BRANCH  10  11
ATOM     11  N   UNL     1      -4.192  14.247  23.187  0.00  0.00    -0.308 N 
ATOM     12  H   UNL     1      -3.239  14.521  23.380  0.00  0.00    +0.149 HD
ATOM     13  C   UNL     1      -4.930  15.053  22.421  0.00  0.00    +0.210 C 
ATOM     14  C   UNL     1      -6.387  14.621  22.167  0.00  0.00    +0.109 C 
ATOM     15  O   UNL     1      -4.495  16.097  21.934  0.00  0.00    -0.276 OA
ENDBRANCH  10  11
BRANCH   7  16
ATOM     16  C   UNL     1      -2.893  10.736  26.124  0.00  0.00    +0.414 C 
ATOM     17  O   UNL     1      -1.876  10.413  25.512  0.00  0.00    -0.240 OA
ATOM     18  O   UNL     1      -2.793  11.171  27.272  0.00  0.00    -0.240 OA
ENDBRANCH   7  16
BRANCH   7  19
ATOM     19  O   UNL     1      -4.888   9.344  25.859  0.00  0.00    -0.343 OA
ATOM     20  C   UNL     1      -6.326   9.393  26.038  0.00  0.00    +0.198 C 
ENDBRANCH   7  19
BRANCH   9  21
ATOM     21  O   UNL     1      -5.732  14.108  25.624  0.00  0.00    -0.390 OA
ATOM     22  H   UNL     1      -5.349  14.715  26.261  0.00  0.00    +0.210 HD
ENDBRANCH   9  21
ENDBRANCH   4   5
BRANCH   4  23
ATOM     23  O   UNL     1      -2.803  12.711  21.306  0.00  0.00    -0.387 OA
ATOM     24  H   UNL     1      -3.378  13.190  20.705  0.00  0.00    +0.210 HD
ENDBRANCH   4  23
ENDBRANCH   1   4
BRANCH   1  25
ATOM     25  C   UNL     1      -4.805  12.051  19.789  0.00  0.00    +0.141 C 
BRANCH  25  28
ATOM     26  C   UNL     1      -5.517  11.206  17.579  0.00  0.00    +0.401 C 
ATOM     27  O   UNL     1      -6.162  12.218  17.295  0.00  0.00    -0.226 OA
ATOM     28  N   UNL     1      -4.857  11.040  18.725  0.00  0.00    -0.279 N 
ATOM     29  H   UNL     1      -4.365  10.170  18.871  0.00  0.00    +0.152 HD
BRANCH  26  30
ATOM     30  O   UNL     1      -5.464  10.130  16.638  0.00  0.00    -0.444 OA
BRANCH  30  31
ATOM     31  C   UNL     1      -4.102   9.864  16.293  0.00  0.00    +0.292 C 
BRANCH  31  33
ATOM     32  N   UNL     1      -3.595   9.476  13.896  0.00  0.00    -0.131 NA
ATOM     33  C   UNL     1      -3.813  10.345  14.931  0.00  0.00    +0.120 A 
ATOM     34  C   UNL     1      -3.719  11.635  14.463  0.00  0.00    +0.137 A 
ATOM     35  N   UNL     1      -3.415  11.492  13.143  0.00  0.00    -0.248 N 
ATOM     36  N   UNL     1      -3.369  10.189  12.799  0.00  0.00    -0.065 NA
BRANCH  35  37
ATOM     37  C   UNL     1      -3.225  12.510  12.121  0.00  0.00    +0.113 C 
ATOM     38  C   UNL     1      -4.487  13.317  11.788  0.00  0.00    +0.033 C 
BRANCH  37  39
ATOM     39  C   UNL     1      -2.023  13.426  12.412  0.00  0.00    +0.106 C 
BRANCH  39  40
ATOM     40  C   UNL     1      -0.886  13.290  11.416  0.00  0.00    +0.165 C 
ATOM     41  O   UNL     1      -0.802  12.340  10.640  0.00  0.00    -0.292 OA
BRANCH  40  42
ATOM     42  C   UNL     1       0.190  14.327  11.404  0.00  0.00    +0.017 A 
ATOM     43  C   UNL     1       0.273  15.334  12.373  0.00  0.00    +0.011 A 
ATOM     44  C   UNL     1       1.325  16.253  12.338  0.00  0.00    +0.001 A 
ATOM     45  C   UNL     1       2.291  16.176  11.335  0.00  0.00    +0.000 A 
ATOM     46  C   UNL     1       2.208  15.186  10.362  0.00  0.00    +0.001 A 
ATOM     47  C   UNL     1       1.161  14.263  10.396  0.00  0.00    +0.011 A 
ENDBRANCH  40  42
ENDBRANCH  39  40
ENDBRANCH  37  39
ENDBRANCH  35  37
ENDBRANCH  31  33
ENDBRANCH  30  31
ENDBRANCH  26  30
ENDBRANCH  25  28
ENDBRANCH   1  25
TORSDOF 17
