REMARK VINA RESULT:    -4.739      6.411     11.209
REMARK INTER + INTRA:         -12.214
REMARK INTER:                 -10.350
REMARK INTRA:                  -1.865
REMARK UNBOUND:                -3.320
REMARK  Name = lig_assembled_16.pdb
REMARK  19 active torsions:
REMARK  status: ('A' for Active; 'I' for Inactive)
REMARK    1  A    between atoms: _2  and  _9
REMARK    2  A    between atoms: _4  and  _22
REMARK    3  A    between atoms: _6  and  _7
REMARK    4  A    between atoms: _6  and  _22
REMARK    5  A    between atoms: _9  and  _10
REMARK    6  A    between atoms: _13  and  _14
REMARK    7  A    between atoms: _14  and  _16
REMARK    8  A    between atoms: _18  and  _38
REMARK    9  A    between atoms: _20  and  _26
REMARK   10  A    between atoms: _21  and  _25
REMARK   11  A    between atoms: _25  and  _26
REMARK   12  A    between atoms: _28  and  _29
REMARK   13  A    between atoms: _30  and  _31
REMARK   14  A    between atoms: _32  and  _34
REMARK   15  A    between atoms: _34  and  _35
REMARK   16  A    between atoms: _34  and  _36
REMARK   17  A    between atoms: _36  and  _37
REMARK   18  A    between atoms: _36  and  _38
REMARK   19  A    between atoms: _39  and  _41
REMARK                            x       y       z     vdW  Elec       q    Type
REMARK                         _______ _______ _______ _____ _____    ______ ____
ROOT
ATOM      1  C   UNL     1      -6.238  10.155  21.161  0.00  0.00    +0.163 C 
ENDROOT
BRANCH   1   2
ATOM      2  O   UNL     1      -5.005   9.419  21.104  0.00  0.00    -0.388 OA
ATOM      3  H   UNL     1      -4.550   9.619  20.282  0.00  0.00    +0.210 HD
ENDBRANCH   1   2
BRANCH   1   4
ATOM      4  C   UNL     1      -6.365  10.913  22.494  0.00  0.00    +0.175 C 
BRANCH   4   5
ATOM      5  C   UNL     1      -5.205  10.599  23.450  0.00  0.00    +0.176 C 
ATOM      6  O   UNL     1      -5.765  10.361  24.770  0.00  0.00    -0.332 OA
ATOM      7  C   UNL     1      -4.809   9.941  25.799  0.00  0.00    +0.277 C 
ATOM      8  C   UNL     1      -3.643  10.954  25.900  0.00  0.00    +0.110 C 
ATOM      9  C   UNL     1      -3.035  11.263  24.516  0.00  0.00    +0.143 C 
ATOM     10  C   UNL     1      -4.117  11.687  23.523  0.00  0.00    +0.133 C 
BRANCH  10  11
ATOM     11  N   UNL     1      -3.538  11.895  22.187  0.00  0.00    -0.308 N 
ATOM     12  H   UNL     1      -3.121  11.099  21.725  0.00  0.00    +0.149 HD
ATOM     13  C   UNL     1      -3.529  13.066  21.544  0.00  0.00    +0.210 C 
ATOM     14  C   UNL     1      -4.149  14.265  22.285  0.00  0.00    +0.109 C 
ATOM     15  O   UNL     1      -3.050  13.206  20.418  0.00  0.00    -0.276 OA
ENDBRANCH  10  11
BRANCH   7  16
ATOM     16  C   UNL     1      -4.248   8.538  25.483  0.00  0.00    +0.414 C 
ATOM     17  O   UNL     1      -5.011   7.587  25.324  0.00  0.00    -0.240 OA
ATOM     18  O   UNL     1      -3.033   8.359  25.387  0.00  0.00    -0.240 OA
ENDBRANCH   7  16
BRANCH   7  19
ATOM     19  O   UNL     1      -5.503   9.913  27.073  0.00  0.00    -0.343 OA
ATOM     20  C   UNL     1      -4.851  10.645  28.141  0.00  0.00    +0.198 C 
ENDBRANCH   7  19
BRANCH   9  21
ATOM     21  O   UNL     1      -2.070  12.309  24.636  0.00  0.00    -0.390 OA
ATOM     22  H   UNL     1      -1.752  12.554  23.764  0.00  0.00    +0.210 HD
ENDBRANCH   9  21
ENDBRANCH   4   5
BRANCH   4  23
ATOM     23  O   UNL     1      -7.624  10.604  23.123  0.00  0.00    -0.387 OA
ATOM     24  H   UNL     1      -7.695  11.085  23.951  0.00  0.00    +0.210 HD
ENDBRANCH   4  23
ENDBRANCH   1   4
BRANCH   1  25
ATOM     25  C   UNL     1      -6.309  11.145  20.003  0.00  0.00    +0.141 C 
BRANCH  25  28
ATOM     26  C   UNL     1      -5.136  11.530  17.862  0.00  0.00    +0.401 C 
ATOM     27  O   UNL     1      -6.048  12.203  17.376  0.00  0.00    -0.226 OA
ATOM     28  N   UNL     1      -5.176  10.991  19.082  0.00  0.00    -0.279 N 
ATOM     29  H   UNL     1      -4.383  10.446  19.389  0.00  0.00    +0.152 HD
BRANCH  26  30
ATOM     30  O   UNL     1      -3.957  11.297  17.089  0.00  0.00    -0.444 OA
BRANCH  30  31
ATOM     31  C   UNL     1      -4.285  10.504  15.945  0.00  0.00    +0.292 C 
BRANCH  31  33
ATOM     32  N   UNL     1      -2.526  10.447  14.201  0.00  0.00    -0.131 NA
ATOM     33  C   UNL     1      -3.633  11.050  14.741  0.00  0.00    +0.120 A 
ATOM     34  C   UNL     1      -3.973  12.140  13.971  0.00  0.00    +0.137 A 
ATOM     35  N   UNL     1      -3.095  12.088  12.930  0.00  0.00    -0.247 N 
ATOM     36  N   UNL     1      -2.193  11.104  13.097  0.00  0.00    -0.065 NA
BRANCH  35  37
ATOM     37  C   UNL     1      -3.070  12.919  11.743  0.00  0.00    +0.180 C 
BRANCH  37  38
ATOM     38  C   UNL     1      -1.806  13.746  11.677  0.00  0.00    -0.026 A 
ATOM     39  C   UNL     1      -1.522  14.699  12.666  0.00  0.00    +0.006 A 
ATOM     40  C   UNL     1      -0.333  15.434  12.620  0.00  0.00    +0.015 A 
ATOM     41  C   UNL     1       0.580  15.237  11.582  0.00  0.00    +0.059 A 
ATOM     42  C   UNL     1       0.296  14.302  10.575  0.00  0.00    +0.015 A 
ATOM     43  C   UNL     1      -0.896  13.573  10.620  0.00  0.00    +0.006 A 
BRANCH  41  44
ATOM     44  C   UNL     1       1.860  15.992  11.622  0.00  0.00    +0.337 C 
ATOM     45  O   UNL     1       2.699  15.909  10.739  0.00  0.00    -0.245 OA
BRANCH  44  46
ATOM     46  O   UNL     1       2.025  16.742  12.728  0.00  0.00    -0.477 OA
ATOM     47  H   UNL     1       2.823  16.543  13.249  0.00  0.00    +0.295 HD
ENDBRANCH  44  46
ENDBRANCH  41  44
ENDBRANCH  37  38
ENDBRANCH  35  37
ENDBRANCH  31  33
ENDBRANCH  30  31
ENDBRANCH  26  30
ENDBRANCH  25  28
ENDBRANCH   1  25
TORSDOF 17
