REMARK VINA RESULT:    -4.922      1.827      3.157
REMARK INTER + INTRA:         -11.650
REMARK INTER:                  -9.182
REMARK INTRA:                  -2.468
REMARK UNBOUND:                -2.844
REMARK  Name = lig_assembled_44.pdb
REMARK  17 active torsions:
REMARK  status: ('A' for Active; 'I' for Inactive)
REMARK    1  A    between atoms: _2  and  _9
REMARK    2  A    between atoms: _4  and  _19
REMARK    3  A    between atoms: _6  and  _7
REMARK    4  A    between atoms: _6  and  _19
REMARK    5  A    between atoms: _9  and  _10
REMARK    6  A    between atoms: _15  and  _35
REMARK    7  A    between atoms: _17  and  _23
REMARK    8  A    between atoms: _18  and  _22
REMARK    9  A    between atoms: _22  and  _23
REMARK   10  A    between atoms: _25  and  _26
REMARK   11  A    between atoms: _27  and  _28
REMARK   12  A    between atoms: _29  and  _31
REMARK   13  A    between atoms: _31  and  _32
REMARK   14  A    between atoms: _31  and  _33
REMARK   15  A    between atoms: _33  and  _34
REMARK   16  A    between atoms: _33  and  _35
REMARK   17  A    between atoms: _36  and  _38
REMARK                            x       y       z     vdW  Elec       q    Type
REMARK                         _______ _______ _______ _____ _____    ______ ____
ROOT
ATOM      1  C   UNL     1      -6.076   9.312  23.198  0.00  0.00    +0.163 C 
ENDROOT
BRANCH   1   2
ATOM      2  O   UNL     1      -6.905   9.050  24.342  0.00  0.00    -0.388 OA
ATOM      3  H   UNL     1      -7.440   9.823  24.534  0.00  0.00    +0.210 HD
ENDBRANCH   1   2
BRANCH   1   4
ATOM      4  C   UNL     1      -6.747   8.781  21.935  0.00  0.00    +0.141 C 
BRANCH   4   7
ATOM      5  C   UNL     1      -6.030   9.602  19.717  0.00  0.00    +0.401 C 
ATOM      6  O   UNL     1      -5.333   8.615  19.472  0.00  0.00    -0.226 OA
ATOM      7  N   UNL     1      -6.720   9.766  20.847  0.00  0.00    -0.279 N 
ATOM      8  H   UNL     1      -7.256  10.616  20.960  0.00  0.00    +0.152 HD
BRANCH   5   9
ATOM      9  O   UNL     1      -6.115  10.650  18.748  0.00  0.00    -0.444 OA
BRANCH   9  10
ATOM     10  C   UNL     1      -5.058  10.507  17.795  0.00  0.00    +0.292 C 
BRANCH  10  12
ATOM     11  N   UNL     1      -6.178  12.378  16.617  0.00  0.00    -0.131 NA
ATOM     12  C   UNL     1      -5.354  11.284  16.577  0.00  0.00    +0.120 A 
ATOM     13  C   UNL     1      -4.901  11.109  15.290  0.00  0.00    +0.137 A 
ATOM     14  N   UNL     1      -5.421  12.172  14.612  0.00  0.00    -0.247 N 
ATOM     15  N   UNL     1      -6.222  12.909  15.403  0.00  0.00    -0.065 NA
BRANCH  14  16
ATOM     16  C   UNL     1      -5.204  12.547  13.228  0.00  0.00    +0.180 C 
BRANCH  16  17
ATOM     17  C   UNL     1      -3.873  13.237  13.045  0.00  0.00    -0.026 A 
ATOM     18  C   UNL     1      -2.796  12.568  12.443  0.00  0.00    +0.006 A 
ATOM     19  C   UNL     1      -1.562  13.203  12.289  0.00  0.00    +0.015 A 
ATOM     20  C   UNL     1      -1.398  14.513  12.736  0.00  0.00    +0.018 A 
ATOM     21 BR   UNL     1       0.268  15.377  12.511  0.00  0.00    -0.050 Br
ATOM     22  C   UNL     1      -2.452  15.189  13.346  0.00  0.00    +0.015 A 
ATOM     23  C   UNL     1      -3.686  14.551  13.505  0.00  0.00    +0.006 A 
ENDBRANCH  16  17
ENDBRANCH  14  16
ENDBRANCH  10  12
ENDBRANCH   9  10
ENDBRANCH   5   9
ENDBRANCH   4   7
ENDBRANCH   1   4
BRANCH   1  24
ATOM     24  C   UNL     1      -4.693   8.657  23.359  0.00  0.00    +0.175 C 
BRANCH  24  25
ATOM     25  C   UNL     1      -3.767   9.479  24.268  0.00  0.00    +0.176 C 
ATOM     26  O   UNL     1      -4.199   9.283  25.642  0.00  0.00    -0.332 OA
ATOM     27  C   UNL     1      -3.361   9.912  26.667  0.00  0.00    +0.277 C 
ATOM     28  C   UNL     1      -3.200  11.425  26.379  0.00  0.00    +0.110 C 
ATOM     29  C   UNL     1      -2.771  11.685  24.920  0.00  0.00    +0.143 C 
ATOM     30  C   UNL     1      -3.710  10.982  23.939  0.00  0.00    +0.133 C 
BRANCH  30  31
ATOM     31  N   UNL     1      -3.242  11.165  22.556  0.00  0.00    -0.308 N 
ATOM     32  H   UNL     1      -2.411  10.667  22.270  0.00  0.00    +0.149 HD
ATOM     33  C   UNL     1      -3.842  11.947  21.655  0.00  0.00    +0.210 C 
ATOM     34  C   UNL     1      -5.091  12.714  22.131  0.00  0.00    +0.109 C 
ATOM     35  O   UNL     1      -3.436  12.070  20.499  0.00  0.00    -0.276 OA
ENDBRANCH  30  31
BRANCH  27  36
ATOM     36  C   UNL     1      -1.970   9.246  26.720  0.00  0.00    +0.414 C 
ATOM     37  O   UNL     1      -1.857   8.032  26.560  0.00  0.00    -0.240 OA
ATOM     38  O   UNL     1      -0.961   9.924  26.921  0.00  0.00    -0.240 OA
ENDBRANCH  27  36
BRANCH  27  39
ATOM     39  O   UNL     1      -4.025   9.758  27.947  0.00  0.00    -0.343 OA
ATOM     40  C   UNL     1      -3.545  10.637  28.996  0.00  0.00    +0.198 C 
ENDBRANCH  27  39
BRANCH  29  41
ATOM     41  O   UNL     1      -2.782  13.089  24.658  0.00  0.00    -0.390 OA
ATOM     42  H   UNL     1      -1.880  13.417  24.630  0.00  0.00    +0.210 HD
ENDBRANCH  29  41
ENDBRANCH  24  25
BRANCH  24  43
ATOM     43  O   UNL     1      -4.081   8.465  22.068  0.00  0.00    -0.387 OA
ATOM     44  H   UNL     1      -4.046   9.304  21.603  0.00  0.00    +0.210 HD
ENDBRANCH  24  43
ENDBRANCH   1  24
TORSDOF 15
