REMARK VINA RESULT:    -4.705      1.383      3.850
REMARK INTER + INTRA:         -10.648
REMARK INTER:                  -8.267
REMARK INTRA:                  -2.381
REMARK UNBOUND:                -2.505
REMARK  Name = lig_assembled_3.pdb
REMARK  16 active torsions:
REMARK  status: ('A' for Active; 'I' for Inactive)
REMARK    1  A    between atoms: _2  and  _9
REMARK    2  A    between atoms: _4  and  _18
REMARK    3  A    between atoms: _6  and  _7
REMARK    4  A    between atoms: _6  and  _18
REMARK    5  A    between atoms: _14  and  _34
REMARK    6  A    between atoms: _16  and  _22
REMARK    7  A    between atoms: _17  and  _21
REMARK    8  A    between atoms: _21  and  _22
REMARK    9  A    between atoms: _24  and  _25
REMARK   10  A    between atoms: _26  and  _27
REMARK   11  A    between atoms: _28  and  _30
REMARK   12  A    between atoms: _30  and  _31
REMARK   13  A    between atoms: _30  and  _32
REMARK   14  A    between atoms: _32  and  _33
REMARK   15  A    between atoms: _32  and  _34
REMARK   16  A    between atoms: _35  and  _37
REMARK                            x       y       z     vdW  Elec       q    Type
REMARK                         _______ _______ _______ _____ _____    ______ ____
ROOT
ATOM      1  C   UNL     1      -2.217  10.194  26.856  0.00  0.00    +0.163 C 
ENDROOT
BRANCH   1   2
ATOM      2  O   UNL     1      -0.925   9.796  26.369  0.00  0.00    -0.388 OA
ATOM      3  H   UNL     1      -0.649   8.990  26.812  0.00  0.00    +0.210 HD
ENDBRANCH   1   2
BRANCH   1   4
ATOM      4  C   UNL     1      -2.646   9.282  28.001  0.00  0.00    +0.141 C 
BRANCH   4   7
ATOM      5  C   UNL     1      -3.453   9.513  30.325  0.00  0.00    +0.401 C 
ATOM      6  O   UNL     1      -3.255   8.330  30.611  0.00  0.00    -0.226 OA
ATOM      7  N   UNL     1      -3.202  10.043  29.127  0.00  0.00    -0.279 N 
ATOM      8  H   UNL     1      -3.406  11.022  28.986  0.00  0.00    +0.152 HD
BRANCH   5   9
ATOM      9  O   UNL     1      -3.986  10.389  31.322  0.00  0.00    -0.444 OA
BRANCH   9  10
ATOM     10  C   UNL     1      -2.928  10.857  32.162  0.00  0.00    +0.292 C 
BRANCH  10  12
ATOM     11  N   UNL     1      -1.692  12.991  32.361  0.00  0.00    -0.131 NA
ATOM     12  C   UNL     1      -2.864  12.331  32.134  0.00  0.00    +0.121 A 
ATOM     13  C   UNL     1      -3.858  13.250  31.889  0.00  0.00    +0.143 A 
ATOM     14  N   UNL     1      -3.235  14.476  31.952  0.00  0.00    -0.220 N 
ATOM     15  N   UNL     1      -1.925  14.292  32.255  0.00  0.00    -0.060 NA
BRANCH  14  16
ATOM     16  C   UNL     1      -3.784  15.765  31.730  0.00  0.00    +0.067 A 
ATOM     17  C   UNL     1      -4.546  16.036  30.584  0.00  0.00    +0.028 A 
ATOM     18  C   UNL     1      -5.052  17.320  30.369  0.00  0.00    +0.002 A 
ATOM     19  C   UNL     1      -4.807  18.335  31.291  0.00  0.00    +0.000 A 
ATOM     20  C   UNL     1      -4.058  18.070  32.436  0.00  0.00    +0.002 A 
ATOM     21  C   UNL     1      -3.547  16.789  32.659  0.00  0.00    +0.028 A 
ENDBRANCH  14  16
ENDBRANCH  10  12
ENDBRANCH   9  10
ENDBRANCH   5   9
ENDBRANCH   4   7
ENDBRANCH   1   4
BRANCH   1  22
ATOM     22  C   UNL     1      -3.268  10.141  25.735  0.00  0.00    +0.175 C 
BRANCH  22  23
ATOM     23  C   UNL     1      -4.293  11.279  25.848  0.00  0.00    +0.176 C 
ATOM     24  O   UNL     1      -5.300  10.879  26.818  0.00  0.00    -0.332 OA
ATOM     25  C   UNL     1      -6.311  11.892  27.137  0.00  0.00    +0.277 C 
ATOM     26  C   UNL     1      -6.999  12.396  25.845  0.00  0.00    +0.110 C 
ATOM     27  C   UNL     1      -5.967  12.803  24.772  0.00  0.00    +0.143 C 
ATOM     28  C   UNL     1      -4.963  11.678  24.520  0.00  0.00    +0.133 C 
BRANCH  28  29
ATOM     29  N   UNL     1      -3.934  12.109  23.561  0.00  0.00    -0.308 N 
ATOM     30  H   UNL     1      -3.376  12.917  23.799  0.00  0.00    +0.149 HD
ATOM     31  C   UNL     1      -3.690  11.504  22.396  0.00  0.00    +0.210 C 
ATOM     32  C   UNL     1      -4.576  10.292  22.050  0.00  0.00    +0.109 C 
ATOM     33  O   UNL     1      -2.812  11.879  21.618  0.00  0.00    -0.276 OA
ENDBRANCH  28  29
BRANCH  25  34
ATOM     34  C   UNL     1      -5.673  13.084  27.881  0.00  0.00    +0.414 C 
ATOM     35  O   UNL     1      -4.673  12.918  28.577  0.00  0.00    -0.240 OA
ATOM     36  O   UNL     1      -6.160  14.212  27.785  0.00  0.00    -0.240 OA
ENDBRANCH  25  34
BRANCH  27  37
ATOM     37  O   UNL     1      -6.639  13.116  23.551  0.00  0.00    -0.390 OA
ATOM     38  H   UNL     1      -7.180  13.899  23.675  0.00  0.00    +0.210 HD
ENDBRANCH  27  37
BRANCH  25  39
ATOM     39  O   UNL     1      -7.317  11.272  27.979  0.00  0.00    -0.343 OA
ATOM     40  C   UNL     1      -6.904  10.038  28.619  0.00  0.00    +0.198 C 
ENDBRANCH  25  39
ENDBRANCH  22  23
BRANCH  22  41
ATOM     41  O   UNL     1      -3.940   8.865  25.744  0.00  0.00    -0.387 OA
ATOM     42  H   UNL     1      -4.336   8.705  24.884  0.00  0.00    +0.210 HD
ENDBRANCH  22  41
ENDBRANCH   1  22
TORSDOF 14
