REMARK VINA RESULT:    -5.519      5.896     11.706
REMARK INTER + INTRA:         -12.587
REMARK INTER:                 -10.150
REMARK INTRA:                  -2.438
REMARK UNBOUND:                -2.389
REMARK  Name = lig_assembled_92.pdb
REMARK  18 active torsions:
REMARK  status: ('A' for Active; 'I' for Inactive)
REMARK    1  A    between atoms: _2  and  _11
REMARK    2  A    between atoms: _3  and  _46
REMARK    3  A    between atoms: _6  and  _25
REMARK    4  A    between atoms: _8  and  _9
REMARK    5  A    between atoms: _8  and  _25
REMARK    6  A    between atoms: _14  and  _46
REMARK    7  A    between atoms: _21  and  _41
REMARK    8  A    between atoms: _23  and  _29
REMARK    9  A    between atoms: _24  and  _28
REMARK   10  A    between atoms: _28  and  _29
REMARK   11  A    between atoms: _31  and  _32
REMARK   12  A    between atoms: _33  and  _34
REMARK   13  A    between atoms: _35  and  _37
REMARK   14  A    between atoms: _37  and  _38
REMARK   15  A    between atoms: _37  and  _39
REMARK   16  A    between atoms: _39  and  _40
REMARK   17  A    between atoms: _39  and  _41
REMARK   18  A    between atoms: _42  and  _44
REMARK                            x       y       z     vdW  Elec       q    Type
REMARK                         _______ _______ _______ _____ _____    ______ ____
ROOT
ATOM      1  C   UNL     1      -4.306   9.655  22.946  0.00  0.00    +0.401 C 
ATOM      2  O   UNL     1      -3.092   9.513  22.784  0.00  0.00    -0.226 OA
ATOM      3  N   UNL     1      -5.104   8.719  23.460  0.00  0.00    -0.279 N 
ATOM      4  H   UNL     1      -6.086   8.933  23.562  0.00  0.00    +0.152 HD
ENDROOT
BRANCH   3   5
ATOM      5  C   UNL     1      -4.637   7.393  23.884  0.00  0.00    +0.141 C 
BRANCH   5   6
ATOM      6  C   UNL     1      -4.161   7.395  25.333  0.00  0.00    +0.163 C 
BRANCH   6   7
ATOM      7  O   UNL     1      -2.757   7.698  25.389  0.00  0.00    -0.388 OA
ATOM      8  H   UNL     1      -2.330   7.123  26.028  0.00  0.00    +0.210 HD
ENDBRANCH   6   7
BRANCH   6   9
ATOM      9  C   UNL     1      -4.977   8.418  26.141  0.00  0.00    +0.175 C 
BRANCH   9  10
ATOM     10  C   UNL     1      -4.393   8.646  27.543  0.00  0.00    +0.176 C 
ATOM     11  O   UNL     1      -5.405   8.266  28.516  0.00  0.00    -0.332 OA
ATOM     12  C   UNL     1      -4.985   8.318  29.919  0.00  0.00    +0.277 C 
ATOM     13  C   UNL     1      -4.426   9.719  30.266  0.00  0.00    +0.110 C 
ATOM     14  C   UNL     1      -3.369  10.180  29.240  0.00  0.00    +0.143 C 
ATOM     15  C   UNL     1      -3.909  10.083  27.814  0.00  0.00    +0.133 C 
BRANCH  15  16
ATOM     16  N   UNL     1      -2.865  10.441  26.841  0.00  0.00    -0.308 N 
ATOM     17  H   UNL     1      -2.007   9.908  26.853  0.00  0.00    +0.149 HD
ATOM     18  C   UNL     1      -2.977  11.425  25.944  0.00  0.00    +0.210 C 
ATOM     19  C   UNL     1      -4.287  12.235  25.969  0.00  0.00    +0.109 C 
ATOM     20  O   UNL     1      -2.091  11.693  25.132  0.00  0.00    -0.276 OA
ENDBRANCH  15  16
BRANCH  12  21
ATOM     21  C   UNL     1      -3.912   7.248  30.209  0.00  0.00    +0.414 C 
ATOM     22  O   UNL     1      -3.033   7.461  31.043  0.00  0.00    -0.240 OA
ATOM     23  O   UNL     1      -3.925   6.172  29.609  0.00  0.00    -0.240 OA
ENDBRANCH  12  21
BRANCH  14  24
ATOM     24  O   UNL     1      -2.992  11.531  29.510  0.00  0.00    -0.390 OA
ATOM     25  H   UNL     1      -3.549  12.126  29.003  0.00  0.00    +0.210 HD
ENDBRANCH  14  24
BRANCH  12  26
ATOM     26  O   UNL     1      -6.153   8.074  30.746  0.00  0.00    -0.343 OA
ATOM     27  C   UNL     1      -6.179   8.804  31.998  0.00  0.00    +0.198 C 
ENDBRANCH  12  26
ENDBRANCH   9  10
BRANCH   9  28
ATOM     28  O   UNL     1      -6.351   7.992  26.238  0.00  0.00    -0.387 OA
ATOM     29  H   UNL     1      -6.526   7.321  25.574  0.00  0.00    +0.210 HD
ENDBRANCH   9  28
ENDBRANCH   6   9
ENDBRANCH   5   6
ENDBRANCH   3   5
BRANCH   1  30
ATOM     30  O   UNL     1      -4.916  10.894  22.573  0.00  0.00    -0.444 OA
BRANCH  30  31
ATOM     31  C   UNL     1      -6.002  10.640  21.677  0.00  0.00    +0.292 C 
BRANCH  31  33
ATOM     32  N   UNL     1      -5.323   9.123  19.838  0.00  0.00    -0.131 NA
ATOM     33  C   UNL     1      -5.496  10.390  20.314  0.00  0.00    +0.121 A 
ATOM     34  C   UNL     1      -5.141  11.290  19.336  0.00  0.00    +0.143 A 
ATOM     35  N   UNL     1      -4.781  10.518  18.256  0.00  0.00    -0.220 N 
ATOM     36  N   UNL     1      -4.882   9.208  18.588  0.00  0.00    -0.060 NA
BRANCH  35  37
ATOM     37  C   UNL     1      -4.393  10.944  16.960  0.00  0.00    +0.067 A 
ATOM     38  C   UNL     1      -3.858  10.026  16.042  0.00  0.00    +0.030 A 
ATOM     39  C   UNL     1      -3.423  10.460  14.791  0.00  0.00    +0.031 A 
ATOM     40  C   UNL     1      -3.531  11.809  14.446  0.00  0.00    +0.109 A 
ATOM     41  C   UNL     1      -4.071  12.732  15.345  0.00  0.00    +0.031 A 
ATOM     42  C   UNL     1      -4.512  12.297  16.600  0.00  0.00    +0.030 A 
BRANCH  40  43
ATOM     43  S   UNL     1      -2.829  12.347  12.909  0.00  0.00    +0.074 S 
ATOM     44  O   UNL     1      -1.805  11.390  12.538  0.00  0.00    -0.150 OA
ATOM     45  O   UNL     1      -3.902  12.652  11.993  0.00  0.00    -0.150 OA
BRANCH  43  46
ATOM     46  N   UNL     1      -1.986  13.748  13.331  0.00  0.00    -0.194 N 
ATOM     47  H   UNL     1      -1.219  13.449  13.927  0.00  0.00    +0.176 HD
ATOM     48  C   UNL     1      -1.568  14.478  12.199  0.00  0.00    +0.177 A 
ATOM     49  S   UNL     1       0.009  14.357  11.554  0.00  0.00    -0.059 S 
ATOM     50  C   UNL     1      -0.384  15.589  10.425  0.00  0.00    +0.068 A 
ATOM     51  C   UNL     1      -1.658  16.053  10.676  0.00  0.00    +0.120 A 
ATOM     52  N   UNL     1      -2.348  15.391  11.675  0.00  0.00    -0.232 NA
ENDBRANCH  43  46
ENDBRANCH  40  43
ENDBRANCH  35  37
ENDBRANCH  31  33
ENDBRANCH  30  31
ENDBRANCH   1  30
TORSDOF 16
