REMARK VINA RESULT:    -4.942      2.175      6.796
REMARK INTER + INTRA:         -13.035
REMARK INTER:                  -9.104
REMARK INTRA:                  -3.931
REMARK UNBOUND:                -3.181
REMARK  Name = lig_assembled_76.pdb
REMARK  21 active torsions:
REMARK  status: ('A' for Active; 'I' for Inactive)
REMARK    1  A    between atoms: _2  and  _9
REMARK    2  A    between atoms: _4  and  _23
REMARK    3  A    between atoms: _6  and  _7
REMARK    4  A    between atoms: _6  and  _23
REMARK    5  A    between atoms: _9  and  _10
REMARK    6  A    between atoms: _10  and  _11
REMARK    7  A    between atoms: _10  and  _18
REMARK    8  A    between atoms: _11  and  _12
REMARK    9  A    between atoms: _12  and  _13
REMARK   10  A    between atoms: _19  and  _39
REMARK   11  A    between atoms: _21  and  _27
REMARK   12  A    between atoms: _22  and  _26
REMARK   13  A    between atoms: _26  and  _27
REMARK   14  A    between atoms: _29  and  _30
REMARK   15  A    between atoms: _31  and  _32
REMARK   16  A    between atoms: _33  and  _35
REMARK   17  A    between atoms: _35  and  _36
REMARK   18  A    between atoms: _35  and  _37
REMARK   19  A    between atoms: _37  and  _38
REMARK   20  A    between atoms: _37  and  _39
REMARK   21  A    between atoms: _40  and  _42
REMARK                            x       y       z     vdW  Elec       q    Type
REMARK                         _______ _______ _______ _____ _____    ______ ____
ROOT
ATOM      1  C   UNL     1      -3.580   6.426  28.575  0.00  0.00    +0.141 C 
ENDROOT
BRANCH   1   4
ATOM      2  C   UNL     1      -2.294   6.250  26.472  0.00  0.00    +0.401 C 
ATOM      3  O   UNL     1      -1.254   5.890  27.028  0.00  0.00    -0.226 OA
ATOM      4  N   UNL     1      -3.427   6.528  27.118  0.00  0.00    -0.279 N 
ATOM      5  H   UNL     1      -4.225   6.826  26.575  0.00  0.00    +0.152 HD
BRANCH   2   6
ATOM      6  O   UNL     1      -2.309   6.389  25.049  0.00  0.00    -0.444 OA
BRANCH   6   7
ATOM      7  C   UNL     1      -3.244   5.464  24.488  0.00  0.00    +0.292 C 
BRANCH   7   9
ATOM      8  N   UNL     1      -3.912   5.709  22.113  0.00  0.00    -0.131 NA
ATOM      9  C   UNL     1      -4.027   6.108  23.420  0.00  0.00    +0.120 A 
ATOM     10  C   UNL     1      -4.932   7.143  23.498  0.00  0.00    +0.137 A 
ATOM     11  N   UNL     1      -5.332   7.322  22.211  0.00  0.00    -0.249 N 
ATOM     12  N   UNL     1      -4.714   6.470  21.378  0.00  0.00    -0.065 NA
BRANCH  11  13
ATOM     13  C   UNL     1      -6.190   8.362  21.688  0.00  0.00    +0.176 C 
BRANCH  13  14
ATOM     14  C   UNL     1      -5.692   8.934  20.357  0.00  0.00    +0.136 C 
BRANCH  14  15
ATOM     15  O   UNL     1      -6.772   9.006  19.415  0.00  0.00    -0.390 OA
ATOM     16  H   UNL     1      -6.426   8.837  18.521  0.00  0.00    +0.210 HD
ENDBRANCH  14  15
BRANCH  14  17
ATOM     17  C   UNL     1      -5.116  10.351  20.505  0.00  0.00    +0.038 C 
BRANCH  17  18
ATOM     18  C   UNL     1      -3.952  10.435  21.493  0.00  0.00    +0.038 C 
BRANCH  18  19
ATOM     19  C   UNL     1      -4.170  11.501  22.536  0.00  0.00    -0.047 A 
ATOM     20  C   UNL     1      -5.462  11.782  23.001  0.00  0.00    +0.003 A 
ATOM     21  C   UNL     1      -5.666  12.755  23.980  0.00  0.00    +0.000 A 
ATOM     22  C   UNL     1      -4.581  13.459  24.498  0.00  0.00    +0.000 A 
ATOM     23  C   UNL     1      -3.293  13.194  24.034  0.00  0.00    +0.000 A 
ATOM     24  C   UNL     1      -3.088  12.222  23.054  0.00  0.00    +0.003 A 
ENDBRANCH  18  19
ENDBRANCH  17  18
ENDBRANCH  14  17
ENDBRANCH  13  14
ENDBRANCH  11  13
ENDBRANCH   7   9
ENDBRANCH   6   7
ENDBRANCH   2   6
ENDBRANCH   1   4
BRANCH   1  25
ATOM     25  C   UNL     1      -4.008   7.752  29.196  0.00  0.00    +0.163 C 
BRANCH  25  26
ATOM     26  O   UNL     1      -4.924   7.515  30.277  0.00  0.00    -0.388 OA
ATOM     27  H   UNL     1      -4.964   8.291  30.840  0.00  0.00    +0.210 HD
ENDBRANCH  25  26
BRANCH  25  28
ATOM     28  C   UNL     1      -2.765   8.515  29.686  0.00  0.00    +0.175 C 
BRANCH  28  29
ATOM     29  C   UNL     1      -3.027  10.022  29.818  0.00  0.00    +0.176 C 
ATOM     30  O   UNL     1      -3.867  10.230  30.986  0.00  0.00    -0.332 OA
ATOM     31  C   UNL     1      -4.136  11.628  31.333  0.00  0.00    +0.277 C 
ATOM     32  C   UNL     1      -4.734  12.381  30.119  0.00  0.00    +0.110 C 
ATOM     33  C   UNL     1      -3.892  12.165  28.844  0.00  0.00    +0.143 C 
ATOM     34  C   UNL     1      -3.670  10.675  28.580  0.00  0.00    +0.133 C 
BRANCH  34  35
ATOM     35  N   UNL     1      -2.795  10.483  27.413  0.00  0.00    -0.308 N 
ATOM     36  H   UNL     1      -1.816  10.714  27.514  0.00  0.00    +0.149 HD
ATOM     37  C   UNL     1      -3.209  10.025  26.229  0.00  0.00    +0.210 C 
ATOM     38  C   UNL     1      -4.710   9.707  26.099  0.00  0.00    +0.109 C 
ATOM     39  O   UNL     1      -2.450   9.861  25.273  0.00  0.00    -0.276 OA
ENDBRANCH  34  35
BRANCH  31  40
ATOM     40  C   UNL     1      -2.845  12.336  31.795  0.00  0.00    +0.414 C 
ATOM     41  O   UNL     1      -1.936  11.690  32.314  0.00  0.00    -0.240 OA
ATOM     42  O   UNL     1      -2.713  13.551  31.647  0.00  0.00    -0.240 OA
ENDBRANCH  31  40
BRANCH  33  43
ATOM     43  O   UNL     1      -4.557  12.748  27.723  0.00  0.00    -0.390 OA
ATOM     44  H   UNL     1      -5.506  12.640  27.821  0.00  0.00    +0.210 HD
ENDBRANCH  33  43
BRANCH  31  45
ATOM     45  O   UNL     1      -5.112  11.644  32.407  0.00  0.00    -0.343 OA
ATOM     46  C   UNL     1      -6.208  12.576  32.224  0.00  0.00    +0.198 C 
ENDBRANCH  31  45
ENDBRANCH  28  29
BRANCH  28  47
ATOM     47  O   UNL     1      -1.655   8.279  28.797  0.00  0.00    -0.387 OA
ATOM     48  H   UNL     1      -1.954   7.770  28.039  0.00  0.00    +0.210 HD
ENDBRANCH  28  47
ENDBRANCH  25  28
ENDBRANCH   1  25
TORSDOF 19
