REMARK VINA RESULT:    -4.736      6.122      8.327
REMARK INTER + INTRA:         -10.975
REMARK INTER:                  -8.856
REMARK INTRA:                  -2.118
REMARK UNBOUND:                -2.363
REMARK  Name = lig_assembled_59.pdb
REMARK  18 active torsions:
REMARK  status: ('A' for Active; 'I' for Inactive)
REMARK    1  A    between atoms: _2  and  _10
REMARK    2  A    between atoms: _5  and  _20
REMARK    3  A    between atoms: _7  and  _8
REMARK    4  A    between atoms: _7  and  _20
REMARK    5  A    between atoms: _13  and  _14
REMARK    6  A    between atoms: _14  and  _15
REMARK    7  A    between atoms: _16  and  _36
REMARK    8  A    between atoms: _18  and  _24
REMARK    9  A    between atoms: _19  and  _23
REMARK   10  A    between atoms: _23  and  _24
REMARK   11  A    between atoms: _26  and  _27
REMARK   12  A    between atoms: _28  and  _29
REMARK   13  A    between atoms: _30  and  _32
REMARK   14  A    between atoms: _32  and  _33
REMARK   15  A    between atoms: _32  and  _34
REMARK   16  A    between atoms: _34  and  _35
REMARK   17  A    between atoms: _34  and  _36
REMARK   18  A    between atoms: _37  and  _39
REMARK                            x       y       z     vdW  Elec       q    Type
REMARK                         _______ _______ _______ _____ _____    ______ ____
ROOT
ATOM      1  C   UNL     1      -5.675  10.868  17.507  0.00  0.00    +0.163 C 
ENDROOT
BRANCH   1   2
ATOM      2  O   UNL     1      -5.205  12.173  17.131  0.00  0.00    -0.388 OA
ATOM      3  H   UNL     1      -4.354  12.338  17.544  0.00  0.00    +0.210 HD
ENDBRANCH   1   2
BRANCH   1   4
ATOM      4  C   UNL     1      -4.570   9.813  17.329  0.00  0.00    +0.175 C 
BRANCH   4   5
ATOM      5  C   UNL     1      -4.324   9.477  15.851  0.00  0.00    +0.176 C 
ATOM      6  O   UNL     1      -3.545  10.558  15.270  0.00  0.00    -0.332 OA
ATOM      7  C   UNL     1      -3.122  10.359  13.880  0.00  0.00    +0.277 C 
ATOM      8  C   UNL     1      -4.344  10.054  12.981  0.00  0.00    +0.110 C 
ATOM      9  C   UNL     1      -5.221   8.931  13.574  0.00  0.00    +0.143 C 
ATOM     10  C   UNL     1      -5.601   9.239  15.023  0.00  0.00    +0.133 C 
BRANCH  10  11
ATOM     11  N   UNL     1      -6.363   8.123  15.605  0.00  0.00    -0.308 N 
ATOM     12  H   UNL     1      -5.870   7.259  15.786  0.00  0.00    +0.149 HD
ATOM     13  C   UNL     1      -7.663   8.176  15.908  0.00  0.00    +0.210 C 
ATOM     14  C   UNL     1      -8.391   9.496  15.595  0.00  0.00    +0.109 C 
ATOM     15  O   UNL     1      -8.272   7.229  16.408  0.00  0.00    -0.276 OA
ENDBRANCH  10  11
BRANCH   7  16
ATOM     16  C   UNL     1      -2.105   9.203  13.778  0.00  0.00    +0.414 C 
ATOM     17  O   UNL     1      -1.422   8.890  14.753  0.00  0.00    -0.240 OA
ATOM     18  O   UNL     1      -1.967   8.584  12.722  0.00  0.00    -0.240 OA
ENDBRANCH   7  16
BRANCH   7  19
ATOM     19  O   UNL     1      -2.509  11.590  13.417  0.00  0.00    -0.343 OA
ATOM     20  C   UNL     1      -2.822  11.952  12.048  0.00  0.00    +0.198 C 
ENDBRANCH   7  19
BRANCH   9  21
ATOM     21  O   UNL     1      -6.411   8.787  12.797  0.00  0.00    -0.390 OA
ATOM     22  H   UNL     1      -7.150   8.589  13.376  0.00  0.00    +0.210 HD
ENDBRANCH   9  21
ENDBRANCH   4   5
BRANCH   4  23
ATOM     23  O   UNL     1      -4.902   8.617  18.062  0.00  0.00    -0.387 OA
ATOM     24  H   UNL     1      -4.474   7.861  17.653  0.00  0.00    +0.210 HD
ENDBRANCH   4  23
ENDBRANCH   1   4
BRANCH   1  25
ATOM     25  C   UNL     1      -6.140  10.879  18.959  0.00  0.00    +0.141 C 
BRANCH  25  28
ATOM     26  C   UNL     1      -4.503  10.631  20.794  0.00  0.00    +0.401 C 
ATOM     27  O   UNL     1      -4.773   9.445  21.001  0.00  0.00    -0.226 OA
ATOM     28  N   UNL     1      -5.097  11.379  19.864  0.00  0.00    -0.279 N 
ATOM     29  H   UNL     1      -4.814  12.345  19.777  0.00  0.00    +0.152 HD
BRANCH  26  30
ATOM     30  O   UNL     1      -3.498  11.263  21.591  0.00  0.00    -0.444 OA
BRANCH  30  31
ATOM     31  C   UNL     1      -4.120  11.997  22.650  0.00  0.00    +0.292 C 
BRANCH  31  33
ATOM     32  N   UNL     1      -2.883  10.366  24.036  0.00  0.00    -0.131 NA
ATOM     33  C   UNL     1      -3.715  11.448  23.958  0.00  0.00    +0.121 A 
ATOM     34  C   UNL     1      -4.047  11.853  25.230  0.00  0.00    +0.145 A 
ATOM     35  N   UNL     1      -3.386  10.979  26.062  0.00  0.00    -0.202 N 
ATOM     36  N   UNL     1      -2.684  10.087  25.317  0.00  0.00    -0.059 NA
BRANCH  35  37
ATOM     37  C   UNL     1      -3.411  10.954  27.483  0.00  0.00    +0.156 A 
ATOM     38  C   UNL     1      -3.904  12.060  28.172  0.00  0.00    +0.048 A 
ATOM     39  C   UNL     1      -3.886  12.046  29.565  0.00  0.00    +0.011 A 
ATOM     40  C   UNL     1      -3.386  10.934  30.245  0.00  0.00    -0.004 A 
ATOM     41  C   UNL     1      -2.914   9.875  29.473  0.00  0.00    +0.119 A 
ATOM     42  N   UNL     1      -2.924   9.853  28.119  0.00  0.00    -0.236 NA
BRANCH  40  43
ATOM     43  C   UNL     1      -3.271  10.935  31.741  0.00  0.00    +0.192 C 
BRANCH  43  44
ATOM     44  O   UNL     1      -1.927  11.126  32.157  0.00  0.00    -0.390 OA
ATOM     45  H   UNL     1      -1.503  10.249  32.153  0.00  0.00    +0.210 HD
ENDBRANCH  43  44
ENDBRANCH  40  43
ENDBRANCH  35  37
ENDBRANCH  31  33
ENDBRANCH  30  31
ENDBRANCH  26  30
ENDBRANCH  25  28
ENDBRANCH   1  25
TORSDOF 16
