REMARK VINA RESULT:    -4.193      3.731      8.296
REMARK INTER + INTRA:         -13.576
REMARK INTER:                  -8.962
REMARK INTRA:                  -4.614
REMARK UNBOUND:                -3.746
REMARK  Name = lig_assembled_30.pdb
REMARK  27 active torsions:
REMARK  status: ('A' for Active; 'I' for Inactive)
REMARK    1  A    between atoms: _2  and  _9
REMARK    2  A    between atoms: _4  and  _25
REMARK    3  A    between atoms: _5  and  _18
REMARK    4  A    between atoms: _5  and  _19
REMARK    5  A    between atoms: _6  and  _7
REMARK    6  A    between atoms: _6  and  _25
REMARK    7  A    between atoms: _9  and  _10
REMARK    8  A    between atoms: _10  and  _11
REMARK    9  A    between atoms: _11  and  _12
REMARK   10  A    between atoms: _12  and  _13
REMARK   11  A    between atoms: _13  and  _14
REMARK   12  A    between atoms: _14  and  _15
REMARK   13  A    between atoms: _15  and  _16
REMARK   14  A    between atoms: _16  and  _17
REMARK   15  A    between atoms: _17  and  _18
REMARK   16  A    between atoms: _21  and  _41
REMARK   17  A    between atoms: _23  and  _29
REMARK   18  A    between atoms: _24  and  _28
REMARK   19  A    between atoms: _28  and  _29
REMARK   20  A    between atoms: _31  and  _32
REMARK   21  A    between atoms: _33  and  _34
REMARK   22  A    between atoms: _35  and  _37
REMARK   23  A    between atoms: _37  and  _38
REMARK   24  A    between atoms: _37  and  _39
REMARK   25  A    between atoms: _39  and  _40
REMARK   26  A    between atoms: _39  and  _41
REMARK   27  A    between atoms: _42  and  _44
REMARK                            x       y       z     vdW  Elec       q    Type
REMARK                         _______ _______ _______ _____ _____    ______ ____
ROOT
ATOM      1  C   UNL     1      -2.891  13.354  32.182  0.00  0.00    +0.401 C 
ATOM      2  O   UNL     1      -1.964  13.077  32.946  0.00  0.00    -0.226 OA
ATOM      3  N   UNL     1      -3.787  12.468  31.745  0.00  0.00    -0.279 N 
ATOM      4  H   UNL     1      -4.517  12.794  31.127  0.00  0.00    +0.152 HD
ENDROOT
BRANCH   1   5
ATOM      5  O   UNL     1      -3.036  14.702  31.727  0.00  0.00    -0.444 OA
BRANCH   5   6
ATOM      6  C   UNL     1      -4.342  15.181  32.061  0.00  0.00    +0.292 C 
BRANCH   6   8
ATOM      7  N   UNL     1      -5.596  14.630  30.000  0.00  0.00    -0.131 NA
ATOM      8  C   UNL     1      -5.071  15.575  30.842  0.00  0.00    +0.120 A 
ATOM      9  C   UNL     1      -5.346  16.828  30.342  0.00  0.00    +0.137 A 
ATOM     10  N   UNL     1      -6.038  16.576  29.197  0.00  0.00    -0.251 N 
ATOM     11  N   UNL     1      -6.188  15.257  28.991  0.00  0.00    -0.065 NA
BRANCH  10  12
ATOM     12  C   UNL     1      -6.547  17.531  28.237  0.00  0.00    +0.145 C 
BRANCH  12  13
ATOM     13  C   UNL     1      -7.041  16.835  26.974  0.00  0.00    +0.023 C 
BRANCH  13  14
ATOM     14  C   UNL     1      -7.012  17.763  25.761  0.00  0.00    +0.002 C 
BRANCH  14  15
ATOM     15  C   UNL     1      -6.451  17.025  24.546  0.00  0.00    +0.000 C 
BRANCH  15  16
ATOM     16  C   UNL     1      -6.558  15.510  24.703  0.00  0.00    +0.000 C 
BRANCH  16  17
ATOM     17  C   UNL     1      -6.196  14.802  23.397  0.00  0.00    +0.000 C 
BRANCH  17  18
ATOM     18  C   UNL     1      -4.908  15.372  22.808  0.00  0.00    +0.000 C 
BRANCH  18  19
ATOM     19  C   UNL     1      -4.002  14.270  22.260  0.00  0.00    +0.001 C 
BRANCH  19  20
ATOM     20  C   UNL     1      -4.121  13.008  23.114  0.00  0.00    +0.011 C 
BRANCH  20  21
ATOM     21  C   UNL     1      -2.937  12.850  24.065  0.00  0.00    +0.120 C 
BRANCH  21  22
ATOM     22  C   UNL     1      -2.818  11.431  24.569  0.00  0.00    +0.305 C 
ATOM     23  O   UNL     1      -2.113  11.065  25.497  0.00  0.00    -0.251 OA
BRANCH  22  24
ATOM     24  O   UNL     1      -3.593  10.570  23.872  0.00  0.00    -0.481 OA
ATOM     25  H   UNL     1      -3.602  10.740  22.911  0.00  0.00    +0.295 HD
ENDBRANCH  22  24
ENDBRANCH  21  22
ENDBRANCH  20  21
ENDBRANCH  19  20
ENDBRANCH  18  19
ENDBRANCH  17  18
ENDBRANCH  16  17
ENDBRANCH  15  16
ENDBRANCH  14  15
ENDBRANCH  13  14
ENDBRANCH  12  13
ENDBRANCH  10  12
ENDBRANCH   6   8
ENDBRANCH   5   6
ENDBRANCH   1   5
BRANCH   3  26
ATOM     26  C   UNL     1      -3.772  11.047  32.111  0.00  0.00    +0.141 C 
BRANCH  26  27
ATOM     27  C   UNL     1      -3.268  10.171  30.969  0.00  0.00    +0.163 C 
BRANCH  27  28
ATOM     28  O   UNL     1      -3.608   8.797  31.216  0.00  0.00    -0.388 OA
ATOM     29  H   UNL     1      -3.425   8.275  30.431  0.00  0.00    +0.210 HD
ENDBRANCH  27  28
BRANCH  27  30
ATOM     30  C   UNL     1      -3.876  10.657  29.642  0.00  0.00    +0.175 C 
BRANCH  30  31
ATOM     31  C   UNL     1      -4.194   9.494  28.691  0.00  0.00    +0.176 C 
ATOM     32  O   UNL     1      -2.947   8.809  28.389  0.00  0.00    -0.332 OA
ATOM     33  C   UNL     1      -3.070   7.598  27.572  0.00  0.00    +0.277 C 
ATOM     34  C   UNL     1      -3.829   7.907  26.258  0.00  0.00    +0.110 C 
ATOM     35  C   UNL     1      -5.148   8.663  26.526  0.00  0.00    +0.143 C 
ATOM     36  C   UNL     1      -4.904   9.903  27.387  0.00  0.00    +0.133 C 
BRANCH  36  37
ATOM     37  N   UNL     1      -6.177  10.566  27.708  0.00  0.00    -0.308 N 
ATOM     38  H   UNL     1      -6.887  10.022  28.177  0.00  0.00    +0.149 HD
ATOM     39  C   UNL     1      -6.456  11.840  27.420  0.00  0.00    +0.210 C 
ATOM     40  C   UNL     1      -5.363  12.636  26.682  0.00  0.00    +0.109 C 
ATOM     41  O   UNL     1      -7.526  12.374  27.714  0.00  0.00    -0.276 OA
ENDBRANCH  36  37
BRANCH  33  42
ATOM     42  C   UNL     1      -3.811   6.489  28.347  0.00  0.00    +0.414 C 
ATOM     43  O   UNL     1      -4.705   5.843  27.803  0.00  0.00    -0.240 OA
ATOM     44  O   UNL     1      -3.514   6.240  29.517  0.00  0.00    -0.240 OA
ENDBRANCH  33  42
BRANCH  35  45
ATOM     45  O   UNL     1      -5.737   9.058  25.287  0.00  0.00    -0.390 OA
ATOM     46  H   UNL     1      -5.055   9.120  24.614  0.00  0.00    +0.210 HD
ENDBRANCH  35  45
BRANCH  33  47
ATOM     47  O   UNL     1      -1.733   7.148  27.233  0.00  0.00    -0.343 OA
ATOM     48  C   UNL     1      -1.678   5.927  26.453  0.00  0.00    +0.198 C 
ENDBRANCH  33  47
ENDBRANCH  30  31
BRANCH  30  49
ATOM     49  O   UNL     1      -2.986  11.593  29.001  0.00  0.00    -0.387 OA
ATOM     50  H   UNL     1      -3.165  12.479  29.326  0.00  0.00    +0.210 HD
ENDBRANCH  30  49
ENDBRANCH  27  30
ENDBRANCH  26  27
ENDBRANCH   3  26
TORSDOF 25
