REMARK VINA RESULT:    -4.675      2.800      8.467
REMARK INTER + INTRA:         -12.245
REMARK INTER:                  -8.857
REMARK INTRA:                  -3.388
REMARK UNBOUND:                -3.060
REMARK  Name = lig_assembled_37.pdb
REMARK  21 active torsions:
REMARK  status: ('A' for Active; 'I' for Inactive)
REMARK    1  A    between atoms: _2  and  _9
REMARK    2  A    between atoms: _4  and  _24
REMARK    3  A    between atoms: _6  and  _7
REMARK    4  A    between atoms: _6  and  _24
REMARK    5  A    between atoms: _9  and  _10
REMARK    6  A    between atoms: _9  and  _11
REMARK    7  A    between atoms: _11  and  _18
REMARK    8  A    between atoms: _12  and  _13
REMARK    9  A    between atoms: _12  and  _18
REMARK   10  A    between atoms: _20  and  _40
REMARK   11  A    between atoms: _22  and  _28
REMARK   12  A    between atoms: _23  and  _27
REMARK   13  A    between atoms: _27  and  _28
REMARK   14  A    between atoms: _30  and  _31
REMARK   15  A    between atoms: _32  and  _33
REMARK   16  A    between atoms: _34  and  _36
REMARK   17  A    between atoms: _36  and  _37
REMARK   18  A    between atoms: _36  and  _38
REMARK   19  A    between atoms: _38  and  _39
REMARK   20  A    between atoms: _38  and  _40
REMARK   21  A    between atoms: _41  and  _43
REMARK                            x       y       z     vdW  Elec       q    Type
REMARK                         _______ _______ _______ _____ _____    ______ ____
ROOT
ATOM      1  C   UNL     1      -2.260  10.231  26.686  0.00  0.00    +0.141 C 
ENDROOT
BRANCH   1   4
ATOM      2  C   UNL     1      -2.629   8.687  28.580  0.00  0.00    +0.401 C 
ATOM      3  O   UNL     1      -1.632   8.004  28.339  0.00  0.00    -0.226 OA
ATOM      4  N   UNL     1      -3.002   9.743  27.855  0.00  0.00    -0.279 N 
ATOM      5  H   UNL     1      -3.842  10.235  28.126  0.00  0.00    +0.152 HD
BRANCH   2   6
ATOM      6  O   UNL     1      -3.454   8.343  29.696  0.00  0.00    -0.444 OA
BRANCH   6   7
ATOM      7  C   UNL     1      -2.793   8.708  30.910  0.00  0.00    +0.292 C 
BRANCH   7   9
ATOM      8  N   UNL     1      -4.623  10.320  31.355  0.00  0.00    -0.131 NA
ATOM      9  C   UNL     1      -3.289  10.009  31.396  0.00  0.00    +0.120 A 
ATOM     10  C   UNL     1      -2.598  11.069  31.937  0.00  0.00    +0.138 A 
ATOM     11  N   UNL     1      -3.559  12.005  32.180  0.00  0.00    -0.238 N 
ATOM     12  N   UNL     1      -4.778  11.542  31.845  0.00  0.00    -0.065 NA
BRANCH  11  13
ATOM     13  C   UNL     1      -3.433  13.319  32.780  0.00  0.00    +0.214 C 
ATOM     14  C   UNL     1      -2.675  13.257  34.106  0.00  0.00    +0.045 C 
BRANCH  13  15
ATOM     15  C   UNL     1      -2.758  14.288  31.836  0.00  0.00    +0.332 C 
ATOM     16  O   UNL     1      -1.684  14.073  31.284  0.00  0.00    -0.248 OA
BRANCH  15  17
ATOM     17  O   UNL     1      -3.495  15.421  31.686  0.00  0.00    -0.458 OA
BRANCH  17  18
ATOM     18  C   UNL     1      -4.874  15.236  31.330  0.00  0.00    +0.267 C 
BRANCH  18  19
ATOM     19  C   UNL     1      -5.283  16.262  30.306  0.00  0.00    -0.010 A 
ATOM     20  C   UNL     1      -6.252  15.955  29.340  0.00  0.00    +0.007 A 
ATOM     21  C   UNL     1      -6.652  16.914  28.408  0.00  0.00    +0.000 A 
ATOM     22  C   UNL     1      -6.088  18.188  28.430  0.00  0.00    +0.000 A 
ATOM     23  C   UNL     1      -5.120  18.503  29.381  0.00  0.00    +0.000 A 
ATOM     24  C   UNL     1      -4.716  17.545  30.313  0.00  0.00    +0.007 A 
ENDBRANCH  18  19
ENDBRANCH  17  18
ENDBRANCH  15  17
ENDBRANCH  13  15
ENDBRANCH  11  13
ENDBRANCH   7   9
ENDBRANCH   6   7
ENDBRANCH   2   6
ENDBRANCH   1   4
BRANCH   1  25
ATOM     25  C   UNL     1      -2.960  11.412  26.021  0.00  0.00    +0.163 C 
BRANCH  25  26
ATOM     26  O   UNL     1      -1.988  12.286  25.424  0.00  0.00    -0.388 OA
ATOM     27  H   UNL     1      -2.358  12.684  24.633  0.00  0.00    +0.210 HD
ENDBRANCH  25  26
BRANCH  25  28
ATOM     28  C   UNL     1      -3.955  10.894  24.968  0.00  0.00    +0.175 C 
BRANCH  28  29
ATOM     29  C   UNL     1      -4.989  11.960  24.577  0.00  0.00    +0.176 C 
ATOM     30  O   UNL     1      -4.327  12.933  23.723  0.00  0.00    -0.332 OA
ATOM     31  C   UNL     1      -5.191  13.976  23.162  0.00  0.00    +0.277 C 
ATOM     32  C   UNL     1      -5.958  14.707  24.290  0.00  0.00    +0.110 C 
ATOM     33  C   UNL     1      -6.653  13.713  25.243  0.00  0.00    +0.143 C 
ATOM     34  C   UNL     1      -5.663  12.670  25.765  0.00  0.00    +0.133 C 
BRANCH  34  35
ATOM     35  N   UNL     1      -6.354  11.678  26.603  0.00  0.00    -0.308 N 
ATOM     36  H   UNL     1      -6.992  11.039  26.149  0.00  0.00    +0.149 HD
ATOM     37  C   UNL     1      -6.194  11.566  27.924  0.00  0.00    +0.210 C 
ATOM     38  C   UNL     1      -5.236  12.571  28.591  0.00  0.00    +0.109 C 
ATOM     39  O   UNL     1      -6.776  10.714  28.599  0.00  0.00    -0.276 OA
ENDBRANCH  34  35
BRANCH  31  40
ATOM     40  C   UNL     1      -6.197  13.372  22.160  0.00  0.00    +0.414 C 
ATOM     41  O   UNL     1      -5.980  12.275  21.648  0.00  0.00    -0.240 OA
ATOM     42  O   UNL     1      -7.226  13.982  21.865  0.00  0.00    -0.240 OA
ENDBRANCH  31  40
BRANCH  31  43
ATOM     43  O   UNL     1      -4.346  14.941  22.483  0.00  0.00    -0.343 OA
ATOM     44  C   UNL     1      -3.202  14.377  21.795  0.00  0.00    +0.198 C 
ENDBRANCH  31  43
BRANCH  33  45
ATOM     45  O   UNL     1      -7.219  14.419  26.348  0.00  0.00    -0.390 OA
ATOM     46  H   UNL     1      -6.627  14.362  27.102  0.00  0.00    +0.210 HD
ENDBRANCH  33  45
ENDBRANCH  28  29
BRANCH  28  47
ATOM     47  O   UNL     1      -4.620   9.711  25.454  0.00  0.00    -0.387 OA
ATOM     48  H   UNL     1      -3.966   9.075  25.752  0.00  0.00    +0.210 HD
ENDBRANCH  28  47
ENDBRANCH  25  28
ENDBRANCH   1  25
TORSDOF 18
