REMARK VINA RESULT:    -4.386      2.959      7.262
REMARK INTER + INTRA:         -10.658
REMARK INTER:                  -7.966
REMARK INTRA:                  -2.692
REMARK UNBOUND:                -3.067
REMARK  Name = lig_assembled_8.pdb
REMARK  16 active torsions:
REMARK  status: ('A' for Active; 'I' for Inactive)
REMARK    1  A    between atoms: _2  and  _9
REMARK    2  A    between atoms: _4  and  _18
REMARK    3  A    between atoms: _6  and  _7
REMARK    4  A    between atoms: _6  and  _18
REMARK    5  A    between atoms: _14  and  _34
REMARK    6  A    between atoms: _16  and  _22
REMARK    7  A    between atoms: _17  and  _21
REMARK    8  A    between atoms: _21  and  _22
REMARK    9  A    between atoms: _24  and  _25
REMARK   10  A    between atoms: _26  and  _27
REMARK   11  A    between atoms: _28  and  _30
REMARK   12  A    between atoms: _30  and  _31
REMARK   13  A    between atoms: _30  and  _32
REMARK   14  A    between atoms: _32  and  _33
REMARK   15  A    between atoms: _32  and  _34
REMARK   16  A    between atoms: _35  and  _37
REMARK                            x       y       z     vdW  Elec       q    Type
REMARK                         _______ _______ _______ _____ _____    ______ ____
ROOT
ATOM      1  C   UNL     1      -2.093   9.030  28.324  0.00  0.00    +0.163 C 
ENDROOT
BRANCH   1   2
ATOM      2  O   UNL     1      -1.688   9.585  27.062  0.00  0.00    -0.388 OA
ATOM      3  H   UNL     1      -1.481  10.516  27.173  0.00  0.00    +0.210 HD
ENDBRANCH   1   2
BRANCH   1   4
ATOM      4  C   UNL     1      -1.991   7.508  28.282  0.00  0.00    +0.141 C 
BRANCH   4   7
ATOM      5  C   UNL     1      -2.260   6.284  26.152  0.00  0.00    +0.401 C 
ATOM      6  O   UNL     1      -1.050   6.102  25.996  0.00  0.00    -0.226 OA
ATOM      7  N   UNL     1      -2.787   6.937  27.189  0.00  0.00    -0.279 N 
ATOM      8  H   UNL     1      -3.791   7.043  27.225  0.00  0.00    +0.152 HD
BRANCH   5   9
ATOM      9  O   UNL     1      -3.171   5.777  25.174  0.00  0.00    -0.444 OA
BRANCH   9  10
ATOM     10  C   UNL     1      -4.383   6.536  25.211  0.00  0.00    +0.292 C 
BRANCH  10  12
ATOM     11  N   UNL     1      -4.672   7.088  22.823  0.00  0.00    -0.131 NA
ATOM     12  C   UNL     1      -4.418   7.498  24.093  0.00  0.00    +0.121 A 
ATOM     13  C   UNL     1      -4.230   8.861  24.093  0.00  0.00    +0.143 A 
ATOM     14  N   UNL     1      -4.405   9.257  22.778  0.00  0.00    -0.219 N 
ATOM     15  N   UNL     1      -4.657   8.155  22.037  0.00  0.00    -0.060 NA
BRANCH  14  16
ATOM     16  C   UNL     1      -4.357  10.582  22.243  0.00  0.00    +0.081 A 
ATOM     17  C   UNL     1      -3.126  11.046  21.726  0.00  0.00    +0.029 A 
ATOM     18  C   UNL     1      -2.990  12.336  21.206  0.00  0.00    +0.002 A 
ATOM     19  C   UNL     1      -4.078  13.194  21.188  0.00  0.00    +0.001 A 
ATOM     20  C   UNL     1      -5.303  12.758  21.684  0.00  0.00    +0.017 A 
ATOM     21  C   UNL     1      -5.458  11.461  22.210  0.00  0.00    +0.043 A 
ATOM     22 BR   UNL     1      -7.226  11.095  22.822  0.00  0.00    -0.048 Br
ENDBRANCH  14  16
ENDBRANCH  10  12
ENDBRANCH   9  10
ENDBRANCH   5   9
ENDBRANCH   4   7
ENDBRANCH   1   4
BRANCH   1  23
ATOM     23  C   UNL     1      -3.536   9.438  28.667  0.00  0.00    +0.175 C 
BRANCH  23  24
ATOM     24  C   UNL     1      -3.591  10.750  29.464  0.00  0.00    +0.176 C 
ATOM     25  O   UNL     1      -4.172  10.460  30.765  0.00  0.00    -0.332 OA
ATOM     26  C   UNL     1      -4.207  11.582  31.708  0.00  0.00    +0.277 C 
ATOM     27  C   UNL     1      -4.924  12.799  31.074  0.00  0.00    +0.110 C 
ATOM     28  C   UNL     1      -4.362  13.127  29.675  0.00  0.00    +0.143 C 
ATOM     29  C   UNL     1      -4.369  11.889  28.777  0.00  0.00    +0.133 C 
BRANCH  29  30
ATOM     30  N   UNL     1      -3.751  12.192  27.477  0.00  0.00    -0.308 N 
ATOM     31  H   UNL     1      -2.780  12.473  27.470  0.00  0.00    +0.149 HD
ATOM     32  C   UNL     1      -4.388  12.119  26.305  0.00  0.00    +0.210 C 
ATOM     33  C   UNL     1      -5.873  11.712  26.352  0.00  0.00    +0.109 C 
ATOM     34  O   UNL     1      -3.841  12.365  25.230  0.00  0.00    -0.276 OA
ENDBRANCH  29  30
BRANCH  26  35
ATOM     35  C   UNL     1      -2.779  11.987  32.130  0.00  0.00    +0.414 C 
ATOM     36  O   UNL     1      -1.898  11.135  32.233  0.00  0.00    -0.240 OA
ATOM     37  O   UNL     1      -2.509  13.165  32.367  0.00  0.00    -0.240 OA
ENDBRANCH  26  35
BRANCH  28  38
ATOM     38  O   UNL     1      -5.148  14.152  29.068  0.00  0.00    -0.390 OA
ATOM     39  H   UNL     1      -5.001  14.983  29.526  0.00  0.00    +0.210 HD
ENDBRANCH  28  38
BRANCH  26  40
ATOM     40  O   UNL     1      -4.961  11.163  32.875  0.00  0.00    -0.343 OA
ATOM     41  C   UNL     1      -5.292   9.752  32.916  0.00  0.00    +0.198 C 
ENDBRANCH  26  40
ENDBRANCH  23  24
BRANCH  23  42
ATOM     42  O   UNL     1      -4.189   8.384  29.402  0.00  0.00    -0.387 OA
ATOM     43  H   UNL     1      -4.834   7.952  28.837  0.00  0.00    +0.210 HD
ENDBRANCH  23  42
ENDBRANCH   1  23
TORSDOF 14
