REMARK VINA RESULT:    -5.402      3.173      9.177
REMARK INTER + INTRA:         -13.089
REMARK INTER:                 -10.269
REMARK INTRA:                  -2.821
REMARK UNBOUND:                -3.108
REMARK  Name = lig_assembled_58.pdb
REMARK  18 active torsions:
REMARK  status: ('A' for Active; 'I' for Inactive)
REMARK    1  A    between atoms: _2  and  _9
REMARK    2  A    between atoms: _4  and  _25
REMARK    3  A    between atoms: _6  and  _7
REMARK    4  A    between atoms: _6  and  _25
REMARK    5  A    between atoms: _9  and  _10
REMARK    6  A    between atoms: _9  and  _16
REMARK    7  A    between atoms: _21  and  _41
REMARK    8  A    between atoms: _23  and  _29
REMARK    9  A    between atoms: _24  and  _28
REMARK   10  A    between atoms: _28  and  _29
REMARK   11  A    between atoms: _31  and  _32
REMARK   12  A    between atoms: _33  and  _34
REMARK   13  A    between atoms: _35  and  _37
REMARK   14  A    between atoms: _37  and  _38
REMARK   15  A    between atoms: _37  and  _39
REMARK   16  A    between atoms: _39  and  _40
REMARK   17  A    between atoms: _39  and  _41
REMARK   18  A    between atoms: _42  and  _44
REMARK                            x       y       z     vdW  Elec       q    Type
REMARK                         _______ _______ _______ _____ _____    ______ ____
ROOT
ATOM      1  C   UNL     1      -6.033   7.497  21.837  0.00  0.00    +0.141 C 
ENDROOT
BRANCH   1   4
ATOM      2  C   UNL     1      -6.143   9.365  20.222  0.00  0.00    +0.401 C 
ATOM      3  O   UNL     1      -5.112   9.038  19.631  0.00  0.00    -0.226 OA
ATOM      4  N   UNL     1      -6.643   8.705  21.268  0.00  0.00    -0.279 N 
ATOM      5  H   UNL     1      -7.490   9.057  21.693  0.00  0.00    +0.152 HD
BRANCH   2   6
ATOM      6  O   UNL     1      -6.861  10.520  19.781  0.00  0.00    -0.444 OA
BRANCH   6   7
ATOM      7  C   UNL     1      -7.525  10.228  18.549  0.00  0.00    +0.292 C 
BRANCH   7   9
ATOM      8  N   UNL     1      -6.133  12.064  17.616  0.00  0.00    -0.131 NA
ATOM      9  C   UNL     1      -6.852  10.913  17.430  0.00  0.00    +0.120 A 
ATOM     10  C   UNL     1      -6.782  10.552  16.105  0.00  0.00    +0.138 A 
ATOM     11  N   UNL     1      -5.881  11.429  15.563  0.00  0.00    -0.240 N 
ATOM     12  N   UNL     1      -5.559  12.385  16.464  0.00  0.00    -0.064 NA
BRANCH  11  13
ATOM     13  C   UNL     1      -5.249  11.417  14.231  0.00  0.00    +0.169 C 
BRANCH  13  14
ATOM     14  C   UNL     1      -4.874  12.848  13.817  0.00  0.00    -0.019 A 
ATOM     15  C   UNL     1      -5.837  13.690  13.236  0.00  0.00    +0.006 A 
ATOM     16  C   UNL     1      -5.492  14.973  12.803  0.00  0.00    +0.000 A 
ATOM     17  C   UNL     1      -4.188  15.441  12.955  0.00  0.00    +0.000 A 
ATOM     18  C   UNL     1      -3.220  14.621  13.526  0.00  0.00    +0.000 A 
ATOM     19  C   UNL     1      -3.558  13.334  13.942  0.00  0.00    +0.006 A 
ENDBRANCH  13  14
BRANCH  13  20
ATOM     20  C   UNL     1      -4.110  10.393  14.123  0.00  0.00    -0.019 A 
ATOM     21  C   UNL     1      -3.419   9.950  15.265  0.00  0.00    +0.006 A 
ATOM     22  C   UNL     1      -2.381   9.019  15.160  0.00  0.00    +0.000 A 
ATOM     23  C   UNL     1      -2.032   8.497  13.918  0.00  0.00    +0.000 A 
ATOM     24  C   UNL     1      -2.737   8.879  12.785  0.00  0.00    +0.000 A 
ATOM     25  C   UNL     1      -3.777   9.802  12.889  0.00  0.00    +0.006 A 
ENDBRANCH  13  20
ENDBRANCH  11  13
ENDBRANCH   7   9
ENDBRANCH   6   7
ENDBRANCH   2   6
ENDBRANCH   1   4
BRANCH   1  26
ATOM     26  C   UNL     1      -4.993   7.833  22.901  0.00  0.00    +0.163 C 
BRANCH  26  27
ATOM     27  O   UNL     1      -3.689   7.919  22.304  0.00  0.00    -0.388 OA
ATOM     28  H   UNL     1      -3.587   7.220  21.653  0.00  0.00    +0.210 HD
ENDBRANCH  26  27
BRANCH  26  29
ATOM     29  C   UNL     1      -5.371   9.155  23.590  0.00  0.00    +0.175 C 
BRANCH  29  30
ATOM     30  C   UNL     1      -4.181   9.781  24.333  0.00  0.00    +0.176 C 
ATOM     31  O   UNL     1      -4.508   9.819  25.749  0.00  0.00    -0.332 OA
ATOM     32  C   UNL     1      -3.439  10.291  26.634  0.00  0.00    +0.277 C 
ATOM     33  C   UNL     1      -2.932  11.681  26.177  0.00  0.00    +0.110 C 
ATOM     34  C   UNL     1      -2.602  11.699  24.669  0.00  0.00    +0.143 C 
ATOM     35  C   UNL     1      -3.781  11.185  23.843  0.00  0.00    +0.133 C 
BRANCH  35  36
ATOM     36  N   UNL     1      -3.424  11.124  22.417  0.00  0.00    -0.308 N 
ATOM     37  H   UNL     1      -2.761  10.419  22.126  0.00  0.00    +0.149 HD
ATOM     38  C   UNL     1      -3.918  11.940  21.482  0.00  0.00    +0.210 C 
ATOM     39  C   UNL     1      -4.905  13.021  21.961  0.00  0.00    +0.109 C 
ATOM     40  O   UNL     1      -3.612  11.857  20.292  0.00  0.00    -0.276 OA
ENDBRANCH  35  36
BRANCH  32  41
ATOM     41  C   UNL     1      -2.262   9.294  26.652  0.00  0.00    +0.414 C 
ATOM     42  O   UNL     1      -1.111   9.689  26.470  0.00  0.00    -0.240 OA
ATOM     43  O   UNL     1      -2.463   8.094  26.847  0.00  0.00    -0.240 OA
ENDBRANCH  32  41
BRANCH  34  44
ATOM     44  O   UNL     1      -2.286  13.030  24.261  0.00  0.00    -0.390 OA
ATOM     45  H   UNL     1      -2.765  13.656  24.809  0.00  0.00    +0.210 HD
ENDBRANCH  34  44
BRANCH  32  46
ATOM     46  O   UNL     1      -3.988  10.422  27.971  0.00  0.00    -0.343 OA
ATOM     47  C   UNL     1      -3.639  11.650  28.659  0.00  0.00    +0.198 C 
ENDBRANCH  32  46
ENDBRANCH  29  30
BRANCH  29  48
ATOM     48  O   UNL     1      -6.469   8.945  24.500  0.00  0.00    -0.387 OA
ATOM     49  H   UNL     1      -6.370   8.092  24.930  0.00  0.00    +0.210 HD
ENDBRANCH  29  48
ENDBRANCH  26  29
ENDBRANCH   1  26
TORSDOF 16
