REMARK VINA RESULT:    -5.886      5.232     12.352
REMARK INTER + INTRA:         -12.658
REMARK INTER:                 -10.649
REMARK INTRA:                  -2.009
REMARK UNBOUND:                -1.954
REMARK  Name = lig_assembled_60.pdb
REMARK  18 active torsions:
REMARK  status: ('A' for Active; 'I' for Inactive)
REMARK    1  A    between atoms: _2  and  _10
REMARK    2  A    between atoms: _3  and  _41
REMARK    3  A    between atoms: _5  and  _21
REMARK    4  A    between atoms: _7  and  _8
REMARK    5  A    between atoms: _7  and  _21
REMARK    6  A    between atoms: _13  and  _41
REMARK    7  A    between atoms: _17  and  _37
REMARK    8  A    between atoms: _19  and  _25
REMARK    9  A    between atoms: _20  and  _24
REMARK   10  A    between atoms: _24  and  _25
REMARK   11  A    between atoms: _27  and  _28
REMARK   12  A    between atoms: _29  and  _30
REMARK   13  A    between atoms: _31  and  _33
REMARK   14  A    between atoms: _33  and  _34
REMARK   15  A    between atoms: _33  and  _35
REMARK   16  A    between atoms: _35  and  _36
REMARK   17  A    between atoms: _35  and  _37
REMARK   18  A    between atoms: _38  and  _40
REMARK                            x       y       z     vdW  Elec       q    Type
REMARK                         _______ _______ _______ _____ _____    ______ ____
ROOT
ATOM      1  C   UNL     1      -3.058  13.082  24.316  0.00  0.00    +0.141 C 
ENDROOT
BRANCH   1   4
ATOM      2  C   UNL     1      -4.069  13.122  22.062  0.00  0.00    +0.401 C 
ATOM      3  O   UNL     1      -3.079  12.641  21.506  0.00  0.00    -0.226 OA
ATOM      4  N   UNL     1      -4.144  13.368  23.370  0.00  0.00    -0.279 N 
ATOM      5  H   UNL     1      -4.996  13.773  23.732  0.00  0.00    +0.152 HD
BRANCH   2   6
ATOM      6  O   UNL     1      -5.217  13.448  21.274  0.00  0.00    -0.444 OA
BRANCH   6   7
ATOM      7  C   UNL     1      -6.008  12.274  21.073  0.00  0.00    +0.292 C 
BRANCH   7   9
ATOM      8  N   UNL     1      -6.548  12.250  18.657  0.00  0.00    -0.131 NA
ATOM      9  C   UNL     1      -5.823  11.759  19.704  0.00  0.00    +0.121 A 
ATOM     10  C   UNL     1      -4.963  10.791  19.239  0.00  0.00    +0.143 A 
ATOM     11  N   UNL     1      -5.175  10.749  17.879  0.00  0.00    -0.220 N 
ATOM     12  N   UNL     1      -6.157  11.626  17.555  0.00  0.00    -0.060 NA
BRANCH  11  13
ATOM     13  C   UNL     1      -4.493   9.981  16.900  0.00  0.00    +0.067 A 
ATOM     14  C   UNL     1      -4.673   8.591  16.829  0.00  0.00    +0.030 A 
ATOM     15  C   UNL     1      -3.943   7.837  15.908  0.00  0.00    +0.030 A 
ATOM     16  C   UNL     1      -3.045   8.471  15.047  0.00  0.00    +0.105 A 
ATOM     17  C   UNL     1      -2.870   9.857  15.098  0.00  0.00    +0.030 A 
ATOM     18  C   UNL     1      -3.599  10.613  16.020  0.00  0.00    +0.030 A 
BRANCH  16  19
ATOM     19  S   UNL     1      -2.071   7.496  13.940  0.00  0.00    +0.056 S 
ATOM     20  O   UNL     1      -1.923   8.200  12.687  0.00  0.00    -0.153 OA
ATOM     21  O   UNL     1      -0.945   6.947  14.660  0.00  0.00    -0.153 OA
BRANCH  19  22
ATOM     22  N   UNL     1      -3.097   6.206  13.630  0.00  0.00    -0.204 NA
ATOM     23  H   UNL     1      -2.613   5.327  13.813  0.00  0.00    +0.144 HD
ATOM     24  H   UNL     1      -3.470   6.282  12.683  0.00  0.00    +0.144 HD
ENDBRANCH  19  22
ENDBRANCH  16  19
ENDBRANCH  11  13
ENDBRANCH   7   9
ENDBRANCH   6   7
ENDBRANCH   2   6
ENDBRANCH   1   4
BRANCH   1  25
ATOM     25  C   UNL     1      -3.303  11.792  25.090  0.00  0.00    +0.163 C 
BRANCH  25  26
ATOM     26  O   UNL     1      -2.150  10.938  25.000  0.00  0.00    -0.388 OA
ATOM     27  H   UNL     1      -2.122  10.356  25.764  0.00  0.00    +0.210 HD
ENDBRANCH  25  26
BRANCH  25  28
ATOM     28  C   UNL     1      -3.626  12.126  26.557  0.00  0.00    +0.175 C 
BRANCH  28  29
ATOM     29  C   UNL     1      -3.377  10.932  27.490  0.00  0.00    +0.176 C 
ATOM     30  O   UNL     1      -4.013   9.764  26.902  0.00  0.00    -0.332 OA
ATOM     31  C   UNL     1      -3.790   8.498  27.607  0.00  0.00    +0.277 C 
ATOM     32  C   UNL     1      -4.203   8.627  29.094  0.00  0.00    +0.110 C 
ATOM     33  C   UNL     1      -3.576   9.873  29.754  0.00  0.00    +0.143 C 
ATOM     34  C   UNL     1      -3.868  11.132  28.936  0.00  0.00    +0.133 C 
BRANCH  34  35
ATOM     35  N   UNL     1      -3.193  12.298  29.528  0.00  0.00    -0.308 N 
ATOM     36  H   UNL     1      -2.183  12.310  29.525  0.00  0.00    +0.149 HD
ATOM     37  C   UNL     1      -3.828  13.341  30.068  0.00  0.00    +0.210 C 
ATOM     38  C   UNL     1      -5.367  13.281  30.080  0.00  0.00    +0.109 C 
ATOM     39  O   UNL     1      -3.236  14.311  30.543  0.00  0.00    -0.276 OA
ENDBRANCH  34  35
BRANCH  31  40
ATOM     40  C   UNL     1      -2.309   8.077  27.518  0.00  0.00    +0.414 C 
ATOM     41  O   UNL     1      -1.764   7.519  28.470  0.00  0.00    -0.240 OA
ATOM     42  O   UNL     1      -1.658   8.295  26.495  0.00  0.00    -0.240 OA
ENDBRANCH  31  40
BRANCH  33  43
ATOM     43  O   UNL     1      -4.101  10.035  31.072  0.00  0.00    -0.390 OA
ATOM     44  H   UNL     1      -3.565   9.538  31.694  0.00  0.00    +0.210 HD
ENDBRANCH  33  43
BRANCH  31  45
ATOM     45  O   UNL     1      -4.624   7.486  26.986  0.00  0.00    -0.343 OA
ATOM     46  C   UNL     1      -5.294   7.906  25.771  0.00  0.00    +0.198 C 
ENDBRANCH  31  45
ENDBRANCH  28  29
BRANCH  28  47
ATOM     47  O   UNL     1      -4.992  12.572  26.674  0.00  0.00    -0.387 OA
ATOM     48  H   UNL     1      -5.006  13.502  26.913  0.00  0.00    +0.210 HD
ENDBRANCH  28  47
ENDBRANCH  25  28
ENDBRANCH   1  25
TORSDOF 16
