REMARK VINA RESULT:    -5.238      1.856      3.048
REMARK INTER + INTRA:         -12.662
REMARK INTER:                  -9.404
REMARK INTRA:                  -3.258
REMARK UNBOUND:                -2.678
REMARK  Name = lig_assembled_26.pdb
REMARK  20 active torsions:
REMARK  status: ('A' for Active; 'I' for Inactive)
REMARK    1  A    between atoms: _2  and  _9
REMARK    2  A    between atoms: _4  and  _23
REMARK    3  A    between atoms: _6  and  _7
REMARK    4  A    between atoms: _6  and  _23
REMARK    5  A    between atoms: _9  and  _10
REMARK    6  A    between atoms: _9  and  _11
REMARK    7  A    between atoms: _11  and  _12
REMARK    8  A    between atoms: _12  and  _13
REMARK    9  A    between atoms: _19  and  _39
REMARK   10  A    between atoms: _21  and  _27
REMARK   11  A    between atoms: _22  and  _26
REMARK   12  A    between atoms: _26  and  _27
REMARK   13  A    between atoms: _29  and  _30
REMARK   14  A    between atoms: _31  and  _32
REMARK   15  A    between atoms: _33  and  _35
REMARK   16  A    between atoms: _35  and  _36
REMARK   17  A    between atoms: _35  and  _37
REMARK   18  A    between atoms: _37  and  _38
REMARK   19  A    between atoms: _37  and  _39
REMARK   20  A    between atoms: _40  and  _42
REMARK                            x       y       z     vdW  Elec       q    Type
REMARK                         _______ _______ _______ _____ _____    ______ ____
ROOT
ATOM      1  C   UNL     1      -6.447   9.025  23.249  0.00  0.00    +0.163 C 
ENDROOT
BRANCH   1   2
ATOM      2  O   UNL     1      -7.165   9.107  24.491  0.00  0.00    -0.388 OA
ATOM      3  H   UNL     1      -7.199   8.239  24.899  0.00  0.00    +0.210 HD
ENDBRANCH   1   2
BRANCH   1   4
ATOM      4  C   UNL     1      -5.106   8.293  23.436  0.00  0.00    +0.175 C 
BRANCH   4   5
ATOM      5  C   UNL     1      -4.050   9.184  24.105  0.00  0.00    +0.176 C 
ATOM      6  O   UNL     1      -4.368   9.268  25.522  0.00  0.00    -0.332 OA
ATOM      7  C   UNL     1      -3.400   9.998  26.346  0.00  0.00    +0.277 C 
ATOM      8  C   UNL     1      -3.167  11.419  25.777  0.00  0.00    +0.110 C 
ATOM      9  C   UNL     1      -2.856  11.383  24.266  0.00  0.00    +0.143 C 
ATOM     10  C   UNL     1      -3.924  10.597  23.505  0.00  0.00    +0.133 C 
BRANCH  10  11
ATOM     11  N   UNL     1      -3.572  10.496  22.080  0.00  0.00    -0.308 N 
ATOM     12  H   UNL     1      -2.807   9.888  21.825  0.00  0.00    +0.149 HD
ATOM     13  C   UNL     1      -4.198  11.156  21.102  0.00  0.00    +0.210 C 
ATOM     14  C   UNL     1      -5.344  12.094  21.525  0.00  0.00    +0.109 C 
ATOM     15  O   UNL     1      -3.891  11.041  19.915  0.00  0.00    -0.276 OA
ENDBRANCH  10  11
BRANCH   7  16
ATOM     16  C   UNL     1      -2.057   9.241  26.411  0.00  0.00    +0.414 C 
ATOM     17  O   UNL     1      -0.997   9.864  26.464  0.00  0.00    -0.240 OA
ATOM     18  O   UNL     1      -2.033   8.010  26.412  0.00  0.00    -0.240 OA
ENDBRANCH   7  16
BRANCH   7  19
ATOM     19  O   UNL     1      -3.954  10.125  27.681  0.00  0.00    -0.343 OA
ATOM     20  C   UNL     1      -3.900  11.461  28.242  0.00  0.00    +0.198 C 
ENDBRANCH   7  19
BRANCH   9  21
ATOM     21  O   UNL     1      -2.799  12.715  23.755  0.00  0.00    -0.390 OA
ATOM     22  H   UNL     1      -3.310  13.299  24.321  0.00  0.00    +0.210 HD
ENDBRANCH   9  21
ENDBRANCH   4   5
BRANCH   4  23
ATOM     23  O   UNL     1      -4.620   7.815  22.166  0.00  0.00    -0.387 OA
ATOM     24  H   UNL     1      -4.914   8.404  21.467  0.00  0.00    +0.210 HD
ENDBRANCH   4  23
ENDBRANCH   1   4
BRANCH   1  25
ATOM     25  C   UNL     1      -7.286   8.292  22.208  0.00  0.00    +0.141 C 
BRANCH  25  28
ATOM     26  C   UNL     1      -7.580   9.723  20.214  0.00  0.00    +0.401 C 
ATOM     27  O   UNL     1      -8.495  10.385  20.709  0.00  0.00    -0.226 OA
ATOM     28  N   UNL     1      -6.962   8.721  20.842  0.00  0.00    -0.279 N 
ATOM     29  H   UNL     1      -6.229   8.230  20.350  0.00  0.00    +0.152 HD
BRANCH  26  30
ATOM     30  O   UNL     1      -7.141  10.025  18.888  0.00  0.00    -0.444 OA
BRANCH  30  31
ATOM     31  C   UNL     1      -7.405   8.910  18.031  0.00  0.00    +0.292 C 
BRANCH  31  33
ATOM     32  N   UNL     1      -5.122   7.952  18.186  0.00  0.00    -0.131 NA
ATOM     33  C   UNL     1      -6.155   8.423  17.422  0.00  0.00    +0.120 A 
ATOM     34  C   UNL     1      -5.806   8.343  16.093  0.00  0.00    +0.137 A 
ATOM     35  N   UNL     1      -4.539   7.842  16.109  0.00  0.00    -0.248 N 
ATOM     36  N   UNL     1      -4.142   7.581  17.371  0.00  0.00    -0.065 NA
BRANCH  35  37
ATOM     37  C   UNL     1      -3.662   7.508  14.997  0.00  0.00    +0.113 C 
ATOM     38  C   UNL     1      -4.359   7.470  13.630  0.00  0.00    +0.033 C 
BRANCH  37  39
ATOM     39  C   UNL     1      -2.390   8.374  14.965  0.00  0.00    +0.106 C 
BRANCH  39  40
ATOM     40  C   UNL     1      -2.465   9.548  14.008  0.00  0.00    +0.165 C 
ATOM     41  O   UNL     1      -1.843   9.573  12.947  0.00  0.00    -0.292 OA
BRANCH  40  42
ATOM     42  C   UNL     1      -3.292  10.734  14.386  0.00  0.00    +0.017 A 
ATOM     43  C   UNL     1      -4.068  11.437  13.456  0.00  0.00    +0.011 A 
ATOM     44  C   UNL     1      -4.855  12.513  13.873  0.00  0.00    +0.001 A 
ATOM     45  C   UNL     1      -4.867  12.896  15.213  0.00  0.00    +0.000 A 
ATOM     46  C   UNL     1      -4.090  12.210  16.141  0.00  0.00    +0.001 A 
ATOM     47  C   UNL     1      -3.305  11.131  15.730  0.00  0.00    +0.011 A 
ENDBRANCH  40  42
ENDBRANCH  39  40
ENDBRANCH  37  39
ENDBRANCH  35  37
ENDBRANCH  31  33
ENDBRANCH  30  31
ENDBRANCH  26  30
ENDBRANCH  25  28
ENDBRANCH   1  25
TORSDOF 17
