REMARK VINA RESULT:    -3.849      3.542      7.461
REMARK INTER + INTRA:         -11.019
REMARK INTER:                  -7.851
REMARK INTRA:                  -3.168
REMARK UNBOUND:                -3.458
REMARK  Name = lig_assembled_43.pdb
REMARK  20 active torsions:
REMARK  status: ('A' for Active; 'I' for Inactive)
REMARK    1  A    between atoms: _2  and  _9
REMARK    2  A    between atoms: _4  and  _18
REMARK    3  A    between atoms: _6  and  _7
REMARK    4  A    between atoms: _6  and  _18
REMARK    5  A    between atoms: _9  and  _10
REMARK    6  A    between atoms: _10  and  _11
REMARK    7  A    between atoms: _11  and  _12
REMARK    8  A    between atoms: _12  and  _13
REMARK    9  A    between atoms: _14  and  _34
REMARK   10  A    between atoms: _16  and  _22
REMARK   11  A    between atoms: _17  and  _21
REMARK   12  A    between atoms: _21  and  _22
REMARK   13  A    between atoms: _24  and  _25
REMARK   14  A    between atoms: _26  and  _27
REMARK   15  A    between atoms: _28  and  _30
REMARK   16  A    between atoms: _30  and  _31
REMARK   17  A    between atoms: _30  and  _32
REMARK   18  A    between atoms: _32  and  _33
REMARK   19  A    between atoms: _32  and  _34
REMARK   20  A    between atoms: _35  and  _37
REMARK                            x       y       z     vdW  Elec       q    Type
REMARK                         _______ _______ _______ _____ _____    ______ ____
ROOT
ATOM      1  C   UNL     1      -6.152   8.320  24.133  0.00  0.00    +0.163 C 
ENDROOT
BRANCH   1   2
ATOM      2  O   UNL     1      -5.922   8.875  25.438  0.00  0.00    -0.388 OA
ATOM      3  H   UNL     1      -6.118   9.815  25.426  0.00  0.00    +0.210 HD
ENDBRANCH   1   2
BRANCH   1   4
ATOM      4  C   UNL     1      -6.230   9.429  23.070  0.00  0.00    +0.175 C 
BRANCH   4   5
ATOM      5  C   UNL     1      -5.064  10.422  23.183  0.00  0.00    +0.176 C 
ATOM      6  O   UNL     1      -5.376  11.359  24.250  0.00  0.00    -0.332 OA
ATOM      7  C   UNL     1      -4.322  12.324  24.576  0.00  0.00    +0.277 C 
ATOM      8  C   UNL     1      -3.888  13.100  23.308  0.00  0.00    +0.110 C 
ATOM      9  C   UNL     1      -3.575  12.146  22.136  0.00  0.00    +0.143 C 
ATOM     10  C   UNL     1      -4.738  11.185  21.886  0.00  0.00    +0.133 C 
BRANCH  10  11
ATOM     11  N   UNL     1      -4.394  10.225  20.825  0.00  0.00    -0.308 N 
ATOM     12  H   UNL     1      -3.597   9.622  20.975  0.00  0.00    +0.149 HD
ATOM     13  C   UNL     1      -5.065  10.099  19.677  0.00  0.00    +0.210 C 
ATOM     14  C   UNL     1      -6.259  11.050  19.469  0.00  0.00    +0.109 C 
ATOM     15  O   UNL     1      -4.763   9.276  18.813  0.00  0.00    -0.276 OA
ENDBRANCH  10  11
BRANCH   7  16
ATOM     16  C   UNL     1      -3.098  11.610  25.188  0.00  0.00    +0.414 C 
ATOM     17  O   UNL     1      -2.014  12.188  25.256  0.00  0.00    -0.240 OA
ATOM     18  O   UNL     1      -3.195  10.458  25.613  0.00  0.00    -0.240 OA
ENDBRANCH   7  16
BRANCH   9  19
ATOM     19  O   UNL     1      -3.328  12.904  20.951  0.00  0.00    -0.390 OA
ATOM     20  H   UNL     1      -3.460  12.346  20.181  0.00  0.00    +0.210 HD
ENDBRANCH   9  19
BRANCH   7  21
ATOM     21  O   UNL     1      -4.861  13.273  25.531  0.00  0.00    -0.343 OA
ATOM     22  C   UNL     1      -5.952  14.089  25.034  0.00  0.00    +0.198 C 
ENDBRANCH   7  21
ENDBRANCH   4   5
BRANCH   4  23
ATOM     23  O   UNL     1      -7.488  10.127  23.171  0.00  0.00    -0.387 OA
ATOM     24  H   UNL     1      -7.682  10.560  22.336  0.00  0.00    +0.210 HD
ENDBRANCH   4  23
ENDBRANCH   1   4
BRANCH   1  25
ATOM     25  C   UNL     1      -5.033   7.348  23.774  0.00  0.00    +0.141 C 
BRANCH  25  28
ATOM     26  C   UNL     1      -3.133   6.450  25.074  0.00  0.00    +0.401 C 
ATOM     27  O   UNL     1      -3.331   5.282  24.734  0.00  0.00    -0.226 OA
ATOM     28  N   UNL     1      -3.884   7.479  24.678  0.00  0.00    -0.279 N 
ATOM     29  H   UNL     1      -3.648   8.401  25.018  0.00  0.00    +0.152 HD
BRANCH  26  30
ATOM     30  O   UNL     1      -2.041   6.744  25.950  0.00  0.00    -0.444 OA
BRANCH  30  31
ATOM     31  C   UNL     1      -2.425   6.469  27.300  0.00  0.00    +0.292 C 
BRANCH  31  33
ATOM     32  N   UNL     1      -4.332   7.962  27.816  0.00  0.00    -0.131 NA
ATOM     33  C   UNL     1      -2.995   7.675  27.926  0.00  0.00    +0.120 A 
ATOM     34  C   UNL     1      -2.384   8.662  28.666  0.00  0.00    +0.137 A 
ATOM     35  N   UNL     1      -3.399   9.519  28.969  0.00  0.00    -0.251 N 
ATOM     36  N   UNL     1      -4.567   9.097  28.460  0.00  0.00    -0.065 NA
BRANCH  35  37
ATOM     37  C   UNL     1      -3.326  10.764  29.704  0.00  0.00    +0.145 C 
BRANCH  37  38
ATOM     38  C   UNL     1      -2.779  10.552  31.112  0.00  0.00    +0.024 C 
BRANCH  38  39
ATOM     39  C   UNL     1      -2.753  11.850  31.921  0.00  0.00    +0.006 C 
BRANCH  39  40
ATOM     40  C   UNL     1      -3.688  12.890  31.298  0.00  0.00    +0.026 C 
BRANCH  40  41
ATOM     41  C   UNL     1      -3.050  14.246  31.223  0.00  0.00    -0.034 C 
ATOM     42  C   UNL     1      -3.721  15.371  30.945  0.00  0.00    +0.004 C 
ENDBRANCH  40  41
ENDBRANCH  39  40
ENDBRANCH  38  39
ENDBRANCH  37  38
ENDBRANCH  35  37
ENDBRANCH  31  33
ENDBRANCH  30  31
ENDBRANCH  26  30
ENDBRANCH  25  28
ENDBRANCH   1  25
TORSDOF 18
