REMARK VINA RESULT:    -4.416      3.037     10.715
REMARK INTER + INTRA:         -11.001
REMARK INTER:                  -8.483
REMARK INTRA:                  -2.518
REMARK UNBOUND:                -3.358
REMARK  Name = lig_assembled_42.pdb
REMARK  16 active torsions:
REMARK  status: ('A' for Active; 'I' for Inactive)
REMARK    1  A    between atoms: _2  and  _9
REMARK    2  A    between atoms: _4  and  _21
REMARK    3  A    between atoms: _6  and  _7
REMARK    4  A    between atoms: _6  and  _21
REMARK    5  A    between atoms: _17  and  _37
REMARK    6  A    between atoms: _19  and  _25
REMARK    7  A    between atoms: _20  and  _24
REMARK    8  A    between atoms: _24  and  _25
REMARK    9  A    between atoms: _27  and  _28
REMARK   10  A    between atoms: _29  and  _30
REMARK   11  A    between atoms: _31  and  _33
REMARK   12  A    between atoms: _33  and  _34
REMARK   13  A    between atoms: _33  and  _35
REMARK   14  A    between atoms: _35  and  _36
REMARK   15  A    between atoms: _35  and  _37
REMARK   16  A    between atoms: _38  and  _40
REMARK                            x       y       z     vdW  Elec       q    Type
REMARK                         _______ _______ _______ _____ _____    ______ ____
ROOT
ATOM      1  C   UNL     1      -7.188   9.243  24.567  0.00  0.00    +0.163 C 
ENDROOT
BRANCH   1   2
ATOM      2  O   UNL     1      -6.238   8.250  24.988  0.00  0.00    -0.388 OA
ATOM      3  H   UNL     1      -6.659   7.642  25.600  0.00  0.00    +0.210 HD
ENDBRANCH   1   2
BRANCH   1   4
ATOM      4  C   UNL     1      -7.857   8.806  23.268  0.00  0.00    +0.141 C 
BRANCH   4   7
ATOM      5  C   UNL     1      -6.112   8.825  21.518  0.00  0.00    +0.401 C 
ATOM      6  O   UNL     1      -5.562   7.799  21.923  0.00  0.00    -0.226 OA
ATOM      7  N   UNL     1      -7.187   9.370  22.090  0.00  0.00    -0.279 N 
ATOM      8  H   UNL     1      -7.561  10.219  21.690  0.00  0.00    +0.152 HD
BRANCH   5   9
ATOM      9  O   UNL     1      -5.581   9.491  20.370  0.00  0.00    -0.444 OA
BRANCH   9  10
ATOM     10  C   UNL     1      -6.618  10.240  19.730  0.00  0.00    +0.292 C 
BRANCH  10  12
ATOM     11  N   UNL     1      -6.625  12.014  17.995  0.00  0.00    -0.131 NA
ATOM     12  C   UNL     1      -6.125  10.839  18.475  0.00  0.00    +0.121 A 
ATOM     13  C   UNL     1      -5.157  10.380  17.614  0.00  0.00    +0.143 A 
ATOM     14  N   UNL     1      -5.096  11.316  16.610  0.00  0.00    -0.220 N 
ATOM     15  N   UNL     1      -5.996  12.300  16.861  0.00  0.00    -0.060 NA
BRANCH  14  16
ATOM     16  C   UNL     1      -4.260  11.323  15.465  0.00  0.00    +0.071 A 
ATOM     17  C   UNL     1      -3.908  12.538  14.859  0.00  0.00    +0.077 A 
ATOM     18  C   UNL     1      -3.093  12.492  13.749  0.00  0.00    +0.168 A 
ATOM     19  O   UNL     1      -2.660  13.574  13.051  0.00  0.00    -0.453 OA
ATOM     20  C   UNL     1      -1.860  12.935  12.035  0.00  0.00    +0.466 C 
ATOM     21  O   UNL     1      -1.839  11.495  12.142  0.00  0.00    -0.453 OA
ATOM     22  C   UNL     1      -2.627  11.307  13.235  0.00  0.00    +0.166 A 
ATOM     23  C   UNL     1      -2.952  10.094  13.802  0.00  0.00    +0.051 A 
ATOM     24  C   UNL     1      -3.780  10.101  14.933  0.00  0.00    +0.031 A 
ENDBRANCH  14  16
ENDBRANCH  10  12
ENDBRANCH   9  10
ENDBRANCH   5   9
ENDBRANCH   4   7
ENDBRANCH   1   4
BRANCH   1  25
ATOM     25  C   UNL     1      -6.505  10.605  24.360  0.00  0.00    +0.175 C 
BRANCH  25  26
ATOM     26  C   UNL     1      -5.039  10.592  24.817  0.00  0.00    +0.176 C 
ATOM     27  O   UNL     1      -5.024  10.537  26.270  0.00  0.00    -0.332 OA
ATOM     28  C   UNL     1      -3.700  10.411  26.887  0.00  0.00    +0.277 C 
ATOM     29  C   UNL     1      -2.765  11.544  26.397  0.00  0.00    +0.110 C 
ATOM     30  C   UNL     1      -2.771  11.662  24.858  0.00  0.00    +0.143 C 
ATOM     31  C   UNL     1      -4.199  11.785  24.323  0.00  0.00    +0.133 C 
BRANCH  31  32
ATOM     32  N   UNL     1      -4.198  11.809  22.852  0.00  0.00    -0.308 N 
ATOM     33  H   UNL     1      -3.885  10.980  22.367  0.00  0.00    +0.149 HD
ATOM     34  C   UNL     1      -4.583  12.855  22.116  0.00  0.00    +0.210 C 
ATOM     35  C   UNL     1      -5.030  14.113  22.886  0.00  0.00    +0.109 C 
ATOM     36  O   UNL     1      -4.586  12.842  20.885  0.00  0.00    -0.276 OA
ENDBRANCH  31  32
BRANCH  28  37
ATOM     37  C   UNL     1      -3.070   9.042  26.554  0.00  0.00    +0.414 C 
ATOM     38  O   UNL     1      -1.853   8.939  26.405  0.00  0.00    -0.240 OA
ATOM     39  O   UNL     1      -3.778   8.042  26.435  0.00  0.00    -0.240 OA
ENDBRANCH  28  37
BRANCH  30  40
ATOM     40  O   UNL     1      -2.019  12.809  24.460  0.00  0.00    -0.390 OA
ATOM     41  H   UNL     1      -2.592  13.422  23.993  0.00  0.00    +0.210 HD
ENDBRANCH  30  40
BRANCH  28  42
ATOM     42  O   UNL     1      -3.859  10.539  28.323  0.00  0.00    -0.343 OA
ATOM     43  C   UNL     1      -3.775  11.895  28.830  0.00  0.00    +0.198 C 
ENDBRANCH  28  42
ENDBRANCH  25  26
BRANCH  25  44
ATOM     44  O   UNL     1      -7.233  11.637  25.056  0.00  0.00    -0.387 OA
ATOM     45  H   UNL     1      -7.853  11.234  25.668  0.00  0.00    +0.210 HD
ENDBRANCH  25  44
ENDBRANCH   1  25
TORSDOF 14
