REMARK VINA RESULT:    -4.592      6.063     11.104
REMARK INTER + INTRA:         -11.306
REMARK INTER:                  -8.647
REMARK INTRA:                  -2.659
REMARK UNBOUND:                -3.358
REMARK  Name = lig_assembled_42.pdb
REMARK  16 active torsions:
REMARK  status: ('A' for Active; 'I' for Inactive)
REMARK    1  A    between atoms: _2  and  _9
REMARK    2  A    between atoms: _4  and  _21
REMARK    3  A    between atoms: _6  and  _7
REMARK    4  A    between atoms: _6  and  _21
REMARK    5  A    between atoms: _17  and  _37
REMARK    6  A    between atoms: _19  and  _25
REMARK    7  A    between atoms: _20  and  _24
REMARK    8  A    between atoms: _24  and  _25
REMARK    9  A    between atoms: _27  and  _28
REMARK   10  A    between atoms: _29  and  _30
REMARK   11  A    between atoms: _31  and  _33
REMARK   12  A    between atoms: _33  and  _34
REMARK   13  A    between atoms: _33  and  _35
REMARK   14  A    between atoms: _35  and  _36
REMARK   15  A    between atoms: _35  and  _37
REMARK   16  A    between atoms: _38  and  _40
REMARK                            x       y       z     vdW  Elec       q    Type
REMARK                         _______ _______ _______ _____ _____    ______ ____
ROOT
ATOM      1  C   UNL     1      -5.422   7.890  24.750  0.00  0.00    +0.163 C 
ENDROOT
BRANCH   1   2
ATOM      2  O   UNL     1      -5.870   8.368  26.029  0.00  0.00    -0.388 OA
ATOM      3  H   UNL     1      -5.144   8.806  26.480  0.00  0.00    +0.210 HD
ENDBRANCH   1   2
BRANCH   1   4
ATOM      4  C   UNL     1      -3.917   7.644  24.782  0.00  0.00    +0.141 C 
BRANCH   4   7
ATOM      5  C   UNL     1      -2.217   7.125  26.498  0.00  0.00    +0.401 C 
ATOM      6  O   UNL     1      -1.457   6.559  25.709  0.00  0.00    -0.226 OA
ATOM      7  N   UNL     1      -3.390   7.656  26.153  0.00  0.00    -0.279 N 
ATOM      8  H   UNL     1      -3.948   8.091  26.874  0.00  0.00    +0.152 HD
BRANCH   5   9
ATOM      9  O   UNL     1      -1.839   7.226  27.874  0.00  0.00    -0.444 OA
BRANCH   9  10
ATOM     10  C   UNL     1      -3.007   7.155  28.696  0.00  0.00    +0.292 C 
BRANCH  10  12
ATOM     11  N   UNL     1      -2.932   8.001  31.027  0.00  0.00    -0.131 NA
ATOM     12  C   UNL     1      -3.010   8.247  29.688  0.00  0.00    +0.121 A 
ATOM     13  C   UNL     1      -3.088   9.604  29.486  0.00  0.00    +0.143 A 
ATOM     14  N   UNL     1      -3.051  10.157  30.744  0.00  0.00    -0.220 N 
ATOM     15  N   UNL     1      -2.957   9.166  31.665  0.00  0.00    -0.060 NA
BRANCH  14  16
ATOM     16  C   UNL     1      -3.103  11.528  31.102  0.00  0.00    +0.071 A 
ATOM     17  C   UNL     1      -2.663  11.939  32.369  0.00  0.00    +0.077 A 
ATOM     18  C   UNL     1      -2.734  13.283  32.670  0.00  0.00    +0.168 A 
ATOM     19  O   UNL     1      -2.346  13.843  33.846  0.00  0.00    -0.453 OA
ATOM     20  C   UNL     1      -2.635  15.232  33.590  0.00  0.00    +0.466 C 
ATOM     21  O   UNL     1      -3.192  15.470  32.279  0.00  0.00    -0.453 OA
ATOM     22  C   UNL     1      -3.215  14.207  31.775  0.00  0.00    +0.166 A 
ATOM     23  C   UNL     1      -3.657  13.840  30.523  0.00  0.00    +0.051 A 
ATOM     24  C   UNL     1      -3.601  12.481  30.181  0.00  0.00    +0.031 A 
ENDBRANCH  14  16
ENDBRANCH  10  12
ENDBRANCH   9  10
ENDBRANCH   5   9
ENDBRANCH   4   7
ENDBRANCH   1   4
BRANCH   1  25
ATOM     25  C   UNL     1      -5.753   8.901  23.638  0.00  0.00    +0.175 C 
BRANCH  25  26
ATOM     26  C   UNL     1      -4.842  10.136  23.690  0.00  0.00    +0.176 C 
ATOM     27  O   UNL     1      -5.220  10.922  24.855  0.00  0.00    -0.332 OA
ATOM     28  C   UNL     1      -4.382  12.094  25.127  0.00  0.00    +0.277 C 
ATOM     29  C   UNL     1      -4.310  13.009  23.880  0.00  0.00    +0.110 C 
ATOM     30  C   UNL     1      -3.942  12.212  22.611  0.00  0.00    +0.143 C 
ATOM     31  C   UNL     1      -4.874  11.014  22.425  0.00  0.00    +0.133 C 
BRANCH  31  32
ATOM     32  N   UNL     1      -4.461  10.215  21.262  0.00  0.00    -0.308 N 
ATOM     33  H   UNL     1      -3.543   9.792  21.282  0.00  0.00    +0.149 HD
ATOM     34  C   UNL     1      -5.219  10.010  20.181  0.00  0.00    +0.210 C 
ATOM     35  C   UNL     1      -6.601  10.689  20.170  0.00  0.00    +0.109 C 
ATOM     36  O   UNL     1      -4.852   9.323  19.227  0.00  0.00    -0.276 OA
ENDBRANCH  31  32
BRANCH  28  37
ATOM     37  C   UNL     1      -2.958  11.665  25.536  0.00  0.00    +0.414 C 
ATOM     38  O   UNL     1      -1.989  12.357  25.226  0.00  0.00    -0.240 OA
ATOM     39  O   UNL     1      -2.778  10.628  26.176  0.00  0.00    -0.240 OA
ENDBRANCH  28  37
BRANCH  30  40
ATOM     40  O   UNL     1      -4.034  13.061  21.466  0.00  0.00    -0.390 OA
ATOM     41  H   UNL     1      -3.708  13.936  21.689  0.00  0.00    +0.210 HD
ENDBRANCH  30  40
BRANCH  28  42
ATOM     42  O   UNL     1      -4.996  12.842  26.208  0.00  0.00    -0.343 OA
ATOM     43  C   UNL     1      -6.200  12.249  26.757  0.00  0.00    +0.198 C 
ENDBRANCH  28  42
ENDBRANCH  25  26
BRANCH  25  44
ATOM     44  O   UNL     1      -7.136   9.300  23.726  0.00  0.00    -0.387 OA
ATOM     45  H   UNL     1      -7.698   8.524  23.654  0.00  0.00    +0.210 HD
ENDBRANCH  25  44
ENDBRANCH   1  25
TORSDOF 14
