REMARK VINA RESULT:    -3.758      3.041      4.112
REMARK INTER + INTRA:         -10.942
REMARK INTER:                  -7.890
REMARK INTRA:                  -3.052
REMARK UNBOUND:                -4.108
REMARK  Name = lig_assembled_53.pdb
REMARK  18 active torsions:
REMARK  status: ('A' for Active; 'I' for Inactive)
REMARK    1  A    between atoms: _2  and  _9
REMARK    2  A    between atoms: _4  and  _16
REMARK    3  A    between atoms: _5  and  _9
REMARK    4  A    between atoms: _5  and  _10
REMARK    5  A    between atoms: _6  and  _7
REMARK    6  A    between atoms: _6  and  _16
REMARK    7  A    between atoms: _12  and  _32
REMARK    8  A    between atoms: _14  and  _20
REMARK    9  A    between atoms: _15  and  _19
REMARK   10  A    between atoms: _19  and  _20
REMARK   11  A    between atoms: _22  and  _23
REMARK   12  A    between atoms: _24  and  _25
REMARK   13  A    between atoms: _26  and  _28
REMARK   14  A    between atoms: _28  and  _29
REMARK   15  A    between atoms: _28  and  _30
REMARK   16  A    between atoms: _30  and  _31
REMARK   17  A    between atoms: _30  and  _32
REMARK   18  A    between atoms: _33  and  _35
REMARK                            x       y       z     vdW  Elec       q    Type
REMARK                         _______ _______ _______ _____ _____    ______ ____
ROOT
ATOM      1  C   UNL     1      -4.117  11.143  28.950  0.00  0.00    +0.175 C 
ENDROOT
BRANCH   1   2
ATOM      2  C   UNL     1      -3.773  10.307  30.192  0.00  0.00    +0.176 C 
ATOM      3  O   UNL     1      -4.788   9.275  30.331  0.00  0.00    -0.332 OA
ATOM      4  C   UNL     1      -4.565   8.309  31.411  0.00  0.00    +0.277 C 
ATOM      5  C   UNL     1      -4.374   9.040  32.762  0.00  0.00    +0.110 C 
ATOM      6  C   UNL     1      -3.326  10.168  32.655  0.00  0.00    +0.143 C 
ATOM      7  C   UNL     1      -3.653  11.114  31.499  0.00  0.00    +0.133 C 
BRANCH   7   8
ATOM      8  N   UNL     1      -2.602  12.133  31.353  0.00  0.00    -0.308 N 
ATOM      9  H   UNL     1      -1.694  11.830  31.030  0.00  0.00    +0.149 HD
ATOM     10  C   UNL     1      -2.770  13.431  31.619  0.00  0.00    +0.210 C 
ATOM     11  C   UNL     1      -4.158  13.855  32.134  0.00  0.00    +0.109 C 
ATOM     12  O   UNL     1      -1.875  14.264  31.474  0.00  0.00    -0.276 OA
ENDBRANCH   7   8
BRANCH   4  13
ATOM     13  C   UNL     1      -3.327   7.437  31.116  0.00  0.00    +0.414 C 
ATOM     14  O   UNL     1      -2.826   7.429  29.992  0.00  0.00    -0.240 OA
ATOM     15  O   UNL     1      -2.828   6.741  32.002  0.00  0.00    -0.240 OA
ENDBRANCH   4  13
BRANCH   4  16
ATOM     16  O   UNL     1      -5.743   7.467  31.509  0.00  0.00    -0.343 OA
ATOM     17  C   UNL     1      -6.499   7.613  32.737  0.00  0.00    +0.198 C 
ENDBRANCH   4  16
BRANCH   6  18
ATOM     18  O   UNL     1      -3.292  10.911  33.875  0.00  0.00    -0.390 OA
ATOM     19  H   UNL     1      -2.539  10.629  34.400  0.00  0.00    +0.210 HD
ENDBRANCH   6  18
ENDBRANCH   1   2
BRANCH   1  20
ATOM     20  O   UNL     1      -2.992  11.963  28.577  0.00  0.00    -0.387 OA
ATOM     21  H   UNL     1      -2.176  11.504  28.789  0.00  0.00    +0.210 HD
ENDBRANCH   1  20
BRANCH   1  22
ATOM     22  C   UNL     1      -5.362  12.020  29.169  0.00  0.00    +0.163 C 
BRANCH  22  23
ATOM     23  O   UNL     1      -6.556  11.220  29.191  0.00  0.00    -0.388 OA
ATOM     24  H   UNL     1      -6.655  10.769  28.350  0.00  0.00    +0.210 HD
ENDBRANCH  22  23
BRANCH  22  25
ATOM     25  C   UNL     1      -5.453  13.062  28.059  0.00  0.00    +0.141 C 
BRANCH  25  28
ATOM     26  C   UNL     1      -5.780  11.886  25.911  0.00  0.00    +0.401 C 
ATOM     27  O   UNL     1      -6.976  11.657  26.111  0.00  0.00    -0.226 OA
ATOM     28  N   UNL     1      -4.991  12.531  26.771  0.00  0.00    -0.279 N 
ATOM     29  H   UNL     1      -4.021  12.662  26.522  0.00  0.00    +0.152 HD
BRANCH  26  30
ATOM     30  O   UNL     1      -5.182  11.438  24.692  0.00  0.00    -0.444 OA
BRANCH  30  31
ATOM     31  C   UNL     1      -3.758  11.452  24.826  0.00  0.00    +0.292 C 
BRANCH  31  33
ATOM     32  N   UNL     1      -2.055  10.105  26.018  0.00  0.00    -0.131 NA
ATOM     33  C   UNL     1      -3.282  10.188  25.418  0.00  0.00    +0.120 A 
ATOM     34  C   UNL     1      -3.900   8.959  25.486  0.00  0.00    +0.137 A 
ATOM     35  N   UNL     1      -2.975   8.154  26.080  0.00  0.00    -0.241 N 
ATOM     36  N   UNL     1      -1.884   8.860  26.440  0.00  0.00    -0.065 NA
BRANCH  35  37
ATOM     37  C   UNL     1      -3.066   6.769  26.494  0.00  0.00    +0.265 C 
BRANCH  37  38
ATOM     38  C   UNL     1      -1.751   6.054  26.646  0.00  0.00    +0.326 C 
ATOM     39  O   UNL     1      -1.327   5.509  27.654  0.00  0.00    -0.249 OA
BRANCH  38  40
ATOM     40  O   UNL     1      -1.013   6.074  25.504  0.00  0.00    -0.479 OA
ATOM     41  H   UNL     1      -1.358   6.635  24.783  0.00  0.00    +0.295 HD
ENDBRANCH  38  40
ENDBRANCH  37  38
ENDBRANCH  35  37
ENDBRANCH  31  33
ENDBRANCH  30  31
ENDBRANCH  26  30
ENDBRANCH  25  28
ENDBRANCH  22  25
ENDBRANCH   1  22
TORSDOF 16
