REMARK VINA RESULT:    -4.883      2.091      3.185
REMARK INTER + INTRA:         -12.906
REMARK INTER:                  -8.178
REMARK INTRA:                  -4.728
REMARK UNBOUND:                -3.885
REMARK  Name = lig_assembled_79.pdb
REMARK  20 active torsions:
REMARK  status: ('A' for Active; 'I' for Inactive)
REMARK    1  A    between atoms: _2  and  _10
REMARK    2  A    between atoms: _5  and  _26
REMARK    3  A    between atoms: _7  and  _8
REMARK    4  A    between atoms: _7  and  _26
REMARK    5  A    between atoms: _10  and  _11
REMARK    6  A    between atoms: _10  and  _12
REMARK    7  A    between atoms: _10  and  _13
REMARK    8  A    between atoms: _13  and  _14
REMARK    9  A    between atoms: _22  and  _42
REMARK   10  A    between atoms: _24  and  _30
REMARK   11  A    between atoms: _25  and  _29
REMARK   12  A    between atoms: _29  and  _30
REMARK   13  A    between atoms: _32  and  _33
REMARK   14  A    between atoms: _34  and  _35
REMARK   15  A    between atoms: _36  and  _38
REMARK   16  A    between atoms: _38  and  _39
REMARK   17  A    between atoms: _38  and  _40
REMARK   18  A    between atoms: _40  and  _41
REMARK   19  A    between atoms: _40  and  _42
REMARK   20  A    between atoms: _43  and  _45
REMARK                            x       y       z     vdW  Elec       q    Type
REMARK                         _______ _______ _______ _____ _____    ______ ____
ROOT
ATOM      1  C   UNL     1      -1.847   9.148  26.974  0.00  0.00    +0.401 C 
ATOM      2  O   UNL     1      -2.209   8.238  26.224  0.00  0.00    -0.226 OA
ATOM      3  N   UNL     1      -1.758   9.031  28.299  0.00  0.00    -0.279 N 
ATOM      4  H   UNL     1      -1.442   9.831  28.829  0.00  0.00    +0.152 HD
ENDROOT
BRANCH   3   5
ATOM      5  C   UNL     1      -2.094   7.804  29.033  0.00  0.00    +0.141 C 
BRANCH   5   6
ATOM      6  C   UNL     1      -3.172   8.046  30.083  0.00  0.00    +0.163 C 
BRANCH   6   7
ATOM      7  O   UNL     1      -2.919   9.282  30.771  0.00  0.00    -0.388 OA
ATOM      8  H   UNL     1      -3.753   9.692  31.012  0.00  0.00    +0.210 HD
ENDBRANCH   6   7
BRANCH   6   9
ATOM      9  C   UNL     1      -4.554   8.066  29.407  0.00  0.00    +0.175 C 
BRANCH   9  10
ATOM     10  C   UNL     1      -4.974   9.484  28.993  0.00  0.00    +0.176 C 
ATOM     11  O   UNL     1      -5.575  10.128  30.150  0.00  0.00    -0.332 OA
ATOM     12  C   UNL     1      -5.944  11.536  29.972  0.00  0.00    +0.277 C 
ATOM     13  C   UNL     1      -6.870  11.700  28.741  0.00  0.00    +0.110 C 
ATOM     14  C   UNL     1      -6.288  11.004  27.493  0.00  0.00    +0.143 C 
ATOM     15  C   UNL     1      -5.936   9.546  27.792  0.00  0.00    +0.133 C 
BRANCH  15  16
ATOM     16  N   UNL     1      -5.303   8.919  26.622  0.00  0.00    -0.308 N 
ATOM     17  H   UNL     1      -4.422   9.297  26.303  0.00  0.00    +0.149 HD
ATOM     18  C   UNL     1      -5.815   7.882  25.954  0.00  0.00    +0.210 C 
ATOM     19  C   UNL     1      -7.171   7.344  26.449  0.00  0.00    +0.109 C 
ATOM     20  O   UNL     1      -5.255   7.367  24.986  0.00  0.00    -0.276 OA
ENDBRANCH  15  16
BRANCH  12  21
ATOM     21  C   UNL     1      -4.688  12.412  29.792  0.00  0.00    +0.414 C 
ATOM     22  O   UNL     1      -4.667  13.298  28.939  0.00  0.00    -0.240 OA
ATOM     23  O   UNL     1      -3.696  12.234  30.500  0.00  0.00    -0.240 OA
ENDBRANCH  12  21
BRANCH  14  24
ATOM     24  O   UNL     1      -7.239  11.050  26.429  0.00  0.00    -0.390 OA
ATOM     25  H   UNL     1      -7.492  10.156  26.186  0.00  0.00    +0.210 HD
ENDBRANCH  14  24
BRANCH  12  26
ATOM     26  O   UNL     1      -6.672  11.962  31.152  0.00  0.00    -0.343 OA
ATOM     27  C   UNL     1      -7.426  13.191  30.996  0.00  0.00    +0.198 C 
ENDBRANCH  12  26
ENDBRANCH   9  10
BRANCH   9  28
ATOM     28  O   UNL     1      -5.543   7.490  30.283  0.00  0.00    -0.387 OA
ATOM     29  H   UNL     1      -5.248   7.565  31.193  0.00  0.00    +0.210 HD
ENDBRANCH   9  28
ENDBRANCH   6   9
ENDBRANCH   5   6
ENDBRANCH   3   5
BRANCH   1  30
ATOM     30  O   UNL     1      -1.493  10.413  26.410  0.00  0.00    -0.444 OA
BRANCH  30  31
ATOM     31  C   UNL     1      -2.581  11.328  26.567  0.00  0.00    +0.292 C 
BRANCH  31  33
ATOM     32  N   UNL     1      -4.051  10.859  24.643  0.00  0.00    -0.131 NA
ATOM     33  C   UNL     1      -3.145  11.677  25.251  0.00  0.00    +0.120 A 
ATOM     34  C   UNL     1      -2.905  12.766  24.442  0.00  0.00    +0.138 A 
ATOM     35  N   UNL     1      -3.764  12.607  23.389  0.00  0.00    -0.238 N 
ATOM     36  N   UNL     1      -4.390  11.408  23.488  0.00  0.00    -0.064 NA
BRANCH  35  37
ATOM     37  C   UNL     1      -3.938  13.407  22.142  0.00  0.00    +0.122 C 
ATOM     38  C   UNL     1      -3.600  12.463  20.964  0.00  0.00    +0.044 C 
ATOM     39  C   UNL     1      -2.983  14.606  22.302  0.00  0.00    +0.044 C 
BRANCH  37  40
ATOM     40  C   UNL     1      -5.381  13.909  21.930  0.00  0.00    +0.192 C 
ATOM     41  O   UNL     1      -6.083  13.429  21.034  0.00  0.00    -0.289 OA
BRANCH  40  42
ATOM     42  C   UNL     1      -5.987  14.991  22.760  0.00  0.00    +0.045 A 
ATOM     43  C   UNL     1      -6.323  16.206  22.175  0.00  0.00    +0.095 A 
ATOM     44  N   UNL     1      -6.830  17.047  23.119  0.00  0.00    -0.360 N 
ATOM     45  H   UNL     1      -7.140  17.995  22.953  0.00  0.00    +0.165 HD
ATOM     46  C   UNL     1      -6.848  16.423  24.340  0.00  0.00    +0.047 A 
ATOM     47  C   UNL     1      -7.278  16.926  25.577  0.00  0.00    +0.026 A 
ATOM     48  C   UNL     1      -7.194  16.094  26.692  0.00  0.00    +0.002 A 
ATOM     49  C   UNL     1      -6.700  14.805  26.572  0.00  0.00    +0.001 A 
ATOM     50  C   UNL     1      -6.277  14.321  25.327  0.00  0.00    +0.011 A 
ATOM     51  C   UNL     1      -6.337  15.130  24.164  0.00  0.00    +0.010 A 
ENDBRANCH  40  42
ENDBRANCH  37  40
ENDBRANCH  35  37
ENDBRANCH  31  33
ENDBRANCH  30  31
ENDBRANCH   1  30
TORSDOF 16
