REMARK VINA RESULT:    -5.240      2.770      5.435
REMARK INTER + INTRA:         -12.418
REMARK INTER:                  -9.247
REMARK INTRA:                  -3.171
REMARK UNBOUND:                -2.890
REMARK  Name = lig_assembled_73.pdb
REMARK  18 active torsions:
REMARK  status: ('A' for Active; 'I' for Inactive)
REMARK    1  A    between atoms: _2  and  _10
REMARK    2  A    between atoms: _3  and  _14
REMARK    3  A    between atoms: _5  and  _22
REMARK    4  A    between atoms: _7  and  _8
REMARK    5  A    between atoms: _7  and  _22
REMARK    6  A    between atoms: _13  and  _16
REMARK    7  A    between atoms: _18  and  _38
REMARK    8  A    between atoms: _20  and  _26
REMARK    9  A    between atoms: _21  and  _25
REMARK   10  A    between atoms: _25  and  _26
REMARK   11  A    between atoms: _28  and  _29
REMARK   12  A    between atoms: _30  and  _31
REMARK   13  A    between atoms: _32  and  _34
REMARK   14  A    between atoms: _34  and  _35
REMARK   15  A    between atoms: _34  and  _36
REMARK   16  A    between atoms: _36  and  _37
REMARK   17  A    between atoms: _36  and  _38
REMARK   18  A    between atoms: _39  and  _41
REMARK                            x       y       z     vdW  Elec       q    Type
REMARK                         _______ _______ _______ _____ _____    ______ ____
ROOT
ATOM      1  C   UNL     1      -6.645   8.822  23.018  0.00  0.00    +0.163 C 
ENDROOT
BRANCH   1   2
ATOM      2  O   UNL     1      -6.314   8.958  24.410  0.00  0.00    -0.388 OA
ATOM      3  H   UNL     1      -5.881   8.157  24.716  0.00  0.00    +0.210 HD
ENDBRANCH   1   2
BRANCH   1   4
ATOM      4  C   UNL     1      -6.429  10.149  22.270  0.00  0.00    +0.175 C 
BRANCH   4   5
ATOM      5  C   UNL     1      -5.065  10.778  22.591  0.00  0.00    +0.176 C 
ATOM      6  O   UNL     1      -5.211  11.567  23.804  0.00  0.00    -0.332 OA
ATOM      7  C   UNL     1      -3.977  12.161  24.326  0.00  0.00    +0.277 C 
ATOM      8  C   UNL     1      -3.279  13.007  23.232  0.00  0.00    +0.110 C 
ATOM      9  C   UNL     1      -3.130  12.221  21.913  0.00  0.00    +0.143 C 
ATOM     10  C   UNL     1      -4.473  11.643  21.463  0.00  0.00    +0.133 C 
BRANCH  10  11
ATOM     11  N   UNL     1      -4.303  10.824  20.253  0.00  0.00    -0.308 N 
ATOM     12  H   UNL     1      -3.612  10.087  20.276  0.00  0.00    +0.149 HD
ATOM     13  C   UNL     1      -5.001  10.991  19.127  0.00  0.00    +0.210 C 
ATOM     14  C   UNL     1      -6.028  12.139  19.115  0.00  0.00    +0.109 C 
ATOM     15  O   UNL     1      -4.847  10.280  18.133  0.00  0.00    -0.276 OA
ENDBRANCH  10  11
BRANCH   7  16
ATOM     16  C   UNL     1      -3.011  11.067  24.825  0.00  0.00    +0.414 C 
ATOM     17  O   UNL     1      -3.245   9.881  24.595  0.00  0.00    -0.240 OA
ATOM     18  O   UNL     1      -1.999  11.369  25.458  0.00  0.00    -0.240 OA
ENDBRANCH   7  16
BRANCH   9  19
ATOM     19  O   UNL     1      -2.623  13.082  20.893  0.00  0.00    -0.390 OA
ATOM     20  H   UNL     1      -1.664  13.069  20.910  0.00  0.00    +0.210 HD
ENDBRANCH   9  19
BRANCH   7  21
ATOM     21  O   UNL     1      -4.331  13.039  25.425  0.00  0.00    -0.343 OA
ATOM     22  C   UNL     1      -5.649  13.637  25.331  0.00  0.00    +0.198 C 
ENDBRANCH   7  21
ENDBRANCH   4   5
BRANCH   4  23
ATOM     23  O   UNL     1      -7.489  11.074  22.583  0.00  0.00    -0.387 OA
ATOM     24  H   UNL     1      -7.317  11.915  22.153  0.00  0.00    +0.210 HD
ENDBRANCH   4  23
ENDBRANCH   1   4
BRANCH   1  25
ATOM     25  C   UNL     1      -5.789   7.733  22.382  0.00  0.00    +0.141 C 
BRANCH  25  28
ATOM     26  C   UNL     1      -4.155   6.219  23.453  0.00  0.00    +0.401 C 
ATOM     27  O   UNL     1      -4.727   5.190  23.087  0.00  0.00    -0.226 OA
ATOM     28  N   UNL     1      -4.585   7.451  23.173  0.00  0.00    -0.279 N 
ATOM     29  H   UNL     1      -4.052   8.233  23.526  0.00  0.00    +0.152 HD
BRANCH  26  30
ATOM     30  O   UNL     1      -2.958   6.111  24.228  0.00  0.00    -0.444 OA
BRANCH  30  31
ATOM     31  C   UNL     1      -3.296   5.867  25.597  0.00  0.00    +0.292 C 
BRANCH  31  33
ATOM     32  N   UNL     1      -1.717   7.566  26.460  0.00  0.00    -0.131 NA
ATOM     33  C   UNL     1      -2.979   7.048  26.422  0.00  0.00    +0.121 A 
ATOM     34  C   UNL     1      -3.796   7.797  27.235  0.00  0.00    +0.143 A 
ATOM     35  N   UNL     1      -2.982   8.779  27.751  0.00  0.00    -0.220 N 
ATOM     36  N   UNL     1      -1.727   8.616  27.269  0.00  0.00    -0.060 NA
BRANCH  35  37
ATOM     37  C   UNL     1      -3.310   9.826  28.650  0.00  0.00    +0.074 A 
ATOM     38  C   UNL     1      -4.087  10.910  28.205  0.00  0.00    +0.032 A 
ATOM     39  C   UNL     1      -4.415  11.961  29.073  0.00  0.00    +0.054 A 
ATOM     40  C   UNL     1      -3.969  11.939  30.393  0.00  0.00    +0.195 A 
ATOM     41  C   UNL     1      -3.201  10.861  30.829  0.00  0.00    +0.316 A 
ATOM     42  C   UNL     1      -2.868   9.797  29.979  0.00  0.00    +0.116 A 
BRANCH  41  43
ATOM     43  N   UNL     1      -2.713  10.814  32.193  0.00  0.00    +0.083 N 
ATOM     44  O   UNL     1      -3.234   9.993  32.960  0.00  0.00    +0.042 OA
ATOM     45  O   UNL     1      -1.872  11.667  32.512  0.00  0.00    -0.576 OA
ENDBRANCH  41  43
BRANCH  40  46
ATOM     46  O   UNL     1      -4.307  12.950  31.242  0.00  0.00    -0.501 OA
ATOM     47  H   UNL     1      -3.807  12.869  32.073  0.00  0.00    +0.292 HD
ENDBRANCH  40  46
ENDBRANCH  35  37
ENDBRANCH  31  33
ENDBRANCH  30  31
ENDBRANCH  26  30
ENDBRANCH  25  28
ENDBRANCH   1  25
TORSDOF 16
