REMARK VINA RESULT:    -5.251      3.781     12.390
REMARK INTER + INTRA:         -12.089
REMARK INTER:                  -9.693
REMARK INTRA:                  -2.396
REMARK UNBOUND:                -2.541
REMARK  Name = lig_assembled_23.pdb
REMARK  18 active torsions:
REMARK  status: ('A' for Active; 'I' for Inactive)
REMARK    1  A    between atoms: _2  and  _10
REMARK    2  A    between atoms: _3  and  _41
REMARK    3  A    between atoms: _5  and  _21
REMARK    4  A    between atoms: _7  and  _8
REMARK    5  A    between atoms: _7  and  _21
REMARK    6  A    between atoms: _12  and  _41
REMARK    7  A    between atoms: _17  and  _37
REMARK    8  A    between atoms: _19  and  _25
REMARK    9  A    between atoms: _20  and  _24
REMARK   10  A    between atoms: _24  and  _25
REMARK   11  A    between atoms: _27  and  _28
REMARK   12  A    between atoms: _29  and  _30
REMARK   13  A    between atoms: _31  and  _33
REMARK   14  A    between atoms: _33  and  _34
REMARK   15  A    between atoms: _33  and  _35
REMARK   16  A    between atoms: _35  and  _36
REMARK   17  A    between atoms: _35  and  _37
REMARK   18  A    between atoms: _38  and  _40
REMARK                            x       y       z     vdW  Elec       q    Type
REMARK                         _______ _______ _______ _____ _____    ______ ____
ROOT
ATOM      1  C   UNL     1      -3.531   7.125  15.098  0.00  0.00    +0.141 C 
ENDROOT
BRANCH   1   4
ATOM      2  C   UNL     1      -4.833   7.542  17.156  0.00  0.00    +0.401 C 
ATOM      3  O   UNL     1      -5.858   7.007  16.728  0.00  0.00    -0.226 OA
ATOM      4  N   UNL     1      -3.700   7.647  16.459  0.00  0.00    -0.279 N 
ATOM      5  H   UNL     1      -2.915   8.111  16.893  0.00  0.00    +0.152 HD
BRANCH   2   6
ATOM      6  O   UNL     1      -4.836   8.093  18.475  0.00  0.00    -0.444 OA
BRANCH   6   7
ATOM      7  C   UNL     1      -5.989   8.922  18.643  0.00  0.00    +0.292 C 
BRANCH   7   9
ATOM      8  N   UNL     1      -6.573  11.014  19.826  0.00  0.00    -0.131 NA
ATOM      9  C   UNL     1      -5.739   9.943  19.677  0.00  0.00    +0.121 A 
ATOM     10  C   UNL     1      -4.729  10.028  20.608  0.00  0.00    +0.143 A 
ATOM     11  N   UNL     1      -4.996  11.175  21.319  0.00  0.00    -0.220 N 
ATOM     12  N   UNL     1      -6.115  11.759  20.822  0.00  0.00    -0.060 NA
BRANCH  11  13
ATOM     13  C   UNL     1      -4.275  11.742  22.401  0.00  0.00    +0.069 A 
ATOM     14  C   UNL     1      -3.924  10.936  23.494  0.00  0.00    +0.056 A 
ATOM     15  C   UNL     1      -3.243  11.501  24.578  0.00  0.00    +0.107 A 
ATOM     16  C   UNL     1      -2.884  12.849  24.577  0.00  0.00    +0.028 A 
ATOM     17  C   UNL     1      -3.221  13.646  23.483  0.00  0.00    +0.004 A 
ATOM     18  C   UNL     1      -3.917  13.099  22.399  0.00  0.00    +0.028 A 
BRANCH  15  19
ATOM     19  S   UNL     1      -2.860  10.484  25.972  0.00  0.00    +0.056 S 
ATOM     20  O   UNL     1      -4.033   9.721  26.328  0.00  0.00    -0.153 OA
ATOM     21  O   UNL     1      -1.563   9.877  25.777  0.00  0.00    -0.153 OA
BRANCH  19  22
ATOM     22  N   UNL     1      -2.640  11.623  27.185  0.00  0.00    -0.204 NA
ATOM     23  H   UNL     1      -3.103  12.496  26.932  0.00  0.00    +0.144 HD
ATOM     24  H   UNL     1      -1.646  11.725  27.394  0.00  0.00    +0.144 HD
ENDBRANCH  19  22
ENDBRANCH  15  19
ENDBRANCH  11  13
ENDBRANCH   7   9
ENDBRANCH   6   7
ENDBRANCH   2   6
ENDBRANCH   1   4
BRANCH   1  25
ATOM     25  C   UNL     1      -3.809   8.190  14.042  0.00  0.00    +0.163 C 
BRANCH  25  26
ATOM     26  O   UNL     1      -5.225   8.387  13.903  0.00  0.00    -0.388 OA
ATOM     27  H   UNL     1      -5.583   7.730  13.302  0.00  0.00    +0.210 HD
ENDBRANCH  25  26
BRANCH  25  28
ATOM     28  C   UNL     1      -3.107   9.501  14.437  0.00  0.00    +0.175 C 
BRANCH  28  29
ATOM     29  C   UNL     1      -3.364  10.623  13.420  0.00  0.00    +0.176 C 
ATOM     30  O   UNL     1      -2.077  11.066  12.908  0.00  0.00    -0.332 OA
ATOM     31  C   UNL     1      -2.131  12.069  11.841  0.00  0.00    +0.277 C 
ATOM     32  C   UNL     1      -2.966  13.294  12.290  0.00  0.00    +0.110 C 
ATOM     33  C   UNL     1      -4.331  12.870  12.872  0.00  0.00    +0.143 C 
ATOM     34  C   UNL     1      -4.157  11.822  13.972  0.00  0.00    +0.133 C 
BRANCH  34  35
ATOM     35  N   UNL     1      -5.468  11.363  14.458  0.00  0.00    -0.308 N 
ATOM     36  H   UNL     1      -6.102  10.953  13.787  0.00  0.00    +0.149 HD
ATOM     37  C   UNL     1      -5.874  11.453  15.727  0.00  0.00    +0.210 C 
ATOM     38  C   UNL     1      -4.895  12.107  16.720  0.00  0.00    +0.109 C 
ATOM     39  O   UNL     1      -6.972  11.047  16.108  0.00  0.00    -0.276 OA
ENDBRANCH  34  35
BRANCH  31  40
ATOM     40  C   UNL     1      -2.745  11.470  10.558  0.00  0.00    +0.414 C 
ATOM     41  O   UNL     1      -2.789  10.251  10.403  0.00  0.00    -0.240 OA
ATOM     42  O   UNL     1      -3.196  12.206   9.679  0.00  0.00    -0.240 OA
ENDBRANCH  31  40
BRANCH  33  43
ATOM     43  O   UNL     1      -5.000  14.011  13.410  0.00  0.00    -0.390 OA
ATOM     44  H   UNL     1      -5.368  14.535  12.695  0.00  0.00    +0.210 HD
ENDBRANCH  33  43
BRANCH  31  45
ATOM     45  O   UNL     1      -0.776  12.513  11.572  0.00  0.00    -0.343 OA
ATOM     46  C   UNL     1      -0.549  13.933  11.758  0.00  0.00    +0.198 C 
ENDBRANCH  31  45
ENDBRANCH  28  29
BRANCH  28  47
ATOM     47  O   UNL     1      -1.690   9.280  14.585  0.00  0.00    -0.387 OA
ATOM     48  H   UNL     1      -1.485   9.127  15.511  0.00  0.00    +0.210 HD
ENDBRANCH  28  47
ENDBRANCH  25  28
ENDBRANCH   1  25
TORSDOF 16
