REMARK VINA RESULT:    -4.703      3.214      5.784
REMARK INTER + INTRA:         -12.713
REMARK INTER:                  -9.652
REMARK INTRA:                  -3.062
REMARK UNBOUND:                -3.062
REMARK  Name = lig_assembled_74.pdb
REMARK  24 active torsions:
REMARK  status: ('A' for Active; 'I' for Inactive)
REMARK    1  A    between atoms: _2  and  _9
REMARK    2  A    between atoms: _4  and  _22
REMARK    3  A    between atoms: _5  and  _14
REMARK    4  A    between atoms: _6  and  _7
REMARK    5  A    between atoms: _6  and  _22
REMARK    6  A    between atoms: _9  and  _10
REMARK    7  A    between atoms: _10  and  _11
REMARK    8  A    between atoms: _10  and  _13
REMARK    9  A    between atoms: _11  and  _12
REMARK   10  A    between atoms: _12  and  _16
REMARK   11  A    between atoms: _13  and  _14
REMARK   12  A    between atoms: _14  and  _15
REMARK   13  A    between atoms: _18  and  _38
REMARK   14  A    between atoms: _20  and  _26
REMARK   15  A    between atoms: _21  and  _25
REMARK   16  A    between atoms: _25  and  _26
REMARK   17  A    between atoms: _28  and  _29
REMARK   18  A    between atoms: _30  and  _31
REMARK   19  A    between atoms: _32  and  _34
REMARK   20  A    between atoms: _34  and  _35
REMARK   21  A    between atoms: _34  and  _36
REMARK   22  A    between atoms: _36  and  _37
REMARK   23  A    between atoms: _36  and  _38
REMARK   24  A    between atoms: _39  and  _41
REMARK                            x       y       z     vdW  Elec       q    Type
REMARK                         _______ _______ _______ _____ _____    ______ ____
ROOT
ATOM      1  C   UNL     1      -3.045  12.120  22.656  0.00  0.00    +0.163 C 
ENDROOT
BRANCH   1   2
ATOM      2  O   UNL     1      -2.969  12.894  23.865  0.00  0.00    -0.388 OA
ATOM      3  H   UNL     1      -2.568  12.366  24.559  0.00  0.00    +0.210 HD
ENDBRANCH   1   2
BRANCH   1   4
ATOM      4  C   UNL     1      -3.730  10.767  22.912  0.00  0.00    +0.175 C 
BRANCH   4   5
ATOM      5  C   UNL     1      -3.837  10.447  24.411  0.00  0.00    +0.176 C 
ATOM      6  O   UNL     1      -3.266   9.127  24.628  0.00  0.00    -0.332 OA
ATOM      7  C   UNL     1      -3.185   8.694  26.026  0.00  0.00    +0.277 C 
ATOM      8  C   UNL     1      -4.576   8.781  26.701  0.00  0.00    +0.110 C 
ATOM      9  C   UNL     1      -5.236  10.156  26.470  0.00  0.00    +0.143 C 
ATOM     10  C   UNL     1      -5.266  10.508  24.983  0.00  0.00    +0.133 C 
BRANCH  10  11
ATOM     11  N   UNL     1      -5.818  11.857  24.783  0.00  0.00    -0.308 N 
ATOM     12  H   UNL     1      -5.411  12.616  25.311  0.00  0.00    +0.149 HD
ATOM     13  C   UNL     1      -6.821  12.144  23.950  0.00  0.00    +0.210 C 
ATOM     14  C   UNL     1      -7.437  10.961  23.179  0.00  0.00    +0.109 C 
ATOM     15  O   UNL     1      -7.254  13.286  23.792  0.00  0.00    -0.276 OA
ENDBRANCH  10  11
BRANCH   7  16
ATOM     16  C   UNL     1      -2.177   9.561  26.809  0.00  0.00    +0.414 C 
ATOM     17  O   UNL     1      -2.414   9.890  27.971  0.00  0.00    -0.240 OA
ATOM     18  O   UNL     1      -1.128   9.930  26.280  0.00  0.00    -0.240 OA
ENDBRANCH   7  16
BRANCH   9  19
ATOM     19  O   UNL     1      -6.572  10.140  26.976  0.00  0.00    -0.390 OA
ATOM     20  H   UNL     1      -6.813  11.021  27.273  0.00  0.00    +0.210 HD
ENDBRANCH   9  19
BRANCH   7  21
ATOM     21  O   UNL     1      -2.754   7.309  26.042  0.00  0.00    -0.343 OA
ATOM     22  C   UNL     1      -3.262   6.522  27.149  0.00  0.00    +0.198 C 
ENDBRANCH   7  21
ENDBRANCH   4   5
BRANCH   4  23
ATOM     23  O   UNL     1      -3.022   9.714  22.229  0.00  0.00    -0.387 OA
ATOM     24  H   UNL     1      -3.329   9.658  21.321  0.00  0.00    +0.210 HD
ENDBRANCH   4  23
ENDBRANCH   1   4
BRANCH   1  25
ATOM     25  C   UNL     1      -3.819  12.890  21.591  0.00  0.00    +0.141 C 
BRANCH  25  28
ATOM     26  C   UNL     1      -5.734  12.293  20.149  0.00  0.00    +0.401 C 
ATOM     27  O   UNL     1      -6.337  13.350  20.352  0.00  0.00    -0.226 OA
ATOM     28  N   UNL     1      -4.554  11.992  20.693  0.00  0.00    -0.279 N 
ATOM     29  H   UNL     1      -4.143  11.095  20.474  0.00  0.00    +0.152 HD
BRANCH  26  30
ATOM     30  O   UNL     1      -6.319  11.314  19.286  0.00  0.00    -0.444 OA
BRANCH  30  31
ATOM     31  C   UNL     1      -5.781  10.025  19.591  0.00  0.00    +0.292 C 
BRANCH  31  33
ATOM     32  N   UNL     1      -4.948   8.049  18.340  0.00  0.00    -0.131 NA
ATOM     33  C   UNL     1      -5.229   9.389  18.379  0.00  0.00    +0.120 A 
ATOM     34  C   UNL     1      -4.993   9.934  17.135  0.00  0.00    +0.137 A 
ATOM     35  N   UNL     1      -4.751   8.843  16.348  0.00  0.00    -0.251 N 
ATOM     36  N   UNL     1      -4.629   7.729  17.093  0.00  0.00    -0.065 NA
BRANCH  35  37
ATOM     37  C   UNL     1      -4.946   8.743  14.915  0.00  0.00    +0.149 C 
BRANCH  37  38
ATOM     38  C   UNL     1      -3.813   9.329  14.046  0.00  0.00    +0.021 C 
BRANCH  38  39
ATOM     39  C   UNL     1      -2.421   9.230  14.703  0.00  0.00    +0.125 C 
BRANCH  39  40
ATOM     40  C   UNL     1      -1.794   7.851  14.656  0.00  0.00    +0.305 C 
ATOM     41  O   UNL     1      -1.320   7.332  13.658  0.00  0.00    -0.251 OA
BRANCH  40  42
ATOM     42  O   UNL     1      -1.744   7.255  15.862  0.00  0.00    -0.481 OA
ATOM     43  H   UNL     1      -0.854   7.007  16.171  0.00  0.00    +0.295 HD
ENDBRANCH  40  42
ENDBRANCH  39  40
ENDBRANCH  38  39
BRANCH  38  44
ATOM     44  C   UNL     1      -4.188  10.783  13.632  0.00  0.00    +0.009 C 
BRANCH  44  45
ATOM     45  C   UNL     1      -3.252  11.895  14.151  0.00  0.00    -0.017 C 
ATOM     46  C   UNL     1      -2.650  12.722  13.014  0.00  0.00    +0.007 C 
ATOM     47  C   UNL     1      -4.004  12.830  15.105  0.00  0.00    +0.007 C 
ENDBRANCH  44  45
ENDBRANCH  38  44
ENDBRANCH  37  38
ENDBRANCH  35  37
ENDBRANCH  31  33
ENDBRANCH  30  31
ENDBRANCH  26  30
ENDBRANCH  25  28
ENDBRANCH   1  25
TORSDOF 20
