REMARK VINA RESULT:    -4.090      3.371      7.121
REMARK INTER + INTRA:         -10.993
REMARK INTER:                  -7.079
REMARK INTRA:                  -3.914
REMARK UNBOUND:                -3.914
REMARK  Name = lig_assembled_20.pdb
REMARK  16 active torsions:
REMARK  status: ('A' for Active; 'I' for Inactive)
REMARK    1  A    between atoms: _2  and  _11
REMARK    2  A    between atoms: _6  and  _21
REMARK    3  A    between atoms: _8  and  _9
REMARK    4  A    between atoms: _8  and  _21
REMARK    5  A    between atoms: _17  and  _37
REMARK    6  A    between atoms: _19  and  _25
REMARK    7  A    between atoms: _20  and  _24
REMARK    8  A    between atoms: _24  and  _25
REMARK    9  A    between atoms: _27  and  _28
REMARK   10  A    between atoms: _29  and  _30
REMARK   11  A    between atoms: _31  and  _33
REMARK   12  A    between atoms: _33  and  _34
REMARK   13  A    between atoms: _33  and  _35
REMARK   14  A    between atoms: _35  and  _36
REMARK   15  A    between atoms: _35  and  _37
REMARK   16  A    between atoms: _38  and  _40
REMARK                            x       y       z     vdW  Elec       q    Type
REMARK                         _______ _______ _______ _____ _____    ______ ____
ROOT
ATOM      1  C   UNL     1      -3.134  10.535  29.217  0.00  0.00    +0.163 C 
ENDROOT
BRANCH   1   2
ATOM      2  O   UNL     1      -2.177   9.971  28.306  0.00  0.00    -0.388 OA
ATOM      3  H   UNL     1      -1.319  10.378  28.449  0.00  0.00    +0.210 HD
ENDBRANCH   1   2
BRANCH   1   4
ATOM      4  C   UNL     1      -2.999   9.881  30.588  0.00  0.00    +0.141 C 
BRANCH   4   7
ATOM      5  C   UNL     1      -3.031  11.613  32.350  0.00  0.00    +0.401 C 
ATOM      6  O   UNL     1      -1.843  11.912  32.209  0.00  0.00    -0.226 OA
ATOM      7  N   UNL     1      -3.652  10.671  31.639  0.00  0.00    -0.279 N 
ATOM      8  H   UNL     1      -4.627  10.490  31.834  0.00  0.00    +0.152 HD
BRANCH   5   9
ATOM      9  O   UNL     1      -3.809  12.301  33.332  0.00  0.00    -0.444 OA
BRANCH   9  10
ATOM     10  C   UNL     1      -3.895  13.687  32.989  0.00  0.00    +0.292 C 
BRANCH  10  12
ATOM     11  N   UNL     1      -5.981  13.166  31.752  0.00  0.00    -0.131 NA
ATOM     12  C   UNL     1      -4.826  13.884  31.861  0.00  0.00    +0.121 A 
ATOM     13  C   UNL     1      -4.731  14.746  30.795  0.00  0.00    +0.143 A 
ATOM     14  N   UNL     1      -5.864  14.520  30.048  0.00  0.00    -0.220 N 
ATOM     15  N   UNL     1      -6.608  13.557  30.649  0.00  0.00    -0.060 NA
BRANCH  14  16
ATOM     16  C   UNL     1      -6.265  15.148  28.840  0.00  0.00    +0.068 A 
ATOM     17  C   UNL     1      -6.419  16.543  28.795  0.00  0.00    +0.030 A 
ATOM     18  C   UNL     1      -6.808  17.195  27.616  0.00  0.00    +0.030 A 
ATOM     19  C   UNL     1      -7.036  16.397  26.491  0.00  0.00    +0.066 A 
ATOM     20  C   UNL     1      -6.895  15.016  26.504  0.00  0.00    +0.021 A 
ATOM     21  C   UNL     1      -7.216  14.612  25.190  0.00  0.00    +0.142 A 
ATOM     22  N   UNL     1      -7.534  15.639  24.399  0.00  0.00    -0.181 NA
ATOM     23  N   UNL     1      -7.415  16.705  25.209  0.00  0.00    -0.277 N 
ATOM     24  H   UNL     1      -7.610  17.624  24.829  0.00  0.00    +0.189 HD
ATOM     25  C   UNL     1      -6.505  14.371  27.690  0.00  0.00    +0.039 A 
ENDBRANCH  14  16
ENDBRANCH  10  12
ENDBRANCH   9  10
ENDBRANCH   5   9
ENDBRANCH   4   7
ENDBRANCH   1   4
BRANCH   1  26
ATOM     26  C   UNL     1      -4.569  10.344  28.696  0.00  0.00    +0.175 C 
BRANCH  26  27
ATOM     27  C   UNL     1      -4.637  10.384  27.162  0.00  0.00    +0.176 C 
ATOM     28  O   UNL     1      -4.089  11.657  26.723  0.00  0.00    -0.332 OA
ATOM     29  C   UNL     1      -3.974  11.832  25.272  0.00  0.00    +0.277 C 
ATOM     30  C   UNL     1      -5.342  11.588  24.589  0.00  0.00    +0.110 C 
ATOM     31  C   UNL     1      -5.979  10.260  25.048  0.00  0.00    +0.143 C 
ATOM     32  C   UNL     1      -6.046  10.182  26.574  0.00  0.00    +0.133 C 
BRANCH  32  33
ATOM     33  N   UNL     1      -6.574   8.877  27.001  0.00  0.00    -0.308 N 
ATOM     34  H   UNL     1      -6.055   8.050  26.742  0.00  0.00    +0.149 HD
ATOM     35  C   UNL     1      -7.696   8.714  27.708  0.00  0.00    +0.210 C 
ATOM     36  C   UNL     1      -8.478   9.992  28.065  0.00  0.00    +0.109 C 
ATOM     37  O   UNL     1      -8.107   7.609  28.065  0.00  0.00    -0.276 OA
ENDBRANCH  32  33
BRANCH  29  38
ATOM     38  C   UNL     1      -2.925  10.866  24.686  0.00  0.00    +0.414 C 
ATOM     39  O   UNL     1      -1.944  10.536  25.352  0.00  0.00    -0.240 OA
ATOM     40  O   UNL     1      -3.058  10.415  23.547  0.00  0.00    -0.240 OA
ENDBRANCH  29  38
BRANCH  31  41
ATOM     41  O   UNL     1      -7.299  10.148  24.513  0.00  0.00    -0.390 OA
ATOM     42  H   UNL     1      -7.334  10.576  23.655  0.00  0.00    +0.210 HD
ENDBRANCH  31  41
BRANCH  29  43
ATOM     43  O   UNL     1      -3.573  13.203  25.016  0.00  0.00    -0.343 OA
ATOM     44  C   UNL     1      -3.940  13.714  23.709  0.00  0.00    +0.198 C 
ENDBRANCH  29  43
ENDBRANCH  26  27
BRANCH  26  45
ATOM     45  O   UNL     1      -5.439  11.346  29.258  0.00  0.00    -0.387 OA
ATOM     46  H   UNL     1      -5.489  11.230  30.210  0.00  0.00    +0.210 HD
ENDBRANCH  26  45
ENDBRANCH   1  26
TORSDOF 14
