REMARK VINA RESULT:    -3.855      8.327     13.351
REMARK INTER + INTRA:         -12.409
REMARK INTER:                  -8.896
REMARK INTRA:                  -3.513
REMARK UNBOUND:                -4.498
REMARK  Name = lig_assembled_33.pdb
REMARK  22 active torsions:
REMARK  status: ('A' for Active; 'I' for Inactive)
REMARK    1  A    between atoms: _2  and  _9
REMARK    2  A    between atoms: _4  and  _20
REMARK    3  A    between atoms: _5  and  _13
REMARK    4  A    between atoms: _5  and  _14
REMARK    5  A    between atoms: _6  and  _7
REMARK    6  A    between atoms: _6  and  _20
REMARK    7  A    between atoms: _9  and  _10
REMARK    8  A    between atoms: _10  and  _11
REMARK    9  A    between atoms: _11  and  _12
REMARK   10  A    between atoms: _12  and  _13
REMARK   11  A    between atoms: _16  and  _36
REMARK   12  A    between atoms: _18  and  _24
REMARK   13  A    between atoms: _19  and  _23
REMARK   14  A    between atoms: _23  and  _24
REMARK   15  A    between atoms: _26  and  _27
REMARK   16  A    between atoms: _28  and  _29
REMARK   17  A    between atoms: _30  and  _32
REMARK   18  A    between atoms: _32  and  _33
REMARK   19  A    between atoms: _32  and  _34
REMARK   20  A    between atoms: _34  and  _35
REMARK   21  A    between atoms: _34  and  _36
REMARK   22  A    between atoms: _37  and  _39
REMARK                            x       y       z     vdW  Elec       q    Type
REMARK                         _______ _______ _______ _____ _____    ______ ____
ROOT
ATOM      1  C   UNL     1      -1.954   8.432  13.581  0.00  0.00    +0.163 C 
ENDROOT
BRANCH   1   2
ATOM      2  O   UNL     1      -2.256   8.051  12.229  0.00  0.00    -0.388 OA
ATOM      3  H   UNL     1      -2.325   7.094  12.174  0.00  0.00    +0.210 HD
ENDBRANCH   1   2
BRANCH   1   4
ATOM      4  C   UNL     1      -2.996   9.430  14.116  0.00  0.00    +0.175 C 
BRANCH   4   5
ATOM      5  C   UNL     1      -3.243  10.588  13.139  0.00  0.00    +0.176 C 
ATOM      6  O   UNL     1      -1.963  10.966  12.561  0.00  0.00    -0.332 OA
ATOM      7  C   UNL     1      -2.017  11.995  11.518  0.00  0.00    +0.277 C 
ATOM      8  C   UNL     1      -2.749  13.256  12.039  0.00  0.00    +0.110 C 
ATOM      9  C   UNL     1      -4.102  12.900  12.691  0.00  0.00    +0.143 C 
ATOM     10  C   UNL     1      -3.929  11.819  13.759  0.00  0.00    +0.133 C 
BRANCH  10  11
ATOM     11  N   UNL     1      -5.236  11.427  14.311  0.00  0.00    -0.308 N 
ATOM     12  H   UNL     1      -5.871  10.924  13.707  0.00  0.00    +0.149 HD
ATOM     13  C   UNL     1      -5.637  11.693  15.557  0.00  0.00    +0.210 C 
ATOM     14  C   UNL     1      -4.656  12.484  16.443  0.00  0.00    +0.109 C 
ATOM     15  O   UNL     1      -6.731  11.339  15.997  0.00  0.00    -0.276 OA
ENDBRANCH  10  11
BRANCH   7  16
ATOM     16  C   UNL     1      -2.737  11.462  10.262  0.00  0.00    +0.414 C 
ATOM     17  O   UNL     1      -3.250  12.245   9.462  0.00  0.00    -0.240 OA
ATOM     18  O   UNL     1      -2.806  10.251  10.048  0.00  0.00    -0.240 OA
ENDBRANCH   7  16
BRANCH   9  19
ATOM     19  O   UNL     1      -4.670  14.066  13.289  0.00  0.00    -0.390 OA
ATOM     20  H   UNL     1      -5.348  14.425  12.712  0.00  0.00    +0.210 HD
ENDBRANCH   9  19
BRANCH   7  21
ATOM     21  O   UNL     1      -0.655  12.364  11.180  0.00  0.00    -0.343 OA
ATOM     22  C   UNL     1      -0.370  13.784  11.250  0.00  0.00    +0.198 C 
ENDBRANCH   7  21
ENDBRANCH   4   5
BRANCH   4  23
ATOM     23  O   UNL     1      -2.580   9.942  15.398  0.00  0.00    -0.387 OA
ATOM     24  H   UNL     1      -3.325   9.931  16.004  0.00  0.00    +0.210 HD
ENDBRANCH   4  23
ENDBRANCH   1   4
BRANCH   1  25
ATOM     25  C   UNL     1      -1.923   7.198  14.477  0.00  0.00    +0.141 C 
BRANCH  25  28
ATOM     26  C   UNL     1      -4.161   6.314  15.038  0.00  0.00    +0.401 C 
ATOM     27  O   UNL     1      -4.230   5.594  14.040  0.00  0.00    -0.226 OA
ATOM     28  N   UNL     1      -3.122   7.102  15.318  0.00  0.00    -0.279 N 
ATOM     29  H   UNL     1      -3.162   7.664  16.157  0.00  0.00    +0.152 HD
BRANCH  26  30
ATOM     30  O   UNL     1      -5.251   6.326  15.963  0.00  0.00    -0.444 OA
BRANCH  30  31
ATOM     31  C   UNL     1      -5.907   7.596  15.913  0.00  0.00    +0.292 C 
BRANCH  31  33
ATOM     32  N   UNL     1      -4.486   8.710  17.603  0.00  0.00    -0.131 NA
ATOM     33  C   UNL     1      -5.730   8.317  17.187  0.00  0.00    +0.120 A 
ATOM     34  C   UNL     1      -6.662   8.701  18.127  0.00  0.00    +0.137 A 
ATOM     35  N   UNL     1      -5.921   9.330  19.082  0.00  0.00    -0.251 N 
ATOM     36  N   UNL     1      -4.613   9.318  18.774  0.00  0.00    -0.065 NA
BRANCH  35  37
ATOM     37  C   UNL     1      -6.378   9.948  20.310  0.00  0.00    +0.145 C 
BRANCH  37  38
ATOM     38  C   UNL     1      -6.452  11.469  20.193  0.00  0.00    +0.023 C 
BRANCH  38  39
ATOM     39  C   UNL     1      -5.425  12.178  21.079  0.00  0.00    +0.002 C 
BRANCH  39  40
ATOM     40  C   UNL     1      -4.843  11.192  22.094  0.00  0.00    +0.011 C 
BRANCH  40  41
ATOM     41  C   UNL     1      -3.327  11.310  22.234  0.00  0.00    +0.120 C 
BRANCH  41  42
ATOM     42  C   UNL     1      -2.903  11.235  23.684  0.00  0.00    +0.305 C 
ATOM     43  O   UNL     1      -2.947  10.236  24.383  0.00  0.00    -0.251 OA
BRANCH  42  44
ATOM     44  O   UNL     1      -2.448  12.422  24.149  0.00  0.00    -0.481 OA
ATOM     45  H   UNL     1      -3.152  13.069  24.335  0.00  0.00    +0.295 HD
ENDBRANCH  42  44
ENDBRANCH  41  42
ENDBRANCH  40  41
ENDBRANCH  39  40
ENDBRANCH  38  39
ENDBRANCH  37  38
ENDBRANCH  35  37
ENDBRANCH  31  33
ENDBRANCH  30  31
ENDBRANCH  26  30
ENDBRANCH  25  28
ENDBRANCH   1  25
TORSDOF 20
