REMARK VINA RESULT:    -4.308      5.613     10.976
REMARK INTER + INTRA:         -11.939
REMARK INTER:                 -10.089
REMARK INTRA:                  -1.850
REMARK UNBOUND:                -3.979
REMARK  Name = lig_assembled_24.pdb
REMARK  19 active torsions:
REMARK  status: ('A' for Active; 'I' for Inactive)
REMARK    1  A    between atoms: _2  and  _9
REMARK    2  A    between atoms: _4  and  _21
REMARK    3  A    between atoms: _6  and  _7
REMARK    4  A    between atoms: _6  and  _21
REMARK    5  A    between atoms: _9  and  _10
REMARK    6  A    between atoms: _13  and  _16
REMARK    7  A    between atoms: _14  and  _16
REMARK    8  A    between atoms: _17  and  _37
REMARK    9  A    between atoms: _19  and  _25
REMARK   10  A    between atoms: _20  and  _24
REMARK   11  A    between atoms: _24  and  _25
REMARK   12  A    between atoms: _27  and  _28
REMARK   13  A    between atoms: _29  and  _30
REMARK   14  A    between atoms: _31  and  _33
REMARK   15  A    between atoms: _33  and  _34
REMARK   16  A    between atoms: _33  and  _35
REMARK   17  A    between atoms: _35  and  _36
REMARK   18  A    between atoms: _35  and  _37
REMARK   19  A    between atoms: _38  and  _40
REMARK                            x       y       z     vdW  Elec       q    Type
REMARK                         _______ _______ _______ _____ _____    ______ ____
ROOT
ATOM      1  C   UNL     1      -4.829  11.088  21.210  0.00  0.00    +0.163 C 
ENDROOT
BRANCH   1   2
ATOM      2  O   UNL     1      -5.023   9.678  21.015  0.00  0.00    -0.388 OA
ATOM      3  H   UNL     1      -5.837   9.530  20.527  0.00  0.00    +0.210 HD
ENDBRANCH   1   2
BRANCH   1   4
ATOM      4  C   UNL     1      -3.482  11.369  21.897  0.00  0.00    +0.175 C 
BRANCH   4   5
ATOM      5  C   UNL     1      -3.646  11.646  23.399  0.00  0.00    +0.176 C 
ATOM      6  O   UNL     1      -4.025  10.400  24.045  0.00  0.00    -0.332 OA
ATOM      7  C   UNL     1      -4.124  10.448  25.507  0.00  0.00    +0.277 C 
ATOM      8  C   UNL     1      -5.086  11.579  25.947  0.00  0.00    +0.110 C 
ATOM      9  C   UNL     1      -4.742  12.918  25.261  0.00  0.00    +0.143 C 
ATOM     10  C   UNL     1      -4.662  12.752  23.743  0.00  0.00    +0.133 C 
BRANCH  10  11
ATOM     11  N   UNL     1      -4.249  14.013  23.108  0.00  0.00    -0.308 N 
ATOM     12  H   UNL     1      -3.301  14.330  23.260  0.00  0.00    +0.149 HD
ATOM     13  C   UNL     1      -5.044  14.767  22.344  0.00  0.00    +0.210 C 
ATOM     14  C   UNL     1      -6.490  14.270  22.153  0.00  0.00    +0.109 C 
ATOM     15  O   UNL     1      -4.666  15.812  21.813  0.00  0.00    -0.276 OA
ENDBRANCH  10  11
BRANCH   7  16
ATOM     16  C   UNL     1      -2.736  10.675  26.142  0.00  0.00    +0.414 C 
ATOM     17  O   UNL     1      -1.726  10.230  25.600  0.00  0.00    -0.240 OA
ATOM     18  O   UNL     1      -2.628  11.304  27.196  0.00  0.00    -0.240 OA
ENDBRANCH   7  16
BRANCH   7  19
ATOM     19  O   UNL     1      -4.668   9.182  25.962  0.00  0.00    -0.343 OA
ATOM     20  C   UNL     1      -5.828   9.289  26.825  0.00  0.00    +0.198 C 
ENDBRANCH   7  19
BRANCH   9  21
ATOM     21  O   UNL     1      -5.740  13.890  25.575  0.00  0.00    -0.390 OA
ATOM     22  H   UNL     1      -5.919  14.428  24.801  0.00  0.00    +0.210 HD
ENDBRANCH   9  21
ENDBRANCH   4   5
BRANCH   4  23
ATOM     23  O   UNL     1      -2.819  12.477  21.257  0.00  0.00    -0.387 OA
ATOM     24  H   UNL     1      -1.888  12.273  21.146  0.00  0.00    +0.210 HD
ENDBRANCH   4  23
ENDBRANCH   1   4
BRANCH   1  25
ATOM     25  C   UNL     1      -4.877  11.811  19.868  0.00  0.00    +0.141 C 
BRANCH  25  28
ATOM     26  C   UNL     1      -5.374  11.164  17.536  0.00  0.00    +0.401 C 
ATOM     27  O   UNL     1      -5.888  12.247  17.245  0.00  0.00    -0.226 OA
ATOM     28  N   UNL     1      -4.881  10.872  18.740  0.00  0.00    -0.279 N 
ATOM     29  H   UNL     1      -4.488   9.952  18.884  0.00  0.00    +0.152 HD
BRANCH  26  30
ATOM     30  O   UNL     1      -5.295  10.143  16.538  0.00  0.00    -0.444 OA
BRANCH  30  31
ATOM     31  C   UNL     1      -3.935   9.729  16.385  0.00  0.00    +0.292 C 
BRANCH  31  33
ATOM     32  N   UNL     1      -2.356   9.615  14.481  0.00  0.00    -0.131 NA
ATOM     33  C   UNL     1      -3.374  10.262  15.129  0.00  0.00    +0.120 A 
ATOM     34  C   UNL     1      -3.725  11.383  14.411  0.00  0.00    +0.137 A 
ATOM     35  N   UNL     1      -2.936  11.328  13.300  0.00  0.00    -0.247 N 
ATOM     36  N   UNL     1      -2.088  10.280  13.367  0.00  0.00    -0.065 NA
BRANCH  35  37
ATOM     37  C   UNL     1      -2.922  12.153  12.102  0.00  0.00    +0.180 C 
BRANCH  37  38
ATOM     38  C   UNL     1      -1.950  13.308  12.141  0.00  0.00    -0.026 A 
ATOM     39  C   UNL     1      -0.762  13.262  11.400  0.00  0.00    +0.009 A 
ATOM     40  C   UNL     1       0.131  14.336  11.439  0.00  0.00    +0.046 A 
ATOM     41  C   UNL     1      -0.153  15.472  12.200  0.00  0.00    +0.120 A 
ATOM     42  C   UNL     1      -1.320  15.513  12.958  0.00  0.00    +0.046 A 
ATOM     43  C   UNL     1      -2.216  14.438  12.929  0.00  0.00    +0.009 A 
BRANCH  41  44
ATOM     44  O   UNL     1       0.804  16.448  12.176  0.00  0.00    -0.495 OA
ATOM     45  C   UNL     1       1.987  16.127  11.450  0.00  0.00    +0.277 C 
ENDBRANCH  41  44
ENDBRANCH  37  38
ENDBRANCH  35  37
ENDBRANCH  31  33
ENDBRANCH  30  31
ENDBRANCH  26  30
ENDBRANCH  25  28
ENDBRANCH   1  25
TORSDOF 16
