REMARK VINA RESULT:    -5.071      5.530      9.318
REMARK INTER + INTRA:         -11.971
REMARK INTER:                  -8.904
REMARK INTRA:                  -3.067
REMARK UNBOUND:                -2.453
REMARK  Name = lig_assembled_75.pdb
REMARK  19 active torsions:
REMARK  status: ('A' for Active; 'I' for Inactive)
REMARK    1  A    between atoms: _2  and  _9
REMARK    2  A    between atoms: _4  and  _23
REMARK    3  A    between atoms: _6  and  _7
REMARK    4  A    between atoms: _6  and  _23
REMARK    5  A    between atoms: _11  and  _12
REMARK    6  A    between atoms: _13  and  _14
REMARK    7  A    between atoms: _14  and  _17
REMARK    8  A    between atoms: _19  and  _39
REMARK    9  A    between atoms: _21  and  _27
REMARK   10  A    between atoms: _22  and  _26
REMARK   11  A    between atoms: _26  and  _27
REMARK   12  A    between atoms: _29  and  _30
REMARK   13  A    between atoms: _31  and  _32
REMARK   14  A    between atoms: _33  and  _35
REMARK   15  A    between atoms: _35  and  _36
REMARK   16  A    between atoms: _35  and  _37
REMARK   17  A    between atoms: _37  and  _38
REMARK   18  A    between atoms: _37  and  _39
REMARK   19  A    between atoms: _40  and  _42
REMARK                            x       y       z     vdW  Elec       q    Type
REMARK                         _______ _______ _______ _____ _____    ______ ____
ROOT
ATOM      1  C   UNL     1      -3.346   6.520  15.912  0.00  0.00    +0.141 C 
ENDROOT
BRANCH   1   4
ATOM      2  C   UNL     1      -2.049   7.204  13.923  0.00  0.00    +0.401 C 
ATOM      3  O   UNL     1      -0.963   7.179  14.506  0.00  0.00    -0.226 OA
ATOM      4  N   UNL     1      -3.214   6.917  14.504  0.00  0.00    -0.279 N 
ATOM      5  H   UNL     1      -4.054   6.975  13.945  0.00  0.00    +0.152 HD
BRANCH   2   6
ATOM      6  O   UNL     1      -2.087   7.566  12.540  0.00  0.00    -0.444 OA
BRANCH   6   7
ATOM      7  C   UNL     1      -3.304   8.262  12.261  0.00  0.00    +0.292 C 
BRANCH   7   9
ATOM      8  N   UNL     1      -2.886  10.100  10.660  0.00  0.00    -0.131 NA
ATOM      9  C   UNL     1      -3.027   9.677  11.950  0.00  0.00    +0.121 A 
ATOM     10  C   UNL     1      -2.868  10.749  12.796  0.00  0.00    +0.143 A 
ATOM     11  N   UNL     1      -2.626  11.822  11.970  0.00  0.00    -0.220 N 
ATOM     12  N   UNL     1      -2.641  11.403  10.680  0.00  0.00    -0.060 NA
BRANCH  11  13
ATOM     13  C   UNL     1      -2.361  13.172  12.317  0.00  0.00    +0.068 A 
ATOM     14  C   UNL     1      -1.075  13.698  12.103  0.00  0.00    +0.035 A 
ATOM     15  C   UNL     1      -0.761  15.007  12.496  0.00  0.00    -0.023 A 
ATOM     16  C   UNL     1      -1.771  15.805  13.046  0.00  0.00    +0.008 A 
ATOM     17  C   UNL     1      -3.057  15.295  13.239  0.00  0.00    +0.003 A 
ATOM     18  C   UNL     1      -3.352  13.979  12.885  0.00  0.00    +0.028 A 
BRANCH  15  19
ATOM     19  C   UNL     1       0.584  15.579  12.332  0.00  0.00    +0.015 C 
ATOM     20  C   UNL     1       0.855  16.638  11.551  0.00  0.00    +0.092 C 
BRANCH  20  21
ATOM     21  C   UNL     1       2.247  17.105  11.410  0.00  0.00    +0.330 C 
ATOM     22  O   UNL     1       2.740  17.515  10.374  0.00  0.00    -0.246 OA
BRANCH  21  23
ATOM     23  O   UNL     1       2.921  17.041  12.576  0.00  0.00    -0.478 OA
ATOM     24  H   UNL     1       3.514  17.790  12.762  0.00  0.00    +0.295 HD
ENDBRANCH  21  23
ENDBRANCH  20  21
ENDBRANCH  15  19
ENDBRANCH  11  13
ENDBRANCH   7   9
ENDBRANCH   6   7
ENDBRANCH   2   6
ENDBRANCH   1   4
BRANCH   1  25
ATOM     25  C   UNL     1      -4.694   6.931  16.495  0.00  0.00    +0.163 C 
BRANCH  25  26
ATOM     26  O   UNL     1      -4.784   6.514  17.867  0.00  0.00    -0.388 OA
ATOM     27  H   UNL     1      -4.808   5.555  17.910  0.00  0.00    +0.210 HD
ENDBRANCH  25  26
BRANCH  25  28
ATOM     28  C   UNL     1      -4.865   8.455  16.370  0.00  0.00    +0.175 C 
BRANCH  28  29
ATOM     29  C   UNL     1      -5.757   9.029  17.481  0.00  0.00    +0.176 C 
ATOM     30  O   UNL     1      -6.915   8.160  17.618  0.00  0.00    -0.332 OA
ATOM     31  C   UNL     1      -7.833   8.495  18.711  0.00  0.00    +0.277 C 
ATOM     32  C   UNL     1      -8.295   9.968  18.597  0.00  0.00    +0.110 C 
ATOM     33  C   UNL     1      -7.100  10.928  18.417  0.00  0.00    +0.143 C 
ATOM     34  C   UNL     1      -6.209  10.484  17.256  0.00  0.00    +0.133 C 
BRANCH  34  35
ATOM     35  N   UNL     1      -5.028  11.355  17.150  0.00  0.00    -0.308 N 
ATOM     36  H   UNL     1      -4.345  11.316  17.893  0.00  0.00    +0.149 HD
ATOM     37  C   UNL     1      -4.801  12.194  16.136  0.00  0.00    +0.210 C 
ATOM     38  C   UNL     1      -5.874  12.249  15.032  0.00  0.00    +0.109 C 
ATOM     39  O   UNL     1      -3.795  12.901  16.066  0.00  0.00    -0.276 OA
ENDBRANCH  34  35
BRANCH  31  40
ATOM     40  C   UNL     1      -7.158   8.271  20.080  0.00  0.00    +0.414 C 
ATOM     41  O   UNL     1      -7.385   9.036  21.016  0.00  0.00    -0.240 OA
ATOM     42  O   UNL     1      -6.387   7.325  20.249  0.00  0.00    -0.240 OA
ENDBRANCH  31  40
BRANCH  31  43
ATOM     43  O   UNL     1      -8.999   7.640  18.595  0.00  0.00    -0.343 OA
ATOM     44  C   UNL     1      -8.798   6.431  17.820  0.00  0.00    +0.198 C 
ENDBRANCH  31  43
BRANCH  33  45
ATOM     45  O   UNL     1      -7.577  12.250  18.165  0.00  0.00    -0.390 OA
ATOM     46  H   UNL     1      -6.996  12.887  18.588  0.00  0.00    +0.210 HD
ENDBRANCH  33  45
ENDBRANCH  28  29
BRANCH  28  47
ATOM     47  O   UNL     1      -5.404   8.790  15.076  0.00  0.00    -0.387 OA
ATOM     48  H   UNL     1      -5.144   8.121  14.438  0.00  0.00    +0.210 HD
ENDBRANCH  28  47
ENDBRANCH  25  28
ENDBRANCH   1  25
TORSDOF 17
