REMARK VINA RESULT:    -4.304      4.886      8.378
REMARK INTER + INTRA:         -11.039
REMARK INTER:                  -6.430
REMARK INTRA:                  -4.609
REMARK UNBOUND:                -2.835
REMARK  Name = lig_assembled_13.pdb
REMARK  20 active torsions:
REMARK  status: ('A' for Active; 'I' for Inactive)
REMARK    1  A    between atoms: _2  and  _9
REMARK    2  A    between atoms: _4  and  _18
REMARK    3  A    between atoms: _5  and  _11
REMARK    4  A    between atoms: _6  and  _7
REMARK    5  A    between atoms: _6  and  _18
REMARK    6  A    between atoms: _9  and  _10
REMARK    7  A    between atoms: _10  and  _12
REMARK    8  A    between atoms: _11  and  _12
REMARK    9  A    between atoms: _14  and  _34
REMARK   10  A    between atoms: _16  and  _22
REMARK   11  A    between atoms: _17  and  _21
REMARK   12  A    between atoms: _21  and  _22
REMARK   13  A    between atoms: _24  and  _25
REMARK   14  A    between atoms: _26  and  _27
REMARK   15  A    between atoms: _28  and  _30
REMARK   16  A    between atoms: _30  and  _31
REMARK   17  A    between atoms: _30  and  _32
REMARK   18  A    between atoms: _32  and  _33
REMARK   19  A    between atoms: _32  and  _34
REMARK   20  A    between atoms: _35  and  _37
REMARK                            x       y       z     vdW  Elec       q    Type
REMARK                         _______ _______ _______ _____ _____    ______ ____
ROOT
ATOM      1  C   UNL     1      -3.058  12.307  25.680  0.00  0.00    +0.163 C 
ENDROOT
BRANCH   1   2
ATOM      2  O   UNL     1      -2.332  12.327  24.440  0.00  0.00    -0.388 OA
ATOM      3  H   UNL     1      -1.395  12.205  24.616  0.00  0.00    +0.210 HD
ENDBRANCH   1   2
BRANCH   1   4
ATOM      4  C   UNL     1      -4.518  11.874  25.455  0.00  0.00    +0.175 C 
BRANCH   4   5
ATOM      5  C   UNL     1      -4.845  11.699  23.965  0.00  0.00    +0.176 C 
ATOM      6  O   UNL     1      -4.797  13.010  23.339  0.00  0.00    -0.332 OA
ATOM      7  C   UNL     1      -4.982  13.026  21.885  0.00  0.00    +0.277 C 
ATOM      8  C   UNL     1      -6.300  12.311  21.500  0.00  0.00    +0.110 C 
ATOM      9  C   UNL     1      -6.412  10.924  22.167  0.00  0.00    +0.143 C 
ATOM     10  C   UNL     1      -6.200  11.024  23.678  0.00  0.00    +0.133 C 
BRANCH  10  11
ATOM     11  N   UNL     1      -6.222   9.686  24.291  0.00  0.00    -0.308 N 
ATOM     12  H   UNL     1      -5.548   9.007  23.965  0.00  0.00    +0.149 HD
ATOM     13  C   UNL     1      -7.073   9.311  25.250  0.00  0.00    +0.210 C 
ATOM     14  C   UNL     1      -8.104  10.361  25.706  0.00  0.00    +0.109 C 
ATOM     15  O   UNL     1      -7.059   8.189  25.755  0.00  0.00    -0.276 OA
ENDBRANCH  10  11
BRANCH   7  16
ATOM     16  C   UNL     1      -3.796  12.340  21.175  0.00  0.00    +0.414 C 
ATOM     17  O   UNL     1      -3.985  11.668  20.162  0.00  0.00    -0.240 OA
ATOM     18  O   UNL     1      -2.652  12.458  21.615  0.00  0.00    -0.240 OA
ENDBRANCH   7  16
BRANCH   7  19
ATOM     19  O   UNL     1      -5.071  14.410  21.459  0.00  0.00    -0.343 OA
ATOM     20  C   UNL     1      -4.710  15.386  22.468  0.00  0.00    +0.198 C 
ENDBRANCH   7  19
BRANCH   9  21
ATOM     21  O   UNL     1      -7.701  10.367  21.909  0.00  0.00    -0.390 OA
ATOM     22  H   UNL     1      -8.296  11.060  21.614  0.00  0.00    +0.210 HD
ENDBRANCH   9  21
ENDBRANCH   4   5
BRANCH   4  23
ATOM     23  O   UNL     1      -5.417  12.829  26.052  0.00  0.00    -0.387 OA
ATOM     24  H   UNL     1      -5.648  12.541  26.939  0.00  0.00    +0.210 HD
ENDBRANCH   4  23
ENDBRANCH   1   4
BRANCH   1  25
ATOM     25  C   UNL     1      -2.389  11.351  26.662  0.00  0.00    +0.141 C 
BRANCH  25  28
ATOM     26  C   UNL     1      -1.945   8.928  26.858  0.00  0.00    +0.401 C 
ATOM     27  O   UNL     1      -1.605   8.990  28.041  0.00  0.00    -0.226 OA
ATOM     28  N   UNL     1      -2.321   9.983  26.133  0.00  0.00    -0.279 N 
ATOM     29  H   UNL     1      -2.573   9.832  25.167  0.00  0.00    +0.152 HD
BRANCH  26  30
ATOM     30  O   UNL     1      -1.939   7.658  26.200  0.00  0.00    -0.444 OA
BRANCH  30  31
ATOM     31  C   UNL     1      -3.265   7.121  26.188  0.00  0.00    +0.292 C 
BRANCH  31  33
ATOM     32  N   UNL     1      -3.566   8.151  23.958  0.00  0.00    -0.131 NA
ATOM     33  C   UNL     1      -3.804   7.112  24.816  0.00  0.00    +0.120 A 
ATOM     34  C   UNL     1      -4.578   6.171  24.182  0.00  0.00    +0.137 A 
ATOM     35  N   UNL     1      -4.836   6.726  22.962  0.00  0.00    -0.241 N 
ATOM     36  N   UNL     1      -4.189   7.893  22.813  0.00  0.00    -0.065 NA
BRANCH  35  37
ATOM     37  C   UNL     1      -5.594   6.168  21.865  0.00  0.00    +0.265 C 
BRANCH  37  38
ATOM     38  C   UNL     1      -6.773   7.024  21.502  0.00  0.00    +0.329 C 
ATOM     39  O   UNL     1      -7.603   7.486  22.272  0.00  0.00    -0.249 OA
BRANCH  38  40
ATOM     40  O   UNL     1      -6.844   7.126  20.140  0.00  0.00    -0.464 OA
BRANCH  40  41
ATOM     41  C   UNL     1      -6.066   8.190  19.572  0.00  0.00    +0.229 C 
ATOM     42  C   UNL     1      -6.975   8.998  18.663  0.00  0.00    +0.048 C 
ENDBRANCH  40  41
ENDBRANCH  38  40
ENDBRANCH  37  38
ENDBRANCH  35  37
ENDBRANCH  31  33
ENDBRANCH  30  31
ENDBRANCH  26  30
ENDBRANCH  25  28
ENDBRANCH   1  25
TORSDOF 17
