REMARK VINA RESULT:    -3.845      6.192     10.957
REMARK INTER + INTRA:         -12.416
REMARK INTER:                  -9.189
REMARK INTRA:                  -3.227
REMARK UNBOUND:                -4.638
REMARK  Name = lig_assembled_11.pdb
REMARK  22 active torsions:
REMARK  status: ('A' for Active; 'I' for Inactive)
REMARK    1  A    between atoms: _2  and  _9
REMARK    2  A    between atoms: _4  and  _21
REMARK    3  A    between atoms: _5  and  _9
REMARK    4  A    between atoms: _5  and  _13
REMARK    5  A    between atoms: _6  and  _7
REMARK    6  A    between atoms: _6  and  _21
REMARK    7  A    between atoms: _9  and  _10
REMARK    8  A    between atoms: _10  and  _11
REMARK    9  A    between atoms: _11  and  _12
REMARK   10  A    between atoms: _12  and  _15
REMARK   11  A    between atoms: _17  and  _37
REMARK   12  A    between atoms: _19  and  _25
REMARK   13  A    between atoms: _20  and  _24
REMARK   14  A    between atoms: _24  and  _25
REMARK   15  A    between atoms: _27  and  _28
REMARK   16  A    between atoms: _29  and  _30
REMARK   17  A    between atoms: _31  and  _33
REMARK   18  A    between atoms: _33  and  _34
REMARK   19  A    between atoms: _33  and  _35
REMARK   20  A    between atoms: _35  and  _36
REMARK   21  A    between atoms: _35  and  _37
REMARK   22  A    between atoms: _38  and  _40
REMARK                            x       y       z     vdW  Elec       q    Type
REMARK                         _______ _______ _______ _____ _____    ______ ____
ROOT
ATOM      1  C   UNL     1      -6.458   9.299  23.244  0.00  0.00    +0.163 C 
ENDROOT
BRANCH   1   2
ATOM      2  O   UNL     1      -7.176   9.309  24.489  0.00  0.00    -0.388 OA
ATOM      3  H   UNL     1      -7.746  10.081  24.525  0.00  0.00    +0.210 HD
ENDBRANCH   1   2
BRANCH   1   4
ATOM      4  C   UNL     1      -5.137   8.523  23.378  0.00  0.00    +0.175 C 
BRANCH   4   5
ATOM      5  C   UNL     1      -4.059   9.339  24.107  0.00  0.00    +0.176 C 
ATOM      6  O   UNL     1      -4.398   9.366  25.520  0.00  0.00    -0.332 OA
ATOM      7  C   UNL     1      -3.418  10.016  26.395  0.00  0.00    +0.277 C 
ATOM      8  C   UNL     1      -3.121  11.453  25.901  0.00  0.00    +0.110 C 
ATOM      9  C   UNL     1      -2.786  11.479  24.395  0.00  0.00    +0.143 C 
ATOM     10  C   UNL     1      -3.869  10.773  23.579  0.00  0.00    +0.133 C 
BRANCH  10  11
ATOM     11  N   UNL     1      -3.497  10.729  22.156  0.00  0.00    -0.308 N 
ATOM     12  H   UNL     1      -2.743  10.113  21.886  0.00  0.00    +0.149 HD
ATOM     13  C   UNL     1      -4.089  11.449  21.200  0.00  0.00    +0.210 C 
ATOM     14  C   UNL     1      -5.217  12.397  21.649  0.00  0.00    +0.109 C 
ATOM     15  O   UNL     1      -3.765  11.380  20.014  0.00  0.00    -0.276 OA
ENDBRANCH  10  11
BRANCH   7  16
ATOM     16  C   UNL     1      -2.106   9.206  26.444  0.00  0.00    +0.414 C 
ATOM     17  O   UNL     1      -2.134   7.977  26.406  0.00  0.00    -0.240 OA
ATOM     18  O   UNL     1      -1.019   9.782  26.521  0.00  0.00    -0.240 OA
ENDBRANCH   7  16
BRANCH   7  19
ATOM     19  O   UNL     1      -3.990  10.099  27.726  0.00  0.00    -0.343 OA
ATOM     20  C   UNL     1      -5.401  10.428  27.766  0.00  0.00    +0.198 C 
ENDBRANCH   7  19
BRANCH   9  21
ATOM     21  O   UNL     1      -2.669  12.832  23.951  0.00  0.00    -0.390 OA
ATOM     22  H   UNL     1      -1.799  13.169  24.177  0.00  0.00    +0.210 HD
ENDBRANCH   9  21
ENDBRANCH   4   5
BRANCH   4  23
ATOM     23  O   UNL     1      -4.662   8.123  22.077  0.00  0.00    -0.387 OA
ATOM     24  H   UNL     1      -4.371   7.209  22.109  0.00  0.00    +0.210 HD
ENDBRANCH   4  23
ENDBRANCH   1   4
BRANCH   1  25
ATOM     25  C   UNL     1      -7.314   8.664  22.153  0.00  0.00    +0.141 C 
BRANCH  25  28
ATOM     26  C   UNL     1      -7.671  10.066  20.150  0.00  0.00    +0.401 C 
ATOM     27  O   UNL     1      -8.712  10.572  20.574  0.00  0.00    -0.226 OA
ATOM     28  N   UNL     1      -6.956   9.160  20.818  0.00  0.00    -0.279 N 
ATOM     29  H   UNL     1      -6.121   8.795  20.382  0.00  0.00    +0.152 HD
BRANCH  26  30
ATOM     30  O   UNL     1      -7.185  10.454  18.862  0.00  0.00    -0.444 OA
BRANCH  30  31
ATOM     31  C   UNL     1      -7.330   9.364  17.948  0.00  0.00    +0.292 C 
BRANCH  31  33
ATOM     32  N   UNL     1      -4.986   8.584  18.108  0.00  0.00    -0.131 NA
ATOM     33  C   UNL     1      -6.030   9.024  17.341  0.00  0.00    +0.120 A 
ATOM     34  C   UNL     1      -5.632   9.063  16.024  0.00  0.00    +0.138 A 
ATOM     35  N   UNL     1      -4.323   8.677  16.055  0.00  0.00    -0.238 N 
ATOM     36  N   UNL     1      -3.950   8.362  17.310  0.00  0.00    -0.065 NA
BRANCH  35  37
ATOM     37  C   UNL     1      -3.382   8.437  14.966  0.00  0.00    +0.217 C 
BRANCH  37  38
ATOM     38  C   UNL     1      -2.567   9.661  14.577  0.00  0.00    +0.330 C 
ATOM     39  O   UNL     1      -1.866   9.768  13.583  0.00  0.00    -0.249 OA
BRANCH  38  40
ATOM     40  O   UNL     1      -2.664  10.690  15.457  0.00  0.00    -0.479 OA
ATOM     41  H   UNL     1      -2.330  10.536  16.362  0.00  0.00    +0.295 HD
ENDBRANCH  38  40
ENDBRANCH  37  38
BRANCH  37  42
ATOM     42  C   UNL     1      -4.063   7.770  13.757  0.00  0.00    +0.049 C 
BRANCH  42  43
ATOM     43  C   UNL     1      -3.421   6.453  13.300  0.00  0.00    +0.123 C 
BRANCH  43  44
ATOM     44  C   UNL     1      -2.552   6.668  12.082  0.00  0.00    +0.305 C 
ATOM     45  O   UNL     1      -2.853   6.342  10.946  0.00  0.00    -0.251 OA
BRANCH  44  46
ATOM     46  O   UNL     1      -1.370   7.250  12.383  0.00  0.00    -0.481 OA
ATOM     47  H   UNL     1      -0.707   6.646  12.768  0.00  0.00    +0.295 HD
ENDBRANCH  44  46
ENDBRANCH  43  44
ENDBRANCH  42  43
ENDBRANCH  37  42
ENDBRANCH  35  37
ENDBRANCH  31  33
ENDBRANCH  30  31
ENDBRANCH  26  30
ENDBRANCH  25  28
ENDBRANCH   1  25
TORSDOF 20
