REMARK VINA RESULT:    -4.838      1.771      2.159
REMARK INTER + INTRA:         -10.867
REMARK INTER:                  -8.736
REMARK INTRA:                  -2.131
REMARK UNBOUND:                -2.494
REMARK  Name = lig_assembled_56.pdb
REMARK  16 active torsions:
REMARK  status: ('A' for Active; 'I' for Inactive)
REMARK    1  A    between atoms: _2  and  _10
REMARK    2  A    between atoms: _5  and  _18
REMARK    3  A    between atoms: _7  and  _8
REMARK    4  A    between atoms: _7  and  _18
REMARK    5  A    between atoms: _14  and  _34
REMARK    6  A    between atoms: _16  and  _22
REMARK    7  A    between atoms: _17  and  _21
REMARK    8  A    between atoms: _21  and  _22
REMARK    9  A    between atoms: _24  and  _25
REMARK   10  A    between atoms: _26  and  _27
REMARK   11  A    between atoms: _28  and  _30
REMARK   12  A    between atoms: _30  and  _31
REMARK   13  A    between atoms: _30  and  _32
REMARK   14  A    between atoms: _32  and  _33
REMARK   15  A    between atoms: _32  and  _34
REMARK   16  A    between atoms: _35  and  _37
REMARK                            x       y       z     vdW  Elec       q    Type
REMARK                         _______ _______ _______ _____ _____    ______ ____
ROOT
ATOM      1  C   UNL     1      -3.292  12.711  24.111  0.00  0.00    +0.163 C 
ENDROOT
BRANCH   1   2
ATOM      2  O   UNL     1      -1.920  12.995  24.430  0.00  0.00    -0.388 OA
ATOM      3  H   UNL     1      -1.715  12.647  25.301  0.00  0.00    +0.210 HD
ENDBRANCH   1   2
BRANCH   1   4
ATOM      4  C   UNL     1      -3.786  13.670  23.032  0.00  0.00    +0.141 C 
BRANCH   4   7
ATOM      5  C   UNL     1      -5.669  13.109  21.533  0.00  0.00    +0.401 C 
ATOM      6  O   UNL     1      -6.469  13.854  22.105  0.00  0.00    -0.226 OA
ATOM      7  N   UNL     1      -4.397  12.956  21.904  0.00  0.00    -0.279 N 
ATOM      8  H   UNL     1      -3.821  12.314  21.378  0.00  0.00    +0.152 HD
BRANCH   5   9
ATOM      9  O   UNL     1      -6.112  12.349  20.406  0.00  0.00    -0.444 OA
BRANCH   9  10
ATOM     10  C   UNL     1      -5.658  10.998  20.532  0.00  0.00    +0.292 C 
BRANCH  10  12
ATOM     11  N   UNL     1      -5.228   9.177  18.914  0.00  0.00    -0.131 NA
ATOM     12  C   UNL     1      -5.160  10.501  19.236  0.00  0.00    +0.121 A 
ATOM     13  C   UNL     1      -4.588  11.190  18.190  0.00  0.00    +0.143 A 
ATOM     14  N   UNL     1      -4.336  10.234  17.232  0.00  0.00    -0.220 N 
ATOM     15  N   UNL     1      -4.724   9.022  17.697  0.00  0.00    -0.060 NA
BRANCH  14  16
ATOM     16  C   UNL     1      -3.780  10.397  15.940  0.00  0.00    +0.070 A 
ATOM     17  C   UNL     1      -3.248   9.309  15.242  0.00  0.00    +0.047 A 
ATOM     18  C   UNL     1      -2.705   9.543  13.989  0.00  0.00    +0.113 A 
ATOM     19  N   UNL     1      -2.661  10.758  13.403  0.00  0.00    -0.263 NA
ATOM     20  C   UNL     1      -3.184  11.791  14.096  0.00  0.00    +0.113 A 
ATOM     21  C   UNL     1      -3.750  11.666  15.353  0.00  0.00    +0.047 A 
ENDBRANCH  14  16
ENDBRANCH  10  12
ENDBRANCH   9  10
ENDBRANCH   5   9
ENDBRANCH   4   7
ENDBRANCH   1   4
BRANCH   1  22
ATOM     22  C   UNL     1      -4.185  12.836  25.358  0.00  0.00    +0.175 C 
BRANCH  22  23
ATOM     23  C   UNL     1      -3.955  11.688  26.351  0.00  0.00    +0.176 C 
ATOM     24  O   UNL     1      -3.732  10.472  25.585  0.00  0.00    -0.332 OA
ATOM     25  C   UNL     1      -3.389   9.282  26.369  0.00  0.00    +0.277 C 
ATOM     26  C   UNL     1      -4.458   9.026  27.459  0.00  0.00    +0.110 C 
ATOM     27  C   UNL     1      -4.751  10.299  28.280  0.00  0.00    +0.143 C 
ATOM     28  C   UNL     1      -5.094  11.475  27.365  0.00  0.00    +0.133 C 
BRANCH  28  29
ATOM     29  N   UNL     1      -5.286  12.703  28.153  0.00  0.00    -0.308 N 
ATOM     30  H   UNL     1      -4.474  13.112  28.594  0.00  0.00    +0.149 HD
ATOM     31  C   UNL     1      -6.463  13.311  28.324  0.00  0.00    +0.210 C 
ATOM     32  C   UNL     1      -7.685  12.647  27.661  0.00  0.00    +0.109 C 
ATOM     33  O   UNL     1      -6.592  14.347  28.977  0.00  0.00    -0.276 OA
ENDBRANCH  28  29
BRANCH  25  34
ATOM     34  C   UNL     1      -2.005   9.445  27.032  0.00  0.00    +0.414 C 
ATOM     35  O   UNL     1      -1.071   9.943  26.404  0.00  0.00    -0.240 OA
ATOM     36  O   UNL     1      -1.822   9.079  28.193  0.00  0.00    -0.240 OA
ENDBRANCH  25  34
BRANCH  27  37
ATOM     37  O   UNL     1      -5.844  10.059  29.167  0.00  0.00    -0.390 OA
ATOM     38  H   UNL     1      -6.658   9.992  28.663  0.00  0.00    +0.210 HD
ENDBRANCH  27  37
BRANCH  25  39
ATOM     39  O   UNL     1      -3.369   8.143  25.471  0.00  0.00    -0.343 OA
ATOM     40  C   UNL     1      -4.674   7.668  25.056  0.00  0.00    +0.198 C 
ENDBRANCH  25  39
ENDBRANCH  22  23
BRANCH  22  41
ATOM     41  O   UNL     1      -5.573  12.889  24.972  0.00  0.00    -0.387 OA
ATOM     42  H   UNL     1      -5.974  13.685  25.330  0.00  0.00    +0.210 HD
ENDBRANCH  22  41
ENDBRANCH   1  22
TORSDOF 14
