REMARK VINA RESULT:    -4.422      8.776     11.758
REMARK INTER + INTRA:         -11.414
REMARK INTER:                  -6.776
REMARK INTRA:                  -4.637
REMARK UNBOUND:                -3.243
REMARK  Name = lig_assembled_78.pdb
REMARK  18 active torsions:
REMARK  status: ('A' for Active; 'I' for Inactive)
REMARK    1  A    between atoms: _2  and  _9
REMARK    2  A    between atoms: _4  and  _21
REMARK    3  A    between atoms: _6  and  _7
REMARK    4  A    between atoms: _6  and  _21
REMARK    5  A    between atoms: _9  and  _41
REMARK    6  A    between atoms: _10  and  _41
REMARK    7  A    between atoms: _17  and  _37
REMARK    8  A    between atoms: _19  and  _25
REMARK    9  A    between atoms: _20  and  _24
REMARK   10  A    between atoms: _24  and  _25
REMARK   11  A    between atoms: _27  and  _28
REMARK   12  A    between atoms: _29  and  _30
REMARK   13  A    between atoms: _31  and  _33
REMARK   14  A    between atoms: _33  and  _34
REMARK   15  A    between atoms: _33  and  _35
REMARK   16  A    between atoms: _35  and  _36
REMARK   17  A    between atoms: _35  and  _37
REMARK   18  A    between atoms: _38  and  _40
REMARK                            x       y       z     vdW  Elec       q    Type
REMARK                         _______ _______ _______ _____ _____    ______ ____
ROOT
ATOM      1  C   UNL     1      -8.199   9.682  13.577  0.00  0.00    +0.163 C 
ENDROOT
BRANCH   1   2
ATOM      2  O   UNL     1      -8.082   9.790  12.149  0.00  0.00    -0.388 OA
ATOM      3  H   UNL     1      -7.451  10.480  11.930  0.00  0.00    +0.210 HD
ENDBRANCH   1   2
BRANCH   1   4
ATOM      4  C   UNL     1      -6.812   9.611  14.239  0.00  0.00    +0.175 C 
BRANCH   4   5
ATOM      5  C   UNL     1      -5.688   9.433  13.208  0.00  0.00    +0.176 C 
ATOM      6  O   UNL     1      -5.593   8.018  12.888  0.00  0.00    -0.332 OA
ATOM      7  C   UNL     1      -4.636   7.669  11.834  0.00  0.00    +0.277 C 
ATOM      8  C   UNL     1      -3.231   8.224  12.173  0.00  0.00    +0.110 C 
ATOM      9  C   UNL     1      -3.286   9.719  12.550  0.00  0.00    +0.143 C 
ATOM     10  C   UNL     1      -4.315   9.970  13.653  0.00  0.00    +0.133 C 
BRANCH  10  11
ATOM     11  N   UNL     1      -4.419  11.409  13.943  0.00  0.00    -0.308 N 
ATOM     12  H   UNL     1      -4.597  12.034  13.169  0.00  0.00    +0.149 HD
ATOM     13  C   UNL     1      -4.296  11.942  15.161  0.00  0.00    +0.210 C 
ATOM     14  C   UNL     1      -4.000  10.966  16.315  0.00  0.00    +0.109 C 
ATOM     15  O   UNL     1      -4.403  13.150  15.376  0.00  0.00    -0.276 OA
ENDBRANCH  10  11
BRANCH   7  16
ATOM     16  C   UNL     1      -5.097   8.227  10.471  0.00  0.00    +0.414 C 
ATOM     17  O   UNL     1      -4.270   8.646   9.662  0.00  0.00    -0.240 OA
ATOM     18  O   UNL     1      -6.293   8.257  10.181  0.00  0.00    -0.240 OA
ENDBRANCH   7  16
BRANCH   7  19
ATOM     19  O   UNL     1      -4.552   6.222  11.766  0.00  0.00    -0.343 OA
ATOM     20  C   UNL     1      -4.175   5.571  13.006  0.00  0.00    +0.198 C 
ENDBRANCH   7  19
BRANCH   9  21
ATOM     21  O   UNL     1      -2.000  10.150  12.999  0.00  0.00    -0.390 OA
ATOM     22  H   UNL     1      -2.097  10.934  13.544  0.00  0.00    +0.210 HD
ENDBRANCH   9  21
ENDBRANCH   4   5
BRANCH   4  23
ATOM     23  O   UNL     1      -6.776   8.539  15.202  0.00  0.00    -0.387 OA
ATOM     24  H   UNL     1      -5.892   8.164  15.232  0.00  0.00    +0.210 HD
ENDBRANCH   4  23
ENDBRANCH   1   4
BRANCH   1  25
ATOM     25  C   UNL     1      -8.966  10.879  14.130  0.00  0.00    +0.141 C 
BRANCH  25  28
ATOM     26  C   UNL     1      -7.887  13.025  14.708  0.00  0.00    +0.401 C 
ATOM     27  O   UNL     1      -8.009  12.866  15.925  0.00  0.00    -0.226 OA
ATOM     28  N   UNL     1      -8.312  12.150  13.796  0.00  0.00    -0.279 N 
ATOM     29  H   UNL     1      -8.176  12.374  12.820  0.00  0.00    +0.152 HD
BRANCH  26  30
ATOM     30  O   UNL     1      -7.260  14.215  14.222  0.00  0.00    -0.444 OA
BRANCH  30  31
ATOM     31  C   UNL     1      -7.431  14.300  12.805  0.00  0.00    +0.292 C 
BRANCH  31  33
ATOM     32  N   UNL     1      -5.967  12.706  11.597  0.00  0.00    -0.131 NA
ATOM     33  C   UNL     1      -6.174  13.957  12.115  0.00  0.00    +0.120 A 
ATOM     34  C   UNL     1      -5.063  14.733  11.869  0.00  0.00    +0.139 A 
ATOM     35  N   UNL     1      -4.245  13.916  11.147  0.00  0.00    -0.230 N 
ATOM     36  N   UNL     1      -4.771  12.685  11.025  0.00  0.00    -0.064 NA
BRANCH  35  37
ATOM     37  C   UNL     1      -2.933  14.195  10.616  0.00  0.00    +0.316 C 
BRANCH  37  38
ATOM     38  S   UNL     1      -1.636  13.282  11.411  0.00  0.00    +0.017 S 
ATOM     39  O   UNL     1      -1.952  13.094  12.812  0.00  0.00    -0.168 OA
ATOM     40  O   UNL     1      -1.303  12.150  10.563  0.00  0.00    -0.168 OA
BRANCH  38  41
ATOM     41  C   UNL     1      -0.241  14.387  11.371  0.00  0.00    +0.090 A 
ATOM     42  C   UNL     1      -0.104  15.351  12.376  0.00  0.00    +0.027 A 
ATOM     43  C   UNL     1       1.000  16.202  12.363  0.00  0.00    +0.002 A 
ATOM     44  C   UNL     1       1.969  16.076  11.365  0.00  0.00    +0.000 A 
ATOM     45  C   UNL     1       1.837  15.099  10.377  0.00  0.00    +0.002 A 
ATOM     46  C   UNL     1       0.730  14.250  10.376  0.00  0.00    +0.027 A 
ENDBRANCH  38  41
ENDBRANCH  37  38
ENDBRANCH  35  37
ENDBRANCH  31  33
ENDBRANCH  30  31
ENDBRANCH  26  30
ENDBRANCH  25  28
ENDBRANCH   1  25
TORSDOF 16
