REMARK VINA RESULT:    -4.641      4.542      9.242
REMARK INTER + INTRA:         -12.031
REMARK INTER:                  -9.192
REMARK INTRA:                  -2.838
REMARK UNBOUND:                -3.320
REMARK  Name = lig_assembled_16.pdb
REMARK  19 active torsions:
REMARK  status: ('A' for Active; 'I' for Inactive)
REMARK    1  A    between atoms: _2  and  _9
REMARK    2  A    between atoms: _4  and  _22
REMARK    3  A    between atoms: _6  and  _7
REMARK    4  A    between atoms: _6  and  _22
REMARK    5  A    between atoms: _9  and  _10
REMARK    6  A    between atoms: _13  and  _14
REMARK    7  A    between atoms: _14  and  _16
REMARK    8  A    between atoms: _18  and  _38
REMARK    9  A    between atoms: _20  and  _26
REMARK   10  A    between atoms: _21  and  _25
REMARK   11  A    between atoms: _25  and  _26
REMARK   12  A    between atoms: _28  and  _29
REMARK   13  A    between atoms: _30  and  _31
REMARK   14  A    between atoms: _32  and  _34
REMARK   15  A    between atoms: _34  and  _35
REMARK   16  A    between atoms: _34  and  _36
REMARK   17  A    between atoms: _36  and  _37
REMARK   18  A    between atoms: _36  and  _38
REMARK   19  A    between atoms: _39  and  _41
REMARK                            x       y       z     vdW  Elec       q    Type
REMARK                         _______ _______ _______ _____ _____    ______ ____
ROOT
ATOM      1  C   UNL     1      -6.547   9.071  24.080  0.00  0.00    +0.163 C 
ENDROOT
BRANCH   1   2
ATOM      2  O   UNL     1      -7.212   9.404  25.309  0.00  0.00    -0.388 OA
ATOM      3  H   UNL     1      -8.121   9.096  25.276  0.00  0.00    +0.210 HD
ENDBRANCH   1   2
BRANCH   1   4
ATOM      4  C   UNL     1      -5.269   8.259  24.349  0.00  0.00    +0.175 C 
BRANCH   4   5
ATOM      5  C   UNL     1      -4.099   9.151  24.788  0.00  0.00    +0.176 C 
ATOM      6  O   UNL     1      -4.301   9.498  26.186  0.00  0.00    -0.332 OA
ATOM      7  C   UNL     1      -3.220  10.266  26.812  0.00  0.00    +0.277 C 
ATOM      8  C   UNL     1      -2.922  11.546  25.993  0.00  0.00    +0.110 C 
ATOM      9  C   UNL     1      -2.730  11.231  24.495  0.00  0.00    +0.143 C 
ATOM     10  C   UNL     1      -3.910  10.428  23.947  0.00  0.00    +0.133 C 
BRANCH  10  11
ATOM     11  N   UNL     1      -3.676  10.060  22.542  0.00  0.00    -0.308 N 
ATOM     12  H   UNL     1      -2.983   9.351  22.349  0.00  0.00    +0.149 HD
ATOM     13  C   UNL     1      -4.319  10.602  21.505  0.00  0.00    +0.210 C 
ATOM     14  C   UNL     1      -5.351  11.699  21.830  0.00  0.00    +0.109 C 
ATOM     15  O   UNL     1      -4.113  10.264  20.339  0.00  0.00    -0.276 OA
ENDBRANCH  10  11
BRANCH   7  16
ATOM     16  C   UNL     1      -1.939   9.414  26.924  0.00  0.00    +0.414 C 
ATOM     17  O   UNL     1      -1.992   8.268  27.367  0.00  0.00    -0.240 OA
ATOM     18  O   UNL     1      -0.852   9.874  26.570  0.00  0.00    -0.240 OA
ENDBRANCH   7  16
BRANCH   7  19
ATOM     19  O   UNL     1      -3.660  10.662  28.136  0.00  0.00    -0.343 OA
ATOM     20  C   UNL     1      -3.789  12.092  28.336  0.00  0.00    +0.198 C 
ENDBRANCH   7  19
BRANCH   9  21
ATOM     21  O   UNL     1      -2.609  12.449  23.759  0.00  0.00    -0.390 OA
ATOM     22  H   UNL     1      -2.123  13.092  24.281  0.00  0.00    +0.210 HD
ENDBRANCH   9  21
ENDBRANCH   4   5
BRANCH   4  23
ATOM     23  O   UNL     1      -4.904   7.504  23.176  0.00  0.00    -0.387 OA
ATOM     24  H   UNL     1      -4.118   7.887  22.780  0.00  0.00    +0.210 HD
ENDBRANCH   4  23
ENDBRANCH   1   4
BRANCH   1  25
ATOM     25  C   UNL     1      -7.482   8.267  23.182  0.00  0.00    +0.141 C 
BRANCH  25  28
ATOM     26  C   UNL     1      -7.040   7.914  20.777  0.00  0.00    +0.401 C 
ATOM     27  O   UNL     1      -6.710   6.734  20.915  0.00  0.00    -0.226 OA
ATOM     28  N   UNL     1      -7.410   8.707  21.783  0.00  0.00    -0.279 N 
ATOM     29  H   UNL     1      -7.654   9.664  21.571  0.00  0.00    +0.152 HD
BRANCH  26  30
ATOM     30  O   UNL     1      -7.030   8.490  19.468  0.00  0.00    -0.444 OA
BRANCH  30  31
ATOM     31  C   UNL     1      -7.424   9.862  19.547  0.00  0.00    +0.292 C 
BRANCH  31  33
ATOM     32  N   UNL     1      -6.680  11.888  18.331  0.00  0.00    -0.131 NA
ATOM     33  C   UNL     1      -7.059  10.570  18.307  0.00  0.00    +0.120 A 
ATOM     34  C   UNL     1      -6.996  10.107  17.012  0.00  0.00    +0.137 A 
ATOM     35  N   UNL     1      -6.484  11.160  16.315  0.00  0.00    -0.247 N 
ATOM     36  N   UNL     1      -6.345  12.246  17.098  0.00  0.00    -0.065 NA
BRANCH  35  37
ATOM     37  C   UNL     1      -6.084  11.197  14.923  0.00  0.00    +0.180 C 
BRANCH  37  38
ATOM     38  C   UNL     1      -4.980  10.204  14.642  0.00  0.00    -0.026 A 
ATOM     39  C   UNL     1      -5.234   9.043  13.896  0.00  0.00    +0.006 A 
ATOM     40  C   UNL     1      -4.201   8.147  13.607  0.00  0.00    +0.015 A 
ATOM     41  C   UNL     1      -2.905   8.390  14.068  0.00  0.00    +0.059 A 
ATOM     42  C   UNL     1      -2.643   9.536  14.833  0.00  0.00    +0.015 A 
ATOM     43  C   UNL     1      -3.680  10.428  15.126  0.00  0.00    +0.006 A 
BRANCH  41  44
ATOM     44  C   UNL     1      -1.830   7.443  13.669  0.00  0.00    +0.337 C 
ATOM     45  O   UNL     1      -1.025   7.697  12.788  0.00  0.00    -0.245 OA
BRANCH  44  46
ATOM     46  O   UNL     1      -1.847   6.275  14.339  0.00  0.00    -0.477 OA
ATOM     47  H   UNL     1      -0.972   5.893  14.530  0.00  0.00    +0.295 HD
ENDBRANCH  44  46
ENDBRANCH  41  44
ENDBRANCH  37  38
ENDBRANCH  35  37
ENDBRANCH  31  33
ENDBRANCH  30  31
ENDBRANCH  26  30
ENDBRANCH  25  28
ENDBRANCH   1  25
TORSDOF 17
