REMARK VINA RESULT:    -4.972      3.078      7.096
REMARK INTER + INTRA:         -11.112
REMARK INTER:                  -8.508
REMARK INTRA:                  -2.603
REMARK UNBOUND:                -2.505
REMARK  Name = lig_assembled_3.pdb
REMARK  16 active torsions:
REMARK  status: ('A' for Active; 'I' for Inactive)
REMARK    1  A    between atoms: _2  and  _9
REMARK    2  A    between atoms: _4  and  _18
REMARK    3  A    between atoms: _6  and  _7
REMARK    4  A    between atoms: _6  and  _18
REMARK    5  A    between atoms: _14  and  _34
REMARK    6  A    between atoms: _16  and  _22
REMARK    7  A    between atoms: _17  and  _21
REMARK    8  A    between atoms: _21  and  _22
REMARK    9  A    between atoms: _24  and  _25
REMARK   10  A    between atoms: _26  and  _27
REMARK   11  A    between atoms: _28  and  _30
REMARK   12  A    between atoms: _30  and  _31
REMARK   13  A    between atoms: _30  and  _32
REMARK   14  A    between atoms: _32  and  _33
REMARK   15  A    between atoms: _32  and  _34
REMARK   16  A    between atoms: _35  and  _37
REMARK                            x       y       z     vdW  Elec       q    Type
REMARK                         _______ _______ _______ _____ _____    ______ ____
ROOT
ATOM      1  C   UNL     1      -3.021  12.287  25.738  0.00  0.00    +0.163 C 
ENDROOT
BRANCH   1   2
ATOM      2  O   UNL     1      -3.545  13.283  24.844  0.00  0.00    -0.388 OA
ATOM      3  H   UNL     1      -4.455  13.069  24.623  0.00  0.00    +0.210 HD
ENDBRANCH   1   2
BRANCH   1   4
ATOM      4  C   UNL     1      -2.721  11.004  24.971  0.00  0.00    +0.141 C 
BRANCH   4   7
ATOM      5  C   UNL     1      -3.895  10.160  22.967  0.00  0.00    +0.401 C 
ATOM      6  O   UNL     1      -2.903  10.234  22.239  0.00  0.00    -0.226 OA
ATOM      7  N   UNL     1      -3.902  10.505  24.255  0.00  0.00    -0.279 N 
ATOM      8  H   UNL     1      -4.768  10.417  24.768  0.00  0.00    +0.152 HD
BRANCH   5   9
ATOM      9  O   UNL     1      -5.126   9.682  22.418  0.00  0.00    -0.444 OA
BRANCH   9  10
ATOM     10  C   UNL     1      -5.660  10.659  21.521  0.00  0.00    +0.292 C 
BRANCH  10  12
ATOM     11  N   UNL     1      -6.331  12.019  23.475  0.00  0.00    -0.131 NA
ATOM     12  C   UNL     1      -5.823  11.953  22.210  0.00  0.00    +0.121 A 
ATOM     13  C   UNL     1      -5.522  13.224  21.779  0.00  0.00    +0.143 A 
ATOM     14  N   UNL     1      -5.842  14.046  22.836  0.00  0.00    -0.220 N 
ATOM     15  N   UNL     1      -6.346  13.292  23.846  0.00  0.00    -0.060 NA
BRANCH  14  16
ATOM     16  C   UNL     1      -5.687  15.451  22.948  0.00  0.00    +0.067 A 
ATOM     17  C   UNL     1      -4.790  16.145  22.123  0.00  0.00    +0.028 A 
ATOM     18  C   UNL     1      -4.628  17.525  22.270  0.00  0.00    +0.002 A 
ATOM     19  C   UNL     1      -5.358  18.218  23.234  0.00  0.00    +0.000 A 
ATOM     20  C   UNL     1      -6.258  17.536  24.051  0.00  0.00    +0.002 A 
ATOM     21  C   UNL     1      -6.425  16.156  23.911  0.00  0.00    +0.028 A 
ENDBRANCH  14  16
ENDBRANCH  10  12
ENDBRANCH   9  10
ENDBRANCH   5   9
ENDBRANCH   4   7
ENDBRANCH   1   4
BRANCH   1  22
ATOM     22  C   UNL     1      -4.017  11.988  26.871  0.00  0.00    +0.175 C 
BRANCH  22  23
ATOM     23  C   UNL     1      -3.525  10.859  27.789  0.00  0.00    +0.176 C 
ATOM     24  O   UNL     1      -4.127   9.617  27.333  0.00  0.00    -0.332 OA
ATOM     25  C   UNL     1      -3.687   8.405  28.031  0.00  0.00    +0.277 C 
ATOM     26  C   UNL     1      -3.892   8.556  29.558  0.00  0.00    +0.110 C 
ATOM     27  C   UNL     1      -3.296   9.878  30.085  0.00  0.00    +0.143 C 
ATOM     28  C   UNL     1      -3.819  11.072  29.286  0.00  0.00    +0.133 C 
BRANCH  28  29
ATOM     29  N   UNL     1      -3.178  12.317  29.740  0.00  0.00    -0.308 N 
ATOM     30  H   UNL     1      -2.174  12.392  29.647  0.00  0.00    +0.149 HD
ATOM     31  C   UNL     1      -3.835  13.353  30.268  0.00  0.00    +0.210 C 
ATOM     32  C   UNL     1      -5.360  13.197  30.420  0.00  0.00    +0.109 C 
ATOM     33  O   UNL     1      -3.273  14.389  30.626  0.00  0.00    -0.276 OA
ENDBRANCH  28  29
BRANCH  25  34
ATOM     34  C   UNL     1      -2.201   8.114  27.736  0.00  0.00    +0.414 C 
ATOM     35  O   UNL     1      -1.749   8.282  26.604  0.00  0.00    -0.240 OA
ATOM     36  O   UNL     1      -1.454   7.711  28.629  0.00  0.00    -0.240 OA
ENDBRANCH  25  34
BRANCH  27  37
ATOM     37  O   UNL     1      -3.638  10.046  31.461  0.00  0.00    -0.390 OA
ATOM     38  H   UNL     1      -3.992  10.928  31.598  0.00  0.00    +0.210 HD
ENDBRANCH  27  37
BRANCH  25  39
ATOM     39  O   UNL     1      -4.503   7.299  27.567  0.00  0.00    -0.343 OA
ATOM     40  C   UNL     1      -5.136   7.503  26.279  0.00  0.00    +0.198 C 
ENDBRANCH  25  39
ENDBRANCH  22  23
BRANCH  22  41
ATOM     41  O   UNL     1      -5.308  11.655  26.323  0.00  0.00    -0.387 OA
ATOM     42  H   UNL     1      -5.328  10.723  26.093  0.00  0.00    +0.210 HD
ENDBRANCH  22  41
ENDBRANCH   1  22
TORSDOF 14
