REMARK VINA RESULT:    -5.330      1.616      2.513
REMARK INTER + INTRA:         -13.532
REMARK INTER:                  -9.749
REMARK INTRA:                  -3.783
REMARK UNBOUND:                -3.060
REMARK  Name = lig_assembled_37.pdb
REMARK  21 active torsions:
REMARK  status: ('A' for Active; 'I' for Inactive)
REMARK    1  A    between atoms: _2  and  _9
REMARK    2  A    between atoms: _4  and  _24
REMARK    3  A    between atoms: _6  and  _7
REMARK    4  A    between atoms: _6  and  _24
REMARK    5  A    between atoms: _9  and  _10
REMARK    6  A    between atoms: _9  and  _11
REMARK    7  A    between atoms: _11  and  _18
REMARK    8  A    between atoms: _12  and  _13
REMARK    9  A    between atoms: _12  and  _18
REMARK   10  A    between atoms: _20  and  _40
REMARK   11  A    between atoms: _22  and  _28
REMARK   12  A    between atoms: _23  and  _27
REMARK   13  A    between atoms: _27  and  _28
REMARK   14  A    between atoms: _30  and  _31
REMARK   15  A    between atoms: _32  and  _33
REMARK   16  A    between atoms: _34  and  _36
REMARK   17  A    between atoms: _36  and  _37
REMARK   18  A    between atoms: _36  and  _38
REMARK   19  A    between atoms: _38  and  _39
REMARK   20  A    between atoms: _38  and  _40
REMARK   21  A    between atoms: _41  and  _43
REMARK                            x       y       z     vdW  Elec       q    Type
REMARK                         _______ _______ _______ _____ _____    ______ ____
ROOT
ATOM      1  C   UNL     1      -2.054   8.224  28.864  0.00  0.00    +0.141 C 
ENDROOT
BRANCH   1   4
ATOM      2  C   UNL     1      -2.172   9.074  26.547  0.00  0.00    +0.401 C 
ATOM      3  O   UNL     1      -1.317   9.944  26.722  0.00  0.00    -0.226 OA
ATOM      4  N   UNL     1      -2.582   8.230  27.494  0.00  0.00    -0.279 N 
ATOM      5  H   UNL     1      -3.297   7.556  27.256  0.00  0.00    +0.152 HD
BRANCH   2   6
ATOM      6  O   UNL     1      -2.778   8.946  25.258  0.00  0.00    -0.444 OA
BRANCH   6   7
ATOM      7  C   UNL     1      -4.189   8.763  25.409  0.00  0.00    +0.292 C 
BRANCH   7   9
ATOM      8  N   UNL     1      -6.193   9.989  24.621  0.00  0.00    -0.131 NA
ATOM      9  C   UNL     1      -4.921   9.537  24.389  0.00  0.00    +0.120 A 
ATOM     10  C   UNL     1      -4.526   9.930  23.131  0.00  0.00    +0.138 A 
ATOM     11  N   UNL     1      -5.609  10.593  22.634  0.00  0.00    -0.238 N 
ATOM     12  N   UNL     1      -6.603  10.641  23.542  0.00  0.00    -0.065 NA
BRANCH  11  13
ATOM     13  C   UNL     1      -5.773  11.262  21.359  0.00  0.00    +0.214 C 
ATOM     14  C   UNL     1      -7.138  11.942  21.255  0.00  0.00    +0.045 C 
BRANCH  13  15
ATOM     15  C   UNL     1      -4.668  12.268  21.124  0.00  0.00    +0.332 C 
ATOM     16  O   UNL     1      -3.612  12.008  20.559  0.00  0.00    -0.248 OA
BRANCH  15  17
ATOM     17  O   UNL     1      -5.001  13.488  21.623  0.00  0.00    -0.458 OA
BRANCH  17  18
ATOM     18  C   UNL     1      -4.017  14.120  22.458  0.00  0.00    +0.267 C 
BRANCH  18  19
ATOM     19  C   UNL     1      -4.125  13.597  23.867  0.00  0.00    -0.010 A 
ATOM     20  C   UNL     1      -5.317  13.744  24.590  0.00  0.00    +0.007 A 
ATOM     21  C   UNL     1      -5.427  13.236  25.885  0.00  0.00    +0.000 A 
ATOM     22  C   UNL     1      -4.347  12.579  26.472  0.00  0.00    +0.000 A 
ATOM     23  C   UNL     1      -3.156  12.432  25.765  0.00  0.00    +0.000 A 
ATOM     24  C   UNL     1      -3.043  12.941  24.470  0.00  0.00    +0.007 A 
ENDBRANCH  18  19
ENDBRANCH  17  18
ENDBRANCH  15  17
ENDBRANCH  13  15
ENDBRANCH  11  13
ENDBRANCH   7   9
ENDBRANCH   6   7
ENDBRANCH   2   6
ENDBRANCH   1   4
BRANCH   1  25
ATOM     25  C   UNL     1      -3.139   8.523  29.893  0.00  0.00    +0.163 C 
BRANCH  25  26
ATOM     26  O   UNL     1      -3.113   7.536  30.937  0.00  0.00    -0.388 OA
ATOM     27  H   UNL     1      -2.684   7.903  31.714  0.00  0.00    +0.210 HD
ENDBRANCH  25  26
BRANCH  25  28
ATOM     28  C   UNL     1      -2.928   9.935  30.466  0.00  0.00    +0.175 C 
BRANCH  28  29
ATOM     29  C   UNL     1      -3.966  10.283  31.544  0.00  0.00    +0.176 C 
ATOM     30  O   UNL     1      -5.241   9.717  31.135  0.00  0.00    -0.332 OA
ATOM     31  C   UNL     1      -6.336   9.859  32.100  0.00  0.00    +0.277 C 
ATOM     32  C   UNL     1      -6.524  11.345  32.491  0.00  0.00    +0.110 C 
ATOM     33  C   UNL     1      -5.188  11.999  32.902  0.00  0.00    +0.143 C 
ATOM     34  C   UNL     1      -4.120  11.788  31.828  0.00  0.00    +0.133 C 
BRANCH  34  35
ATOM     35  N   UNL     1      -2.829  12.340  32.269  0.00  0.00    -0.308 N 
ATOM     36  H   UNL     1      -2.308  11.823  32.964  0.00  0.00    +0.149 HD
ATOM     37  C   UNL     1      -2.301  13.479  31.813  0.00  0.00    +0.210 C 
ATOM     38  C   UNL     1      -3.133  14.257  30.775  0.00  0.00    +0.109 C 
ATOM     39  O   UNL     1      -1.211  13.909  32.190  0.00  0.00    -0.276 OA
ENDBRANCH  34  35
BRANCH  31  40
ATOM     40  C   UNL     1      -6.059   9.024  33.368  0.00  0.00    +0.414 C 
ATOM     41  O   UNL     1      -5.143   8.203  33.382  0.00  0.00    -0.240 OA
ATOM     42  O   UNL     1      -6.751   9.171  34.376  0.00  0.00    -0.240 OA
ENDBRANCH  31  40
BRANCH  31  43
ATOM     43  O   UNL     1      -7.556   9.395  31.467  0.00  0.00    -0.343 OA
ATOM     44  C   UNL     1      -7.527   8.016  31.019  0.00  0.00    +0.198 C 
ENDBRANCH  31  43
BRANCH  33  45
ATOM     45  O   UNL     1      -5.379  13.400  33.106  0.00  0.00    -0.390 OA
ATOM     46  H   UNL     1      -4.554  13.863  32.946  0.00  0.00    +0.210 HD
ENDBRANCH  33  45
ENDBRANCH  28  29
BRANCH  28  47
ATOM     47  O   UNL     1      -2.967  10.912  29.406  0.00  0.00    -0.387 OA
ATOM     48  H   UNL     1      -2.128  10.911  28.938  0.00  0.00    +0.210 HD
ENDBRANCH  28  47
ENDBRANCH  25  28
ENDBRANCH   1  25
TORSDOF 18
