REMARK VINA RESULT:    -4.985      3.476      7.474
REMARK INTER + INTRA:         -10.798
REMARK INTER:                  -7.346
REMARK INTRA:                  -3.452
REMARK UNBOUND:                -2.170
REMARK  Name = lig_assembled_87.pdb
REMARK  17 active torsions:
REMARK  status: ('A' for Active; 'I' for Inactive)
REMARK    1  A    between atoms: _2  and  _10
REMARK    2  A    between atoms: _3  and  _13
REMARK    3  A    between atoms: _5  and  _21
REMARK    4  A    between atoms: _7  and  _8
REMARK    5  A    between atoms: _7  and  _21
REMARK    6  A    between atoms: _17  and  _37
REMARK    7  A    between atoms: _19  and  _25
REMARK    8  A    between atoms: _20  and  _24
REMARK    9  A    between atoms: _24  and  _25
REMARK   10  A    between atoms: _27  and  _28
REMARK   11  A    between atoms: _29  and  _30
REMARK   12  A    between atoms: _31  and  _33
REMARK   13  A    between atoms: _33  and  _34
REMARK   14  A    between atoms: _33  and  _35
REMARK   15  A    between atoms: _35  and  _36
REMARK   16  A    between atoms: _35  and  _37
REMARK   17  A    between atoms: _38  and  _40
REMARK                            x       y       z     vdW  Elec       q    Type
REMARK                         _______ _______ _______ _____ _____    ______ ____
ROOT
ATOM      1  C   UNL     1      -5.924   7.178  29.089  0.00  0.00    +0.163 C 
ENDROOT
BRANCH   1   2
ATOM      2  O   UNL     1      -6.396   6.643  30.336  0.00  0.00    -0.388 OA
ATOM      3  H   UNL     1      -6.153   5.716  30.399  0.00  0.00    +0.210 HD
ENDBRANCH   1   2
BRANCH   1   4
ATOM      4  C   UNL     1      -4.692   6.409  28.623  0.00  0.00    +0.141 C 
BRANCH   4   7
ATOM      5  C   UNL     1      -3.059   7.199  26.945  0.00  0.00    +0.401 C 
ATOM      6  O   UNL     1      -2.136   7.306  27.756  0.00  0.00    -0.226 OA
ATOM      7  N   UNL     1      -4.288   6.793  27.265  0.00  0.00    -0.279 N 
ATOM      8  H   UNL     1      -4.981   6.746  26.531  0.00  0.00    +0.152 HD
BRANCH   5   9
ATOM      9  O   UNL     1      -2.821   7.528  25.574  0.00  0.00    -0.444 OA
BRANCH   9  10
ATOM     10  C   UNL     1      -4.069   7.628  24.883  0.00  0.00    +0.292 C 
BRANCH  10  12
ATOM     11  N   UNL     1      -5.601   9.405  25.657  0.00  0.00    -0.131 NA
ATOM     12  C   UNL     1      -4.539   9.025  24.884  0.00  0.00    +0.120 A 
ATOM     13  C   UNL     1      -4.059  10.122  24.206  0.00  0.00    +0.137 A 
ATOM     14  N   UNL     1      -4.790  11.171  24.699  0.00  0.00    -0.248 N 
ATOM     15  N   UNL     1      -5.786  10.701  25.479  0.00  0.00    -0.065 NA
BRANCH  14  16
ATOM     16  C   UNL     1      -4.655  12.625  24.497  0.00  0.00    +0.112 C 
ATOM     17  C   UNL     1      -5.950  13.341  24.025  0.00  0.00    +0.045 C 
ATOM     18  C   UNL     1      -5.853  14.073  22.676  0.00  0.00    +0.059 C 
ATOM     19  C   UNL     1      -5.141  15.427  22.805  0.00  0.00    +0.020 C 
ATOM     20  C   UNL     1      -3.689  15.137  22.424  0.00  0.00    +0.020 C 
ATOM     21  C   UNL     1      -3.642  13.615  22.282  0.00  0.00    +0.059 C 
ATOM     22  N   UNL     1      -4.975  13.394  21.731  0.00  0.00    -0.299 NA
ATOM     23  C   UNL     1      -5.326  12.045  21.342  0.00  0.00    +0.105 C 
ATOM     24  C   UNL     1      -3.394  12.958  23.642  0.00  0.00    +0.045 C 
ENDBRANCH  14  16
ENDBRANCH  10  12
ENDBRANCH   9  10
ENDBRANCH   5   9
ENDBRANCH   4   7
ENDBRANCH   1   4
BRANCH   1  25
ATOM     25  C   UNL     1      -5.577   8.671  29.227  0.00  0.00    +0.175 C 
BRANCH  25  26
ATOM     26  C   UNL     1      -4.651   8.940  30.422  0.00  0.00    +0.176 C 
ATOM     27  O   UNL     1      -5.482   9.074  31.609  0.00  0.00    -0.332 OA
ATOM     28  C   UNL     1      -4.758   9.231  32.874  0.00  0.00    +0.277 C 
ATOM     29  C   UNL     1      -3.772  10.422  32.789  0.00  0.00    +0.110 C 
ATOM     30  C   UNL     1      -2.889  10.341  31.526  0.00  0.00    +0.143 C 
ATOM     31  C   UNL     1      -3.743  10.175  30.269  0.00  0.00    +0.133 C 
BRANCH  31  32
ATOM     32  N   UNL     1      -2.888  10.011  29.083  0.00  0.00    -0.308 N 
ATOM     33  H   UNL     1      -2.269   9.214  29.054  0.00  0.00    +0.149 HD
ATOM     34  C   UNL     1      -2.878  10.848  28.041  0.00  0.00    +0.210 C 
ATOM     35  C   UNL     1      -3.815  12.068  28.127  0.00  0.00    +0.109 C 
ATOM     36  O   UNL     1      -2.161  10.678  27.054  0.00  0.00    -0.276 OA
ENDBRANCH  31  32
BRANCH  28  37
ATOM     37  C   UNL     1      -3.984   7.944  33.225  0.00  0.00    +0.414 C 
ATOM     38  O   UNL     1      -3.035   7.985  34.008  0.00  0.00    -0.240 OA
ATOM     39  O   UNL     1      -4.307   6.865  32.726  0.00  0.00    -0.240 OA
ENDBRANCH  28  37
BRANCH  30  40
ATOM     40  O   UNL     1      -2.105  11.529  31.409  0.00  0.00    -0.390 OA
ATOM     41  H   UNL     1      -1.314  11.445  31.947  0.00  0.00    +0.210 HD
ENDBRANCH  30  40
BRANCH  28  42
ATOM     42  O   UNL     1      -5.729   9.515  33.914  0.00  0.00    -0.343 OA
ATOM     43  C   UNL     1      -7.068   9.023  33.653  0.00  0.00    +0.198 C 
ENDBRANCH  28  42
ENDBRANCH  25  26
BRANCH  25  44
ATOM     44  O   UNL     1      -6.782   9.452  29.345  0.00  0.00    -0.387 OA
ATOM     45  H   UNL     1      -6.603  10.241  29.863  0.00  0.00    +0.210 HD
ENDBRANCH  25  44
ENDBRANCH   1  25
TORSDOF 14
