REMARK VINA RESULT:    -5.839      0.000      0.000
REMARK INTER + INTRA:         -13.036
REMARK INTER:                 -10.359
REMARK INTRA:                  -2.677
REMARK UNBOUND:                -2.589
REMARK  Name = lig_assembled_82.pdb
REMARK  19 active torsions:
REMARK  status: ('A' for Active; 'I' for Inactive)
REMARK    1  A    between atoms: _2  and  _9
REMARK    2  A    between atoms: _4  and  _22
REMARK    3  A    between atoms: _5  and  _16
REMARK    4  A    between atoms: _6  and  _7
REMARK    5  A    between atoms: _6  and  _22
REMARK    6  A    between atoms: _9  and  _10
REMARK    7  A    between atoms: _16  and  _17
REMARK    8  A    between atoms: _18  and  _38
REMARK    9  A    between atoms: _20  and  _26
REMARK   10  A    between atoms: _21  and  _25
REMARK   11  A    between atoms: _25  and  _26
REMARK   12  A    between atoms: _28  and  _29
REMARK   13  A    between atoms: _30  and  _31
REMARK   14  A    between atoms: _32  and  _34
REMARK   15  A    between atoms: _34  and  _35
REMARK   16  A    between atoms: _34  and  _36
REMARK   17  A    between atoms: _36  and  _37
REMARK   18  A    between atoms: _36  and  _38
REMARK   19  A    between atoms: _39  and  _41
REMARK                            x       y       z     vdW  Elec       q    Type
REMARK                         _______ _______ _______ _____ _____    ______ ____
ROOT
ATOM      1  C   UNL     1      -4.472  11.533  28.242  0.00  0.00    +0.163 C 
ENDROOT
BRANCH   1   2
ATOM      2  O   UNL     1      -5.420  10.518  27.872  0.00  0.00    -0.388 OA
ATOM      3  H   UNL     1      -5.871  10.780  27.066  0.00  0.00    +0.210 HD
ENDBRANCH   1   2
BRANCH   1   4
ATOM      4  C   UNL     1      -3.058  11.075  27.902  0.00  0.00    +0.141 C 
BRANCH   4   7
ATOM      5  C   UNL     1      -2.053   9.179  26.676  0.00  0.00    +0.401 C 
ATOM      6  O   UNL     1      -1.076   9.825  26.291  0.00  0.00    -0.226 OA
ATOM      7  N   UNL     1      -3.032   9.686  27.428  0.00  0.00    -0.279 N 
ATOM      8  H   UNL     1      -3.798   9.080  27.685  0.00  0.00    +0.152 HD
BRANCH   5   9
ATOM      9  O   UNL     1      -2.169   7.804  26.302  0.00  0.00    -0.444 OA
BRANCH   9  10
ATOM     10  C   UNL     1      -3.543   7.487  26.066  0.00  0.00    +0.292 C 
BRANCH  10  12
ATOM     11  N   UNL     1      -3.373   7.213  23.613  0.00  0.00    -0.131 NA
ATOM     12  C   UNL     1      -3.935   7.841  24.699  0.00  0.00    +0.120 A 
ATOM     13  C   UNL     1      -4.841   8.780  24.239  0.00  0.00    +0.137 A 
ATOM     14  N   UNL     1      -4.683   8.760  22.882  0.00  0.00    -0.247 N 
ATOM     15  N   UNL     1      -3.867   7.756  22.510  0.00  0.00    -0.065 NA
BRANCH  14  16
ATOM     16  C   UNL     1      -5.195   9.710  21.891  0.00  0.00    +0.176 C 
BRANCH  16  17
ATOM     17  C   UNL     1      -4.504  11.050  21.960  0.00  0.00    -0.049 C 
ATOM     18  C   UNL     1      -5.185  12.147  22.715  0.00  0.00    +0.023 C 
ATOM     19  C   UNL     1      -4.286  13.171  23.544  0.00  0.00    -0.025 C 
ATOM     20  C   UNL     1      -2.961  12.973  24.291  0.00  0.00    +0.012 C 
ATOM     21  C   UNL     1      -3.987  13.749  22.082  0.00  0.00    -0.000 C 
ATOM     22  C   UNL     1      -2.998  12.891  21.231  0.00  0.00    +0.031 C 
ATOM     23  C   UNL     1      -5.269  13.780  24.573  0.00  0.00    +0.012 C 
ATOM     24  C   UNL     1      -5.450  13.363  21.739  0.00  0.00    +0.012 C 
ATOM     25  C   UNL     1      -3.415  11.429  21.265  0.00  0.00    -0.025 C 
ENDBRANCH  16  17
ENDBRANCH  14  16
ENDBRANCH  10  12
ENDBRANCH   9  10
ENDBRANCH   5   9
ENDBRANCH   4   7
ENDBRANCH   1   4
BRANCH   1  26
ATOM     26  C   UNL     1      -4.563  11.848  29.746  0.00  0.00    +0.175 C 
BRANCH  26  27
ATOM     27  C   UNL     1      -4.162  10.646  30.613  0.00  0.00    +0.176 C 
ATOM     28  O   UNL     1      -5.318   9.771  30.727  0.00  0.00    -0.332 OA
ATOM     29  C   UNL     1      -5.091   8.510  31.438  0.00  0.00    +0.277 C 
ATOM     30  C   UNL     1      -4.499   8.779  32.843  0.00  0.00    +0.110 C 
ATOM     31  C   UNL     1      -3.286   9.731  32.776  0.00  0.00    +0.143 C 
ATOM     32  C   UNL     1      -3.632  11.009  32.013  0.00  0.00    +0.133 C 
BRANCH  32  33
ATOM     33  N   UNL     1      -2.445  11.869  31.881  0.00  0.00    -0.308 N 
ATOM     34  H   UNL     1      -1.647  11.498  31.384  0.00  0.00    +0.149 HD
ATOM     35  C   UNL     1      -2.353  13.106  32.375  0.00  0.00    +0.210 C 
ATOM     36  C   UNL     1      -3.577  13.633  33.149  0.00  0.00    +0.109 C 
ATOM     37  O   UNL     1      -1.351  13.809  32.236  0.00  0.00    -0.276 OA
ENDBRANCH  32  33
BRANCH  29  38
ATOM     38  C   UNL     1      -4.135   7.597  30.642  0.00  0.00    +0.414 C 
ATOM     39  O   UNL     1      -3.304   6.906  31.230  0.00  0.00    -0.240 OA
ATOM     40  O   UNL     1      -4.194   7.552  29.413  0.00  0.00    -0.240 OA
ENDBRANCH  29  38
BRANCH  29  41
ATOM     41  O   UNL     1      -6.373   7.849  31.601  0.00  0.00    -0.343 OA
ATOM     42  C   UNL     1      -7.513   8.740  31.695  0.00  0.00    +0.198 C 
ENDBRANCH  29  41
BRANCH  31  43
ATOM     43  O   UNL     1      -2.867  10.071  34.099  0.00  0.00    -0.390 OA
ATOM     44  H   UNL     1      -1.969  10.409  34.074  0.00  0.00    +0.210 HD
ENDBRANCH  31  43
ENDBRANCH  26  27
BRANCH  26  45
ATOM     45  O   UNL     1      -5.896  12.281  30.083  0.00  0.00    -0.387 OA
ATOM     46  H   UNL     1      -6.344  12.587  29.290  0.00  0.00    +0.210 HD
ENDBRANCH  26  45
ENDBRANCH   1  26
TORSDOF 15
