REMARK VINA RESULT:    -5.272      9.055     14.402
REMARK INTER + INTRA:         -11.121
REMARK INTER:                  -8.373
REMARK INTRA:                  -2.747
REMARK UNBOUND:                -1.997
REMARK  Name = lig_assembled_57.pdb
REMARK  17 active torsions:
REMARK  status: ('A' for Active; 'I' for Inactive)
REMARK    1  A    between atoms: _2  and  _10
REMARK    2  A    between atoms: _3  and  _13
REMARK    3  A    between atoms: _5  and  _19
REMARK    4  A    between atoms: _7  and  _8
REMARK    5  A    between atoms: _7  and  _19
REMARK    6  A    between atoms: _15  and  _35
REMARK    7  A    between atoms: _17  and  _23
REMARK    8  A    between atoms: _18  and  _22
REMARK    9  A    between atoms: _22  and  _23
REMARK   10  A    between atoms: _25  and  _26
REMARK   11  A    between atoms: _27  and  _28
REMARK   12  A    between atoms: _29  and  _31
REMARK   13  A    between atoms: _31  and  _32
REMARK   14  A    between atoms: _31  and  _33
REMARK   15  A    between atoms: _33  and  _34
REMARK   16  A    between atoms: _33  and  _35
REMARK   17  A    between atoms: _36  and  _38
REMARK                            x       y       z     vdW  Elec       q    Type
REMARK                         _______ _______ _______ _____ _____    ______ ____
ROOT
ATOM      1  C   UNL     1      -2.853   9.535  14.125  0.00  0.00    +0.163 C 
ENDROOT
BRANCH   1   2
ATOM      2  O   UNL     1      -1.503   9.323  13.680  0.00  0.00    -0.388 OA
ATOM      3  H   UNL     1      -1.325   8.380  13.636  0.00  0.00    +0.210 HD
ENDBRANCH   1   2
BRANCH   1   4
ATOM      4  C   UNL     1      -3.419   8.245  14.709  0.00  0.00    +0.141 C 
BRANCH   4   7
ATOM      5  C   UNL     1      -4.863   8.629  16.677  0.00  0.00    +0.401 C 
ATOM      6  O   UNL     1      -5.882   8.822  16.009  0.00  0.00    -0.226 OA
ATOM      7  N   UNL     1      -3.668   8.360  16.151  0.00  0.00    -0.279 N 
ATOM      8  H   UNL     1      -2.889   8.227  16.781  0.00  0.00    +0.152 HD
BRANCH   5   9
ATOM      9  O   UNL     1      -4.944   8.699  18.103  0.00  0.00    -0.444 OA
BRANCH   9  10
ATOM     10  C   UNL     1      -6.164   9.342  18.482  0.00  0.00    +0.292 C 
BRANCH  10  12
ATOM     11  N   UNL     1      -6.841  11.578  19.282  0.00  0.00    -0.131 NA
ATOM     12  C   UNL     1      -5.872  10.625  19.148  0.00  0.00    +0.120 A 
ATOM     13  C   UNL     1      -4.710  11.077  19.735  0.00  0.00    +0.137 A 
ATOM     14  N   UNL     1      -5.059  12.273  20.286  0.00  0.00    -0.248 N 
ATOM     15  N   UNL     1      -6.323  12.599  19.945  0.00  0.00    -0.065 NA
BRANCH  14  16
ATOM     16  C   UNL     1      -4.333  13.161  21.188  0.00  0.00    +0.111 C 
ATOM     17  C   UNL     1      -5.245  13.648  22.324  0.00  0.00    +0.042 C 
ATOM     18  C   UNL     1      -5.483  12.529  23.336  0.00  0.00    +0.086 C 
ATOM     19  N   UNL     1      -4.241  12.026  23.934  0.00  0.00    -0.305 NA
ATOM     20  C   UNL     1      -3.266  11.601  22.929  0.00  0.00    +0.086 C 
ATOM     21  C   UNL     1      -3.681  12.953  24.912  0.00  0.00    +0.104 C 
ATOM     22  C   UNL     1      -3.032  12.603  21.789  0.00  0.00    +0.042 C 
ENDBRANCH  14  16
ENDBRANCH  10  12
ENDBRANCH   9  10
ENDBRANCH   5   9
ENDBRANCH   4   7
ENDBRANCH   1   4
BRANCH   1  23
ATOM     23  C   UNL     1      -3.746  10.009  12.965  0.00  0.00    +0.175 C 
BRANCH  23  24
ATOM     24  C   UNL     1      -3.421  11.447  12.536  0.00  0.00    +0.176 C 
ATOM     25  O   UNL     1      -2.117  11.437  11.891  0.00  0.00    -0.332 OA
ATOM     26  C   UNL     1      -1.684  12.715  11.318  0.00  0.00    +0.277 C 
ATOM     27  C   UNL     1      -1.729  13.832  12.389  0.00  0.00    +0.110 C 
ATOM     28  C   UNL     1      -3.086  13.861  13.124  0.00  0.00    +0.143 C 
ATOM     29  C   UNL     1      -3.440  12.481  13.677  0.00  0.00    +0.133 C 
BRANCH  29  30
ATOM     30  N   UNL     1      -4.773  12.501  14.299  0.00  0.00    -0.308 N 
ATOM     31  H   UNL     1      -5.576  12.590  13.691  0.00  0.00    +0.149 HD
ATOM     32  C   UNL     1      -4.993  12.411  15.614  0.00  0.00    +0.210 C 
ATOM     33  C   UNL     1      -3.748  12.303  16.515  0.00  0.00    +0.109 C 
ATOM     34  O   UNL     1      -6.122  12.416  16.105  0.00  0.00    -0.276 OA
ENDBRANCH  29  30
BRANCH  26  35
ATOM     35  C   UNL     1      -2.577  13.109  10.123  0.00  0.00    +0.414 C 
ATOM     36  O   UNL     1      -2.937  12.258   9.311  0.00  0.00    -0.240 OA
ATOM     37  O   UNL     1      -2.936  14.277   9.971  0.00  0.00    -0.240 OA
ENDBRANCH  26  35
BRANCH  28  38
ATOM     38  O   UNL     1      -3.031  14.800  14.199  0.00  0.00    -0.390 OA
ATOM     39  H   UNL     1      -3.847  15.304  14.226  0.00  0.00    +0.210 HD
ENDBRANCH  28  38
BRANCH  26  40
ATOM     40  O   UNL     1      -0.311  12.564  10.872  0.00  0.00    -0.343 OA
ATOM     41  C   UNL     1       0.469  13.787  10.867  0.00  0.00    +0.198 C 
ENDBRANCH  26  40
ENDBRANCH  23  24
BRANCH  23  42
ATOM     42  O   UNL     1      -5.136   9.903  13.333  0.00  0.00    -0.387 OA
ATOM     43  H   UNL     1      -5.433  10.736  13.707  0.00  0.00    +0.210 HD
ENDBRANCH  23  42
ENDBRANCH   1  23
TORSDOF 14
