REMARK VINA RESULT:    -5.957      3.411      8.040
REMARK INTER + INTRA:         -13.451
REMARK INTER:                 -10.028
REMARK INTRA:                  -3.423
REMARK UNBOUND:                -3.141
REMARK  Name = lig_assembled_91.pdb
REMARK  16 active torsions:
REMARK  status: ('A' for Active; 'I' for Inactive)
REMARK    1  A    between atoms: _2  and  _10
REMARK    2  A    between atoms: _5  and  _26
REMARK    3  A    between atoms: _7  and  _8
REMARK    4  A    between atoms: _7  and  _26
REMARK    5  A    between atoms: _22  and  _42
REMARK    6  A    between atoms: _24  and  _30
REMARK    7  A    between atoms: _25  and  _29
REMARK    8  A    between atoms: _29  and  _30
REMARK    9  A    between atoms: _32  and  _33
REMARK   10  A    between atoms: _34  and  _35
REMARK   11  A    between atoms: _36  and  _38
REMARK   12  A    between atoms: _38  and  _39
REMARK   13  A    between atoms: _38  and  _40
REMARK   14  A    between atoms: _40  and  _41
REMARK   15  A    between atoms: _40  and  _42
REMARK   16  A    between atoms: _43  and  _45
REMARK                            x       y       z     vdW  Elec       q    Type
REMARK                         _______ _______ _______ _____ _____    ______ ____
ROOT
ATOM      1  C   UNL     1      -3.963   7.169  23.403  0.00  0.00    +0.401 C 
ATOM      2  O   UNL     1      -3.573   7.739  22.381  0.00  0.00    -0.226 OA
ATOM      3  N   UNL     1      -5.244   7.069  23.757  0.00  0.00    -0.279 N 
ATOM      4  H   UNL     1      -5.466   6.573  24.609  0.00  0.00    +0.152 HD
ENDROOT
BRANCH   3   5
ATOM      5  C   UNL     1      -6.352   7.638  22.980  0.00  0.00    +0.141 C 
BRANCH   5   6
ATOM      6  C   UNL     1      -6.812   8.979  23.542  0.00  0.00    +0.163 C 
BRANCH   6   7
ATOM      7  O   UNL     1      -6.203   9.209  24.823  0.00  0.00    -0.388 OA
ATOM      8  H   UNL     1      -6.108   8.374  25.288  0.00  0.00    +0.210 HD
ENDBRANCH   6   7
BRANCH   6   9
ATOM      9  C   UNL     1      -6.454  10.101  22.553  0.00  0.00    +0.175 C 
BRANCH   9  10
ATOM     10  C   UNL     1      -5.105  10.756  22.885  0.00  0.00    +0.176 C 
ATOM     11  O   UNL     1      -5.309  11.654  24.011  0.00  0.00    -0.332 OA
ATOM     12  C   UNL     1      -4.100  12.293  24.539  0.00  0.00    +0.277 C 
ATOM     13  C   UNL     1      -3.342  13.033  23.410  0.00  0.00    +0.110 C 
ATOM     14  C   UNL     1      -3.129  12.128  22.178  0.00  0.00    +0.143 C 
ATOM     15  C   UNL     1      -4.450  11.513  21.715  0.00  0.00    +0.133 C 
BRANCH  15  16
ATOM     16  N   UNL     1      -4.222  10.585  20.596  0.00  0.00    -0.308 N 
ATOM     17  H   UNL     1      -3.614   9.794  20.756  0.00  0.00    +0.149 HD
ATOM     18  C   UNL     1      -4.766  10.720  19.383  0.00  0.00    +0.210 C 
ATOM     19  C   UNL     1      -5.666  11.950  19.164  0.00  0.00    +0.109 C 
ATOM     20  O   UNL     1      -4.568   9.919  18.469  0.00  0.00    -0.276 OA
ENDBRANCH  15  16
BRANCH  12  21
ATOM     21  C   UNL     1      -3.168  11.249  25.187  0.00  0.00    +0.414 C 
ATOM     22  O   UNL     1      -3.567  10.104  25.393  0.00  0.00    -0.240 OA
ATOM     23  O   UNL     1      -2.016  11.551  25.504  0.00  0.00    -0.240 OA
ENDBRANCH  12  21
BRANCH  14  24
ATOM     24  O   UNL     1      -2.565  12.891  21.111  0.00  0.00    -0.390 OA
ATOM     25  H   UNL     1      -2.076  13.634  21.471  0.00  0.00    +0.210 HD
ENDBRANCH  14  24
BRANCH  12  26
ATOM     26  O   UNL     1      -4.506  13.269  25.533  0.00  0.00    -0.343 OA
ATOM     27  C   UNL     1      -5.937  13.366  25.747  0.00  0.00    +0.198 C 
ENDBRANCH  12  26
ENDBRANCH   9  10
BRANCH   9  28
ATOM     28  O   UNL     1      -7.497  11.096  22.532  0.00  0.00    -0.387 OA
ATOM     29  H   UNL     1      -8.353  10.664  22.591  0.00  0.00    +0.210 HD
ENDBRANCH   9  28
ENDBRANCH   6   9
ENDBRANCH   5   6
ENDBRANCH   3   5
BRANCH   1  30
ATOM     30  O   UNL     1      -3.000   6.568  24.273  0.00  0.00    -0.444 OA
BRANCH  30  31
ATOM     31  C   UNL     1      -3.647   6.131  25.471  0.00  0.00    +0.292 C 
BRANCH  31  33
ATOM     32  N   UNL     1      -1.916   7.347  26.744  0.00  0.00    -0.131 NA
ATOM     33  C   UNL     1      -3.210   6.944  26.623  0.00  0.00    +0.121 A 
ATOM     34  C   UNL     1      -3.930   7.433  27.689  0.00  0.00    +0.143 A 
ATOM     35  N   UNL     1      -3.015   8.103  28.477  0.00  0.00    -0.218 N 
ATOM     36  N   UNL     1      -1.807   8.048  27.862  0.00  0.00    -0.060 NA
BRANCH  35  37
ATOM     37  C   UNL     1      -3.203   8.760  29.732  0.00  0.00    +0.085 A 
ATOM     38  C   UNL     1      -3.134   8.010  30.960  0.00  0.00    +0.026 A 
ATOM     39  C   UNL     1      -3.359   8.749  32.138  0.00  0.00    +0.074 A 
ATOM     40  C   UNL     1      -3.320   8.135  33.381  0.00  0.00    +0.028 A 
ATOM     41  C   UNL     1      -3.056   6.778  33.531  0.00  0.00    +0.002 A 
ATOM     42  C   UNL     1      -2.795   6.021  32.407  0.00  0.00    +0.001 A 
ATOM     43  N   UNL     1      -3.595  10.058  32.158  0.00  0.00    -0.247 NA
ATOM     44  C   UNL     1      -3.628  10.754  31.023  0.00  0.00    +0.074 A 
ATOM     45  C   UNL     1      -3.885  12.114  31.159  0.00  0.00    +0.028 A 
ATOM     46  C   UNL     1      -3.987  12.965  30.064  0.00  0.00    +0.002 A 
ATOM     47  C   UNL     1      -3.842  12.442  28.795  0.00  0.00    +0.001 A 
ATOM     48  C   UNL     1      -3.589  11.075  28.639  0.00  0.00    +0.012 A 
ATOM     49  C   UNL     1      -2.812   6.628  31.146  0.00  0.00    +0.012 A 
ATOM     50  C   UNL     1      -3.452  10.183  29.752  0.00  0.00    +0.026 A 
ENDBRANCH  35  37
ENDBRANCH  31  33
ENDBRANCH  30  31
ENDBRANCH   1  30
TORSDOF 14
