REMARK VINA RESULT:    -4.879      2.882      8.634
REMARK INTER + INTRA:         -11.487
REMARK INTER:                  -8.232
REMARK INTRA:                  -3.254
REMARK UNBOUND:                -2.756
REMARK  Name = lig_assembled_41.pdb
REMARK  18 active torsions:
REMARK  status: ('A' for Active; 'I' for Inactive)
REMARK    1  A    between atoms: _2  and  _9
REMARK    2  A    between atoms: _4  and  _21
REMARK    3  A    between atoms: _6  and  _7
REMARK    4  A    between atoms: _6  and  _21
REMARK    5  A    between atoms: _10  and  _11
REMARK    6  A    between atoms: _11  and  _12
REMARK    7  A    between atoms: _17  and  _37
REMARK    8  A    between atoms: _19  and  _25
REMARK    9  A    between atoms: _20  and  _24
REMARK   10  A    between atoms: _24  and  _25
REMARK   11  A    between atoms: _27  and  _28
REMARK   12  A    between atoms: _29  and  _30
REMARK   13  A    between atoms: _31  and  _33
REMARK   14  A    between atoms: _33  and  _34
REMARK   15  A    between atoms: _33  and  _35
REMARK   16  A    between atoms: _35  and  _36
REMARK   17  A    between atoms: _35  and  _37
REMARK   18  A    between atoms: _38  and  _40
REMARK                            x       y       z     vdW  Elec       q    Type
REMARK                         _______ _______ _______ _____ _____    ______ ____
ROOT
ATOM      1  C   UNL     1      -2.933  11.104  31.242  0.00  0.00    +0.163 C 
ENDROOT
BRANCH   1   2
ATOM      2  O   UNL     1      -1.823  11.604  32.006  0.00  0.00    -0.388 OA
ATOM      3  H   UNL     1      -1.462  12.382  31.575  0.00  0.00    +0.210 HD
ENDBRANCH   1   2
BRANCH   1   4
ATOM      4  C   UNL     1      -4.201  11.873  31.600  0.00  0.00    +0.141 C 
BRANCH   4   7
ATOM      5  C   UNL     1      -5.547  12.534  29.636  0.00  0.00    +0.401 C 
ATOM      6  O   UNL     1      -4.956  13.603  29.472  0.00  0.00    -0.226 OA
ATOM      7  N   UNL     1      -5.264  11.666  30.608  0.00  0.00    -0.279 N 
ATOM      8  H   UNL     1      -5.812  10.820  30.667  0.00  0.00    +0.152 HD
BRANCH   5   9
ATOM      9  O   UNL     1      -6.607  12.183  28.742  0.00  0.00    -0.444 OA
BRANCH   9  10
ATOM     10  C   UNL     1      -6.837  13.258  27.828  0.00  0.00    +0.292 C 
BRANCH  10  12
ATOM     11  N   UNL     1      -7.466  11.868  25.890  0.00  0.00    -0.131 NA
ATOM     12  C   UNL     1      -6.642  12.803  26.440  0.00  0.00    +0.121 A 
ATOM     13  C   UNL     1      -5.712  13.191  25.500  0.00  0.00    +0.143 A 
ATOM     14  N   UNL     1      -5.941  12.380  24.412  0.00  0.00    -0.219 N 
ATOM     15  N   UNL     1      -7.070  11.655  24.645  0.00  0.00    -0.060 NA
BRANCH  14  16
ATOM     16  C   UNL     1      -5.277  12.300  23.155  0.00  0.00    +0.077 A 
ATOM     17  C   UNL     1      -3.915  11.971  22.984  0.00  0.00    +0.043 A 
ATOM     18  C   UNL     1      -3.374  11.978  21.681  0.00  0.00    +0.013 A 
ATOM     19  C   UNL     1      -4.155  12.311  20.572  0.00  0.00    +0.001 A 
ATOM     20  C   UNL     1      -5.499  12.610  20.738  0.00  0.00    +0.002 A 
ATOM     21  C   UNL     1      -6.058  12.594  22.014  0.00  0.00    +0.028 A 
BRANCH  17  22
ATOM     22  C   UNL     1      -3.052  11.409  24.067  0.00  0.00    +0.162 C 
ATOM     23  O   UNL     1      -2.903  10.191  24.147  0.00  0.00    -0.292 OA
ATOM     24  C   UNL     1      -2.368  12.328  25.050  0.00  0.00    +0.091 C 
ENDBRANCH  17  22
ENDBRANCH  14  16
ENDBRANCH  10  12
ENDBRANCH   9  10
ENDBRANCH   5   9
ENDBRANCH   4   7
ENDBRANCH   1   4
BRANCH   1  25
ATOM     25  C   UNL     1      -3.150   9.604  31.504  0.00  0.00    +0.175 C 
BRANCH  25  26
ATOM     26  C   UNL     1      -3.049   8.772  30.217  0.00  0.00    +0.176 C 
ATOM     27  O   UNL     1      -3.792   9.465  29.177  0.00  0.00    -0.332 OA
ATOM     28  C   UNL     1      -3.719   8.867  27.841  0.00  0.00    +0.277 C 
ATOM     29  C   UNL     1      -4.149   7.380  27.889  0.00  0.00    +0.110 C 
ATOM     30  C   UNL     1      -3.408   6.609  29.002  0.00  0.00    +0.143 C 
ATOM     31  C   UNL     1      -3.547   7.320  30.348  0.00  0.00    +0.133 C 
BRANCH  31  32
ATOM     32  N   UNL     1      -2.765   6.624  31.382  0.00  0.00    -0.308 N 
ATOM     33  H   UNL     1      -1.758   6.634  31.299  0.00  0.00    +0.149 HD
ATOM     34  C   UNL     1      -3.299   5.979  32.423  0.00  0.00    +0.210 C 
ATOM     35  C   UNL     1      -4.837   5.960  32.507  0.00  0.00    +0.109 C 
ATOM     36  O   UNL     1      -2.619   5.417  33.282  0.00  0.00    -0.276 OA
ENDBRANCH  31  32
BRANCH  28  37
ATOM     37  C   UNL     1      -2.289   8.972  27.272  0.00  0.00    +0.414 C 
ATOM     38  O   UNL     1      -1.834   8.072  26.567  0.00  0.00    -0.240 OA
ATOM     39  O   UNL     1      -1.590   9.956  27.517  0.00  0.00    -0.240 OA
ENDBRANCH  28  37
BRANCH  30  40
ATOM     40  O   UNL     1      -3.941   5.288  29.110  0.00  0.00    -0.390 OA
ATOM     41  H   UNL     1      -3.673   4.771  28.347  0.00  0.00    +0.210 HD
ENDBRANCH  30  40
BRANCH  28  42
ATOM     42  O   UNL     1      -4.642   9.581  26.978  0.00  0.00    -0.343 OA
ATOM     43  C   UNL     1      -5.471   8.740  26.137  0.00  0.00    +0.198 C 
ENDBRANCH  28  42
ENDBRANCH  25  26
BRANCH  25  44
ATOM     44  O   UNL     1      -4.429   9.390  32.135  0.00  0.00    -0.387 OA
ATOM     45  H   UNL     1      -5.114   9.835  31.630  0.00  0.00    +0.210 HD
ENDBRANCH  25  44
ENDBRANCH   1  25
TORSDOF 15
