REMARK VINA RESULT:    -5.379      6.049     11.485
REMARK INTER + INTRA:         -11.330
REMARK INTER:                  -9.211
REMARK INTRA:                  -2.119
REMARK UNBOUND:                -2.334
REMARK  Name = lig_assembled_65.pdb
REMARK  16 active torsions:
REMARK  status: ('A' for Active; 'I' for Inactive)
REMARK    1  A    between atoms: _8  and  _20
REMARK    2  A    between atoms: _9  and  _15
REMARK    3  A    between atoms: _10  and  _11
REMARK    4  A    between atoms: _10  and  _20
REMARK    5  A    between atoms: _16  and  _36
REMARK    6  A    between atoms: _18  and  _24
REMARK    7  A    between atoms: _19  and  _23
REMARK    8  A    between atoms: _23  and  _24
REMARK    9  A    between atoms: _26  and  _27
REMARK   10  A    between atoms: _28  and  _29
REMARK   11  A    between atoms: _30  and  _32
REMARK   12  A    between atoms: _32  and  _33
REMARK   13  A    between atoms: _32  and  _34
REMARK   14  A    between atoms: _34  and  _35
REMARK   15  A    between atoms: _34  and  _36
REMARK   16  A    between atoms: _37  and  _39
REMARK                            x       y       z     vdW  Elec       q    Type
REMARK                         _______ _______ _______ _____ _____    ______ ____
ROOT
ATOM      1  C   UNL     1      -3.391  12.767  24.092  0.00  0.00    +0.163 C 
ENDROOT
BRANCH   1   2
ATOM      2  O   UNL     1      -1.998  12.970  24.380  0.00  0.00    -0.388 OA
ATOM      3  H   UNL     1      -1.836  12.803  25.312  0.00  0.00    +0.210 HD
ENDBRANCH   1   2
BRANCH   1   4
ATOM      4  C   UNL     1      -3.873  13.812  23.091  0.00  0.00    +0.141 C 
BRANCH   4   7
ATOM      5  C   UNL     1      -5.856  13.324  21.699  0.00  0.00    +0.401 C 
ATOM      6  O   UNL     1      -6.633  13.959  22.416  0.00  0.00    -0.226 OA
ATOM      7  N   UNL     1      -4.551  13.197  21.942  0.00  0.00    -0.279 N 
ATOM      8  H   UNL     1      -3.997  12.648  21.301  0.00  0.00    +0.152 HD
BRANCH   5   9
ATOM      9  O   UNL     1      -6.364  12.672  20.532  0.00  0.00    -0.444 OA
BRANCH   9  10
ATOM     10  C   UNL     1      -6.148  11.262  20.640  0.00  0.00    +0.292 C 
BRANCH  10  12
ATOM     11  N   UNL     1      -5.280   9.405  19.250  0.00  0.00    -0.131 NA
ATOM     12  C   UNL     1      -5.509  10.744  19.416  0.00  0.00    +0.121 A 
ATOM     13  C   UNL     1      -5.057  11.417  18.306  0.00  0.00    +0.149 A 
ATOM     14  N   UNL     1      -4.545  10.438  17.481  0.00  0.00    -0.155 N 
ATOM     15  C   UNL     1      -3.936  10.620  16.204  0.00  0.00    +0.416 C 
ATOM     16  N   UNL     1      -3.498   9.541  15.544  0.00  0.00    +0.041 NA
ATOM     17  C   UNL     1      -2.926   9.793  14.369  0.00  0.00    +0.339 C 
ATOM     18  C   UNL     1      -2.404   8.628  13.588  0.00  0.00    +0.149 C 
ATOM     19  N   UNL     1      -2.777  11.010  13.846  0.00  0.00    +0.007 NA
ATOM     20  C   UNL     1      -3.232  12.009  14.586  0.00  0.00    +0.386 C 
ATOM     21  N   UNL     1      -3.087  13.286  14.087  0.00  0.00    -0.296 N 
ATOM     22  H   UNL     1      -2.981  13.267  13.082  0.00  0.00    +0.148 HD
ATOM     23  H   UNL     1      -3.780  13.912  14.471  0.00  0.00    +0.148 HD
ATOM     24  N   UNL     1      -3.835  11.879  15.753  0.00  0.00    -0.290 NA
ATOM     25  N   UNL     1      -4.698   9.225  18.071  0.00  0.00    -0.055 NA
ENDBRANCH  10  12
ENDBRANCH   9  10
ENDBRANCH   5   9
ENDBRANCH   4   7
ENDBRANCH   1   4
BRANCH   1  26
ATOM     26  C   UNL     1      -4.236  12.855  25.374  0.00  0.00    +0.175 C 
BRANCH  26  27
ATOM     27  C   UNL     1      -3.975  11.674  26.320  0.00  0.00    +0.176 C 
ATOM     28  O   UNL     1      -3.790  10.482  25.508  0.00  0.00    -0.332 OA
ATOM     29  C   UNL     1      -3.424   9.266  26.240  0.00  0.00    +0.277 C 
ATOM     30  C   UNL     1      -4.451   8.980  27.362  0.00  0.00    +0.110 C 
ATOM     31  C   UNL     1      -4.705  10.228  28.234  0.00  0.00    +0.143 C 
ATOM     32  C   UNL     1      -5.076  11.434  27.370  0.00  0.00    +0.133 C 
BRANCH  32  33
ATOM     33  N   UNL     1      -5.230  12.637  28.204  0.00  0.00    -0.308 N 
ATOM     34  H   UNL     1      -4.398  13.036  28.615  0.00  0.00    +0.149 HD
ATOM     35  C   UNL     1      -6.398  13.235  28.454  0.00  0.00    +0.210 C 
ATOM     36  C   UNL     1      -7.651  12.587  27.835  0.00  0.00    +0.109 C 
ATOM     37  O   UNL     1      -6.496  14.250  29.144  0.00  0.00    -0.276 OA
ENDBRANCH  32  33
BRANCH  29  38
ATOM     38  C   UNL     1      -2.015   9.401  26.854  0.00  0.00    +0.414 C 
ATOM     39  O   UNL     1      -1.128   9.999  26.245  0.00  0.00    -0.240 OA
ATOM     40  O   UNL     1      -1.765   8.913  27.956  0.00  0.00    -0.240 OA
ENDBRANCH  29  38
BRANCH  29  41
ATOM     41  O   UNL     1      -3.445   8.156  25.306  0.00  0.00    -0.343 OA
ATOM     42  C   UNL     1      -4.761   7.796  24.814  0.00  0.00    +0.198 C 
ENDBRANCH  29  41
BRANCH  31  43
ATOM     43  O   UNL     1      -5.765   9.965  29.155  0.00  0.00    -0.390 OA
ATOM     44  H   UNL     1      -5.408   9.554  29.945  0.00  0.00    +0.210 HD
ENDBRANCH  31  43
ENDBRANCH  26  27
BRANCH  26  45
ATOM     45  O   UNL     1      -5.637  12.925  25.041  0.00  0.00    -0.387 OA
ATOM     46  H   UNL     1      -5.790  13.666  24.451  0.00  0.00    +0.210 HD
ENDBRANCH  26  45
ENDBRANCH   1  26
TORSDOF 13
