REMARK VINA RESULT:    -3.797      2.595      6.644
REMARK INTER + INTRA:          -9.945
REMARK INTER:                  -6.235
REMARK INTRA:                  -3.710
REMARK UNBOUND:                -3.040
REMARK  Name = lig_assembled_1.pdb
REMARK  18 active torsions:
REMARK  status: ('A' for Active; 'I' for Inactive)
REMARK    1  A    between atoms: _2  and  _9
REMARK    2  A    between atoms: _4  and  _15
REMARK    3  A    between atoms: _5  and  _9
REMARK    4  A    between atoms: _5  and  _10
REMARK    5  A    between atoms: _6  and  _7
REMARK    6  A    between atoms: _6  and  _15
REMARK    7  A    between atoms: _11  and  _31
REMARK    8  A    between atoms: _13  and  _19
REMARK    9  A    between atoms: _14  and  _18
REMARK   10  A    between atoms: _18  and  _19
REMARK   11  A    between atoms: _21  and  _22
REMARK   12  A    between atoms: _23  and  _24
REMARK   13  A    between atoms: _25  and  _27
REMARK   14  A    between atoms: _27  and  _28
REMARK   15  A    between atoms: _27  and  _29
REMARK   16  A    between atoms: _29  and  _30
REMARK   17  A    between atoms: _29  and  _31
REMARK   18  A    between atoms: _32  and  _34
REMARK                            x       y       z     vdW  Elec       q    Type
REMARK                         _______ _______ _______ _____ _____    ______ ____
ROOT
ATOM      1  C   UNL     1      -5.032  10.788  24.834  0.00  0.00    +0.175 C 
ENDROOT
BRANCH   1   2
ATOM      2  C   UNL     1      -5.767  10.704  23.488  0.00  0.00    +0.176 C 
ATOM      3  O   UNL     1      -5.341   9.484  22.821  0.00  0.00    -0.332 OA
ATOM      4  C   UNL     1      -6.023   9.181  21.559  0.00  0.00    +0.277 C 
ATOM      5  C   UNL     1      -5.912  10.377  20.583  0.00  0.00    +0.110 C 
ATOM      6  C   UNL     1      -6.324  11.703  21.257  0.00  0.00    +0.143 C 
ATOM      7  C   UNL     1      -5.557  11.917  22.562  0.00  0.00    +0.133 C 
BRANCH   7   8
ATOM      8  N   UNL     1      -6.021  13.138  23.238  0.00  0.00    -0.308 N 
ATOM      9  H   UNL     1      -6.964  13.147  23.601  0.00  0.00    +0.149 HD
ATOM     10  C   UNL     1      -5.278  14.236  23.403  0.00  0.00    +0.210 C 
ATOM     11  C   UNL     1      -3.854  14.200  22.815  0.00  0.00    +0.109 C 
ATOM     12  O   UNL     1      -5.688  15.239  23.987  0.00  0.00    -0.276 OA
ENDBRANCH   7   8
BRANCH   4  13
ATOM     13  C   UNL     1      -7.510   8.853  21.806  0.00  0.00    +0.414 C 
ATOM     14  O   UNL     1      -7.831   8.044  22.676  0.00  0.00    -0.240 OA
ATOM     15  O   UNL     1      -8.389   9.396  21.135  0.00  0.00    -0.240 OA
ENDBRANCH   4  13
BRANCH   4  16
ATOM     16  O   UNL     1      -5.364   8.037  20.958  0.00  0.00    -0.343 OA
ATOM     17  C   UNL     1      -5.904   7.622  19.677  0.00  0.00    +0.198 C 
ENDBRANCH   4  16
BRANCH   6  18
ATOM     18  O   UNL     1      -6.064  12.794  20.373  0.00  0.00    -0.390 OA
ATOM     19  H   UNL     1      -5.167  12.727  20.037  0.00  0.00    +0.210 HD
ENDBRANCH   6  18
ENDBRANCH   1   2
BRANCH   1  20
ATOM     20  O   UNL     1      -5.654  11.777  25.679  0.00  0.00    -0.387 OA
ATOM     21  H   UNL     1      -6.331  12.243  25.182  0.00  0.00    +0.210 HD
ENDBRANCH   1  20
BRANCH   1  22
ATOM     22  C   UNL     1      -3.537  11.107  24.658  0.00  0.00    +0.163 C 
BRANCH  22  23
ATOM     23  O   UNL     1      -2.755   9.902  24.638  0.00  0.00    -0.388 OA
ATOM     24  H   UNL     1      -3.101   9.283  25.286  0.00  0.00    +0.210 HD
ENDBRANCH  22  23
BRANCH  22  25
ATOM     25  C   UNL     1      -3.072  12.012  25.793  0.00  0.00    +0.141 C 
BRANCH  25  28
ATOM     26  C   UNL     1      -3.186  10.985  28.038  0.00  0.00    +0.401 C 
ATOM     27  O   UNL     1      -4.336  11.372  28.260  0.00  0.00    -0.226 OA
ATOM     28  N   UNL     1      -2.516  11.243  26.914  0.00  0.00    -0.279 N 
ATOM     29  H   UNL     1      -1.574  10.891  26.829  0.00  0.00    +0.152 HD
BRANCH  26  30
ATOM     30  O   UNL     1      -2.509  10.214  29.033  0.00  0.00    -0.444 OA
BRANCH  30  31
ATOM     31  C   UNL     1      -3.141   8.937  29.161  0.00  0.00    +0.292 C 
BRANCH  31  33
ATOM     32  N   UNL     1      -1.726   8.165  27.280  0.00  0.00    -0.131 NA
ATOM     33  C   UNL     1      -2.923   8.131  27.945  0.00  0.00    +0.120 A 
ATOM     34  C   UNL     1      -3.777   7.271  27.291  0.00  0.00    +0.137 A 
ATOM     35  N   UNL     1      -3.042   6.821  26.235  0.00  0.00    -0.249 N 
ATOM     36  N   UNL     1      -1.813   7.362  26.228  0.00  0.00    -0.065 NA
BRANCH  35  37
ATOM     37  C   UNL     1      -3.439   5.880  25.212  0.00  0.00    +0.173 C 
BRANCH  37  38
ATOM     38  C   UNL     1      -3.837   6.562  23.909  0.00  0.00    +0.179 C 
BRANCH  38  39
ATOM     39  O   UNL     1      -5.245   6.783  23.852  0.00  0.00    -0.393 OA
ATOM     40  H   UNL     1      -5.601   6.575  24.737  0.00  0.00    +0.209 HD
ENDBRANCH  38  39
ENDBRANCH  37  38
ENDBRANCH  35  37
ENDBRANCH  31  33
ENDBRANCH  30  31
ENDBRANCH  26  30
ENDBRANCH  25  28
ENDBRANCH  22  25
ENDBRANCH   1  22
TORSDOF 16
