REMARK VINA RESULT:    -5.132      1.822      2.175
REMARK INTER + INTRA:         -10.719
REMARK INTER:                  -8.074
REMARK INTRA:                  -2.645
REMARK UNBOUND:                -1.837
REMARK  Name = lig_assembled_2.pdb
REMARK  16 active torsions:
REMARK  status: ('A' for Active; 'I' for Inactive)
REMARK    1  A    between atoms: _2  and  _9
REMARK    2  A    between atoms: _4  and  _18
REMARK    3  A    between atoms: _6  and  _7
REMARK    4  A    between atoms: _6  and  _18
REMARK    5  A    between atoms: _14  and  _34
REMARK    6  A    between atoms: _16  and  _22
REMARK    7  A    between atoms: _17  and  _21
REMARK    8  A    between atoms: _21  and  _22
REMARK    9  A    between atoms: _24  and  _25
REMARK   10  A    between atoms: _26  and  _27
REMARK   11  A    between atoms: _28  and  _30
REMARK   12  A    between atoms: _30  and  _31
REMARK   13  A    between atoms: _30  and  _32
REMARK   14  A    between atoms: _32  and  _33
REMARK   15  A    between atoms: _32  and  _34
REMARK   16  A    between atoms: _35  and  _37
REMARK                            x       y       z     vdW  Elec       q    Type
REMARK                         _______ _______ _______ _____ _____    ______ ____
ROOT
ATOM      1  C   UNL     1      -2.792   9.910  13.891  0.00  0.00    +0.163 C 
ENDROOT
BRANCH   1   2
ATOM      2  O   UNL     1      -1.934  10.093  12.753  0.00  0.00    -0.388 OA
ATOM      3  H   UNL     1      -1.065  10.375  13.048  0.00  0.00    +0.210 HD
ENDBRANCH   1   2
BRANCH   1   4
ATOM      4  C   UNL     1      -3.829   8.832  13.595  0.00  0.00    +0.141 C 
BRANCH   4   7
ATOM      5  C   UNL     1      -4.864   8.069  15.705  0.00  0.00    +0.401 C 
ATOM      6  O   UNL     1      -3.936   7.311  15.997  0.00  0.00    -0.226 OA
ATOM      7  N   UNL     1      -4.900   8.813  14.599  0.00  0.00    -0.279 N 
ATOM      8  H   UNL     1      -5.710   9.396  14.443  0.00  0.00    +0.152 HD
BRANCH   5   9
ATOM      9  O   UNL     1      -5.983   8.168  16.590  0.00  0.00    -0.444 OA
BRANCH   9  10
ATOM     10  C   UNL     1      -6.548   9.479  16.500  0.00  0.00    +0.292 C 
BRANCH  10  12
ATOM     11  N   UNL     1      -5.473  11.634  17.065  0.00  0.00    -0.131 NA
ATOM     12  C   UNL     1      -5.882  10.391  17.449  0.00  0.00    +0.121 A 
ATOM     13  C   UNL     1      -5.576  10.206  18.778  0.00  0.00    +0.143 A 
ATOM     14  N   UNL     1      -4.998  11.391  19.176  0.00  0.00    -0.220 N 
ATOM     15  N   UNL     1      -4.931  12.233  18.117  0.00  0.00    -0.060 NA
BRANCH  14  16
ATOM     16  C   UNL     1      -4.548  11.768  20.468  0.00  0.00    +0.067 A 
ATOM     17  C   UNL     1      -5.074  12.896  21.114  0.00  0.00    +0.029 A 
ATOM     18  C   UNL     1      -4.590  13.272  22.372  0.00  0.00    +0.022 A 
ATOM     19  C   UNL     1      -3.585  12.527  22.985  0.00  0.00    +0.041 A 
ATOM     20 CL   UNL     1      -2.980  13.011  24.520  0.00  0.00    -0.084 Cl
ATOM     21  C   UNL     1      -3.065  11.397  22.358  0.00  0.00    +0.022 A 
ATOM     22  C   UNL     1      -3.546  11.014  21.102  0.00  0.00    +0.029 A 
ENDBRANCH  14  16
ENDBRANCH  10  12
ENDBRANCH   9  10
ENDBRANCH   5   9
ENDBRANCH   4   7
ENDBRANCH   1   4
BRANCH   1  23
ATOM     23  C   UNL     1      -3.505  11.222  14.259  0.00  0.00    +0.175 C 
BRANCH  23  24
ATOM     24  C   UNL     1      -3.404  12.269  13.139  0.00  0.00    +0.176 C 
ATOM     25  O   UNL     1      -2.201  13.053  13.368  0.00  0.00    -0.332 OA
ATOM     26  C   UNL     1      -1.881  14.040  12.332  0.00  0.00    +0.277 C 
ATOM     27  C   UNL     1      -3.085  14.985  12.095  0.00  0.00    +0.110 C 
ATOM     28  C   UNL     1      -4.394  14.196  11.878  0.00  0.00    +0.143 C 
ATOM     29  C   UNL     1      -4.626  13.197  13.012  0.00  0.00    +0.133 C 
BRANCH  29  30
ATOM     30  N   UNL     1      -5.829  12.391  12.750  0.00  0.00    -0.308 N 
ATOM     31  H   UNL     1      -5.788  11.709  12.007  0.00  0.00    +0.149 HD
ATOM     32  C   UNL     1      -6.973  12.504  13.431  0.00  0.00    +0.210 C 
ATOM     33  C   UNL     1      -7.013  13.571  14.541  0.00  0.00    +0.109 C 
ATOM     34  O   UNL     1      -7.960  11.805  13.200  0.00  0.00    -0.276 OA
ENDBRANCH  29  30
BRANCH  26  35
ATOM     35  C   UNL     1      -1.505  13.342  11.008  0.00  0.00    +0.414 C 
ATOM     36  O   UNL     1      -0.820  12.319  11.019  0.00  0.00    -0.240 OA
ATOM     37  O   UNL     1      -1.887  13.800   9.931  0.00  0.00    -0.240 OA
ENDBRANCH  26  35
BRANCH  28  38
ATOM     38  O   UNL     1      -5.497  15.101  11.815  0.00  0.00    -0.390 OA
ATOM     39  H   UNL     1      -6.273  14.688  12.200  0.00  0.00    +0.210 HD
ENDBRANCH  28  38
BRANCH  26  40
ATOM     40  O   UNL     1      -0.761  14.835  12.800  0.00  0.00    -0.343 OA
ATOM     41  C   UNL     1      -0.607  16.120  12.146  0.00  0.00    +0.198 C 
ENDBRANCH  26  40
ENDBRANCH  23  24
BRANCH  23  42
ATOM     42  O   UNL     1      -2.966  11.754  15.486  0.00  0.00    -0.387 OA
ATOM     43  H   UNL     1      -2.014  11.848  15.403  0.00  0.00    +0.210 HD
ENDBRANCH  23  42
ENDBRANCH   1  23
TORSDOF 14
