REMARK VINA RESULT:    -4.144      5.270      9.913
REMARK INTER + INTRA:         -13.021
REMARK INTER:                 -10.216
REMARK INTRA:                  -2.805
REMARK UNBOUND:                -4.638
REMARK  Name = lig_assembled_11.pdb
REMARK  22 active torsions:
REMARK  status: ('A' for Active; 'I' for Inactive)
REMARK    1  A    between atoms: _2  and  _9
REMARK    2  A    between atoms: _4  and  _21
REMARK    3  A    between atoms: _5  and  _9
REMARK    4  A    between atoms: _5  and  _13
REMARK    5  A    between atoms: _6  and  _7
REMARK    6  A    between atoms: _6  and  _21
REMARK    7  A    between atoms: _9  and  _10
REMARK    8  A    between atoms: _10  and  _11
REMARK    9  A    between atoms: _11  and  _12
REMARK   10  A    between atoms: _12  and  _15
REMARK   11  A    between atoms: _17  and  _37
REMARK   12  A    between atoms: _19  and  _25
REMARK   13  A    between atoms: _20  and  _24
REMARK   14  A    between atoms: _24  and  _25
REMARK   15  A    between atoms: _27  and  _28
REMARK   16  A    between atoms: _29  and  _30
REMARK   17  A    between atoms: _31  and  _33
REMARK   18  A    between atoms: _33  and  _34
REMARK   19  A    between atoms: _33  and  _35
REMARK   20  A    between atoms: _35  and  _36
REMARK   21  A    between atoms: _35  and  _37
REMARK   22  A    between atoms: _38  and  _40
REMARK                            x       y       z     vdW  Elec       q    Type
REMARK                         _______ _______ _______ _____ _____    ______ ____
ROOT
ATOM      1  C   UNL     1      -3.481  12.656  24.106  0.00  0.00    +0.163 C 
ENDROOT
BRANCH   1   2
ATOM      2  O   UNL     1      -2.067  12.552  24.336  0.00  0.00    -0.388 OA
ATOM      3  H   UNL     1      -1.866  12.839  25.230  0.00  0.00    +0.210 HD
ENDBRANCH   1   2
BRANCH   1   4
ATOM      4  C   UNL     1      -4.244  12.817  25.432  0.00  0.00    +0.175 C 
BRANCH   4   5
ATOM      5  C   UNL     1      -3.889  11.715  26.441  0.00  0.00    +0.176 C 
ATOM      6  O   UNL     1      -3.844  10.450  25.724  0.00  0.00    -0.332 OA
ATOM      7  C   UNL     1      -3.413   9.291  26.511  0.00  0.00    +0.277 C 
ATOM      8  C   UNL     1      -4.288   9.143  27.780  0.00  0.00    +0.110 C 
ATOM      9  C   UNL     1      -4.391  10.471  28.559  0.00  0.00    +0.143 C 
ATOM     10  C   UNL     1      -4.844  11.609  27.644  0.00  0.00    +0.133 C 
BRANCH  10  11
ATOM     11  N   UNL     1      -4.855  12.886  28.376  0.00  0.00    -0.308 N 
ATOM     12  H   UNL     1      -3.967  13.278  28.654  0.00  0.00    +0.149 HD
ATOM     13  C   UNL     1      -5.963  13.560  28.696  0.00  0.00    +0.210 C 
ATOM     14  C   UNL     1      -7.303  12.923  28.281  0.00  0.00    +0.109 C 
ATOM     15  O   UNL     1      -5.941  14.635  29.297  0.00  0.00    -0.276 OA
ENDBRANCH  10  11
BRANCH   7  16
ATOM     16  C   UNL     1      -1.931   9.427  26.920  0.00  0.00    +0.414 C 
ATOM     17  O   UNL     1      -1.539   8.969  27.992  0.00  0.00    -0.240 OA
ATOM     18  O   UNL     1      -1.129   9.995  26.177  0.00  0.00    -0.240 OA
ENDBRANCH   7  16
BRANCH   7  19
ATOM     19  O   UNL     1      -3.587   8.104  25.695  0.00  0.00    -0.343 OA
ATOM     20  C   UNL     1      -4.327   8.311  24.465  0.00  0.00    +0.198 C 
ENDBRANCH   7  19
BRANCH   9  21
ATOM     21  O   UNL     1      -5.324  10.330  29.631  0.00  0.00    -0.390 OA
ATOM     22  H   UNL     1      -5.603  11.198  29.930  0.00  0.00    +0.210 HD
ENDBRANCH   9  21
ENDBRANCH   4   5
BRANCH   4  23
ATOM     23  O   UNL     1      -5.665  12.827  25.189  0.00  0.00    -0.387 OA
ATOM     24  H   UNL     1      -5.900  12.086  24.626  0.00  0.00    +0.210 HD
ENDBRANCH   4  23
ENDBRANCH   1   4
BRANCH   1  25
ATOM     25  C   UNL     1      -3.777  13.847  23.200  0.00  0.00    +0.141 C 
BRANCH  25  28
ATOM     26  C   UNL     1      -5.903  13.754  21.944  0.00  0.00    +0.401 C 
ATOM     27  O   UNL     1      -6.547  14.357  22.806  0.00  0.00    -0.226 OA
ATOM     28  N   UNL     1      -4.604  13.467  22.049  0.00  0.00    -0.279 N 
ATOM     29  H   UNL     1      -4.166  12.961  21.293  0.00  0.00    +0.152 HD
BRANCH  26  30
ATOM     30  O   UNL     1      -6.568  13.323  20.754  0.00  0.00    -0.444 OA
BRANCH  30  31
ATOM     31  C   UNL     1      -6.056  12.049  20.356  0.00  0.00    +0.292 C 
BRANCH  31  33
ATOM     32  N   UNL     1      -7.022  12.063  18.076  0.00  0.00    -0.131 NA
ATOM     33  C   UNL     1      -5.924  11.983  18.888  0.00  0.00    +0.120 A 
ATOM     34  C   UNL     1      -4.798  11.852  18.108  0.00  0.00    +0.138 A 
ATOM     35  N   UNL     1      -5.276  11.813  16.829  0.00  0.00    -0.238 N 
ATOM     36  N   UNL     1      -6.613  11.972  16.817  0.00  0.00    -0.065 NA
BRANCH  35  37
ATOM     37  C   UNL     1      -4.566  11.774  15.555  0.00  0.00    +0.217 C 
BRANCH  37  38
ATOM     38  C   UNL     1      -3.624  10.588  15.413  0.00  0.00    +0.330 C 
ATOM     39  O   UNL     1      -2.449  10.642  15.085  0.00  0.00    -0.249 OA
BRANCH  38  40
ATOM     40  O   UNL     1      -4.202   9.390  15.681  0.00  0.00    -0.479 OA
ATOM     41  H   UNL     1      -4.026   8.995  16.558  0.00  0.00    +0.295 HD
ENDBRANCH  38  40
ENDBRANCH  37  38
BRANCH  37  42
ATOM     42  C   UNL     1      -3.881  13.116  15.240  0.00  0.00    +0.049 C 
BRANCH  42  43
ATOM     43  C   UNL     1      -4.227  13.711  13.869  0.00  0.00    +0.123 C 
BRANCH  43  44
ATOM     44  C   UNL     1      -3.005  13.774  12.981  0.00  0.00    +0.305 C 
ATOM     45  O   UNL     1      -2.954  14.352  11.908  0.00  0.00    -0.251 OA
BRANCH  44  46
ATOM     46  O   UNL     1      -1.956  13.093  13.492  0.00  0.00    -0.481 OA
ATOM     47  H   UNL     1      -1.259  12.876  12.844  0.00  0.00    +0.295 HD
ENDBRANCH  44  46
ENDBRANCH  43  44
ENDBRANCH  42  43
ENDBRANCH  37  42
ENDBRANCH  35  37
ENDBRANCH  31  33
ENDBRANCH  30  31
ENDBRANCH  26  30
ENDBRANCH  25  28
ENDBRANCH   1  25
TORSDOF 20
