REMARK VINA RESULT:    -4.531      1.795      2.305
REMARK INTER + INTRA:         -11.083
REMARK INTER:                  -8.760
REMARK INTRA:                  -2.324
REMARK UNBOUND:                -2.711
REMARK  Name = lig_assembled_36.pdb
REMARK  18 active torsions:
REMARK  status: ('A' for Active; 'I' for Inactive)
REMARK    1  A    between atoms: _2  and  _10
REMARK    2  A    between atoms: _5  and  _21
REMARK    3  A    between atoms: _7  and  _8
REMARK    4  A    between atoms: _7  and  _21
REMARK    5  A    between atoms: _10  and  _11
REMARK    6  A    between atoms: _14  and  _15
REMARK    7  A    between atoms: _17  and  _37
REMARK    8  A    between atoms: _19  and  _25
REMARK    9  A    between atoms: _20  and  _24
REMARK   10  A    between atoms: _24  and  _25
REMARK   11  A    between atoms: _27  and  _28
REMARK   12  A    between atoms: _29  and  _30
REMARK   13  A    between atoms: _31  and  _33
REMARK   14  A    between atoms: _33  and  _34
REMARK   15  A    between atoms: _33  and  _35
REMARK   16  A    between atoms: _35  and  _36
REMARK   17  A    between atoms: _35  and  _37
REMARK   18  A    between atoms: _38  and  _40
REMARK                            x       y       z     vdW  Elec       q    Type
REMARK                         _______ _______ _______ _____ _____    ______ ____
ROOT
ATOM      1  C   UNL     1      -4.767  12.257  26.514  0.00  0.00    +0.163 C 
ENDROOT
BRANCH   1   2
ATOM      2  O   UNL     1      -5.624  11.475  25.667  0.00  0.00    -0.388 OA
ATOM      3  H   UNL     1      -6.507  11.852  25.668  0.00  0.00    +0.210 HD
ENDBRANCH   1   2
BRANCH   1   4
ATOM      4  C   UNL     1      -4.737  11.688  27.943  0.00  0.00    +0.175 C 
BRANCH   4   5
ATOM      5  C   UNL     1      -3.956  10.368  28.023  0.00  0.00    +0.176 C 
ATOM      6  O   UNL     1      -4.730   9.348  27.334  0.00  0.00    -0.332 OA
ATOM      7  C   UNL     1      -4.087   8.036  27.216  0.00  0.00    +0.277 C 
ATOM      8  C   UNL     1      -3.660   7.515  28.610  0.00  0.00    +0.110 C 
ATOM      9  C   UNL     1      -2.861   8.577  29.394  0.00  0.00    +0.143 C 
ATOM     10  C   UNL     1      -3.620   9.903  29.453  0.00  0.00    +0.133 C 
BRANCH  10  11
ATOM     11  N   UNL     1      -2.812  10.931  30.126  0.00  0.00    -0.308 N 
ATOM     12  H   UNL     1      -1.960  11.233  29.674  0.00  0.00    +0.149 HD
ATOM     13  C   UNL     1      -3.129  11.492  31.296  0.00  0.00    +0.210 C 
ATOM     14  C   UNL     1      -4.420  10.992  31.973  0.00  0.00    +0.109 C 
ATOM     15  O   UNL     1      -2.440  12.362  31.830  0.00  0.00    -0.276 OA
ENDBRANCH  10  11
BRANCH   7  16
ATOM     16  C   UNL     1      -2.852   8.112  26.294  0.00  0.00    +0.414 C 
ATOM     17  O   UNL     1      -2.864   8.837  25.300  0.00  0.00    -0.240 OA
ATOM     18  O   UNL     1      -1.844   7.450  26.544  0.00  0.00    -0.240 OA
ENDBRANCH   7  16
BRANCH   7  19
ATOM     19  O   UNL     1      -5.055   7.110  26.659  0.00  0.00    -0.343 OA
ATOM     20  C   UNL     1      -6.307   7.711  26.242  0.00  0.00    +0.198 C 
ENDBRANCH   7  19
BRANCH   9  21
ATOM     21  O   UNL     1      -2.620   8.115  30.724  0.00  0.00    -0.390 OA
ATOM     22  H   UNL     1      -1.706   7.830  30.804  0.00  0.00    +0.210 HD
ENDBRANCH   9  21
ENDBRANCH   4   5
BRANCH   4  23
ATOM     23  O   UNL     1      -6.080  11.501  28.431  0.00  0.00    -0.387 OA
ATOM     24  H   UNL     1      -6.417  12.333  28.770  0.00  0.00    +0.210 HD
ENDBRANCH   4  23
ENDBRANCH   1   4
BRANCH   1  25
ATOM     25  C   UNL     1      -3.352  12.280  25.945  0.00  0.00    +0.141 C 
BRANCH  25  28
ATOM     26  C   UNL     1      -3.183  12.579  23.498  0.00  0.00    +0.401 C 
ATOM     27  O   UNL     1      -3.100  13.807  23.559  0.00  0.00    -0.226 OA
ATOM     28  N   UNL     1      -3.309  11.786  24.564  0.00  0.00    -0.279 N 
ATOM     29  H   UNL     1      -3.379  10.790  24.411  0.00  0.00    +0.152 HD
BRANCH  26  30
ATOM     30  O   UNL     1      -3.148  11.943  22.218  0.00  0.00    -0.444 OA
BRANCH  30  31
ATOM     31  C   UNL     1      -3.890  10.721  22.271  0.00  0.00    +0.292 C 
BRANCH  31  33
ATOM     32  N   UNL     1      -4.759   9.148  20.566  0.00  0.00    -0.131 NA
ATOM     33  C   UNL     1      -4.496  10.434  20.957  0.00  0.00    +0.120 A 
ATOM     34  C   UNL     1      -4.904  11.299  19.966  0.00  0.00    +0.137 A 
ATOM     35  N   UNL     1      -5.492  10.482  19.045  0.00  0.00    -0.247 N 
ATOM     36  N   UNL     1      -5.354   9.187  19.382  0.00  0.00    -0.065 NA
BRANCH  35  37
ATOM     37  C   UNL     1      -6.210  10.863  17.845  0.00  0.00    +0.180 C 
BRANCH  37  38
ATOM     38  C   UNL     1      -5.276  10.986  16.663  0.00  0.00    -0.026 A 
ATOM     39  C   UNL     1      -4.609  12.191  16.395  0.00  0.00    +0.007 A 
ATOM     40  C   UNL     1      -3.743  12.295  15.302  0.00  0.00    +0.019 A 
ATOM     41  C   UNL     1      -3.536  11.198  14.460  0.00  0.00    +0.052 A 
ATOM     42  C   UNL     1      -4.215  10.002  14.706  0.00  0.00    +0.019 A 
ATOM     43  C   UNL     1      -5.082   9.898  15.798  0.00  0.00    +0.007 A 
BRANCH  41  44
ATOM     44  C   UNL     1      -2.630  11.300  13.351  0.00  0.00    +0.099 C 
ATOM     45  N   UNL     1      -1.889  11.383  12.463  0.00  0.00    -0.191 NA
ENDBRANCH  41  44
ENDBRANCH  37  38
ENDBRANCH  35  37
ENDBRANCH  31  33
ENDBRANCH  30  31
ENDBRANCH  26  30
ENDBRANCH  25  28
ENDBRANCH   1  25
TORSDOF 16
