REMARK VINA RESULT:    -4.310      2.537      5.652
REMARK INTER + INTRA:         -10.527
REMARK INTER:                  -8.135
REMARK INTRA:                  -2.392
REMARK UNBOUND:                -3.067
REMARK  Name = lig_assembled_8.pdb
REMARK  16 active torsions:
REMARK  status: ('A' for Active; 'I' for Inactive)
REMARK    1  A    between atoms: _2  and  _9
REMARK    2  A    between atoms: _4  and  _18
REMARK    3  A    between atoms: _6  and  _7
REMARK    4  A    between atoms: _6  and  _18
REMARK    5  A    between atoms: _14  and  _34
REMARK    6  A    between atoms: _16  and  _22
REMARK    7  A    between atoms: _17  and  _21
REMARK    8  A    between atoms: _21  and  _22
REMARK    9  A    between atoms: _24  and  _25
REMARK   10  A    between atoms: _26  and  _27
REMARK   11  A    between atoms: _28  and  _30
REMARK   12  A    between atoms: _30  and  _31
REMARK   13  A    between atoms: _30  and  _32
REMARK   14  A    between atoms: _32  and  _33
REMARK   15  A    between atoms: _32  and  _34
REMARK   16  A    between atoms: _35  and  _37
REMARK                            x       y       z     vdW  Elec       q    Type
REMARK                         _______ _______ _______ _____ _____    ______ ____
ROOT
ATOM      1  C   UNL     1      -4.335   8.998  23.748  0.00  0.00    +0.163 C 
ENDROOT
BRANCH   1   2
ATOM      2  O   UNL     1      -3.915   8.326  22.549  0.00  0.00    -0.388 OA
ATOM      3  H   UNL     1      -4.654   8.269  21.938  0.00  0.00    +0.210 HD
ENDBRANCH   1   2
BRANCH   1   4
ATOM      4  C   UNL     1      -4.343   8.020  24.918  0.00  0.00    +0.141 C 
BRANCH   4   7
ATOM      5  C   UNL     1      -2.719   8.423  26.736  0.00  0.00    +0.401 C 
ATOM      6  O   UNL     1      -1.877   7.643  26.285  0.00  0.00    -0.226 OA
ATOM      7  N   UNL     1      -3.901   8.656  26.166  0.00  0.00    -0.279 N 
ATOM      8  H   UNL     1      -4.529   9.307  26.617  0.00  0.00    +0.152 HD
BRANCH   5   9
ATOM      9  O   UNL     1      -2.433   9.129  27.947  0.00  0.00    -0.444 OA
BRANCH   9  10
ATOM     10  C   UNL     1      -3.658   9.478  28.597  0.00  0.00    +0.292 C 
BRANCH  10  12
ATOM     11  N   UNL     1      -2.779   9.363  30.901  0.00  0.00    -0.131 NA
ATOM     12  C   UNL     1      -3.383  10.079  29.915  0.00  0.00    +0.121 A 
ATOM     13  C   UNL     1      -3.639  11.348  30.380  0.00  0.00    +0.143 A 
ATOM     14  N   UNL     1      -3.147  11.375  31.674  0.00  0.00    -0.219 N 
ATOM     15  N   UNL     1      -2.647  10.152  31.957  0.00  0.00    -0.060 NA
BRANCH  14  16
ATOM     16  C   UNL     1      -3.126  12.475  32.586  0.00  0.00    +0.081 A 
ATOM     17  C   UNL     1      -1.938  13.232  32.687  0.00  0.00    +0.029 A 
ATOM     18  C   UNL     1      -1.828  14.309  33.572  0.00  0.00    +0.002 A 
ATOM     19  C   UNL     1      -2.903  14.657  34.376  0.00  0.00    +0.001 A 
ATOM     20  C   UNL     1      -4.087  13.931  34.289  0.00  0.00    +0.017 A 
ATOM     21  C   UNL     1      -4.215  12.844  33.402  0.00  0.00    +0.043 A 
ATOM     22 BR   UNL     1      -5.929  12.013  33.459  0.00  0.00    -0.048 Br
ENDBRANCH  14  16
ENDBRANCH  10  12
ENDBRANCH   9  10
ENDBRANCH   5   9
ENDBRANCH   4   7
ENDBRANCH   1   4
BRANCH   1  23
ATOM     23  C   UNL     1      -5.738   9.606  23.576  0.00  0.00    +0.175 C 
BRANCH  23  24
ATOM     24  C   UNL     1      -5.702  10.933  22.804  0.00  0.00    +0.176 C 
ATOM     25  O   UNL     1      -5.390  10.635  21.416  0.00  0.00    -0.332 OA
ATOM     26  C   UNL     1      -5.417  11.779  20.500  0.00  0.00    +0.277 C 
ATOM     27  C   UNL     1      -4.488  12.906  21.015  0.00  0.00    +0.110 C 
ATOM     28  C   UNL     1      -4.761  13.236  22.497  0.00  0.00    +0.143 C 
ATOM     29  C   UNL     1      -4.712  11.974  23.359  0.00  0.00    +0.133 C 
BRANCH  29  30
ATOM     30  N   UNL     1      -5.058  12.288  24.754  0.00  0.00    -0.308 N 
ATOM     31  H   UNL     1      -6.026  12.490  24.965  0.00  0.00    +0.149 HD
ATOM     32  C   UNL     1      -4.179  12.324  25.758  0.00  0.00    +0.210 C 
ATOM     33  C   UNL     1      -2.709  12.038  25.398  0.00  0.00    +0.109 C 
ATOM     34  O   UNL     1      -4.500  12.576  26.920  0.00  0.00    -0.276 OA
ENDBRANCH  29  30
BRANCH  26  35
ATOM     35  C   UNL     1      -6.853  12.324  20.348  0.00  0.00    +0.414 C 
ATOM     36  O   UNL     1      -7.812  11.553  20.349  0.00  0.00    -0.240 OA
ATOM     37  O   UNL     1      -7.052  13.533  20.224  0.00  0.00    -0.240 OA
ENDBRANCH  26  35
BRANCH  28  38
ATOM     38  O   UNL     1      -3.787  14.167  22.971  0.00  0.00    -0.390 OA
ATOM     39  H   UNL     1      -2.993  14.100  22.435  0.00  0.00    +0.210 HD
ENDBRANCH  28  38
BRANCH  26  40
ATOM     40  O   UNL     1      -4.924  11.334  19.210  0.00  0.00    -0.343 OA
ATOM     41  C   UNL     1      -4.967   9.900  19.000  0.00  0.00    +0.198 C 
ENDBRANCH  26  40
ENDBRANCH  23  24
BRANCH  23  42
ATOM     42  O   UNL     1      -6.358   9.796  24.863  0.00  0.00    -0.387 OA
ATOM     43  H   UNL     1      -5.732   9.573  25.556  0.00  0.00    +0.210 HD
ENDBRANCH  23  42
ENDBRANCH   1  23
TORSDOF 14
