REMARK VINA RESULT:    -5.819      5.752     11.984
REMARK INTER + INTRA:         -13.140
REMARK INTER:                 -10.005
REMARK INTRA:                  -3.135
REMARK UNBOUND:                -2.389
REMARK  Name = lig_assembled_92.pdb
REMARK  18 active torsions:
REMARK  status: ('A' for Active; 'I' for Inactive)
REMARK    1  A    between atoms: _2  and  _11
REMARK    2  A    between atoms: _3  and  _46
REMARK    3  A    between atoms: _6  and  _25
REMARK    4  A    between atoms: _8  and  _9
REMARK    5  A    between atoms: _8  and  _25
REMARK    6  A    between atoms: _14  and  _46
REMARK    7  A    between atoms: _21  and  _41
REMARK    8  A    between atoms: _23  and  _29
REMARK    9  A    between atoms: _24  and  _28
REMARK   10  A    between atoms: _28  and  _29
REMARK   11  A    between atoms: _31  and  _32
REMARK   12  A    between atoms: _33  and  _34
REMARK   13  A    between atoms: _35  and  _37
REMARK   14  A    between atoms: _37  and  _38
REMARK   15  A    between atoms: _37  and  _39
REMARK   16  A    between atoms: _39  and  _40
REMARK   17  A    between atoms: _39  and  _41
REMARK   18  A    between atoms: _42  and  _44
REMARK                            x       y       z     vdW  Elec       q    Type
REMARK                         _______ _______ _______ _____ _____    ______ ____
ROOT
ATOM      1  C   UNL     1      -5.049  13.820  22.419  0.00  0.00    +0.401 C 
ATOM      2  O   UNL     1      -4.140  14.495  21.931  0.00  0.00    -0.226 OA
ATOM      3  N   UNL     1      -4.976  13.220  23.608  0.00  0.00    -0.279 N 
ATOM      4  H   UNL     1      -5.778  12.695  23.928  0.00  0.00    +0.152 HD
ENDROOT
BRANCH   3   5
ATOM      5  C   UNL     1      -3.795  13.279  24.479  0.00  0.00    +0.141 C 
BRANCH   5   6
ATOM      6  C   UNL     1      -2.895  12.061  24.299  0.00  0.00    +0.163 C 
BRANCH   6   7
ATOM      7  O   UNL     1      -2.061  11.891  25.457  0.00  0.00    -0.388 OA
ATOM      8  H   UNL     1      -2.387  11.156  25.982  0.00  0.00    +0.210 HD
ENDBRANCH   6   7
BRANCH   6   9
ATOM      9  C   UNL     1      -3.761  10.813  24.057  0.00  0.00    +0.175 C 
BRANCH   9  10
ATOM     10  C   UNL     1      -3.908   9.957  25.324  0.00  0.00    +0.176 C 
ATOM     11  O   UNL     1      -2.812   9.001  25.347  0.00  0.00    -0.332 OA
ATOM     12  C   UNL     1      -2.728   8.162  26.546  0.00  0.00    +0.277 C 
ATOM     13  C   UNL     1      -4.070   7.427  26.788  0.00  0.00    +0.110 C 
ATOM     14  C   UNL     1      -5.268   8.399  26.741  0.00  0.00    +0.143 C 
ATOM     15  C   UNL     1      -5.255   9.223  25.453  0.00  0.00    +0.133 C 
BRANCH  15  16
ATOM     16  N   UNL     1      -6.351  10.205  25.459  0.00  0.00    -0.308 N 
ATOM     17  H   UNL     1      -6.357  10.901  26.192  0.00  0.00    +0.149 HD
ATOM     18  C   UNL     1      -7.338  10.237  24.560  0.00  0.00    +0.210 C 
ATOM     19  C   UNL     1      -7.316   9.148  23.472  0.00  0.00    +0.109 C 
ATOM     20  O   UNL     1      -8.235  11.081  24.582  0.00  0.00    -0.276 OA
ENDBRANCH  15  16
BRANCH  12  21
ATOM     21  C   UNL     1      -2.376   9.012  27.785  0.00  0.00    +0.414 C 
ATOM     22  O   UNL     1      -2.711   8.639  28.908  0.00  0.00    -0.240 OA
ATOM     23  O   UNL     1      -1.757  10.069  27.660  0.00  0.00    -0.240 OA
ENDBRANCH  12  21
BRANCH  14  24
ATOM     24  O   UNL     1      -6.489   7.662  26.816  0.00  0.00    -0.390 OA
ATOM     25  H   UNL     1      -7.198   8.176  26.423  0.00  0.00    +0.210 HD
ENDBRANCH  14  24
BRANCH  12  26
ATOM     26  O   UNL     1      -1.695   7.167  26.327  0.00  0.00    -0.343 OA
ATOM     27  C   UNL     1      -2.168   5.798  26.256  0.00  0.00    +0.198 C 
ENDBRANCH  12  26
ENDBRANCH   9  10
BRANCH   9  28
ATOM     28  O   UNL     1      -3.206  10.024  22.986  0.00  0.00    -0.387 OA
ATOM     29  H   UNL     1      -3.344  10.475  22.150  0.00  0.00    +0.210 HD
ENDBRANCH   9  28
ENDBRANCH   6   9
ENDBRANCH   5   6
ENDBRANCH   3   5
BRANCH   1  30
ATOM     30  O   UNL     1      -6.266  13.659  21.686  0.00  0.00    -0.444 OA
BRANCH  30  31
ATOM     31  C   UNL     1      -6.585  12.269  21.587  0.00  0.00    +0.292 C 
BRANCH  31  33
ATOM     32  N   UNL     1      -5.214  10.439  20.630  0.00  0.00    -0.131 NA
ATOM     33  C   UNL     1      -5.833  11.646  20.482  0.00  0.00    +0.121 A 
ATOM     34  C   UNL     1      -5.629  12.100  19.200  0.00  0.00    +0.143 A 
ATOM     35  N   UNL     1      -4.895  11.112  18.584  0.00  0.00    -0.220 N 
ATOM     36  N   UNL     1      -4.641  10.123  19.475  0.00  0.00    -0.060 NA
BRANCH  35  37
ATOM     37  C   UNL     1      -4.469  11.045  17.234  0.00  0.00    +0.067 A 
ATOM     38  C   UNL     1      -4.197   9.804  16.636  0.00  0.00    +0.030 A 
ATOM     39  C   UNL     1      -3.722   9.745  15.327  0.00  0.00    +0.031 A 
ATOM     40  C   UNL     1      -3.528  10.924  14.605  0.00  0.00    +0.109 A 
ATOM     41  C   UNL     1      -3.803  12.167  15.182  0.00  0.00    +0.031 A 
ATOM     42  C   UNL     1      -4.285  12.226  16.495  0.00  0.00    +0.030 A 
BRANCH  40  43
ATOM     43  S   UNL     1      -2.779  10.819  13.000  0.00  0.00    +0.074 S 
ATOM     44  O   UNL     1      -2.105  12.078  12.749  0.00  0.00    -0.150 OA
ATOM     45  O   UNL     1      -2.049   9.576  12.913  0.00  0.00    -0.150 OA
BRANCH  43  46
ATOM     46  N   UNL     1      -4.100  10.812  11.949  0.00  0.00    -0.194 N 
ATOM     47  H   UNL     1      -3.871  11.463  11.202  0.00  0.00    +0.176 HD
ATOM     48  C   UNL     1      -4.408   9.515  11.491  0.00  0.00    +0.177 A 
ATOM     49  S   UNL     1      -3.875   8.919   9.980  0.00  0.00    -0.059 S 
ATOM     50  C   UNL     1      -4.780   7.486  10.253  0.00  0.00    +0.068 A 
ATOM     51  C   UNL     1      -5.481   7.603  11.435  0.00  0.00    +0.120 A 
ATOM     52  N   UNL     1      -5.240   8.756  12.160  0.00  0.00    -0.232 NA
ENDBRANCH  43  46
ENDBRANCH  40  43
ENDBRANCH  35  37
ENDBRANCH  31  33
ENDBRANCH  30  31
ENDBRANCH   1  30
TORSDOF 16
