REMARK VINA RESULT:    -4.226      2.616      4.399
REMARK INTER + INTRA:         -11.189
REMARK INTER:                  -7.684
REMARK INTRA:                  -3.505
REMARK UNBOUND:                -3.505
REMARK  Name = lig_assembled_22.pdb
REMARK  20 active torsions:
REMARK  status: ('A' for Active; 'I' for Inactive)
REMARK    1  A    between atoms: _2  and  _9
REMARK    2  A    between atoms: _4  and  _18
REMARK    3  A    between atoms: _5  and  _9
REMARK    4  A    between atoms: _5  and  _12
REMARK    5  A    between atoms: _6  and  _7
REMARK    6  A    between atoms: _6  and  _18
REMARK    7  A    between atoms: _9  and  _10
REMARK    8  A    between atoms: _9  and  _11
REMARK    9  A    between atoms: _14  and  _34
REMARK   10  A    between atoms: _16  and  _22
REMARK   11  A    between atoms: _17  and  _21
REMARK   12  A    between atoms: _21  and  _22
REMARK   13  A    between atoms: _24  and  _25
REMARK   14  A    between atoms: _26  and  _27
REMARK   15  A    between atoms: _28  and  _30
REMARK   16  A    between atoms: _30  and  _31
REMARK   17  A    between atoms: _30  and  _32
REMARK   18  A    between atoms: _32  and  _33
REMARK   19  A    between atoms: _32  and  _34
REMARK   20  A    between atoms: _35  and  _37
REMARK                            x       y       z     vdW  Elec       q    Type
REMARK                         _______ _______ _______ _____ _____    ______ ____
ROOT
ATOM      1  C   UNL     1      -5.684  12.328  29.650  0.00  0.00    +0.163 C 
ENDROOT
BRANCH   1   2
ATOM      2  O   UNL     1      -6.569  11.731  28.688  0.00  0.00    -0.388 OA
ATOM      3  H   UNL     1      -6.583  10.779  28.812  0.00  0.00    +0.210 HD
ENDBRANCH   1   2
BRANCH   1   4
ATOM      4  C   UNL     1      -6.191  13.714  30.035  0.00  0.00    +0.141 C 
BRANCH   4   7
ATOM      5  C   UNL     1      -7.196  15.142  28.287  0.00  0.00    +0.401 C 
ATOM      6  O   UNL     1      -8.357  14.848  28.582  0.00  0.00    -0.226 OA
ATOM      7  N   UNL     1      -6.122  14.654  28.910  0.00  0.00    -0.279 N 
ATOM      8  H   UNL     1      -5.210  14.948  28.589  0.00  0.00    +0.152 HD
BRANCH   5   9
ATOM      9  O   UNL     1      -6.962  16.057  27.213  0.00  0.00    -0.444 OA
BRANCH   9  10
ATOM     10  C   UNL     1      -7.485  15.512  25.999  0.00  0.00    +0.292 C 
BRANCH  10  12
ATOM     11  N   UNL     1      -6.035  13.513  25.992  0.00  0.00    -0.131 NA
ATOM     12  C   UNL     1      -6.485  14.637  25.359  0.00  0.00    +0.120 A 
ATOM     13  C   UNL     1      -5.858  14.745  24.136  0.00  0.00    +0.138 A 
ATOM     14  N   UNL     1      -5.037  13.653  24.082  0.00  0.00    -0.235 N 
ATOM     15  N   UNL     1      -5.149  12.922  25.207  0.00  0.00    -0.064 NA
BRANCH  14  16
ATOM     16  C   UNL     1      -4.106  13.242  23.029  0.00  0.00    +0.155 C 
ATOM     17  C   UNL     1      -3.287  14.429  22.480  0.00  0.00    +0.048 C 
ATOM     18  C   UNL     1      -4.913  12.629  21.870  0.00  0.00    +0.048 C 
BRANCH  16  19
ATOM     19  C   UNL     1      -3.115  12.208  23.569  0.00  0.00    +0.332 C 
ATOM     20  O   UNL     1      -3.099  11.029  23.234  0.00  0.00    -0.248 OA
BRANCH  19  21
ATOM     21  O   UNL     1      -2.220  12.678  24.471  0.00  0.00    -0.479 OA
ATOM     22  H   UNL     1      -1.867  12.031  25.113  0.00  0.00    +0.295 HD
ENDBRANCH  19  21
ENDBRANCH  16  19
ENDBRANCH  14  16
ENDBRANCH  10  12
ENDBRANCH   9  10
ENDBRANCH   5   9
ENDBRANCH   4   7
ENDBRANCH   1   4
BRANCH   1  23
ATOM     23  C   UNL     1      -4.256  12.440  29.089  0.00  0.00    +0.175 C 
BRANCH  23  24
ATOM     24  C   UNL     1      -3.644  11.064  28.788  0.00  0.00    +0.176 C 
ATOM     25  O   UNL     1      -4.282  10.542  27.591  0.00  0.00    -0.332 OA
ATOM     26  C   UNL     1      -3.746   9.274  27.088  0.00  0.00    +0.277 C 
ATOM     27  C   UNL     1      -3.766   8.199  28.203  0.00  0.00    +0.110 C 
ATOM     28  C   UNL     1      -3.126   8.719  29.507  0.00  0.00    +0.143 C 
ATOM     29  C   UNL     1      -3.756  10.044  29.937  0.00  0.00    +0.133 C 
BRANCH  29  30
ATOM     30  N   UNL     1      -3.079  10.573  31.132  0.00  0.00    -0.308 N 
ATOM     31  H   UNL     1      -2.128  10.897  31.030  0.00  0.00    +0.149 HD
ATOM     32  C   UNL     1      -3.640  10.652  32.341  0.00  0.00    +0.210 C 
ATOM     33  C   UNL     1      -5.082  10.125  32.469  0.00  0.00    +0.109 C 
ATOM     34  O   UNL     1      -3.054  11.113  33.321  0.00  0.00    -0.276 OA
ENDBRANCH  29  30
BRANCH  26  35
ATOM     35  C   UNL     1      -2.303   9.455  26.573  0.00  0.00    +0.414 C 
ATOM     36  O   UNL     1      -1.606   8.473  26.322  0.00  0.00    -0.240 OA
ATOM     37  O   UNL     1      -1.837  10.583  26.408  0.00  0.00    -0.240 OA
ENDBRANCH  26  35
BRANCH  26  38
ATOM     38  O   UNL     1      -4.599   8.824  26.004  0.00  0.00    -0.343 OA
ATOM     39  C   UNL     1      -5.943   9.368  26.016  0.00  0.00    +0.198 C 
ENDBRANCH  26  38
BRANCH  28  40
ATOM     40  O   UNL     1      -3.301   7.756  30.547  0.00  0.00    -0.390 OA
ATOM     41  H   UNL     1      -3.501   6.900  30.161  0.00  0.00    +0.210 HD
ENDBRANCH  28  40
ENDBRANCH  23  24
BRANCH  23  42
ATOM     42  O   UNL     1      -3.418  13.168  30.008  0.00  0.00    -0.387 OA
ATOM     43  H   UNL     1      -2.522  13.206  29.663  0.00  0.00    +0.210 HD
ENDBRANCH  23  42
ENDBRANCH   1  23
TORSDOF 16
