REMARK VINA RESULT:    -4.168      2.047      7.407
REMARK INTER + INTRA:         -10.619
REMARK INTER:                  -7.160
REMARK INTRA:                  -3.458
REMARK UNBOUND:                -3.040
REMARK  Name = lig_assembled_1.pdb
REMARK  18 active torsions:
REMARK  status: ('A' for Active; 'I' for Inactive)
REMARK    1  A    between atoms: _2  and  _9
REMARK    2  A    between atoms: _4  and  _15
REMARK    3  A    between atoms: _5  and  _9
REMARK    4  A    between atoms: _5  and  _10
REMARK    5  A    between atoms: _6  and  _7
REMARK    6  A    between atoms: _6  and  _15
REMARK    7  A    between atoms: _11  and  _31
REMARK    8  A    between atoms: _13  and  _19
REMARK    9  A    between atoms: _14  and  _18
REMARK   10  A    between atoms: _18  and  _19
REMARK   11  A    between atoms: _21  and  _22
REMARK   12  A    between atoms: _23  and  _24
REMARK   13  A    between atoms: _25  and  _27
REMARK   14  A    between atoms: _27  and  _28
REMARK   15  A    between atoms: _27  and  _29
REMARK   16  A    between atoms: _29  and  _30
REMARK   17  A    between atoms: _29  and  _31
REMARK   18  A    between atoms: _32  and  _34
REMARK                            x       y       z     vdW  Elec       q    Type
REMARK                         _______ _______ _______ _____ _____    ______ ____
ROOT
ATOM      1  C   UNL     1      -5.928   9.147  24.316  0.00  0.00    +0.175 C 
ENDROOT
BRANCH   1   2
ATOM      2  C   UNL     1      -4.931  10.316  24.318  0.00  0.00    +0.176 C 
ATOM      3  O   UNL     1      -5.281  11.200  25.419  0.00  0.00    -0.332 OA
ATOM      4  C   UNL     1      -4.369  12.325  25.643  0.00  0.00    +0.277 C 
ATOM      5  C   UNL     1      -4.197  13.149  24.343  0.00  0.00    +0.110 C 
ATOM      6  C   UNL     1      -3.855  12.248  23.138  0.00  0.00    +0.143 C 
ATOM      7  C   UNL     1      -4.866  11.110  23.000  0.00  0.00    +0.133 C 
BRANCH   7   8
ATOM      8  N   UNL     1      -4.481  10.209  21.902  0.00  0.00    -0.308 N 
ATOM      9  H   UNL     1      -3.606   9.711  21.986  0.00  0.00    +0.149 HD
ATOM     10  C   UNL     1      -5.212  10.007  20.803  0.00  0.00    +0.210 C 
ATOM     11  C   UNL     1      -6.528  10.801  20.694  0.00  0.00    +0.109 C 
ATOM     12  O   UNL     1      -4.872   9.235  19.906  0.00  0.00    -0.276 OA
ENDBRANCH   7   8
BRANCH   4  13
ATOM     13  C   UNL     1      -2.990  11.824  26.121  0.00  0.00    +0.414 C 
ATOM     14  O   UNL     1      -1.964  12.198  25.555  0.00  0.00    -0.240 OA
ATOM     15  O   UNL     1      -2.904  11.047  27.074  0.00  0.00    -0.240 OA
ENDBRANCH   4  13
BRANCH   4  16
ATOM     16  O   UNL     1      -4.955  13.183  26.655  0.00  0.00    -0.343 OA
ATOM     17  C   UNL     1      -6.195  12.697  27.227  0.00  0.00    +0.198 C 
ENDBRANCH   4  16
BRANCH   6  18
ATOM     18  O   UNL     1      -3.855  13.026  21.940  0.00  0.00    -0.390 OA
ATOM     19  H   UNL     1      -4.433  12.615  21.292  0.00  0.00    +0.210 HD
ENDBRANCH   6  18
ENDBRANCH   1   2
BRANCH   1  20
ATOM     20  O   UNL     1      -7.280   9.647  24.333  0.00  0.00    -0.387 OA
ATOM     21  H   UNL     1      -7.311  10.500  23.894  0.00  0.00    +0.210 HD
ENDBRANCH   1  20
BRANCH   1  22
ATOM     22  C   UNL     1      -5.701   8.191  25.500  0.00  0.00    +0.163 C 
BRANCH  22  23
ATOM     23  O   UNL     1      -5.880   8.873  26.752  0.00  0.00    -0.388 OA
ATOM     24  H   UNL     1      -6.594   8.460  27.243  0.00  0.00    +0.210 HD
ENDBRANCH  22  23
BRANCH  22  25
ATOM     25  C   UNL     1      -4.295   7.606  25.421  0.00  0.00    +0.141 C 
BRANCH  25  28
ATOM     26  C   UNL     1      -2.266   7.475  26.824  0.00  0.00    +0.401 C 
ATOM     27  O   UNL     1      -1.573   6.967  25.940  0.00  0.00    -0.226 OA
ATOM     28  N   UNL     1      -3.550   7.801  26.670  0.00  0.00    -0.279 N 
ATOM     29  H   UNL     1      -4.037   8.204  27.458  0.00  0.00    +0.152 HD
BRANCH  26  30
ATOM     30  O   UNL     1      -1.679   7.737  28.102  0.00  0.00    -0.444 OA
BRANCH  30  31
ATOM     31  C   UNL     1      -2.621   7.426  29.132  0.00  0.00    +0.292 C 
BRANCH  31  33
ATOM     32  N   UNL     1      -4.486   9.032  29.413  0.00  0.00    -0.131 NA
ATOM     33  C   UNL     1      -3.197   8.664  29.693  0.00  0.00    +0.120 A 
ATOM     34  C   UNL     1      -2.628   9.606  30.521  0.00  0.00    +0.137 A 
ATOM     35  N   UNL     1      -3.620  10.523  30.701  0.00  0.00    -0.249 N 
ATOM     36  N   UNL     1      -4.733  10.179  30.032  0.00  0.00    -0.065 NA
BRANCH  35  37
ATOM     37  C   UNL     1      -3.581  11.731  31.495  0.00  0.00    +0.173 C 
BRANCH  37  38
ATOM     38  C   UNL     1      -3.834  12.985  30.668  0.00  0.00    +0.179 C 
BRANCH  38  39
ATOM     39  O   UNL     1      -3.428  12.800  29.313  0.00  0.00    -0.393 OA
ATOM     40  H   UNL     1      -2.515  12.457  29.335  0.00  0.00    +0.209 HD
ENDBRANCH  38  39
ENDBRANCH  37  38
ENDBRANCH  35  37
ENDBRANCH  31  33
ENDBRANCH  30  31
ENDBRANCH  26  30
ENDBRANCH  25  28
ENDBRANCH  22  25
ENDBRANCH   1  22
TORSDOF 16
