REMARK VINA RESULT:    -4.561      3.198      7.226
REMARK INTER + INTRA:         -10.181
REMARK INTER:                  -7.601
REMARK INTRA:                  -2.580
REMARK UNBOUND:                -2.287
REMARK  Name = lig_assembled_52.pdb
REMARK  16 active torsions:
REMARK  status: ('A' for Active; 'I' for Inactive)
REMARK    1  A    between atoms: _2  and  _10
REMARK    2  A    between atoms: _5  and  _18
REMARK    3  A    between atoms: _7  and  _8
REMARK    4  A    between atoms: _7  and  _18
REMARK    5  A    between atoms: _14  and  _34
REMARK    6  A    between atoms: _16  and  _22
REMARK    7  A    between atoms: _17  and  _21
REMARK    8  A    between atoms: _21  and  _22
REMARK    9  A    between atoms: _24  and  _25
REMARK   10  A    between atoms: _26  and  _27
REMARK   11  A    between atoms: _28  and  _30
REMARK   12  A    between atoms: _30  and  _31
REMARK   13  A    between atoms: _30  and  _32
REMARK   14  A    between atoms: _32  and  _33
REMARK   15  A    between atoms: _32  and  _34
REMARK   16  A    between atoms: _35  and  _37
REMARK                            x       y       z     vdW  Elec       q    Type
REMARK                         _______ _______ _______ _____ _____    ______ ____
ROOT
ATOM      1  C   UNL     1      -2.880  10.890  31.240  0.00  0.00    +0.163 C 
ENDROOT
BRANCH   1   2
ATOM      2  O   UNL     1      -1.809  11.350  32.080  0.00  0.00    -0.388 OA
ATOM      3  H   UNL     1      -1.082  11.658  31.533  0.00  0.00    +0.210 HD
ENDBRANCH   1   2
BRANCH   1   4
ATOM      4  C   UNL     1      -4.164  11.643  31.574  0.00  0.00    +0.141 C 
BRANCH   4   7
ATOM      5  C   UNL     1      -5.278  12.796  29.694  0.00  0.00    +0.401 C 
ATOM      6  O   UNL     1      -4.726  13.878  29.907  0.00  0.00    -0.226 OA
ATOM      7  N   UNL     1      -5.079  11.700  30.427  0.00  0.00    -0.279 N 
ATOM      8  H   UNL     1      -5.586  10.862  30.180  0.00  0.00    +0.152 HD
BRANCH   5   9
ATOM      9  O   UNL     1      -6.195  12.688  28.602  0.00  0.00    -0.444 OA
BRANCH   9  10
ATOM     10  C   UNL     1      -6.203  13.911  27.861  0.00  0.00    +0.292 C 
BRANCH  10  12
ATOM     11  N   UNL     1      -6.270  14.470  25.453  0.00  0.00    -0.131 NA
ATOM     12  C   UNL     1      -5.823  13.662  26.458  0.00  0.00    +0.121 A 
ATOM     13  C   UNL     1      -5.024  12.679  25.920  0.00  0.00    +0.143 A 
ATOM     14  N   UNL     1      -4.995  12.941  24.570  0.00  0.00    -0.218 N 
ATOM     15  N   UNL     1      -5.766  14.024  24.309  0.00  0.00    -0.060 NA
BRANCH  14  16
ATOM     16  C   UNL     1      -4.292  12.261  23.554  0.00  0.00    +0.085 A 
ATOM     17  C   UNL     1      -3.986  12.866  22.332  0.00  0.00    +0.031 A 
ATOM     18  C   UNL     1      -3.308  12.133  21.360  0.00  0.00    +0.022 A 
ATOM     19  C   UNL     1      -2.957  10.824  21.644  0.00  0.00    +0.111 A 
ATOM     20  N   UNL     1      -3.231  10.214  22.817  0.00  0.00    -0.261 NA
ATOM     21  C   UNL     1      -3.893  10.943  23.749  0.00  0.00    +0.138 A 
ENDBRANCH  14  16
ENDBRANCH  10  12
ENDBRANCH   9  10
ENDBRANCH   5   9
ENDBRANCH   4   7
ENDBRANCH   1   4
BRANCH   1  22
ATOM     22  C   UNL     1      -3.110   9.380  31.418  0.00  0.00    +0.175 C 
BRANCH  22  23
ATOM     23  C   UNL     1      -3.008   8.619  30.088  0.00  0.00    +0.176 C 
ATOM     24  O   UNL     1      -3.822   9.320  29.108  0.00  0.00    -0.332 OA
ATOM     25  C   UNL     1      -3.763   8.794  27.741  0.00  0.00    +0.277 C 
ATOM     26  C   UNL     1      -4.109   7.285  27.727  0.00  0.00    +0.110 C 
ATOM     27  C   UNL     1      -3.291   6.502  28.775  0.00  0.00    +0.143 C 
ATOM     28  C   UNL     1      -3.422   7.137  30.159  0.00  0.00    +0.133 C 
BRANCH  28  29
ATOM     29  N   UNL     1      -2.569   6.435  31.131  0.00  0.00    -0.308 N 
ATOM     30  H   UNL     1      -1.568   6.496  31.011  0.00  0.00    +0.149 HD
ATOM     31  C   UNL     1      -3.032   5.722  32.162  0.00  0.00    +0.210 C 
ATOM     32  C   UNL     1      -4.562   5.626  32.302  0.00  0.00    +0.109 C 
ATOM     33  O   UNL     1      -2.293   5.156  32.968  0.00  0.00    -0.276 OA
ENDBRANCH  28  29
BRANCH  25  34
ATOM     34  C   UNL     1      -2.360   9.007  27.134  0.00  0.00    +0.414 C 
ATOM     35  O   UNL     1      -1.872   8.158  26.389  0.00  0.00    -0.240 OA
ATOM     36  O   UNL     1      -1.718  10.026  27.389  0.00  0.00    -0.240 OA
ENDBRANCH  25  34
BRANCH  27  37
ATOM     37  O   UNL     1      -3.748   5.151  28.832  0.00  0.00    -0.390 OA
ATOM     38  H   UNL     1      -3.630   4.736  27.974  0.00  0.00    +0.210 HD
ENDBRANCH  27  37
BRANCH  25  39
ATOM     39  O   UNL     1      -4.751   9.498  26.946  0.00  0.00    -0.343 OA
ATOM     40  C   UNL     1      -6.125   9.307  27.368  0.00  0.00    +0.198 C 
ENDBRANCH  25  39
ENDBRANCH  22  23
BRANCH  22  41
ATOM     41  O   UNL     1      -4.393   9.141  32.030  0.00  0.00    -0.387 OA
ATOM     42  H   UNL     1      -4.373   9.438  32.942  0.00  0.00    +0.210 HD
ENDBRANCH  22  41
ENDBRANCH   1  22
TORSDOF 14
