REMARK VINA RESULT:    -4.517      2.263      6.716
REMARK INTER + INTRA:         -12.455
REMARK INTER:                  -7.802
REMARK INTRA:                  -4.654
REMARK UNBOUND:                -3.581
REMARK  Name = lig_assembled_31.pdb
REMARK  20 active torsions:
REMARK  status: ('A' for Active; 'I' for Inactive)
REMARK    1  A    between atoms: _2  and  _11
REMARK    2  A    between atoms: _3  and  _12
REMARK    3  A    between atoms: _4  and  _14
REMARK    4  A    between atoms: _6  and  _24
REMARK    5  A    between atoms: _8  and  _9
REMARK    6  A    between atoms: _8  and  _24
REMARK    7  A    between atoms: _11  and  _12
REMARK    8  A    between atoms: _14  and  _15
REMARK    9  A    between atoms: _20  and  _40
REMARK   10  A    between atoms: _22  and  _28
REMARK   11  A    between atoms: _23  and  _27
REMARK   12  A    between atoms: _27  and  _28
REMARK   13  A    between atoms: _30  and  _31
REMARK   14  A    between atoms: _32  and  _33
REMARK   15  A    between atoms: _34  and  _36
REMARK   16  A    between atoms: _36  and  _37
REMARK   17  A    between atoms: _36  and  _38
REMARK   18  A    between atoms: _38  and  _39
REMARK   19  A    between atoms: _38  and  _40
REMARK   20  A    between atoms: _41  and  _43
REMARK                            x       y       z     vdW  Elec       q    Type
REMARK                         _______ _______ _______ _____ _____    ______ ____
ROOT
ATOM      1  C   UNL     1      -2.038  10.326  26.474  0.00  0.00    +0.401 C 
ATOM      2  O   UNL     1      -1.898  10.711  25.311  0.00  0.00    -0.226 OA
ATOM      3  N   UNL     1      -2.871  10.889  27.351  0.00  0.00    -0.279 N 
ATOM      4  H   UNL     1      -2.923  10.496  28.280  0.00  0.00    +0.152 HD
ENDROOT
BRANCH   1   5
ATOM      5  O   UNL     1      -1.275   9.207  26.932  0.00  0.00    -0.444 OA
BRANCH   5   6
ATOM      6  C   UNL     1      -2.011   8.506  27.938  0.00  0.00    +0.292 C 
BRANCH   6   8
ATOM      7  N   UNL     1      -4.450   8.165  27.692  0.00  0.00    -0.131 NA
ATOM      8  C   UNL     1      -3.173   7.819  27.340  0.00  0.00    +0.120 A 
ATOM      9  C   UNL     1      -3.222   6.803  26.412  0.00  0.00    +0.137 A 
ATOM     10  N   UNL     1      -4.556   6.572  26.250  0.00  0.00    -0.250 N 
ATOM     11  N   UNL     1      -5.292   7.394  27.015  0.00  0.00    -0.065 NA
BRANCH  10  12
ATOM     12  C   UNL     1      -5.197   5.592  25.397  0.00  0.00    +0.164 C 
BRANCH  12  13
ATOM     13  C   UNL     1      -5.444   6.147  24.003  0.00  0.00    +0.129 C 
BRANCH  13  14
ATOM     14  N   UNL     1      -5.379   7.600  23.906  0.00  0.00    -0.298 N 
ATOM     15  H   UNL     1      -6.181   8.169  24.138  0.00  0.00    +0.150 HD
ATOM     16  C   UNL     1      -4.411   8.156  23.112  0.00  0.00    +0.300 C 
ATOM     17  O   UNL     1      -3.539   7.488  22.561  0.00  0.00    -0.253 OA
ATOM     18  N   UNL     1      -4.480   9.511  23.006  0.00  0.00    -0.292 N 
ATOM     19  H   UNL     1      -5.221  10.055  23.424  0.00  0.00    +0.151 HD
BRANCH  18  20
ATOM     20  C   UNL     1      -3.498  10.192  22.195  0.00  0.00    +0.180 C 
BRANCH  20  21
ATOM     21  C   UNL     1      -3.611  11.671  22.252  0.00  0.00    +0.122 A 
ATOM     22  O   UNL     1      -4.249  12.248  23.315  0.00  0.00    -0.466 OA
ATOM     23  C   UNL     1      -4.206  13.594  23.114  0.00  0.00    +0.195 A 
ATOM     24  C   UNL     1      -3.556  13.891  21.939  0.00  0.00    +0.041 A 
ATOM     25  C   UNL     1      -3.171  12.650  21.381  0.00  0.00    +0.046 A 
ENDBRANCH  20  21
ENDBRANCH  18  20
ENDBRANCH  13  14
ENDBRANCH  12  13
ENDBRANCH  10  12
ENDBRANCH   6   8
ENDBRANCH   5   6
ENDBRANCH   1   5
BRANCH   3  26
ATOM     26  C   UNL     1      -3.716  12.049  27.042  0.00  0.00    +0.141 C 
BRANCH  26  27
ATOM     27  C   UNL     1      -5.071  11.632  26.479  0.00  0.00    +0.163 C 
BRANCH  27  28
ATOM     28  O   UNL     1      -4.943  10.396  25.756  0.00  0.00    -0.388 OA
ATOM     29  H   UNL     1      -5.112   9.659  26.348  0.00  0.00    +0.210 HD
ENDBRANCH  27  28
BRANCH  27  30
ATOM     30  C   UNL     1      -6.085  11.494  27.628  0.00  0.00    +0.175 C 
BRANCH  30  31
ATOM     31  C   UNL     1      -5.518  11.999  28.963  0.00  0.00    +0.176 C 
ATOM     32  O   UNL     1      -5.609  10.914  29.926  0.00  0.00    -0.332 OA
ATOM     33  C   UNL     1      -5.013  11.181  31.239  0.00  0.00    +0.277 C 
ATOM     34  C   UNL     1      -5.607  12.474  31.850  0.00  0.00    +0.110 C 
ATOM     35  C   UNL     1      -5.561  13.649  30.850  0.00  0.00    +0.143 C 
ATOM     36  C   UNL     1      -6.204  13.261  29.518  0.00  0.00    +0.133 C 
BRANCH  36  37
ATOM     37  N   UNL     1      -6.077  14.358  28.546  0.00  0.00    -0.308 N 
ATOM     38  H   UNL     1      -5.146  14.647  28.280  0.00  0.00    +0.149 HD
ATOM     39  C   UNL     1      -7.111  14.997  27.992  0.00  0.00    +0.210 C 
ATOM     40  C   UNL     1      -8.516  14.551  28.439  0.00  0.00    +0.109 C 
ATOM     41  O   UNL     1      -6.974  15.903  27.169  0.00  0.00    -0.276 OA
ENDBRANCH  36  37
BRANCH  33  42
ATOM     42  C   UNL     1      -3.481  11.320  31.127  0.00  0.00    +0.414 C 
ATOM     43  O   UNL     1      -2.878  12.129  31.831  0.00  0.00    -0.240 OA
ATOM     44  O   UNL     1      -2.847  10.623  30.333  0.00  0.00    -0.240 OA
ENDBRANCH  33  42
BRANCH  35  45
ATOM     45  O   UNL     1      -6.251  14.773  31.396  0.00  0.00    -0.390 OA
ATOM     46  H   UNL     1      -6.349  14.660  32.345  0.00  0.00    +0.210 HD
ENDBRANCH  35  45
BRANCH  33  47
ATOM     47  O   UNL     1      -5.340  10.070  32.114  0.00  0.00    -0.343 OA
ATOM     48  C   UNL     1      -6.651   9.489  31.901  0.00  0.00    +0.198 C 
ENDBRANCH  33  47
ENDBRANCH  30  31
BRANCH  30  49
ATOM     49  O   UNL     1      -6.508  10.122  27.755  0.00  0.00    -0.387 OA
ATOM     50  H   UNL     1      -5.744   9.544  27.687  0.00  0.00    +0.210 HD
ENDBRANCH  30  49
ENDBRANCH  27  30
ENDBRANCH  26  27
ENDBRANCH   3  26
TORSDOF 18
