REMARK VINA RESULT:    -4.467      4.128      9.191
REMARK INTER + INTRA:         -11.496
REMARK INTER:                  -8.288
REMARK INTRA:                  -3.208
REMARK UNBOUND:                -3.243
REMARK  Name = lig_assembled_78.pdb
REMARK  18 active torsions:
REMARK  status: ('A' for Active; 'I' for Inactive)
REMARK    1  A    between atoms: _2  and  _9
REMARK    2  A    between atoms: _4  and  _21
REMARK    3  A    between atoms: _6  and  _7
REMARK    4  A    between atoms: _6  and  _21
REMARK    5  A    between atoms: _9  and  _41
REMARK    6  A    between atoms: _10  and  _41
REMARK    7  A    between atoms: _17  and  _37
REMARK    8  A    between atoms: _19  and  _25
REMARK    9  A    between atoms: _20  and  _24
REMARK   10  A    between atoms: _24  and  _25
REMARK   11  A    between atoms: _27  and  _28
REMARK   12  A    between atoms: _29  and  _30
REMARK   13  A    between atoms: _31  and  _33
REMARK   14  A    between atoms: _33  and  _34
REMARK   15  A    between atoms: _33  and  _35
REMARK   16  A    between atoms: _35  and  _36
REMARK   17  A    between atoms: _35  and  _37
REMARK   18  A    between atoms: _38  and  _40
REMARK                            x       y       z     vdW  Elec       q    Type
REMARK                         _______ _______ _______ _____ _____    ______ ____
ROOT
ATOM      1  C   UNL     1      -2.847  11.150  25.892  0.00  0.00    +0.163 C 
ENDROOT
BRANCH   1   2
ATOM      2  O   UNL     1      -2.002  12.197  25.389  0.00  0.00    -0.388 OA
ATOM      3  H   UNL     1      -1.120  12.102  25.756  0.00  0.00    +0.210 HD
ENDBRANCH   1   2
BRANCH   1   4
ATOM      4  C   UNL     1      -3.420  10.305  24.742  0.00  0.00    +0.175 C 
BRANCH   4   5
ATOM      5  C   UNL     1      -4.445  11.086  23.906  0.00  0.00    +0.176 C 
ATOM      6  O   UNL     1      -3.717  12.038  23.082  0.00  0.00    -0.332 OA
ATOM      7  C   UNL     1      -4.529  12.806  22.133  0.00  0.00    +0.277 C 
ATOM      8  C   UNL     1      -5.684  13.527  22.869  0.00  0.00    +0.110 C 
ATOM      9  C   UNL     1      -6.468  12.561  23.783  0.00  0.00    +0.143 C 
ATOM     10  C   UNL     1      -5.526  11.813  24.726  0.00  0.00    +0.133 C 
BRANCH  10  11
ATOM     11  N   UNL     1      -6.274  10.833  25.530  0.00  0.00    -0.308 N 
ATOM     12  H   UNL     1      -6.673  10.037  25.053  0.00  0.00    +0.149 HD
ATOM     13  C   UNL     1      -6.459  10.927  26.850  0.00  0.00    +0.210 C 
ATOM     14  C   UNL     1      -5.861  12.164  27.544  0.00  0.00    +0.109 C 
ATOM     15  O   UNL     1      -7.078  10.083  27.500  0.00  0.00    -0.276 OA
ENDBRANCH  10  11
BRANCH   7  16
ATOM     16  C   UNL     1      -5.109  11.886  21.039  0.00  0.00    +0.414 C 
ATOM     17  O   UNL     1      -6.279  12.011  20.679  0.00  0.00    -0.240 OA
ATOM     18  O   UNL     1      -4.407  11.018  20.517  0.00  0.00    -0.240 OA
ENDBRANCH   7  16
BRANCH   7  19
ATOM     19  O   UNL     1      -3.677  13.811  21.525  0.00  0.00    -0.343 OA
ATOM     20  C   UNL     1      -3.830  15.150  22.061  0.00  0.00    +0.198 C 
ENDBRANCH   7  19
BRANCH   9  21
ATOM     21  O   UNL     1      -7.422  13.293  24.553  0.00  0.00    -0.390 OA
ATOM     22  H   UNL     1      -6.963  13.881  25.157  0.00  0.00    +0.210 HD
ENDBRANCH   9  21
ENDBRANCH   4   5
BRANCH   4  23
ATOM     23  O   UNL     1      -4.018   9.100  25.260  0.00  0.00    -0.387 OA
ATOM     24  H   UNL     1      -3.443   8.353  25.076  0.00  0.00    +0.210 HD
ENDBRANCH   4  23
ENDBRANCH   1   4
BRANCH   1  25
ATOM     25  C   UNL     1      -2.057  10.252  26.839  0.00  0.00    +0.141 C 
BRANCH  25  28
ATOM     26  C   UNL     1      -3.416   9.222  28.628  0.00  0.00    +0.401 C 
ATOM     27  O   UNL     1      -3.719   8.232  27.957  0.00  0.00    -0.226 OA
ATOM     28  N   UNL     1      -2.649  10.218  28.182  0.00  0.00    -0.279 N 
ATOM     29  H   UNL     1      -2.465  10.993  28.804  0.00  0.00    +0.152 HD
BRANCH  26  30
ATOM     30  O   UNL     1      -3.910   9.333  29.965  0.00  0.00    -0.444 OA
BRANCH  30  31
ATOM     31  C   UNL     1      -2.896   9.891  30.804  0.00  0.00    +0.292 C 
BRANCH  31  33
ATOM     32  N   UNL     1      -2.969  11.459  32.723  0.00  0.00    -0.131 NA
ATOM     33  C   UNL     1      -3.395  11.110  31.469  0.00  0.00    +0.120 A 
ATOM     34  C   UNL     1      -4.292  12.054  31.021  0.00  0.00    +0.139 A 
ATOM     35  N   UNL     1      -4.322  12.980  32.021  0.00  0.00    -0.230 N 
ATOM     36  N   UNL     1      -3.562  12.596  33.062  0.00  0.00    -0.064 NA
BRANCH  35  37
ATOM     37  C   UNL     1      -5.095  14.194  32.103  0.00  0.00    +0.316 C 
BRANCH  37  38
ATOM     38  S   UNL     1      -4.206  15.638  31.580  0.00  0.00    +0.017 S 
ATOM     39  O   UNL     1      -4.315  16.676  32.585  0.00  0.00    -0.168 OA
ATOM     40  O   UNL     1      -2.908  15.209  31.088  0.00  0.00    -0.168 OA
BRANCH  38  41
ATOM     41  C   UNL     1      -5.124  16.226  30.172  0.00  0.00    +0.090 A 
ATOM     42  C   UNL     1      -6.019  15.363  29.531  0.00  0.00    +0.027 A 
ATOM     43  C   UNL     1      -6.759  15.827  28.445  0.00  0.00    +0.002 A 
ATOM     44  C   UNL     1      -6.619  17.149  28.016  0.00  0.00    +0.000 A 
ATOM     45  C   UNL     1      -5.739  18.011  28.673  0.00  0.00    +0.002 A 
ATOM     46  C   UNL     1      -4.987  17.553  29.755  0.00  0.00    +0.027 A 
ENDBRANCH  38  41
ENDBRANCH  37  38
ENDBRANCH  35  37
ENDBRANCH  31  33
ENDBRANCH  30  31
ENDBRANCH  26  30
ENDBRANCH  25  28
ENDBRANCH   1  25
TORSDOF 16
