REMARK VINA RESULT:    -5.266      3.238      8.175
REMARK INTER + INTRA:         -12.255
REMARK INTER:                  -8.834
REMARK INTRA:                  -3.421
REMARK UNBOUND:                -3.141
REMARK  Name = lig_assembled_91.pdb
REMARK  16 active torsions:
REMARK  status: ('A' for Active; 'I' for Inactive)
REMARK    1  A    between atoms: _2  and  _10
REMARK    2  A    between atoms: _5  and  _26
REMARK    3  A    between atoms: _7  and  _8
REMARK    4  A    between atoms: _7  and  _26
REMARK    5  A    between atoms: _22  and  _42
REMARK    6  A    between atoms: _24  and  _30
REMARK    7  A    between atoms: _25  and  _29
REMARK    8  A    between atoms: _29  and  _30
REMARK    9  A    between atoms: _32  and  _33
REMARK   10  A    between atoms: _34  and  _35
REMARK   11  A    between atoms: _36  and  _38
REMARK   12  A    between atoms: _38  and  _39
REMARK   13  A    between atoms: _38  and  _40
REMARK   14  A    between atoms: _40  and  _41
REMARK   15  A    between atoms: _40  and  _42
REMARK   16  A    between atoms: _43  and  _45
REMARK                            x       y       z     vdW  Elec       q    Type
REMARK                         _______ _______ _______ _____ _____    ______ ____
ROOT
ATOM      1  C   UNL     1      -4.243   8.496  24.340  0.00  0.00    +0.401 C 
ATOM      2  O   UNL     1      -3.885   8.673  23.173  0.00  0.00    -0.226 OA
ATOM      3  N   UNL     1      -5.517   8.437  24.728  0.00  0.00    -0.279 N 
ATOM      4  H   UNL     1      -5.711   8.278  25.706  0.00  0.00    +0.152 HD
ENDROOT
BRANCH   3   5
ATOM      5  C   UNL     1      -6.655   8.592  23.812  0.00  0.00    +0.141 C 
BRANCH   5   6
ATOM      6  C   UNL     1      -7.333   9.948  23.972  0.00  0.00    +0.163 C 
BRANCH   6   7
ATOM      7  O   UNL     1      -6.832  10.613  25.143  0.00  0.00    -0.388 OA
ATOM      8  H   UNL     1      -6.830  10.002  25.883  0.00  0.00    +0.210 HD
ENDBRANCH   6   7
BRANCH   6   9
ATOM      9  C   UNL     1      -7.091  10.796  22.712  0.00  0.00    +0.175 C 
BRANCH   9  10
ATOM     10  C   UNL     1      -5.813  11.641  22.820  0.00  0.00    +0.176 C 
ATOM     11  O   UNL     1      -6.167  12.912  23.431  0.00  0.00    -0.332 OA
ATOM     12  C   UNL     1      -5.047  13.814  23.713  0.00  0.00    +0.277 C 
ATOM     13  C   UNL     1      -4.217  14.064  22.430  0.00  0.00    +0.110 C 
ATOM     14  C   UNL     1      -3.843  12.741  21.728  0.00  0.00    +0.143 C 
ATOM     15  C   UNL     1      -5.082  11.879  21.486  0.00  0.00    +0.133 C 
BRANCH  15  16
ATOM     16  N   UNL     1      -4.703  10.586  20.895  0.00  0.00    -0.308 N 
ATOM     17  H   UNL     1      -4.116   9.971  21.443  0.00  0.00    +0.149 HD
ATOM     18  C   UNL     1      -5.082  10.171  19.684  0.00  0.00    +0.210 C 
ATOM     19  C   UNL     1      -5.954  11.141  18.864  0.00  0.00    +0.109 C 
ATOM     20  O   UNL     1      -4.761   9.076  19.221  0.00  0.00    -0.276 OA
ENDBRANCH  15  16
BRANCH  12  21
ATOM     21  C   UNL     1      -4.135  13.227  24.811  0.00  0.00    +0.414 C 
ATOM     22  O   UNL     1      -2.921  13.149  24.632  0.00  0.00    -0.240 OA
ATOM     23  O   UNL     1      -4.614  12.833  25.875  0.00  0.00    -0.240 OA
ENDBRANCH  12  21
BRANCH  14  24
ATOM     24  O   UNL     1      -3.213  13.022  20.477  0.00  0.00    -0.390 OA
ATOM     25  H   UNL     1      -2.352  13.417  20.633  0.00  0.00    +0.210 HD
ENDBRANCH  14  24
BRANCH  12  26
ATOM     26  O   UNL     1      -5.593  15.082  24.159  0.00  0.00    -0.343 OA
ATOM     27  C   UNL     1      -5.589  16.135  23.161  0.00  0.00    +0.198 C 
ENDBRANCH  12  26
ENDBRANCH   9  10
BRANCH   9  28
ATOM     28  O   UNL     1      -8.227  11.645  22.458  0.00  0.00    -0.387 OA
ATOM     29  H   UNL     1      -8.950  11.395  23.038  0.00  0.00    +0.210 HD
ENDBRANCH   9  28
ENDBRANCH   6   9
ENDBRANCH   5   6
ENDBRANCH   3   5
BRANCH   1  30
ATOM     30  O   UNL     1      -3.248   8.335  25.355  0.00  0.00    -0.444 OA
BRANCH  30  31
ATOM     31  C   UNL     1      -2.832   9.621  25.823  0.00  0.00    +0.292 C 
BRANCH  31  33
ATOM     32  N   UNL     1      -4.700   9.859  27.420  0.00  0.00    -0.131 NA
ATOM     33  C   UNL     1      -3.361   9.875  27.178  0.00  0.00    +0.121 A 
ATOM     34  C   UNL     1      -2.699  10.133  28.356  0.00  0.00    +0.143 A 
ATOM     35  N   UNL     1      -3.686  10.316  29.303  0.00  0.00    -0.218 N 
ATOM     36  N   UNL     1      -4.889  10.122  28.705  0.00  0.00    -0.060 NA
BRANCH  35  37
ATOM     37  C   UNL     1      -3.570  10.659  30.686  0.00  0.00    +0.085 A 
ATOM     38  C   UNL     1      -3.517  12.042  31.087  0.00  0.00    +0.026 A 
ATOM     39  C   UNL     1      -3.377  12.270  32.471  0.00  0.00    +0.074 A 
ATOM     40  C   UNL     1      -3.312  13.559  32.977  0.00  0.00    +0.028 A 
ATOM     41  C   UNL     1      -3.388  14.682  32.160  0.00  0.00    +0.002 A 
ATOM     42  C   UNL     1      -3.561  14.508  30.801  0.00  0.00    +0.001 A 
ATOM     43  N   UNL     1      -3.320  11.299  33.379  0.00  0.00    -0.247 NA
ATOM     44  C   UNL     1      -3.399  10.023  33.007  0.00  0.00    +0.074 A 
ATOM     45  C   UNL     1      -3.326   9.091  34.038  0.00  0.00    +0.028 A 
ATOM     46  C   UNL     1      -3.357   7.720  33.804  0.00  0.00    +0.002 A 
ATOM     47  C   UNL     1      -3.451   7.265  32.504  0.00  0.00    +0.001 A 
ATOM     48  C   UNL     1      -3.518   8.189  31.456  0.00  0.00    +0.012 A 
ATOM     49  C   UNL     1      -3.646  13.214  30.276  0.00  0.00    +0.012 A 
ATOM     50  C   UNL     1      -3.515   9.605  31.671  0.00  0.00    +0.026 A 
ENDBRANCH  35  37
ENDBRANCH  31  33
ENDBRANCH  30  31
ENDBRANCH   1  30
TORSDOF 14
