REMARK VINA RESULT:    -3.979      2.491      4.343
REMARK INTER + INTRA:         -11.099
REMARK INTER:                  -7.410
REMARK INTRA:                  -3.689
REMARK UNBOUND:                -3.049
REMARK  Name = lig_assembled_45.pdb
REMARK  24 active torsions:
REMARK  status: ('A' for Active; 'I' for Inactive)
REMARK    1  A    between atoms: _2  and  _10
REMARK    2  A    between atoms: _3  and  _12
REMARK    3  A    between atoms: _3  and  _13
REMARK    4  A    between atoms: _3  and  _14
REMARK    5  A    between atoms: _3  and  _16
REMARK    6  A    between atoms: _5  and  _21
REMARK    7  A    between atoms: _6  and  _16
REMARK    8  A    between atoms: _7  and  _8
REMARK    9  A    between atoms: _7  and  _21
REMARK   10  A    between atoms: _10  and  _11
REMARK   11  A    between atoms: _11  and  _12
REMARK   12  A    between atoms: _14  and  _15
REMARK   13  A    between atoms: _17  and  _37
REMARK   14  A    between atoms: _19  and  _25
REMARK   15  A    between atoms: _20  and  _24
REMARK   16  A    between atoms: _24  and  _25
REMARK   17  A    between atoms: _27  and  _28
REMARK   18  A    between atoms: _29  and  _30
REMARK   19  A    between atoms: _31  and  _33
REMARK   20  A    between atoms: _33  and  _34
REMARK   21  A    between atoms: _33  and  _35
REMARK   22  A    between atoms: _35  and  _36
REMARK   23  A    between atoms: _35  and  _37
REMARK   24  A    between atoms: _38  and  _40
REMARK                            x       y       z     vdW  Elec       q    Type
REMARK                         _______ _______ _______ _____ _____    ______ ____
ROOT
ATOM      1  C   UNL     1      -2.899  11.157  24.536  0.00  0.00    +0.163 C 
ENDROOT
BRANCH   1   2
ATOM      2  O   UNL     1      -3.098  11.214  25.958  0.00  0.00    -0.388 OA
ATOM      3  H   UNL     1      -3.255  12.123  26.223  0.00  0.00    +0.210 HD
ENDBRANCH   1   2
BRANCH   1   4
ATOM      4  C   UNL     1      -3.864  10.150  23.886  0.00  0.00    +0.175 C 
BRANCH   4   5
ATOM      5  C   UNL     1      -4.205   8.986  24.827  0.00  0.00    +0.176 C 
ATOM      6  O   UNL     1      -2.963   8.501  25.407  0.00  0.00    -0.332 OA
ATOM      7  C   UNL     1      -3.104   7.451  26.420  0.00  0.00    +0.277 C 
ATOM      8  C   UNL     1      -3.918   6.261  25.855  0.00  0.00    +0.110 C 
ATOM      9  C   UNL     1      -5.234   6.730  25.199  0.00  0.00    +0.143 C 
ATOM     10  C   UNL     1      -4.971   7.825  24.165  0.00  0.00    +0.133 C 
BRANCH  10  11
ATOM     11  N   UNL     1      -6.238   8.325  23.610  0.00  0.00    -0.308 N 
ATOM     12  H   UNL     1      -6.829   8.882  24.211  0.00  0.00    +0.149 HD
ATOM     13  C   UNL     1      -6.659   8.091  22.364  0.00  0.00    +0.210 C 
ATOM     14  C   UNL     1      -5.748   7.216  21.482  0.00  0.00    +0.109 C 
ATOM     15  O   UNL     1      -7.719   8.535  21.922  0.00  0.00    -0.276 OA
ENDBRANCH  10  11
BRANCH   7  16
ATOM     16  C   UNL     1      -3.801   7.999  27.683  0.00  0.00    +0.414 C 
ATOM     17  O   UNL     1      -4.667   7.334  28.251  0.00  0.00    -0.240 OA
ATOM     18  O   UNL     1      -3.498   9.104  28.134  0.00  0.00    -0.240 OA
ENDBRANCH   7  16
BRANCH   9  19
ATOM     19  O   UNL     1      -5.875   5.625  24.562  0.00  0.00    -0.390 OA
ATOM     20  H   UNL     1      -6.629   5.346  25.087  0.00  0.00    +0.210 HD
ENDBRANCH   9  19
BRANCH   7  21
ATOM     21  O   UNL     1      -1.777   6.976  26.762  0.00  0.00    -0.343 OA
ATOM     22  C   UNL     1      -1.739   5.685  27.422  0.00  0.00    +0.198 C 
ENDBRANCH   7  21
ENDBRANCH   4   5
BRANCH   4  23
ATOM     23  O   UNL     1      -3.303   9.647  22.657  0.00  0.00    -0.387 OA
ATOM     24  H   UNL     1      -2.529   9.113  22.853  0.00  0.00    +0.210 HD
ENDBRANCH   4  23
ENDBRANCH   1   4
BRANCH   1  25
ATOM     25  C   UNL     1      -3.114  12.537  23.923  0.00  0.00    +0.141 C 
BRANCH  25  28
ATOM     26  C   UNL     1      -4.130  13.091  21.740  0.00  0.00    +0.401 C 
ATOM     27  O   UNL     1      -3.126  13.665  21.312  0.00  0.00    -0.226 OA
ATOM     28  N   UNL     1      -4.214  12.540  22.951  0.00  0.00    -0.279 N 
ATOM     29  H   UNL     1      -5.084  12.099  23.216  0.00  0.00    +0.152 HD
BRANCH  26  30
ATOM     30  O   UNL     1      -5.287  13.002  20.905  0.00  0.00    -0.444 OA
BRANCH  30  31
ATOM     31  C   UNL     1      -5.969  11.771  21.164  0.00  0.00    +0.292 C 
BRANCH  31  33
ATOM     32  N   UNL     1      -4.624  10.149  19.856  0.00  0.00    -0.131 NA
ATOM     33  C   UNL     1      -5.792  10.842  20.033  0.00  0.00    +0.120 A 
ATOM     34  C   UNL     1      -6.667  10.513  19.022  0.00  0.00    +0.137 A 
ATOM     35  N   UNL     1      -5.964   9.617  18.275  0.00  0.00    -0.251 N 
ATOM     36  N   UNL     1      -4.742   9.402  18.766  0.00  0.00    -0.065 NA
BRANCH  35  37
ATOM     37  C   UNL     1      -6.400   8.951  17.065  0.00  0.00    +0.150 C 
BRANCH  37  38
ATOM     38  C   UNL     1      -6.263   9.826  15.825  0.00  0.00    +0.074 C 
BRANCH  38  39
ATOM     39  C   UNL     1      -5.123   9.479  14.857  0.00  0.00    +0.134 C 
BRANCH  39  40
ATOM     40  N   UNL     1      -3.832  10.361  14.899  0.00  0.00    +0.241 N 
ATOM     41  C   UNL     1      -3.623  10.998  13.515  0.00  0.00    +0.192 C 
BRANCH  40  42
ATOM     42  C   UNL     1      -2.646   9.378  15.176  0.00  0.00    +0.129 C 
ATOM     43  C   UNL     1      -3.084   7.989  15.627  0.00  0.00    +0.060 C 
ENDBRANCH  40  42
BRANCH  40  44
ATOM     44  C   UNL     1      -3.843  11.474  15.964  0.00  0.00    +0.129 C 
ATOM     45  C   UNL     1      -3.993  12.876  15.398  0.00  0.00    +0.060 C 
ENDBRANCH  40  44
ENDBRANCH  39  40
ENDBRANCH  38  39
ENDBRANCH  37  38
ENDBRANCH  35  37
ENDBRANCH  31  33
ENDBRANCH  30  31
ENDBRANCH  26  30
ENDBRANCH  25  28
ENDBRANCH   1  25
TORSDOF 19
