REMARK VINA RESULT:    -5.222      3.002      8.784
REMARK INTER + INTRA:         -12.508
REMARK INTER:                  -8.986
REMARK INTRA:                  -3.522
REMARK UNBOUND:                -2.554
REMARK  Name = lig_assembled_9.pdb
REMARK  20 active torsions:
REMARK  status: ('A' for Active; 'I' for Inactive)
REMARK    1  A    between atoms: _2  and  _9
REMARK    2  A    between atoms: _4  and  _23
REMARK    3  A    between atoms: _6  and  _7
REMARK    4  A    between atoms: _6  and  _23
REMARK    5  A    between atoms: _11  and  _12
REMARK    6  A    between atoms: _12  and  _17
REMARK    7  A    between atoms: _13  and  _14
REMARK    8  A    between atoms: _13  and  _17
REMARK    9  A    between atoms: _19  and  _39
REMARK   10  A    between atoms: _21  and  _27
REMARK   11  A    between atoms: _22  and  _26
REMARK   12  A    between atoms: _26  and  _27
REMARK   13  A    between atoms: _29  and  _30
REMARK   14  A    between atoms: _31  and  _32
REMARK   15  A    between atoms: _33  and  _35
REMARK   16  A    between atoms: _35  and  _36
REMARK   17  A    between atoms: _35  and  _37
REMARK   18  A    between atoms: _37  and  _38
REMARK   19  A    between atoms: _37  and  _39
REMARK   20  A    between atoms: _40  and  _42
REMARK                            x       y       z     vdW  Elec       q    Type
REMARK                         _______ _______ _______ _____ _____    ______ ____
ROOT
ATOM      1  C   UNL     1      -6.002  12.131  29.378  0.00  0.00    +0.163 C 
ENDROOT
BRANCH   1   2
ATOM      2  O   UNL     1      -6.831  11.518  28.378  0.00  0.00    -0.388 OA
ATOM      3  H   UNL     1      -7.257  10.740  28.747  0.00  0.00    +0.210 HD
ENDBRANCH   1   2
BRANCH   1   4
ATOM      4  C   UNL     1      -4.669  12.604  28.773  0.00  0.00    +0.175 C 
BRANCH   4   5
ATOM      5  C   UNL     1      -3.751  11.428  28.406  0.00  0.00    +0.176 C 
ATOM      6  O   UNL     1      -4.329  10.753  27.255  0.00  0.00    -0.332 OA
ATOM      7  C   UNL     1      -3.529   9.660  26.695  0.00  0.00    +0.277 C 
ATOM      8  C   UNL     1      -3.185   8.623  27.792  0.00  0.00    +0.110 C 
ATOM      9  C   UNL     1      -2.597   9.298  29.049  0.00  0.00    +0.143 C 
ATOM     10  C   UNL     1      -3.508  10.421  29.545  0.00  0.00    +0.133 C 
BRANCH  10  11
ATOM     11  N   UNL     1      -2.895  11.113  30.691  0.00  0.00    -0.308 N 
ATOM     12  H   UNL     1      -2.071  11.672  30.518  0.00  0.00    +0.149 HD
ATOM     13  C   UNL     1      -3.357  11.051  31.942  0.00  0.00    +0.210 C 
ATOM     14  C   UNL     1      -4.599  10.170  32.176  0.00  0.00    +0.109 C 
ATOM     15  O   UNL     1      -2.832  11.653  32.879  0.00  0.00    -0.276 OA
ENDBRANCH  10  11
BRANCH   7  16
ATOM     16  C   UNL     1      -2.226  10.200  26.070  0.00  0.00    +0.414 C 
ATOM     17  O   UNL     1      -2.265  11.115  25.248  0.00  0.00    -0.240 OA
ATOM     18  O   UNL     1      -1.136   9.721  26.386  0.00  0.00    -0.240 OA
ENDBRANCH   7  16
BRANCH   7  19
ATOM     19  O   UNL     1      -4.323   9.000  25.675  0.00  0.00    -0.343 OA
ATOM     20  C   UNL     1      -3.924   7.639  25.374  0.00  0.00    +0.198 C 
ENDBRANCH   7  19
BRANCH   9  21
ATOM     21  O   UNL     1      -2.437   8.329  30.086  0.00  0.00    -0.390 OA
ATOM     22  H   UNL     1      -2.992   7.567  29.901  0.00  0.00    +0.210 HD
ENDBRANCH   9  21
ENDBRANCH   4   5
BRANCH   4  23
ATOM     23  O   UNL     1      -3.996  13.493  29.687  0.00  0.00    -0.387 OA
ATOM     24  H   UNL     1      -4.643  13.922  30.251  0.00  0.00    +0.210 HD
ENDBRANCH   4  23
ENDBRANCH   1   4
BRANCH   1  25
ATOM     25  C   UNL     1      -6.728  13.319  30.001  0.00  0.00    +0.141 C 
BRANCH  25  28
ATOM     26  C   UNL     1      -6.626  15.455  28.763  0.00  0.00    +0.401 C 
ATOM     27  O   UNL     1      -5.657  15.882  29.393  0.00  0.00    -0.226 OA
ATOM     28  N   UNL     1      -7.196  14.269  28.984  0.00  0.00    -0.279 N 
ATOM     29  H   UNL     1      -7.994  14.010  28.421  0.00  0.00    +0.152 HD
BRANCH  26  30
ATOM     30  O   UNL     1      -7.194  16.263  27.729  0.00  0.00    -0.444 OA
BRANCH  30  31
ATOM     31  C   UNL     1      -7.882  15.429  26.793  0.00  0.00    +0.292 C 
BRANCH  31  33
ATOM     32  N   UNL     1      -6.782  16.276  24.744  0.00  0.00    -0.131 NA
ATOM     33  C   UNL     1      -7.062  15.236  25.582  0.00  0.00    +0.121 A 
ATOM     34  C   UNL     1      -6.462  14.096  25.101  0.00  0.00    +0.143 A 
ATOM     35  N   UNL     1      -5.786  14.501  23.972  0.00  0.00    -0.220 N 
ATOM     36  N   UNL     1      -6.014  15.819  23.763  0.00  0.00    -0.060 NA
BRANCH  35  37
ATOM     37  C   UNL     1      -4.940  13.739  23.125  0.00  0.00    +0.068 A 
ATOM     38  C   UNL     1      -4.937  12.339  23.194  0.00  0.00    +0.042 A 
ATOM     39  C   UNL     1      -4.075  11.592  22.377  0.00  0.00    +0.061 A 
ATOM     40  C   UNL     1      -3.220  12.250  21.486  0.00  0.00    +0.015 A 
ATOM     41  C   UNL     1      -3.230  13.644  21.406  0.00  0.00    +0.003 A 
ATOM     42  C   UNL     1      -4.087  14.388  22.219  0.00  0.00    +0.028 A 
BRANCH  39  43
ATOM     43  C   UNL     1      -4.084  10.105  22.377  0.00  0.00    +0.339 C 
ATOM     44  O   UNL     1      -3.086   9.422  22.216  0.00  0.00    -0.245 OA
BRANCH  43  45
ATOM     45  O   UNL     1      -5.358   9.654  22.479  0.00  0.00    -0.461 OA
BRANCH  45  46
ATOM     46  C   UNL     1      -5.558   8.280  22.122  0.00  0.00    +0.229 C 
ATOM     47  C   UNL     1      -7.028   7.956  22.311  0.00  0.00    +0.048 C 
ENDBRANCH  45  46
ENDBRANCH  43  45
ENDBRANCH  39  43
ENDBRANCH  35  37
ENDBRANCH  31  33
ENDBRANCH  30  31
ENDBRANCH  26  30
ENDBRANCH  25  28
ENDBRANCH   1  25
TORSDOF 17
