REMARK VINA RESULT:    -4.773      4.210      7.452
REMARK INTER + INTRA:         -12.280
REMARK INTER:                  -8.402
REMARK INTRA:                  -3.878
REMARK UNBOUND:                -3.320
REMARK  Name = lig_assembled_16.pdb
REMARK  19 active torsions:
REMARK  status: ('A' for Active; 'I' for Inactive)
REMARK    1  A    between atoms: _2  and  _9
REMARK    2  A    between atoms: _4  and  _22
REMARK    3  A    between atoms: _6  and  _7
REMARK    4  A    between atoms: _6  and  _22
REMARK    5  A    between atoms: _9  and  _10
REMARK    6  A    between atoms: _13  and  _14
REMARK    7  A    between atoms: _14  and  _16
REMARK    8  A    between atoms: _18  and  _38
REMARK    9  A    between atoms: _20  and  _26
REMARK   10  A    between atoms: _21  and  _25
REMARK   11  A    between atoms: _25  and  _26
REMARK   12  A    between atoms: _28  and  _29
REMARK   13  A    between atoms: _30  and  _31
REMARK   14  A    between atoms: _32  and  _34
REMARK   15  A    between atoms: _34  and  _35
REMARK   16  A    between atoms: _34  and  _36
REMARK   17  A    between atoms: _36  and  _37
REMARK   18  A    between atoms: _36  and  _38
REMARK   19  A    between atoms: _39  and  _41
REMARK                            x       y       z     vdW  Elec       q    Type
REMARK                         _______ _______ _______ _____ _____    ______ ____
ROOT
ATOM      1  C   UNL     1      -2.365  10.009  27.144  0.00  0.00    +0.163 C 
ENDROOT
BRANCH   1   2
ATOM      2  O   UNL     1      -1.280  10.001  26.202  0.00  0.00    -0.388 OA
ATOM      3  H   UNL     1      -1.392   9.270  25.590  0.00  0.00    +0.210 HD
ENDBRANCH   1   2
BRANCH   1   4
ATOM      4  C   UNL     1      -3.644   9.431  26.515  0.00  0.00    +0.175 C 
BRANCH   4   5
ATOM      5  C   UNL     1      -4.439  10.494  25.742  0.00  0.00    +0.176 C 
ATOM      6  O   UNL     1      -3.687  10.833  24.545  0.00  0.00    -0.332 OA
ATOM      7  C   UNL     1      -4.347  11.763  23.624  0.00  0.00    +0.277 C 
ATOM      8  C   UNL     1      -4.761  13.057  24.366  0.00  0.00    +0.110 C 
ATOM      9  C   UNL     1      -5.537  12.746  25.663  0.00  0.00    +0.143 C 
ATOM     10  C   UNL     1      -4.761  11.768  26.545  0.00  0.00    +0.133 C 
BRANCH  10  11
ATOM     11  N   UNL     1      -5.549  11.412  27.736  0.00  0.00    -0.308 N 
ATOM     12  H   UNL     1      -6.340  10.797  27.612  0.00  0.00    +0.149 HD
ATOM     13  C   UNL     1      -5.286  11.849  28.971  0.00  0.00    +0.210 C 
ATOM     14  C   UNL     1      -4.089  12.807  29.123  0.00  0.00    +0.109 C 
ATOM     15  O   UNL     1      -5.954  11.523  29.952  0.00  0.00    -0.276 OA
ENDBRANCH  10  11
BRANCH   7  16
ATOM     16  C   UNL     1      -5.593  11.112  22.989  0.00  0.00    +0.414 C 
ATOM     17  O   UNL     1      -5.615   9.902  22.767  0.00  0.00    -0.240 OA
ATOM     18  O   UNL     1      -6.575  11.796  22.697  0.00  0.00    -0.240 OA
ENDBRANCH   7  16
BRANCH   7  19
ATOM     19  O   UNL     1      -3.397  12.115  22.585  0.00  0.00    -0.343 OA
ATOM     20  C   UNL     1      -3.590  13.427  21.999  0.00  0.00    +0.198 C 
ENDBRANCH   7  19
BRANCH   9  21
ATOM     21  O   UNL     1      -5.766  13.955  26.389  0.00  0.00    -0.390 OA
ATOM     22  H   UNL     1      -5.171  14.638  26.070  0.00  0.00    +0.210 HD
ENDBRANCH   9  21
ENDBRANCH   4   5
BRANCH   4  23
ATOM     23  O   UNL     1      -4.472   8.833  27.532  0.00  0.00    -0.387 OA
ATOM     24  H   UNL     1      -4.563   7.893  27.360  0.00  0.00    +0.210 HD
ENDBRANCH   4  23
ENDBRANCH   1   4
BRANCH   1  25
ATOM     25  C   UNL     1      -1.991   9.193  28.378  0.00  0.00    +0.141 C 
BRANCH  25  28
ATOM     26  C   UNL     1      -3.315   9.070  30.460  0.00  0.00    +0.401 C 
ATOM     27  O   UNL     1      -3.620   7.884  30.307  0.00  0.00    -0.226 OA
ATOM     28  N   UNL     1      -2.563   9.762  29.604  0.00  0.00    -0.279 N 
ATOM     29  H   UNL     1      -2.375  10.733  29.811  0.00  0.00    +0.152 HD
BRANCH  26  30
ATOM     30  O   UNL     1      -3.790   9.765  31.615  0.00  0.00    -0.444 OA
BRANCH  30  31
ATOM     31  C   UNL     1      -2.679  10.278  32.355  0.00  0.00    +0.292 C 
BRANCH  31  33
ATOM     32  N   UNL     1      -1.828  12.602  32.245  0.00  0.00    -0.131 NA
ATOM     33  C   UNL     1      -2.834  11.727  32.570  0.00  0.00    +0.120 A 
ATOM     34  C   UNL     1      -3.908  12.437  33.058  0.00  0.00    +0.137 A 
ATOM     35  N   UNL     1      -3.528  13.739  32.915  0.00  0.00    -0.247 N 
ATOM     36  N   UNL     1      -2.260  13.835  32.477  0.00  0.00    -0.065 NA
BRANCH  35  37
ATOM     37  C   UNL     1      -4.320  14.929  33.150  0.00  0.00    +0.180 C 
BRANCH  37  38
ATOM     38  C   UNL     1      -4.887  15.476  31.859  0.00  0.00    -0.026 A 
ATOM     39  C   UNL     1      -6.013  14.888  31.266  0.00  0.00    +0.006 A 
ATOM     40  C   UNL     1      -6.556  15.421  30.093  0.00  0.00    +0.015 A 
ATOM     41  C   UNL     1      -5.974  16.539  29.491  0.00  0.00    +0.059 A 
ATOM     42  C   UNL     1      -4.834  17.122  30.062  0.00  0.00    +0.015 A 
ATOM     43  C   UNL     1      -4.290  16.582  31.232  0.00  0.00    +0.006 A 
BRANCH  41  44
ATOM     44  C   UNL     1      -6.634  17.109  28.286  0.00  0.00    +0.337 C 
ATOM     45  O   UNL     1      -6.924  16.431  27.314  0.00  0.00    -0.245 OA
BRANCH  44  46
ATOM     46  O   UNL     1      -6.850  18.436  28.351  0.00  0.00    -0.477 OA
ATOM     47  H   UNL     1      -6.254  18.981  27.807  0.00  0.00    +0.295 HD
ENDBRANCH  44  46
ENDBRANCH  41  44
ENDBRANCH  37  38
ENDBRANCH  35  37
ENDBRANCH  31  33
ENDBRANCH  30  31
ENDBRANCH  26  30
ENDBRANCH  25  28
ENDBRANCH   1  25
TORSDOF 17
