REMARK VINA RESULT:    -4.222      2.681      8.509
REMARK INTER + INTRA:         -13.645
REMARK INTER:                  -8.788
REMARK INTRA:                  -4.858
REMARK UNBOUND:                -3.746
REMARK  Name = lig_assembled_30.pdb
REMARK  27 active torsions:
REMARK  status: ('A' for Active; 'I' for Inactive)
REMARK    1  A    between atoms: _2  and  _9
REMARK    2  A    between atoms: _4  and  _25
REMARK    3  A    between atoms: _5  and  _18
REMARK    4  A    between atoms: _5  and  _19
REMARK    5  A    between atoms: _6  and  _7
REMARK    6  A    between atoms: _6  and  _25
REMARK    7  A    between atoms: _9  and  _10
REMARK    8  A    between atoms: _10  and  _11
REMARK    9  A    between atoms: _11  and  _12
REMARK   10  A    between atoms: _12  and  _13
REMARK   11  A    between atoms: _13  and  _14
REMARK   12  A    between atoms: _14  and  _15
REMARK   13  A    between atoms: _15  and  _16
REMARK   14  A    between atoms: _16  and  _17
REMARK   15  A    between atoms: _17  and  _18
REMARK   16  A    between atoms: _21  and  _41
REMARK   17  A    between atoms: _23  and  _29
REMARK   18  A    between atoms: _24  and  _28
REMARK   19  A    between atoms: _28  and  _29
REMARK   20  A    between atoms: _31  and  _32
REMARK   21  A    between atoms: _33  and  _34
REMARK   22  A    between atoms: _35  and  _37
REMARK   23  A    between atoms: _37  and  _38
REMARK   24  A    between atoms: _37  and  _39
REMARK   25  A    between atoms: _39  and  _40
REMARK   26  A    between atoms: _39  and  _41
REMARK   27  A    between atoms: _42  and  _44
REMARK                            x       y       z     vdW  Elec       q    Type
REMARK                         _______ _______ _______ _____ _____    ______ ____
ROOT
ATOM      1  C   UNL     1      -2.375  10.080  26.326  0.00  0.00    +0.401 C 
ATOM      2  O   UNL     1      -2.967   9.152  25.770  0.00  0.00    -0.226 OA
ATOM      3  N   UNL     1      -2.192  10.163  27.645  0.00  0.00    -0.279 N 
ATOM      4  H   UNL     1      -1.686  10.959  28.007  0.00  0.00    +0.152 HD
ENDROOT
BRANCH   1   5
ATOM      5  O   UNL     1      -1.842  11.141  25.530  0.00  0.00    -0.444 OA
BRANCH   5   6
ATOM      6  C   UNL     1      -2.842  12.145  25.339  0.00  0.00    +0.292 C 
BRANCH   6   8
ATOM      7  N   UNL     1      -3.815  13.338  23.401  0.00  0.00    -0.131 NA
ATOM      8  C   UNL     1      -3.241  12.208  23.921  0.00  0.00    +0.120 A 
ATOM      9  C   UNL     1      -3.138  11.257  22.931  0.00  0.00    +0.137 A 
ATOM     10  N   UNL     1      -3.667  11.870  21.836  0.00  0.00    -0.251 N 
ATOM     11  N   UNL     1      -4.075  13.118  22.118  0.00  0.00    -0.065 NA
BRANCH  10  12
ATOM     12  C   UNL     1      -3.854  11.319  20.512  0.00  0.00    +0.145 C 
BRANCH  12  13
ATOM     13  C   UNL     1      -4.939  12.070  19.748  0.00  0.00    +0.023 C 
BRANCH  13  14
ATOM     14  C   UNL     1      -4.795  11.904  18.237  0.00  0.00    +0.002 C 
BRANCH  14  15
ATOM     15  C   UNL     1      -6.115  11.429  17.631  0.00  0.00    +0.000 C 
BRANCH  15  16
ATOM     16  C   UNL     1      -7.160  11.136  18.704  0.00  0.00    +0.000 C 
BRANCH  16  17
ATOM     17  C   UNL     1      -7.570   9.664  18.674  0.00  0.00    +0.000 C 
BRANCH  17  18
ATOM     18  C   UNL     1      -7.760   9.122  20.089  0.00  0.00    +0.000 C 
BRANCH  18  19
ATOM     19  C   UNL     1      -6.457   8.565  20.659  0.00  0.00    +0.001 C 
BRANCH  19  20
ATOM     20  C   UNL     1      -6.235   9.075  22.082  0.00  0.00    +0.011 C 
BRANCH  20  21
ATOM     21  C   UNL     1      -7.164  10.237  22.422  0.00  0.00    +0.120 C 
BRANCH  21  22
ATOM     22  C   UNL     1      -6.691  10.983  23.648  0.00  0.00    +0.305 C 
ATOM     23  O   UNL     1      -6.319  10.469  24.691  0.00  0.00    -0.251 OA
BRANCH  22  24
ATOM     24  O   UNL     1      -6.718  12.325  23.477  0.00  0.00    -0.481 OA
ATOM     25  H   UNL     1      -5.950  12.785  23.864  0.00  0.00    +0.295 HD
ENDBRANCH  22  24
ENDBRANCH  21  22
ENDBRANCH  20  21
ENDBRANCH  19  20
ENDBRANCH  18  19
ENDBRANCH  17  18
ENDBRANCH  16  17
ENDBRANCH  15  16
ENDBRANCH  14  15
ENDBRANCH  13  14
ENDBRANCH  12  13
ENDBRANCH  10  12
ENDBRANCH   6   8
ENDBRANCH   5   6
ENDBRANCH   1   5
BRANCH   3  26
ATOM     26  C   UNL     1      -2.685   9.163  28.600  0.00  0.00    +0.141 C 
BRANCH  26  27
ATOM     27  C   UNL     1      -3.305   9.812  29.833  0.00  0.00    +0.163 C 
BRANCH  27  28
ATOM     28  O   UNL     1      -2.292  10.493  30.592  0.00  0.00    -0.388 OA
ATOM     29  H   UNL     1      -2.660  11.295  30.971  0.00  0.00    +0.210 HD
ENDBRANCH  27  28
BRANCH  27  30
ATOM     30  C   UNL     1      -4.415  10.785  29.400  0.00  0.00    +0.175 C 
BRANCH  30  31
ATOM     31  C   UNL     1      -4.288  12.151  30.090  0.00  0.00    +0.176 C 
ATOM     32  O   UNL     1      -4.399  11.940  31.524  0.00  0.00    -0.332 OA
ATOM     33  C   UNL     1      -4.195  13.128  32.358  0.00  0.00    +0.277 C 
ATOM     34  C   UNL     1      -5.150  14.266  31.921  0.00  0.00    +0.110 C 
ATOM     35  C   UNL     1      -5.090  14.506  30.398  0.00  0.00    +0.143 C 
ATOM     36  C   UNL     1      -5.312  13.204  29.628  0.00  0.00    +0.133 C 
BRANCH  36  37
ATOM     37  N   UNL     1      -5.167  13.429  28.181  0.00  0.00    -0.308 N 
ATOM     38  H   UNL     1      -4.259  13.707  27.836  0.00  0.00    +0.149 HD
ATOM     39  C   UNL     1      -6.157  13.291  27.295  0.00  0.00    +0.210 C 
ATOM     40  C   UNL     1      -7.535  12.893  27.856  0.00  0.00    +0.109 C 
ATOM     41  O   UNL     1      -6.003  13.473  26.086  0.00  0.00    -0.276 OA
ENDBRANCH  36  37
BRANCH  33  42
ATOM     42  C   UNL     1      -2.734  13.617  32.265  0.00  0.00    +0.414 C 
ATOM     43  O   UNL     1      -2.489  14.812  32.105  0.00  0.00    -0.240 OA
ATOM     44  O   UNL     1      -1.802  12.817  32.350  0.00  0.00    -0.240 OA
ENDBRANCH  33  42
BRANCH  35  45
ATOM     45  O   UNL     1      -6.091  15.453  30.020  0.00  0.00    -0.390 OA
ATOM     46  H   UNL     1      -6.107  15.538  29.064  0.00  0.00    +0.210 HD
ENDBRANCH  35  45
BRANCH  33  47
ATOM     47  O   UNL     1      -4.504  12.772  33.730  0.00  0.00    -0.343 OA
ATOM     48  C   UNL     1      -5.878  13.009  34.128  0.00  0.00    +0.198 C 
ENDBRANCH  33  47
ENDBRANCH  30  31
BRANCH  30  49
ATOM     49  O   UNL     1      -5.710  10.212  29.667  0.00  0.00    -0.387 OA
ATOM     50  H   UNL     1      -5.664   9.672  30.460  0.00  0.00    +0.210 HD
ENDBRANCH  30  49
ENDBRANCH  27  30
ENDBRANCH  26  27
ENDBRANCH   3  26
TORSDOF 25
