REMARK VINA RESULT:    -4.040      3.557      5.522
REMARK INTER + INTRA:         -10.441
REMARK INTER:                  -7.257
REMARK INTRA:                  -3.184
REMARK UNBOUND:                -3.213
REMARK  Name = lig_assembled_46.pdb
REMARK  17 active torsions:
REMARK  status: ('A' for Active; 'I' for Inactive)
REMARK    1  A    between atoms: _2  and  _9
REMARK    2  A    between atoms: _4  and  _19
REMARK    3  A    between atoms: _6  and  _7
REMARK    4  A    between atoms: _6  and  _19
REMARK    5  A    between atoms: _9  and  _10
REMARK    6  A    between atoms: _15  and  _35
REMARK    7  A    between atoms: _17  and  _23
REMARK    8  A    between atoms: _18  and  _22
REMARK    9  A    between atoms: _22  and  _23
REMARK   10  A    between atoms: _25  and  _26
REMARK   11  A    between atoms: _27  and  _28
REMARK   12  A    between atoms: _29  and  _31
REMARK   13  A    between atoms: _31  and  _32
REMARK   14  A    between atoms: _31  and  _33
REMARK   15  A    between atoms: _33  and  _34
REMARK   16  A    between atoms: _33  and  _35
REMARK   17  A    between atoms: _36  and  _38
REMARK                            x       y       z     vdW  Elec       q    Type
REMARK                         _______ _______ _______ _____ _____    ______ ____
ROOT
ATOM      1  C   UNL     1      -2.868  11.155  31.252  0.00  0.00    +0.163 C 
ENDROOT
BRANCH   1   2
ATOM      2  O   UNL     1      -1.940  11.052  32.345  0.00  0.00    -0.388 OA
ATOM      3  H   UNL     1      -2.077  10.220  32.804  0.00  0.00    +0.210 HD
ENDBRANCH   1   2
BRANCH   1   4
ATOM      4  C   UNL     1      -3.821  12.322  31.485  0.00  0.00    +0.141 C 
BRANCH   4   7
ATOM      5  C   UNL     1      -5.621  12.791  29.858  0.00  0.00    +0.401 C 
ATOM      6  O   UNL     1      -6.500  12.251  30.533  0.00  0.00    -0.226 OA
ATOM      7  N   UNL     1      -4.341  12.865  30.223  0.00  0.00    -0.279 N 
ATOM      8  H   UNL     1      -3.691  13.320  29.597  0.00  0.00    +0.152 HD
BRANCH   5   9
ATOM      9  O   UNL     1      -5.971  13.377  28.601  0.00  0.00    -0.444 OA
BRANCH   9  10
ATOM     10  C   UNL     1      -6.482  12.365  27.729  0.00  0.00    +0.292 C 
BRANCH  10  12
ATOM     11  N   UNL     1      -5.998  14.075  26.006  0.00  0.00    -0.131 NA
ATOM     12  C   UNL     1      -6.544  12.866  26.342  0.00  0.00    +0.120 A 
ATOM     13  C   UNL     1      -7.063  12.275  25.210  0.00  0.00    +0.137 A 
ATOM     14  N   UNL     1      -6.750  13.149  24.208  0.00  0.00    -0.247 N 
ATOM     15  N   UNL     1      -6.121  14.237  24.694  0.00  0.00    -0.065 NA
BRANCH  14  16
ATOM     16  C   UNL     1      -6.788  12.904  22.777  0.00  0.00    +0.180 C 
BRANCH  16  17
ATOM     17  C   UNL     1      -5.547  12.234  22.242  0.00  0.00    -0.026 A 
ATOM     18  C   UNL     1      -4.441  12.990  21.823  0.00  0.00    +0.005 A 
ATOM     19  C   UNL     1      -3.262  12.358  21.420  0.00  0.00    +0.000 A 
ATOM     20  C   UNL     1      -3.173  10.968  21.434  0.00  0.00    +0.000 A 
ATOM     21  C   UNL     1      -4.266  10.206  21.839  0.00  0.00    +0.000 A 
ATOM     22  C   UNL     1      -5.447  10.834  22.242  0.00  0.00    +0.005 A 
ENDBRANCH  16  17
ENDBRANCH  14  16
ENDBRANCH  10  12
ENDBRANCH   9  10
ENDBRANCH   5   9
ENDBRANCH   4   7
ENDBRANCH   1   4
BRANCH   1  23
ATOM     23  C   UNL     1      -3.676   9.855  31.093  0.00  0.00    +0.175 C 
BRANCH  23  24
ATOM     24  C   UNL     1      -3.703   9.366  29.638  0.00  0.00    +0.176 C 
ATOM     25  O   UNL     1      -3.245  10.455  28.791  0.00  0.00    -0.332 OA
ATOM     26  C   UNL     1      -3.103  10.135  27.368  0.00  0.00    +0.277 C 
ATOM     27  C   UNL     1      -4.426   9.559  26.808  0.00  0.00    +0.110 C 
ATOM     28  C   UNL     1      -4.970   8.417  27.693  0.00  0.00    +0.143 C 
ATOM     29  C   UNL     1      -5.074   8.858  29.154  0.00  0.00    +0.133 C 
BRANCH  29  30
ATOM     30  N   UNL     1      -5.510   7.736  30.001  0.00  0.00    -0.308 N 
ATOM     31  H   UNL     1      -4.834   7.016  30.214  0.00  0.00    +0.149 HD
ATOM     32  C   UNL     1      -6.739   7.608  30.506  0.00  0.00    +0.210 C 
ATOM     33  C   UNL     1      -7.753   8.709  30.142  0.00  0.00    +0.109 C 
ATOM     34  O   UNL     1      -7.072   6.665  31.225  0.00  0.00    -0.276 OA
ENDBRANCH  29  30
BRANCH  26  35
ATOM     35  C   UNL     1      -1.963   9.119  27.146  0.00  0.00    +0.414 C 
ATOM     36  O   UNL     1      -2.030   8.302  26.228  0.00  0.00    -0.240 OA
ATOM     37  O   UNL     1      -0.978   9.115  27.885  0.00  0.00    -0.240 OA
ENDBRANCH  26  35
BRANCH  26  38
ATOM     38  O   UNL     1      -2.804  11.365  26.659  0.00  0.00    -0.343 OA
ATOM     39  C   UNL     1      -3.245  11.399  25.278  0.00  0.00    +0.198 C 
ENDBRANCH  26  38
BRANCH  28  40
ATOM     40  O   UNL     1      -6.260   8.020  27.229  0.00  0.00    -0.390 OA
ATOM     41  H   UNL     1      -6.488   8.524  26.444  0.00  0.00    +0.210 HD
ENDBRANCH  28  40
ENDBRANCH  23  24
BRANCH  23  42
ATOM     42  O   UNL     1      -5.021  10.044  31.579  0.00  0.00    -0.387 OA
ATOM     43  H   UNL     1      -5.259   9.314  32.155  0.00  0.00    +0.210 HD
ENDBRANCH  23  42
ENDBRANCH   1  23
TORSDOF 15
