REMARK VINA RESULT:    -5.124      5.408     10.821
REMARK INTER + INTRA:         -10.904
REMARK INTER:                  -8.932
REMARK INTRA:                  -1.971
REMARK UNBOUND:                -2.334
REMARK  Name = lig_assembled_65.pdb
REMARK  16 active torsions:
REMARK  status: ('A' for Active; 'I' for Inactive)
REMARK    1  A    between atoms: _8  and  _20
REMARK    2  A    between atoms: _9  and  _15
REMARK    3  A    between atoms: _10  and  _11
REMARK    4  A    between atoms: _10  and  _20
REMARK    5  A    between atoms: _16  and  _36
REMARK    6  A    between atoms: _18  and  _24
REMARK    7  A    between atoms: _19  and  _23
REMARK    8  A    between atoms: _23  and  _24
REMARK    9  A    between atoms: _26  and  _27
REMARK   10  A    between atoms: _28  and  _29
REMARK   11  A    between atoms: _30  and  _32
REMARK   12  A    between atoms: _32  and  _33
REMARK   13  A    between atoms: _32  and  _34
REMARK   14  A    between atoms: _34  and  _35
REMARK   15  A    between atoms: _34  and  _36
REMARK   16  A    between atoms: _37  and  _39
REMARK                            x       y       z     vdW  Elec       q    Type
REMARK                         _______ _______ _______ _____ _____    ______ ____
ROOT
ATOM      1  C   UNL     1      -2.905  11.772  22.880  0.00  0.00    +0.163 C 
ENDROOT
BRANCH   1   2
ATOM      2  O   UNL     1      -2.375  12.258  24.124  0.00  0.00    -0.388 OA
ATOM      3  H   UNL     1      -2.055  11.518  24.647  0.00  0.00    +0.210 HD
ENDBRANCH   1   2
BRANCH   1   4
ATOM      4  C   UNL     1      -3.729  12.862  22.202  0.00  0.00    +0.141 C 
BRANCH   4   7
ATOM      5  C   UNL     1      -5.852  12.834  20.939  0.00  0.00    +0.401 C 
ATOM      6  O   UNL     1      -6.310  13.831  21.503  0.00  0.00    -0.226 OA
ATOM      7  N   UNL     1      -4.657  12.308  21.208  0.00  0.00    -0.279 N 
ATOM      8  H   UNL     1      -4.373  11.483  20.699  0.00  0.00    +0.152 HD
BRANCH   5   9
ATOM      9  O   UNL     1      -6.636  12.183  19.936  0.00  0.00    -0.444 OA
BRANCH   9  10
ATOM     10  C   UNL     1      -5.977  10.984  19.519  0.00  0.00    +0.292 C 
BRANCH  10  12
ATOM     11  N   UNL     1      -5.802  12.192  17.364  0.00  0.00    -0.131 NA
ATOM     12  C   UNL     1      -5.426  11.145  18.161  0.00  0.00    +0.121 A 
ATOM     13  C   UNL     1      -4.520  10.367  17.480  0.00  0.00    +0.149 A 
ATOM     14  N   UNL     1      -4.377  10.979  16.253  0.00  0.00    -0.155 N 
ATOM     15  C   UNL     1      -3.556  10.551  15.168  0.00  0.00    +0.416 C 
ATOM     16  N   UNL     1      -3.544  11.282  14.047  0.00  0.00    +0.041 NA
ATOM     17  C   UNL     1      -2.769  10.809  13.073  0.00  0.00    +0.339 C 
ATOM     18  C   UNL     1      -2.724  11.576  11.789  0.00  0.00    +0.149 C 
ATOM     19  N   UNL     1      -2.040   9.697  13.161  0.00  0.00    +0.007 NA
ATOM     20  C   UNL     1      -2.133   9.041  14.307  0.00  0.00    +0.386 C 
ATOM     21  N   UNL     1      -1.404   7.878  14.435  0.00  0.00    -0.296 N 
ATOM     22  H   UNL     1      -0.630   7.868  13.785  0.00  0.00    +0.148 HD
ATOM     23  H   UNL     1      -1.204   7.674  15.403  0.00  0.00    +0.148 HD
ATOM     24  N   UNL     1      -2.851   9.425  15.347  0.00  0.00    -0.290 NA
ATOM     25  N   UNL     1      -5.158  12.088  16.208  0.00  0.00    -0.055 NA
ENDBRANCH  10  12
ENDBRANCH   9  10
ENDBRANCH   5   9
ENDBRANCH   4   7
ENDBRANCH   1   4
BRANCH   1  26
ATOM     26  C   UNL     1      -3.783  10.528  23.103  0.00  0.00    +0.175 C 
BRANCH  26  27
ATOM     27  C   UNL     1      -3.969  10.213  24.595  0.00  0.00    +0.176 C 
ATOM     28  O   UNL     1      -2.921   9.287  24.991  0.00  0.00    -0.332 OA
ATOM     29  C   UNL     1      -2.876   8.953  26.418  0.00  0.00    +0.277 C 
ATOM     30  C   UNL     1      -4.251   8.421  26.892  0.00  0.00    +0.110 C 
ATOM     31  C   UNL     1      -5.401   9.358  26.466  0.00  0.00    +0.143 C 
ATOM     32  C   UNL     1      -5.351   9.641  24.965  0.00  0.00    +0.133 C 
BRANCH  32  33
ATOM     33  N   UNL     1      -6.398  10.603  24.586  0.00  0.00    -0.308 N 
ATOM     34  H   UNL     1      -6.456  11.467  25.107  0.00  0.00    +0.149 HD
ATOM     35  C   UNL     1      -7.278  10.408  23.600  0.00  0.00    +0.210 C 
ATOM     36  C   UNL     1      -7.180   9.070  22.843  0.00  0.00    +0.109 C 
ATOM     37  O   UNL     1      -8.135  11.237  23.295  0.00  0.00    -0.276 OA
ENDBRANCH  32  33
BRANCH  29  38
ATOM     38  C   UNL     1      -2.483  10.186  27.257  0.00  0.00    +0.414 C 
ATOM     39  O   UNL     1      -2.794  10.253  28.445  0.00  0.00    -0.240 OA
ATOM     40  O   UNL     1      -1.855  11.114  26.745  0.00  0.00    -0.240 OA
ENDBRANCH  29  38
BRANCH  29  41
ATOM     41  O   UNL     1      -1.892   7.903  26.602  0.00  0.00    -0.343 OA
ATOM     42  C   UNL     1      -2.440   6.567  26.741  0.00  0.00    +0.198 C 
ENDBRANCH  29  41
BRANCH  31  43
ATOM     43  O   UNL     1      -6.656   8.757  26.790  0.00  0.00    -0.390 OA
ATOM     44  H   UNL     1      -6.540   7.810  26.898  0.00  0.00    +0.210 HD
ENDBRANCH  31  43
ENDBRANCH  26  27
BRANCH  26  45
ATOM     45  O   UNL     1      -3.215   9.391  22.423  0.00  0.00    -0.387 OA
ATOM     46  H   UNL     1      -3.304   8.610  22.975  0.00  0.00    +0.210 HD
ENDBRANCH  26  45
ENDBRANCH   1  26
TORSDOF 13
