REMARK VINA RESULT:    -4.996      3.193      9.283
REMARK INTER + INTRA:         -13.143
REMARK INTER:                 -10.158
REMARK INTRA:                  -2.985
REMARK UNBOUND:                -3.181
REMARK  Name = lig_assembled_76.pdb
REMARK  21 active torsions:
REMARK  status: ('A' for Active; 'I' for Inactive)
REMARK    1  A    between atoms: _2  and  _9
REMARK    2  A    between atoms: _4  and  _23
REMARK    3  A    between atoms: _6  and  _7
REMARK    4  A    between atoms: _6  and  _23
REMARK    5  A    between atoms: _9  and  _10
REMARK    6  A    between atoms: _10  and  _11
REMARK    7  A    between atoms: _10  and  _18
REMARK    8  A    between atoms: _11  and  _12
REMARK    9  A    between atoms: _12  and  _13
REMARK   10  A    between atoms: _19  and  _39
REMARK   11  A    between atoms: _21  and  _27
REMARK   12  A    between atoms: _22  and  _26
REMARK   13  A    between atoms: _26  and  _27
REMARK   14  A    between atoms: _29  and  _30
REMARK   15  A    between atoms: _31  and  _32
REMARK   16  A    between atoms: _33  and  _35
REMARK   17  A    between atoms: _35  and  _36
REMARK   18  A    between atoms: _35  and  _37
REMARK   19  A    between atoms: _37  and  _38
REMARK   20  A    between atoms: _37  and  _39
REMARK   21  A    between atoms: _40  and  _42
REMARK                            x       y       z     vdW  Elec       q    Type
REMARK                         _______ _______ _______ _____ _____    ______ ____
ROOT
ATOM      1  C   UNL     1      -3.685   9.058  28.328  0.00  0.00    +0.141 C 
ENDROOT
BRANCH   1   4
ATOM      2  C   UNL     1      -2.102  10.105  26.745  0.00  0.00    +0.401 C 
ATOM      3  O   UNL     1      -1.183   9.325  27.002  0.00  0.00    -0.226 OA
ATOM      4  N   UNL     1      -3.304  10.057  27.322  0.00  0.00    -0.279 N 
ATOM      5  H   UNL     1      -3.991  10.747  27.052  0.00  0.00    +0.152 HD
BRANCH   2   6
ATOM      6  O   UNL     1      -1.889  11.135  25.776  0.00  0.00    -0.444 OA
BRANCH   6   7
ATOM      7  C   UNL     1      -2.933  12.108  25.876  0.00  0.00    +0.292 C 
BRANCH   7   9
ATOM      8  N   UNL     1      -4.698  11.141  24.428  0.00  0.00    -0.131 NA
ATOM      9  C   UNL     1      -3.753  12.109  24.654  0.00  0.00    +0.120 A 
ATOM     10  C   UNL     1      -3.738  12.981  23.588  0.00  0.00    +0.137 A 
ATOM     11  N   UNL     1      -4.695  12.492  22.754  0.00  0.00    -0.249 N 
ATOM     12  N   UNL     1      -5.264  11.383  23.253  0.00  0.00    -0.065 NA
BRANCH  11  13
ATOM     13  C   UNL     1      -5.024  12.947  21.422  0.00  0.00    +0.176 C 
BRANCH  13  14
ATOM     14  C   UNL     1      -4.310  12.150  20.326  0.00  0.00    +0.136 C 
BRANCH  14  15
ATOM     15  O   UNL     1      -3.894  10.874  20.833  0.00  0.00    -0.390 OA
ATOM     16  H   UNL     1      -4.671  10.401  21.180  0.00  0.00    +0.210 HD
ENDBRANCH  14  15
BRANCH  14  17
ATOM     17  C   UNL     1      -5.211  11.889  19.108  0.00  0.00    +0.038 C 
BRANCH  17  18
ATOM     18  C   UNL     1      -4.794  10.665  18.293  0.00  0.00    +0.038 C 
BRANCH  18  19
ATOM     19  C   UNL     1      -4.319  11.037  16.913  0.00  0.00    -0.047 A 
ATOM     20  C   UNL     1      -4.376  12.370  16.481  0.00  0.00    +0.003 A 
ATOM     21  C   UNL     1      -3.920  12.722  15.210  0.00  0.00    +0.000 A 
ATOM     22  C   UNL     1      -3.408  11.745  14.359  0.00  0.00    +0.000 A 
ATOM     23  C   UNL     1      -3.357  10.415  14.776  0.00  0.00    +0.000 A 
ATOM     24  C   UNL     1      -3.814  10.062  16.046  0.00  0.00    +0.003 A 
ENDBRANCH  18  19
ENDBRANCH  17  18
ENDBRANCH  14  17
ENDBRANCH  13  14
ENDBRANCH  11  13
ENDBRANCH   7   9
ENDBRANCH   6   7
ENDBRANCH   2   6
ENDBRANCH   1   4
BRANCH   1  25
ATOM     25  C   UNL     1      -3.885   9.683  29.704  0.00  0.00    +0.163 C 
BRANCH  25  26
ATOM     26  O   UNL     1      -2.635  10.191  30.200  0.00  0.00    -0.388 OA
ATOM     27  H   UNL     1      -2.802  10.831  30.896  0.00  0.00    +0.210 HD
ENDBRANCH  25  26
BRANCH  25  28
ATOM     28  C   UNL     1      -4.936  10.803  29.612  0.00  0.00    +0.175 C 
BRANCH  28  29
ATOM     29  C   UNL     1      -4.460  12.099  30.286  0.00  0.00    +0.176 C 
ATOM     30  O   UNL     1      -4.502  11.896  31.725  0.00  0.00    -0.332 OA
ATOM     31  C   UNL     1      -3.979  13.000  32.536  0.00  0.00    +0.277 C 
ATOM     32  C   UNL     1      -4.694  14.324  32.173  0.00  0.00    +0.110 C 
ATOM     33  C   UNL     1      -4.703  14.567  30.649  0.00  0.00    +0.143 C 
ATOM     34  C   UNL     1      -5.263  13.356  29.904  0.00  0.00    +0.133 C 
BRANCH  34  35
ATOM     35  N   UNL     1      -5.186  13.565  28.449  0.00  0.00    -0.308 N 
ATOM     36  H   UNL     1      -4.270  13.613  28.028  0.00  0.00    +0.149 HD
ATOM     37  C   UNL     1      -6.249  13.696  27.650  0.00  0.00    +0.210 C 
ATOM     38  C   UNL     1      -7.631  13.644  28.327  0.00  0.00    +0.109 C 
ATOM     39  O   UNL     1      -6.154  13.855  26.433  0.00  0.00    -0.276 OA
ENDBRANCH  34  35
BRANCH  31  40
ATOM     40  C   UNL     1      -2.459  13.160  32.326  0.00  0.00    +0.414 C 
ATOM     41  O   UNL     1      -1.737  12.168  32.238  0.00  0.00    -0.240 OA
ATOM     42  O   UNL     1      -1.955  14.281  32.244  0.00  0.00    -0.240 OA
ENDBRANCH  31  40
BRANCH  33  43
ATOM     43  O   UNL     1      -5.499  15.714  30.349  0.00  0.00    -0.390 OA
ATOM     44  H   UNL     1      -5.694  15.733  29.410  0.00  0.00    +0.210 HD
ENDBRANCH  33  43
BRANCH  31  45
ATOM     45  O   UNL     1      -4.250  12.700  33.930  0.00  0.00    -0.343 OA
ATOM     46  C   UNL     1      -4.506  11.302  34.217  0.00  0.00    +0.198 C 
ENDBRANCH  31  45
ENDBRANCH  28  29
BRANCH  28  47
ATOM     47  O   UNL     1      -6.179  10.367  30.197  0.00  0.00    -0.387 OA
ATOM     48  H   UNL     1      -6.023   9.586  30.735  0.00  0.00    +0.210 HD
ENDBRANCH  28  47
ENDBRANCH  25  28
ENDBRANCH   1  25
TORSDOF 19
