REMARK VINA RESULT:    -4.870      4.890      9.826
REMARK INTER + INTRA:         -10.716
REMARK INTER:                  -8.066
REMARK INTRA:                  -2.650
REMARK UNBOUND:                -2.287
REMARK  Name = lig_assembled_52.pdb
REMARK  16 active torsions:
REMARK  status: ('A' for Active; 'I' for Inactive)
REMARK    1  A    between atoms: _2  and  _10
REMARK    2  A    between atoms: _5  and  _18
REMARK    3  A    between atoms: _7  and  _8
REMARK    4  A    between atoms: _7  and  _18
REMARK    5  A    between atoms: _14  and  _34
REMARK    6  A    between atoms: _16  and  _22
REMARK    7  A    between atoms: _17  and  _21
REMARK    8  A    between atoms: _21  and  _22
REMARK    9  A    between atoms: _24  and  _25
REMARK   10  A    between atoms: _26  and  _27
REMARK   11  A    between atoms: _28  and  _30
REMARK   12  A    between atoms: _30  and  _31
REMARK   13  A    between atoms: _30  and  _32
REMARK   14  A    between atoms: _32  and  _33
REMARK   15  A    between atoms: _32  and  _34
REMARK   16  A    between atoms: _35  and  _37
REMARK                            x       y       z     vdW  Elec       q    Type
REMARK                         _______ _______ _______ _____ _____    ______ ____
ROOT
ATOM      1  C   UNL     1      -2.971  12.093  24.155  0.00  0.00    +0.163 C 
ENDROOT
BRANCH   1   2
ATOM      2  O   UNL     1      -2.051  11.989  25.254  0.00  0.00    -0.388 OA
ATOM      3  H   UNL     1      -1.370  11.346  25.042  0.00  0.00    +0.210 HD
ENDBRANCH   1   2
BRANCH   1   4
ATOM      4  C   UNL     1      -3.942  13.245  24.394  0.00  0.00    +0.141 C 
BRANCH   4   7
ATOM      5  C   UNL     1      -4.960  14.078  22.303  0.00  0.00    +0.401 C 
ATOM      6  O   UNL     1      -4.039  14.861  22.056  0.00  0.00    -0.226 OA
ATOM      7  N   UNL     1      -5.000  13.289  23.377  0.00  0.00    -0.279 N 
ATOM      8  H   UNL     1      -5.803  12.688  23.498  0.00  0.00    +0.152 HD
BRANCH   5   9
ATOM      9  O   UNL     1      -6.065  13.999  21.399  0.00  0.00    -0.444 OA
BRANCH   9  10
ATOM     10  C   UNL     1      -6.615  12.679  21.432  0.00  0.00    +0.292 C 
BRANCH  10  12
ATOM     11  N   UNL     1      -4.995  10.861  20.999  0.00  0.00    -0.131 NA
ATOM     12  C   UNL     1      -5.871  11.791  20.519  0.00  0.00    +0.121 A 
ATOM     13  C   UNL     1      -5.901  11.712  19.146  0.00  0.00    +0.143 A 
ATOM     14  N   UNL     1      -5.030  10.695  18.828  0.00  0.00    -0.218 N 
ATOM     15  N   UNL     1      -4.485  10.202  19.966  0.00  0.00    -0.060 NA
BRANCH  14  16
ATOM     16  C   UNL     1      -4.710  10.172  17.558  0.00  0.00    +0.085 A 
ATOM     17  C   UNL     1      -4.123  10.956  16.561  0.00  0.00    +0.031 A 
ATOM     18  C   UNL     1      -3.851  10.386  15.318  0.00  0.00    +0.022 A 
ATOM     19  C   UNL     1      -4.171   9.054  15.118  0.00  0.00    +0.111 A 
ATOM     20  N   UNL     1      -4.731   8.269  16.063  0.00  0.00    -0.261 NA
ATOM     21  C   UNL     1      -4.990   8.842  17.264  0.00  0.00    +0.138 A 
ENDBRANCH  14  16
ENDBRANCH  10  12
ENDBRANCH   9  10
ENDBRANCH   5   9
ENDBRANCH   4   7
ENDBRANCH   1   4
BRANCH   1  22
ATOM     22  C   UNL     1      -3.760  10.785  23.973  0.00  0.00    +0.175 C 
BRANCH  22  23
ATOM     23  C   UNL     1      -3.875   9.992  25.284  0.00  0.00    +0.176 C 
ATOM     24  O   UNL     1      -2.868   8.944  25.262  0.00  0.00    -0.332 OA
ATOM     25  C   UNL     1      -2.758   8.145  26.486  0.00  0.00    +0.277 C 
ATOM     26  C   UNL     1      -4.132   7.542  26.865  0.00  0.00    +0.110 C 
ATOM     27  C   UNL     1      -5.243   8.614  26.870  0.00  0.00    +0.143 C 
ATOM     28  C   UNL     1      -5.266   9.386  25.550  0.00  0.00    +0.133 C 
BRANCH  28  29
ATOM     29  N   UNL     1      -6.269  10.462  25.600  0.00  0.00    -0.308 N 
ATOM     30  H   UNL     1      -6.230  11.107  26.376  0.00  0.00    +0.149 HD
ATOM     31  C   UNL     1      -7.228  10.640  24.687  0.00  0.00    +0.210 C 
ATOM     32  C   UNL     1      -7.276   9.623  23.531  0.00  0.00    +0.109 C 
ATOM     33  O   UNL     1      -8.046  11.558  24.747  0.00  0.00    -0.276 OA
ENDBRANCH  28  29
BRANCH  25  34
ATOM     34  C   UNL     1      -2.233   9.005  27.655  0.00  0.00    +0.414 C 
ATOM     35  O   UNL     1      -2.501   8.703  28.817  0.00  0.00    -0.240 OA
ATOM     36  O   UNL     1      -1.541  10.000  27.436  0.00  0.00    -0.240 OA
ENDBRANCH  25  34
BRANCH  27  37
ATOM     37  O   UNL     1      -6.512   7.992  27.074  0.00  0.00    -0.390 OA
ATOM     38  H   UNL     1      -6.405   7.038  27.075  0.00  0.00    +0.210 HD
ENDBRANCH  27  37
BRANCH  25  39
ATOM     39  O   UNL     1      -1.835   7.055  26.229  0.00  0.00    -0.343 OA
ATOM     40  C   UNL     1      -2.447   5.841  25.727  0.00  0.00    +0.198 C 
ENDBRANCH  25  39
ENDBRANCH  22  23
BRANCH  22  41
ATOM     41  O   UNL     1      -3.146   9.972  22.953  0.00  0.00    -0.387 OA
ATOM     42  H   UNL     1      -3.617  10.088  22.125  0.00  0.00    +0.210 HD
ENDBRANCH  22  41
ENDBRANCH   1  22
TORSDOF 14
