REMARK VINA RESULT:    -6.073      2.627     13.420
REMARK INTER + INTRA:         -14.795
REMARK INTER:                 -11.654
REMARK INTRA:                  -3.140
REMARK UNBOUND:                -3.396
REMARK  Name = lig_assembled_34.pdb
REMARK  19 active torsions:
REMARK  status: ('A' for Active; 'I' for Inactive)
REMARK    1  A    between atoms: _2  and  _9
REMARK    2  A    between atoms: _4  and  _37
REMARK    3  A    between atoms: _6  and  _7
REMARK    4  A    between atoms: _6  and  _37
REMARK    5  A    between atoms: _11  and  _12
REMARK    6  A    between atoms: _13  and  _14
REMARK    7  A    between atoms: _18  and  _31
REMARK    8  A    between atoms: _33  and  _53
REMARK    9  A    between atoms: _35  and  _41
REMARK   10  A    between atoms: _36  and  _40
REMARK   11  A    between atoms: _40  and  _41
REMARK   12  A    between atoms: _43  and  _44
REMARK   13  A    between atoms: _45  and  _46
REMARK   14  A    between atoms: _47  and  _49
REMARK   15  A    between atoms: _49  and  _50
REMARK   16  A    between atoms: _49  and  _51
REMARK   17  A    between atoms: _51  and  _52
REMARK   18  A    between atoms: _51  and  _53
REMARK   19  A    between atoms: _54  and  _56
REMARK                            x       y       z     vdW  Elec       q    Type
REMARK                         _______ _______ _______ _____ _____    ______ ____
ROOT
ATOM      1  N   UNL     1      -5.111  13.578  22.509  0.00  0.00    -0.131 NA
ATOM      2  C   UNL     1      -4.266  12.629  22.008  0.00  0.00    +0.121 A 
ATOM      3  C   UNL     1      -3.690  11.951  23.053  0.00  0.00    +0.143 A 
ATOM      4  N   UNL     1      -4.234  12.499  24.194  0.00  0.00    -0.220 N 
ATOM      5  N   UNL     1      -5.077  13.505  23.838  0.00  0.00    -0.060 NA
ENDROOT
BRANCH   4   6
ATOM      6  C   UNL     1      -4.030  12.095  25.541  0.00  0.00    +0.068 A 
ATOM      7  C   UNL     1      -5.133  11.900  26.379  0.00  0.00    +0.038 A 
ATOM      8  C   UNL     1      -5.003  11.624  27.762  0.00  0.00    +0.007 A 
ATOM      9  C   UNL     1      -3.708  11.465  28.297  0.00  0.00    -0.008 A 
ATOM     10  C   UNL     1      -2.598  11.615  27.431  0.00  0.00    +0.011 A 
ATOM     11  C   UNL     1      -2.750  11.943  26.073  0.00  0.00    +0.028 A 
BRANCH   9  12
ATOM     12  C   UNL     1      -3.409  11.225  29.747  0.00  0.00    +0.004 A 
ATOM     13  C   UNL     1      -3.354  12.238  30.658  0.00  0.00    +0.026 A 
ATOM     14  C   UNL     1      -3.523  13.648  30.288  0.00  0.00    +0.016 A 
ATOM     15  C   UNL     1      -3.279  14.637  31.162  0.00  0.00    +0.051 A 
ATOM     16  C   UNL     1      -2.863  14.331  32.552  0.00  0.00    +0.183 A 
ATOM     17  O   UNL     1      -2.574  15.226  33.342  0.00  0.00    -0.288 OA
ATOM     18  C   UNL     1      -2.880  12.916  32.971  0.00  0.00    +0.097 A 
ATOM     19  C   UNL     1      -3.144  11.945  32.089  0.00  0.00    +0.140 A 
ATOM     20  O   UNL     1      -3.286  10.648  32.560  0.00  0.00    -0.455 OA
ATOM     21  C   UNL     1      -3.303   9.621  31.654  0.00  0.00    +0.140 A 
ATOM     22  C   UNL     1      -3.353   8.331  32.184  0.00  0.00    +0.092 A 
ATOM     23  C   UNL     1      -3.315   7.242  31.326  0.00  0.00    +0.120 A 
ATOM     24  C   UNL     1      -3.146   7.428  29.958  0.00  0.00    +0.046 A 
ATOM     25  C   UNL     1      -3.109   8.726  29.441  0.00  0.00    +0.016 A 
ATOM     26  C   UNL     1      -3.251   9.842  30.280  0.00  0.00    +0.026 A 
BRANCH  23  27
ATOM     27  O   UNL     1      -3.457   5.995  31.858  0.00  0.00    -0.507 OA
ATOM     28  H   UNL     1      -4.294   5.629  31.530  0.00  0.00    +0.292 HD
ENDBRANCH  23  27
ENDBRANCH   9  12
BRANCH   8  29
ATOM     29  C   UNL     1      -6.285  11.599  28.570  0.00  0.00    +0.072 C 
ATOM     30  O   UNL     1      -6.866  12.720  28.732  0.00  0.00    -0.545 OA
ATOM     31  O   UNL     1      -6.648  10.501  29.087  0.00  0.00    -0.545 OA
ENDBRANCH   8  29
ENDBRANCH   4   6
BRANCH   2  32
ATOM     32  C   UNL     1      -4.067  12.433  20.559  0.00  0.00    +0.292 C 
BRANCH  32  33
ATOM     33  O   UNL     1      -3.795  11.060  20.266  0.00  0.00    -0.444 OA
BRANCH  33  34
ATOM     34  C   UNL     1      -4.739  10.580  19.305  0.00  0.00    +0.401 C 
ATOM     35  O   UNL     1      -4.989   9.373  19.261  0.00  0.00    -0.226 OA
ATOM     36  N   UNL     1      -5.302  11.488  18.505  0.00  0.00    -0.279 N 
ATOM     37  H   UNL     1      -5.040  12.456  18.624  0.00  0.00    +0.152 HD
BRANCH  36  38
ATOM     38  C   UNL     1      -6.281  11.158  17.463  0.00  0.00    +0.141 C 
BRANCH  38  39
ATOM     39  C   UNL     1      -5.656  11.169  16.072  0.00  0.00    +0.163 C 
BRANCH  39  40
ATOM     40  O   UNL     1      -4.787  12.305  15.932  0.00  0.00    -0.388 OA
ATOM     41  H   UNL     1      -5.313  13.105  15.867  0.00  0.00    +0.210 HD
ENDBRANCH  39  40
BRANCH  39  42
ATOM     42  C   UNL     1      -4.888   9.856  15.843  0.00  0.00    +0.175 C 
BRANCH  42  43
ATOM     43  C   UNL     1      -3.872   9.973  14.697  0.00  0.00    +0.176 C 
ATOM     44  O   UNL     1      -4.542  10.598  13.568  0.00  0.00    -0.332 OA
ATOM     45  C   UNL     1      -3.693  10.889  12.409  0.00  0.00    +0.277 C 
ATOM     46  C   UNL     1      -2.961   9.608  11.939  0.00  0.00    +0.110 C 
ATOM     47  C   UNL     1      -2.259   8.891  13.112  0.00  0.00    +0.143 C 
ATOM     48  C   UNL     1      -3.233   8.641  14.264  0.00  0.00    +0.133 C 
BRANCH  48  49
ATOM     49  N   UNL     1      -2.534   8.036  15.408  0.00  0.00    -0.308 N 
ATOM     50  H   UNL     1      -1.808   8.577  15.856  0.00  0.00    +0.149 HD
ATOM     51  C   UNL     1      -2.795   6.819  15.893  0.00  0.00    +0.210 C 
ATOM     52  C   UNL     1      -3.889   6.010  15.171  0.00  0.00    +0.109 C 
ATOM     53  O   UNL     1      -2.203   6.344  16.862  0.00  0.00    -0.276 OA
ENDBRANCH  48  49
BRANCH  45  54
ATOM     54  C   UNL     1      -2.656  11.980  12.750  0.00  0.00    +0.414 C 
ATOM     55  O   UNL     1      -1.616  12.071  12.100  0.00  0.00    -0.240 OA
ATOM     56  O   UNL     1      -2.861  12.768  13.674  0.00  0.00    -0.240 OA
ENDBRANCH  45  54
BRANCH  47  57
ATOM     57  O   UNL     1      -1.728   7.643  12.665  0.00  0.00    -0.390 OA
ATOM     58  H   UNL     1      -2.424   7.129  12.248  0.00  0.00    +0.210 HD
ENDBRANCH  47  57
BRANCH  45  59
ATOM     59  O   UNL     1      -4.548  11.348  11.330  0.00  0.00    -0.343 OA
ATOM     60  C   UNL     1      -5.740  12.056  11.753  0.00  0.00    +0.198 C 
ENDBRANCH  45  59
ENDBRANCH  42  43
BRANCH  42  61
ATOM     61  O   UNL     1      -5.810   8.780  15.581  0.00  0.00    -0.387 OA
ATOM     62  H   UNL     1      -5.566   8.340  14.763  0.00  0.00    +0.210 HD
ENDBRANCH  42  61
ENDBRANCH  39  42
ENDBRANCH  38  39
ENDBRANCH  36  38
ENDBRANCH  33  34
ENDBRANCH  32  33
ENDBRANCH   2  32
TORSDOF 17
