REMARK VINA RESULT:    -4.859      4.050      9.549
REMARK INTER + INTRA:         -12.440
REMARK INTER:                 -10.522
REMARK INTRA:                  -1.918
REMARK UNBOUND:                -3.320
REMARK  Name = lig_assembled_16.pdb
REMARK  19 active torsions:
REMARK  status: ('A' for Active; 'I' for Inactive)
REMARK    1  A    between atoms: _2  and  _9
REMARK    2  A    between atoms: _4  and  _22
REMARK    3  A    between atoms: _6  and  _7
REMARK    4  A    between atoms: _6  and  _22
REMARK    5  A    between atoms: _9  and  _10
REMARK    6  A    between atoms: _13  and  _14
REMARK    7  A    between atoms: _14  and  _16
REMARK    8  A    between atoms: _18  and  _38
REMARK    9  A    between atoms: _20  and  _26
REMARK   10  A    between atoms: _21  and  _25
REMARK   11  A    between atoms: _25  and  _26
REMARK   12  A    between atoms: _28  and  _29
REMARK   13  A    between atoms: _30  and  _31
REMARK   14  A    between atoms: _32  and  _34
REMARK   15  A    between atoms: _34  and  _35
REMARK   16  A    between atoms: _34  and  _36
REMARK   17  A    between atoms: _36  and  _37
REMARK   18  A    between atoms: _36  and  _38
REMARK   19  A    between atoms: _39  and  _41
REMARK                            x       y       z     vdW  Elec       q    Type
REMARK                         _______ _______ _______ _____ _____    ______ ____
ROOT
ATOM      1  C   UNL     1      -5.751  12.093  27.400  0.00  0.00    +0.163 C 
ENDROOT
BRANCH   1   2
ATOM      2  O   UNL     1      -6.424  10.924  26.904  0.00  0.00    -0.388 OA
ATOM      3  H   UNL     1      -7.370  11.084  26.882  0.00  0.00    +0.210 HD
ENDBRANCH   1   2
BRANCH   1   4
ATOM      4  C   UNL     1      -5.583  12.024  28.928  0.00  0.00    +0.175 C 
BRANCH   4   5
ATOM      5  C   UNL     1      -4.410  11.123  29.340  0.00  0.00    +0.176 C 
ATOM      6  O   UNL     1      -4.907   9.759  29.437  0.00  0.00    -0.332 OA
ATOM      7  C   UNL     1      -3.897   8.735  29.721  0.00  0.00    +0.277 C 
ATOM      8  C   UNL     1      -3.105   9.096  31.001  0.00  0.00    +0.110 C 
ATOM      9  C   UNL     1      -2.583  10.548  30.958  0.00  0.00    +0.143 C 
ATOM     10  C   UNL     1      -3.716  11.529  30.653  0.00  0.00    +0.133 C 
BRANCH  10  11
ATOM     11  N   UNL     1      -3.192  12.898  30.529  0.00  0.00    -0.308 N 
ATOM     12  H   UNL     1      -2.588  13.103  29.745  0.00  0.00    +0.149 HD
ATOM     13  C   UNL     1      -3.462  13.888  31.384  0.00  0.00    +0.210 C 
ATOM     14  C   UNL     1      -4.363  13.538  32.582  0.00  0.00    +0.109 C 
ATOM     15  O   UNL     1      -3.020  15.030  31.246  0.00  0.00    -0.276 OA
ENDBRANCH  10  11
BRANCH   7  16
ATOM     16  C   UNL     1      -2.921   8.587  28.535  0.00  0.00    +0.414 C 
ATOM     17  O   UNL     1      -1.826   8.049  28.697  0.00  0.00    -0.240 OA
ATOM     18  O   UNL     1      -3.228   9.005  27.418  0.00  0.00    -0.240 OA
ENDBRANCH   7  16
BRANCH   7  19
ATOM     19  O   UNL     1      -4.584   7.478  29.947  0.00  0.00    -0.343 OA
ATOM     20  C   UNL     1      -4.001   6.638  30.975  0.00  0.00    +0.198 C 
ENDBRANCH   7  19
BRANCH   9  21
ATOM     21  O   UNL     1      -1.993  10.885  32.214  0.00  0.00    -0.390 OA
ATOM     22  H   UNL     1      -1.170  11.356  32.065  0.00  0.00    +0.210 HD
ENDBRANCH   9  21
ENDBRANCH   4   5
BRANCH   4  23
ATOM     23  O   UNL     1      -6.803  11.564  29.541  0.00  0.00    -0.387 OA
ATOM     24  H   UNL     1      -6.594  10.961  30.258  0.00  0.00    +0.210 HD
ENDBRANCH   4  23
ENDBRANCH   1   4
BRANCH   1  25
ATOM     25  C   UNL     1      -4.381  12.225  26.742  0.00  0.00    +0.141 C 
BRANCH  25  28
ATOM     26  C   UNL     1      -3.150  11.228  24.845  0.00  0.00    +0.401 C 
ATOM     27  O   UNL     1      -2.057  11.678  25.196  0.00  0.00    -0.226 OA
ATOM     28  N   UNL     1      -4.290  11.439  25.505  0.00  0.00    -0.279 N 
ATOM     29  H   UNL     1      -5.138  11.035  25.134  0.00  0.00    +0.152 HD
BRANCH  26  30
ATOM     30  O   UNL     1      -3.226  10.432  23.660  0.00  0.00    -0.444 OA
BRANCH  30  31
ATOM     31  C   UNL     1      -3.011  11.260  22.514  0.00  0.00    +0.292 C 
BRANCH  31  33
ATOM     32  N   UNL     1      -4.294   9.473  21.375  0.00  0.00    -0.131 NA
ATOM     33  C   UNL     1      -3.758  10.735  21.357  0.00  0.00    +0.120 A 
ATOM     34  C   UNL     1      -4.070  11.340  20.160  0.00  0.00    +0.137 A 
ATOM     35  N   UNL     1      -4.873  10.431  19.538  0.00  0.00    -0.247 N 
ATOM     36  N   UNL     1      -4.963   9.290  20.244  0.00  0.00    -0.065 NA
BRANCH  35  37
ATOM     37  C   UNL     1      -5.600  10.589  18.294  0.00  0.00    +0.180 C 
BRANCH  37  38
ATOM     38  C   UNL     1      -4.699  10.371  17.099  0.00  0.00    -0.026 A 
ATOM     39  C   UNL     1      -4.432   9.076  16.631  0.00  0.00    +0.006 A 
ATOM     40  C   UNL     1      -3.630   8.883  15.503  0.00  0.00    +0.015 A 
ATOM     41  C   UNL     1      -3.073   9.977  14.836  0.00  0.00    +0.059 A 
ATOM     42  C   UNL     1      -3.316  11.275  15.308  0.00  0.00    +0.015 A 
ATOM     43  C   UNL     1      -4.114  11.465  16.441  0.00  0.00    +0.006 A 
BRANCH  41  44
ATOM     44  C   UNL     1      -2.289   9.718  13.599  0.00  0.00    +0.337 C 
ATOM     45  O   UNL     1      -1.367   8.920  13.562  0.00  0.00    -0.245 OA
BRANCH  44  46
ATOM     46  O   UNL     1      -2.662  10.464  12.543  0.00  0.00    -0.477 OA
ATOM     47  H   UNL     1      -2.026  10.489  11.806  0.00  0.00    +0.295 HD
ENDBRANCH  44  46
ENDBRANCH  41  44
ENDBRANCH  37  38
ENDBRANCH  35  37
ENDBRANCH  31  33
ENDBRANCH  30  31
ENDBRANCH  26  30
ENDBRANCH  25  28
ENDBRANCH   1  25
TORSDOF 17
