REMARK VINA RESULT:    -4.673      2.932      5.514
REMARK INTER + INTRA:         -10.861
REMARK INTER:                  -8.002
REMARK INTRA:                  -2.859
REMARK UNBOUND:                -2.363
REMARK  Name = lig_assembled_59.pdb
REMARK  18 active torsions:
REMARK  status: ('A' for Active; 'I' for Inactive)
REMARK    1  A    between atoms: _2  and  _10
REMARK    2  A    between atoms: _5  and  _20
REMARK    3  A    between atoms: _7  and  _8
REMARK    4  A    between atoms: _7  and  _20
REMARK    5  A    between atoms: _13  and  _14
REMARK    6  A    between atoms: _14  and  _15
REMARK    7  A    between atoms: _16  and  _36
REMARK    8  A    between atoms: _18  and  _24
REMARK    9  A    between atoms: _19  and  _23
REMARK   10  A    between atoms: _23  and  _24
REMARK   11  A    between atoms: _26  and  _27
REMARK   12  A    between atoms: _28  and  _29
REMARK   13  A    between atoms: _30  and  _32
REMARK   14  A    between atoms: _32  and  _33
REMARK   15  A    between atoms: _32  and  _34
REMARK   16  A    between atoms: _34  and  _35
REMARK   17  A    between atoms: _34  and  _36
REMARK   18  A    between atoms: _37  and  _39
REMARK                            x       y       z     vdW  Elec       q    Type
REMARK                         _______ _______ _______ _____ _____    ______ ____
ROOT
ATOM      1  C   UNL     1      -5.581   8.581  21.850  0.00  0.00    +0.163 C 
ENDROOT
BRANCH   1   2
ATOM      2  O   UNL     1      -5.525   8.816  20.433  0.00  0.00    -0.388 OA
ATOM      3  H   UNL     1      -5.993   9.628  20.224  0.00  0.00    +0.210 HD
ENDBRANCH   1   2
BRANCH   1   4
ATOM      4  C   UNL     1      -6.204   9.782  22.582  0.00  0.00    +0.175 C 
BRANCH   4   5
ATOM      5  C   UNL     1      -5.137  10.715  23.174  0.00  0.00    +0.176 C 
ATOM      6  O   UNL     1      -5.352  10.786  24.610  0.00  0.00    -0.332 OA
ATOM      7  C   UNL     1      -4.356  11.555  25.363  0.00  0.00    +0.277 C 
ATOM      8  C   UNL     1      -4.223  12.984  24.782  0.00  0.00    +0.110 C 
ATOM      9  C   UNL     1      -4.025  12.960  23.252  0.00  0.00    +0.143 C 
ATOM     10  C   UNL     1      -5.114  12.132  22.570  0.00  0.00    +0.133 C 
BRANCH  10  11
ATOM     11  N   UNL     1      -4.865  12.045  21.122  0.00  0.00    -0.308 N 
ATOM     12  H   UNL     1      -3.979  11.667  20.818  0.00  0.00    +0.149 HD
ATOM     13  C   UNL     1      -5.734  12.433  20.185  0.00  0.00    +0.210 C 
ATOM     14  C   UNL     1      -7.064  13.029  20.681  0.00  0.00    +0.109 C 
ATOM     15  O   UNL     1      -5.504  12.335  18.979  0.00  0.00    -0.276 OA
ENDBRANCH  10  11
BRANCH   7  16
ATOM     16  C   UNL     1      -2.982  10.853  25.326  0.00  0.00    +0.414 C 
ATOM     17  O   UNL     1      -1.952  11.497  25.522  0.00  0.00    -0.240 OA
ATOM     18  O   UNL     1      -2.904   9.645  25.100  0.00  0.00    -0.240 OA
ENDBRANCH   7  16
BRANCH   7  19
ATOM     19  O   UNL     1      -4.814  11.659  26.736  0.00  0.00    -0.343 OA
ATOM     20  C   UNL     1      -5.732  12.751  26.993  0.00  0.00    +0.198 C 
ENDBRANCH   7  19
BRANCH   9  21
ATOM     21  O   UNL     1      -4.059  14.294  22.741  0.00  0.00    -0.390 OA
ATOM     22  H   UNL     1      -4.052  14.917  23.472  0.00  0.00    +0.210 HD
ENDBRANCH   9  21
ENDBRANCH   4   5
BRANCH   4  23
ATOM     23  O   UNL     1      -7.094   9.324  23.620  0.00  0.00    -0.387 OA
ATOM     24  H   UNL     1      -7.022   8.370  23.705  0.00  0.00    +0.210 HD
ENDBRANCH   4  23
ENDBRANCH   1   4
BRANCH   1  25
ATOM     25  C   UNL     1      -6.400   7.327  22.138  0.00  0.00    +0.141 C 
BRANCH  25  28
ATOM     26  C   UNL     1      -6.231   6.086  24.268  0.00  0.00    +0.401 C 
ATOM     27  O   UNL     1      -7.320   6.480  24.693  0.00  0.00    -0.226 OA
ATOM     28  N   UNL     1      -5.721   6.436  23.087  0.00  0.00    -0.279 N 
ATOM     29  H   UNL     1      -4.815   6.068  22.831  0.00  0.00    +0.152 HD
BRANCH  26  30
ATOM     30  O   UNL     1      -5.450   5.201  25.075  0.00  0.00    -0.444 OA
BRANCH  30  31
ATOM     31  C   UNL     1      -4.064   5.372  24.767  0.00  0.00    +0.292 C 
BRANCH  31  33
ATOM     32  N   UNL     1      -2.025   6.154  25.926  0.00  0.00    -0.131 NA
ATOM     33  C   UNL     1      -3.390   6.125  25.841  0.00  0.00    +0.121 A 
ATOM     34  C   UNL     1      -3.920   6.868  26.871  0.00  0.00    +0.145 A 
ATOM     35  N   UNL     1      -2.829   7.338  27.565  0.00  0.00    -0.202 N 
ATOM     36  N   UNL     1      -1.690   6.896  26.972  0.00  0.00    -0.059 NA
BRANCH  35  37
ATOM     37  C   UNL     1      -2.832   8.148  28.732  0.00  0.00    +0.156 A 
ATOM     38  C   UNL     1      -2.728   7.538  29.981  0.00  0.00    +0.048 A 
ATOM     39  C   UNL     1      -2.774   8.335  31.123  0.00  0.00    +0.011 A 
ATOM     40  C   UNL     1      -2.916   9.719  31.003  0.00  0.00    -0.004 A 
ATOM     41  C   UNL     1      -3.012  10.240  29.715  0.00  0.00    +0.119 A 
ATOM     42  N   UNL     1      -2.964   9.495  28.585  0.00  0.00    -0.236 NA
BRANCH  40  43
ATOM     43  C   UNL     1      -3.061  10.585  32.220  0.00  0.00    +0.192 C 
BRANCH  43  44
ATOM     44  O   UNL     1      -1.988  11.508  32.330  0.00  0.00    -0.390 OA
ATOM     45  H   UNL     1      -1.305  11.083  32.880  0.00  0.00    +0.210 HD
ENDBRANCH  43  44
ENDBRANCH  40  43
ENDBRANCH  35  37
ENDBRANCH  31  33
ENDBRANCH  30  31
ENDBRANCH  26  30
ENDBRANCH  25  28
ENDBRANCH   1  25
TORSDOF 16
