REMARK VINA RESULT:    -4.382      1.337      2.218
REMARK INTER + INTRA:         -14.020
REMARK INTER:                  -8.230
REMARK INTRA:                  -5.791
REMARK UNBOUND:                -3.746
REMARK  Name = lig_assembled_30.pdb
REMARK  27 active torsions:
REMARK  status: ('A' for Active; 'I' for Inactive)
REMARK    1  A    between atoms: _2  and  _9
REMARK    2  A    between atoms: _4  and  _25
REMARK    3  A    between atoms: _5  and  _18
REMARK    4  A    between atoms: _5  and  _19
REMARK    5  A    between atoms: _6  and  _7
REMARK    6  A    between atoms: _6  and  _25
REMARK    7  A    between atoms: _9  and  _10
REMARK    8  A    between atoms: _10  and  _11
REMARK    9  A    between atoms: _11  and  _12
REMARK   10  A    between atoms: _12  and  _13
REMARK   11  A    between atoms: _13  and  _14
REMARK   12  A    between atoms: _14  and  _15
REMARK   13  A    between atoms: _15  and  _16
REMARK   14  A    between atoms: _16  and  _17
REMARK   15  A    between atoms: _17  and  _18
REMARK   16  A    between atoms: _21  and  _41
REMARK   17  A    between atoms: _23  and  _29
REMARK   18  A    between atoms: _24  and  _28
REMARK   19  A    between atoms: _28  and  _29
REMARK   20  A    between atoms: _31  and  _32
REMARK   21  A    between atoms: _33  and  _34
REMARK   22  A    between atoms: _35  and  _37
REMARK   23  A    between atoms: _37  and  _38
REMARK   24  A    between atoms: _37  and  _39
REMARK   25  A    between atoms: _39  and  _40
REMARK   26  A    between atoms: _39  and  _41
REMARK   27  A    between atoms: _42  and  _44
REMARK                            x       y       z     vdW  Elec       q    Type
REMARK                         _______ _______ _______ _____ _____    ______ ____
ROOT
ATOM      1  C   UNL     1      -2.712   6.865  26.109  0.00  0.00    +0.401 C 
ATOM      2  O   UNL     1      -2.456   5.785  25.571  0.00  0.00    -0.226 OA
ATOM      3  N   UNL     1      -3.587   7.749  25.628  0.00  0.00    -0.279 N 
ATOM      4  H   UNL     1      -3.736   8.603  26.147  0.00  0.00    +0.152 HD
ENDROOT
BRANCH   1   5
ATOM      5  O   UNL     1      -2.045   7.209  27.326  0.00  0.00    -0.444 OA
BRANCH   5   6
ATOM      6  C   UNL     1      -2.885   6.888  28.439  0.00  0.00    +0.292 C 
BRANCH   6   8
ATOM      7  N   UNL     1      -2.497   9.263  29.021  0.00  0.00    -0.131 NA
ATOM      8  C   UNL     1      -2.932   8.016  29.387  0.00  0.00    +0.120 A 
ATOM      9  C   UNL     1      -3.367   8.055  30.693  0.00  0.00    +0.137 A 
ATOM     10  N   UNL     1      -3.169   9.351  31.062  0.00  0.00    -0.251 N 
ATOM     11  N   UNL     1      -2.646  10.075  30.059  0.00  0.00    -0.065 NA
BRANCH  10  12
ATOM     12  C   UNL     1      -3.414   9.955  32.354  0.00  0.00    +0.145 C 
BRANCH  12  13
ATOM     13  C   UNL     1      -2.734  11.315  32.466  0.00  0.00    +0.023 C 
BRANCH  13  14
ATOM     14  C   UNL     1      -3.412  12.210  33.500  0.00  0.00    +0.002 C 
BRANCH  14  15
ATOM     15  C   UNL     1      -3.365  13.669  33.048  0.00  0.00    +0.000 C 
BRANCH  15  16
ATOM     16  C   UNL     1      -2.630  13.827  31.720  0.00  0.00    +0.000 C 
BRANCH  16  17
ATOM     17  C   UNL     1      -3.518  14.524  30.688  0.00  0.00    +0.000 C 
BRANCH  17  18
ATOM     18  C   UNL     1      -4.341  13.507  29.902  0.00  0.00    +0.000 C 
BRANCH  18  19
ATOM     19  C   UNL     1      -5.842  13.749  30.066  0.00  0.00    +0.001 C 
BRANCH  19  20
ATOM     20  C   UNL     1      -6.636  12.565  29.516  0.00  0.00    +0.011 C 
BRANCH  20  21
ATOM     21  C   UNL     1      -6.059  11.229  29.974  0.00  0.00    +0.120 C 
BRANCH  21  22
ATOM     22  C   UNL     1      -5.981  10.240  28.834  0.00  0.00    +0.305 C 
ATOM     23  O   UNL     1      -6.669   9.237  28.718  0.00  0.00    -0.251 OA
BRANCH  22  24
ATOM     24  O   UNL     1      -5.045  10.580  27.920  0.00  0.00    -0.481 OA
ATOM     25  H   UNL     1      -4.562  11.399  28.139  0.00  0.00    +0.295 HD
ENDBRANCH  22  24
ENDBRANCH  21  22
ENDBRANCH  20  21
ENDBRANCH  19  20
ENDBRANCH  18  19
ENDBRANCH  17  18
ENDBRANCH  16  17
ENDBRANCH  15  16
ENDBRANCH  14  15
ENDBRANCH  13  14
ENDBRANCH  12  13
ENDBRANCH  10  12
ENDBRANCH   6   8
ENDBRANCH   5   6
ENDBRANCH   1   5
BRANCH   3  26
ATOM     26  C   UNL     1      -4.346   7.551  24.387  0.00  0.00    +0.141 C 
BRANCH  26  27
ATOM     27  C   UNL     1      -5.742   8.159  24.471  0.00  0.00    +0.163 C 
BRANCH  27  28
ATOM     28  O   UNL     1      -5.941   8.757  25.763  0.00  0.00    -0.388 OA
ATOM     29  H   UNL     1      -6.560   8.225  26.270  0.00  0.00    +0.210 HD
ENDBRANCH  27  28
BRANCH  27  30
ATOM     30  C   UNL     1      -5.918   9.199  23.351  0.00  0.00    +0.175 C 
BRANCH  30  31
ATOM     31  C   UNL     1      -4.909  10.351  23.469  0.00  0.00    +0.176 C 
ATOM     32  O   UNL     1      -5.278  11.152  24.626  0.00  0.00    -0.332 OA
ATOM     33  C   UNL     1      -4.360  12.245  24.960  0.00  0.00    +0.277 C 
ATOM     34  C   UNL     1      -4.145  13.165  23.733  0.00  0.00    +0.110 C 
ATOM     35  C   UNL     1      -3.781  12.355  22.470  0.00  0.00    +0.143 C 
ATOM     36  C   UNL     1      -4.801  11.244  22.219  0.00  0.00    +0.133 C 
BRANCH  36  37
ATOM     37  N   UNL     1      -4.397  10.426  21.065  0.00  0.00    -0.308 N 
ATOM     38  H   UNL     1      -3.519   9.929  21.123  0.00  0.00    +0.149 HD
ATOM     39  C   UNL     1      -5.115  10.297  19.945  0.00  0.00    +0.210 C 
ATOM     40  C   UNL     1      -6.435  11.087  19.878  0.00  0.00    +0.109 C 
ATOM     41  O   UNL     1      -4.758   9.592  19.000  0.00  0.00    -0.276 OA
ENDBRANCH  36  37
BRANCH  33  42
ATOM     42  C   UNL     1      -3.000  11.691  25.433  0.00  0.00    +0.414 C 
ATOM     43  O   UNL     1      -1.973  12.351  25.278  0.00  0.00    -0.240 OA
ATOM     44  O   UNL     1      -2.929  10.584  25.969  0.00  0.00    -0.240 OA
ENDBRANCH  33  42
BRANCH  35  45
ATOM     45  O   UNL     1      -3.742  13.223  21.337  0.00  0.00    -0.390 OA
ATOM     46  H   UNL     1      -3.679  12.699  20.534  0.00  0.00    +0.210 HD
ENDBRANCH  35  45
BRANCH  33  47
ATOM     47  O   UNL     1      -4.963  13.030  26.020  0.00  0.00    -0.343 OA
ATOM     48  C   UNL     1      -6.400  13.195  25.919  0.00  0.00    +0.198 C 
ENDBRANCH  33  47
ENDBRANCH  30  31
BRANCH  30  49
ATOM     49  O   UNL     1      -7.264   9.715  23.359  0.00  0.00    -0.387 OA
ATOM     50  H   UNL     1      -7.856   9.069  22.967  0.00  0.00    +0.210 HD
ENDBRANCH  30  49
ENDBRANCH  27  30
ENDBRANCH  26  27
ENDBRANCH   3  26
TORSDOF 25
