REMARK VINA RESULT:    -5.420      2.087      3.695
REMARK INTER + INTRA:         -14.515
REMARK INTER:                 -11.284
REMARK INTRA:                  -3.231
REMARK UNBOUND:                -3.392
REMARK  Name = lig_assembled_47.pdb
REMARK  22 active torsions:
REMARK  status: ('A' for Active; 'I' for Inactive)
REMARK    1  A    between atoms: _2  and  _9
REMARK    2  A    between atoms: _4  and  _30
REMARK    3  A    between atoms: _6  and  _7
REMARK    4  A    between atoms: _6  and  _30
REMARK    5  A    between atoms: _9  and  _10
REMARK    6  A    between atoms: _10  and  _11
REMARK    7  A    between atoms: _10  and  _12
REMARK    8  A    between atoms: _11  and  _24
REMARK    9  A    between atoms: _12  and  _13
REMARK   10  A    between atoms: _12  and  _19
REMARK   11  A    between atoms: _26  and  _46
REMARK   12  A    between atoms: _28  and  _34
REMARK   13  A    between atoms: _29  and  _33
REMARK   14  A    between atoms: _33  and  _34
REMARK   15  A    between atoms: _36  and  _37
REMARK   16  A    between atoms: _38  and  _39
REMARK   17  A    between atoms: _40  and  _42
REMARK   18  A    between atoms: _42  and  _43
REMARK   19  A    between atoms: _42  and  _44
REMARK   20  A    between atoms: _44  and  _45
REMARK   21  A    between atoms: _44  and  _46
REMARK   22  A    between atoms: _47  and  _49
REMARK                            x       y       z     vdW  Elec       q    Type
REMARK                         _______ _______ _______ _____ _____    ______ ____
ROOT
ATOM      1  C   UNL     1      -4.132  13.761  22.689  0.00  0.00    +0.401 C 
ATOM      2  O   UNL     1      -5.004  14.622  22.828  0.00  0.00    -0.226 OA
ATOM      3  N   UNL     1      -3.678  12.994  23.681  0.00  0.00    -0.279 N 
ATOM      4  H   UNL     1      -2.967  12.308  23.466  0.00  0.00    +0.152 HD
ENDROOT
BRANCH   3   5
ATOM      5  C   UNL     1      -4.153  13.089  25.067  0.00  0.00    +0.141 C 
BRANCH   5   6
ATOM      6  C   UNL     1      -4.105  11.740  25.778  0.00  0.00    +0.163 C 
BRANCH   6   7
ATOM      7  O   UNL     1      -3.017  10.953  25.266  0.00  0.00    -0.388 OA
ATOM      8  H   UNL     1      -3.258  10.023  25.283  0.00  0.00    +0.210 HD
ENDBRANCH   6   7
BRANCH   6   9
ATOM      9  C   UNL     1      -3.958  11.963  27.293  0.00  0.00    +0.175 C 
BRANCH   9  10
ATOM     10  C   UNL     1      -3.480  10.697  28.019  0.00  0.00    +0.176 C 
ATOM     11  O   UNL     1      -4.123   9.553  27.393  0.00  0.00    -0.332 OA
ATOM     12  C   UNL     1      -3.702   8.239  27.890  0.00  0.00    +0.277 C 
ATOM     13  C   UNL     1      -3.877   8.161  29.427  0.00  0.00    +0.110 C 
ATOM     14  C   UNL     1      -3.237   9.374  30.135  0.00  0.00    +0.143 C 
ATOM     15  C   UNL     1      -3.742  10.687  29.537  0.00  0.00    +0.133 C 
BRANCH  15  16
ATOM     16  N   UNL     1      -3.061  11.833  30.161  0.00  0.00    -0.308 N 
ATOM     17  H   UNL     1      -2.082  11.970  29.952  0.00  0.00    +0.149 HD
ATOM     18  C   UNL     1      -3.652  12.703  30.984  0.00  0.00    +0.210 C 
ATOM     19  C   UNL     1      -5.138  12.451  31.303  0.00  0.00    +0.109 C 
ATOM     20  O   UNL     1      -3.060  13.662  31.480  0.00  0.00    -0.276 OA
ENDBRANCH  15  16
BRANCH  12  21
ATOM     21  C   UNL     1      -2.230   7.961  27.524  0.00  0.00    +0.414 C 
ATOM     22  O   UNL     1      -1.545   7.221  28.229  0.00  0.00    -0.240 OA
ATOM     23  O   UNL     1      -1.727   8.476  26.524  0.00  0.00    -0.240 OA
ENDBRANCH  12  21
BRANCH  12  24
ATOM     24  O   UNL     1      -4.555   7.235  27.281  0.00  0.00    -0.343 OA
ATOM     25  C   UNL     1      -5.978   7.456  27.451  0.00  0.00    +0.198 C 
ENDBRANCH  12  24
BRANCH  14  26
ATOM     26  O   UNL     1      -3.552   9.339  31.528  0.00  0.00    -0.390 OA
ATOM     27  H   UNL     1      -4.456   9.635  31.660  0.00  0.00    +0.210 HD
ENDBRANCH  14  26
ENDBRANCH   9  10
BRANCH   9  28
ATOM     28  O   UNL     1      -5.207  12.415  27.852  0.00  0.00    -0.387 OA
ATOM     29  H   UNL     1      -5.538  11.758  28.469  0.00  0.00    +0.210 HD
ENDBRANCH   9  28
ENDBRANCH   6   9
ENDBRANCH   5   6
ENDBRANCH   3   5
BRANCH   1  30
ATOM     30  O   UNL     1      -3.561  13.553  21.395  0.00  0.00    -0.444 OA
BRANCH  30  31
ATOM     31  C   UNL     1      -2.996  12.241  21.327  0.00  0.00    +0.292 C 
BRANCH  31  33
ATOM     32  N   UNL     1      -4.113  10.055  20.958  0.00  0.00    -0.131 NA
ATOM     33  C   UNL     1      -3.853  11.333  20.538  0.00  0.00    +0.120 A 
ATOM     34  C   UNL     1      -4.480  11.542  19.330  0.00  0.00    +0.137 A 
ATOM     35  N   UNL     1      -5.063  10.342  19.047  0.00  0.00    -0.251 N 
ATOM     36  N   UNL     1      -4.858   9.457  20.037  0.00  0.00    -0.065 NA
BRANCH  35  37
ATOM     37  C   UNL     1      -5.691   9.920  17.803  0.00  0.00    +0.160 C 
BRANCH  37  38
ATOM     38  C   UNL     1      -4.815   9.004  16.944  0.00  0.00    +0.131 C 
BRANCH  38  39
ATOM     39  C   UNL     1      -5.282   7.573  17.179  0.00  0.00    +0.311 C 
ATOM     40  O   UNL     1      -6.126   7.028  16.483  0.00  0.00    -0.251 OA
BRANCH  39  41
ATOM     41  O   UNL     1      -4.639   6.873  18.136  0.00  0.00    -0.480 OA
ATOM     42  H   UNL     1      -4.144   7.358  18.817  0.00  0.00    +0.295 HD
ENDBRANCH  39  41
ENDBRANCH  38  39
BRANCH  38  43
ATOM     43  C   UNL     1      -4.786   9.366  15.425  0.00  0.00    +0.064 C 
BRANCH  43  44
ATOM     44  C   UNL     1      -4.795  10.860  15.097  0.00  0.00    -0.039 A 
ATOM     45  C   UNL     1      -5.748  11.372  14.196  0.00  0.00    +0.004 A 
ATOM     46  C   UNL     1      -5.784  12.733  13.875  0.00  0.00    +0.000 A 
ATOM     47  C   UNL     1      -4.856  13.606  14.435  0.00  0.00    +0.000 A 
ATOM     48  C   UNL     1      -3.895  13.116  15.313  0.00  0.00    +0.000 A 
ATOM     49  C   UNL     1      -3.870  11.758  15.650  0.00  0.00    +0.004 A 
ENDBRANCH  43  44
BRANCH  43  50
ATOM     50  C   UNL     1      -3.655   8.605  14.720  0.00  0.00    -0.039 A 
ATOM     51  C   UNL     1      -2.342   8.665  15.216  0.00  0.00    +0.004 A 
ATOM     52  C   UNL     1      -1.282   8.119  14.486  0.00  0.00    +0.000 A 
ATOM     53  C   UNL     1      -1.520   7.486  13.268  0.00  0.00    +0.000 A 
ATOM     54  C   UNL     1      -2.817   7.385  12.783  0.00  0.00    +0.000 A 
ATOM     55  C   UNL     1      -3.875   7.940  13.502  0.00  0.00    +0.004 A 
ENDBRANCH  43  50
ENDBRANCH  38  43
ENDBRANCH  37  38
ENDBRANCH  35  37
ENDBRANCH  31  33
ENDBRANCH  30  31
ENDBRANCH   1  30
TORSDOF 20
