REMARK VINA RESULT:    -4.348      5.080     13.080
REMARK INTER + INTRA:         -11.919
REMARK INTER:                  -9.310
REMARK INTRA:                  -2.610
REMARK UNBOUND:                -3.885
REMARK  Name = lig_assembled_79.pdb
REMARK  20 active torsions:
REMARK  status: ('A' for Active; 'I' for Inactive)
REMARK    1  A    between atoms: _2  and  _10
REMARK    2  A    between atoms: _5  and  _26
REMARK    3  A    between atoms: _7  and  _8
REMARK    4  A    between atoms: _7  and  _26
REMARK    5  A    between atoms: _10  and  _11
REMARK    6  A    between atoms: _10  and  _12
REMARK    7  A    between atoms: _10  and  _13
REMARK    8  A    between atoms: _13  and  _14
REMARK    9  A    between atoms: _22  and  _42
REMARK   10  A    between atoms: _24  and  _30
REMARK   11  A    between atoms: _25  and  _29
REMARK   12  A    between atoms: _29  and  _30
REMARK   13  A    between atoms: _32  and  _33
REMARK   14  A    between atoms: _34  and  _35
REMARK   15  A    between atoms: _36  and  _38
REMARK   16  A    between atoms: _38  and  _39
REMARK   17  A    between atoms: _38  and  _40
REMARK   18  A    between atoms: _40  and  _41
REMARK   19  A    between atoms: _40  and  _42
REMARK   20  A    between atoms: _43  and  _45
REMARK                            x       y       z     vdW  Elec       q    Type
REMARK                         _______ _______ _______ _____ _____    ______ ____
ROOT
ATOM      1  C   UNL     1      -5.781  11.370  18.657  0.00  0.00    +0.401 C 
ATOM      2  O   UNL     1      -5.809  10.150  18.841  0.00  0.00    -0.226 OA
ATOM      3  N   UNL     1      -6.614  12.020  17.844  0.00  0.00    -0.279 N 
ATOM      4  H   UNL     1      -6.518  13.023  17.766  0.00  0.00    +0.152 HD
ENDROOT
BRANCH   3   5
ATOM      5  C   UNL     1      -7.662  11.362  17.054  0.00  0.00    +0.141 C 
BRANCH   5   6
ATOM      6  C   UNL     1      -7.567  11.718  15.574  0.00  0.00    +0.163 C 
BRANCH   6   7
ATOM      7  O   UNL     1      -6.941  13.001  15.416  0.00  0.00    -0.388 OA
ATOM      8  H   UNL     1      -6.486  13.035  14.571  0.00  0.00    +0.210 HD
ENDBRANCH   6   7
BRANCH   6   9
ATOM      9  C   UNL     1      -6.777  10.625  14.833  0.00  0.00    +0.175 C 
BRANCH   9  10
ATOM     10  C   UNL     1      -5.440  11.148  14.288  0.00  0.00    +0.176 C 
ATOM     11  O   UNL     1      -5.686  11.723  12.975  0.00  0.00    -0.332 OA
ATOM     12  C   UNL     1      -4.534  12.372  12.341  0.00  0.00    +0.277 C 
ATOM     13  C   UNL     1      -3.335  11.394  12.268  0.00  0.00    +0.110 C 
ATOM     14  C   UNL     1      -3.055  10.733  13.634  0.00  0.00    +0.143 C 
ATOM     15  C   UNL     1      -4.321  10.093  14.203  0.00  0.00    +0.133 C 
BRANCH  15  16
ATOM     16  N   UNL     1      -4.063   9.543  15.543  0.00  0.00    -0.308 N 
ATOM     17  H   UNL     1      -3.830  10.191  16.282  0.00  0.00    +0.149 HD
ATOM     18  C   UNL     1      -4.115   8.243  15.846  0.00  0.00    +0.210 C 
ATOM     19  C   UNL     1      -4.448   7.278  14.692  0.00  0.00    +0.109 C 
ATOM     20  O   UNL     1      -3.908   7.812  16.981  0.00  0.00    -0.276 OA
ENDBRANCH  15  16
BRANCH  12  21
ATOM     21  C   UNL     1      -4.121  13.637  13.121  0.00  0.00    +0.414 C 
ATOM     22  O   UNL     1      -4.972  14.325  13.682  0.00  0.00    -0.240 OA
ATOM     23  O   UNL     1      -2.937  13.969  13.190  0.00  0.00    -0.240 OA
ENDBRANCH  12  21
BRANCH  14  24
ATOM     24  O   UNL     1      -2.047   9.733  13.487  0.00  0.00    -0.390 OA
ATOM     25  H   UNL     1      -1.568   9.878  12.668  0.00  0.00    +0.210 HD
ENDBRANCH  14  24
BRANCH  12  26
ATOM     26  O   UNL     1      -4.912  12.734  10.988  0.00  0.00    -0.343 OA
ATOM     27  C   UNL     1      -5.669  11.726  10.273  0.00  0.00    +0.198 C 
ENDBRANCH  12  26
ENDBRANCH   9  10
BRANCH   9  28
ATOM     28  O   UNL     1      -7.571  10.080  13.760  0.00  0.00    -0.387 OA
ATOM     29  H   UNL     1      -8.499  10.269  13.920  0.00  0.00    +0.210 HD
ENDBRANCH   9  28
ENDBRANCH   6   9
ENDBRANCH   5   6
ENDBRANCH   3   5
BRANCH   1  30
ATOM     30  O   UNL     1      -4.807  12.154  19.351  0.00  0.00    -0.444 OA
BRANCH  30  31
ATOM     31  C   UNL     1      -4.068  11.317  20.244  0.00  0.00    +0.292 C 
BRANCH  31  33
ATOM     32  N   UNL     1      -4.255  13.153  21.881  0.00  0.00    -0.131 NA
ATOM     33  C   UNL     1      -4.193  11.814  21.626  0.00  0.00    +0.120 A 
ATOM     34  C   UNL     1      -4.259  11.125  22.816  0.00  0.00    +0.138 A 
ATOM     35  N   UNL     1      -4.453  12.093  23.763  0.00  0.00    -0.238 N 
ATOM     36  N   UNL     1      -4.366  13.318  23.188  0.00  0.00    -0.064 NA
BRANCH  35  37
ATOM     37  C   UNL     1      -4.530  12.002  25.251  0.00  0.00    +0.122 C 
ATOM     38  C   UNL     1      -5.328  10.715  25.571  0.00  0.00    +0.044 C 
ATOM     39  C   UNL     1      -5.211  13.311  25.694  0.00  0.00    +0.044 C 
BRANCH  37  40
ATOM     40  C   UNL     1      -3.152  11.869  25.931  0.00  0.00    +0.192 C 
ATOM     41  O   UNL     1      -2.136  12.290  25.369  0.00  0.00    -0.289 OA
BRANCH  40  42
ATOM     42  C   UNL     1      -2.971  11.220  27.263  0.00  0.00    +0.045 A 
ATOM     43  C   UNL     1      -2.219  10.056  27.369  0.00  0.00    +0.095 A 
ATOM     44  N   UNL     1      -2.213   9.629  28.662  0.00  0.00    -0.360 N 
ATOM     45  H   UNL     1      -1.746   8.799  29.002  0.00  0.00    +0.165 HD
ATOM     46  C   UNL     1      -2.947  10.485  29.442  0.00  0.00    +0.047 A 
ATOM     47  C   UNL     1      -3.207  10.415  30.818  0.00  0.00    +0.026 A 
ATOM     48  C   UNL     1      -3.995  11.412  31.392  0.00  0.00    +0.002 A 
ATOM     49  C   UNL     1      -4.499  12.443  30.615  0.00  0.00    +0.001 A 
ATOM     50  C   UNL     1      -4.226  12.496  29.243  0.00  0.00    +0.011 A 
ATOM     51  C   UNL     1      -3.435  11.503  28.610  0.00  0.00    +0.010 A 
ENDBRANCH  40  42
ENDBRANCH  37  40
ENDBRANCH  35  37
ENDBRANCH  31  33
ENDBRANCH  30  31
ENDBRANCH   1  30
TORSDOF 16
