REMARK VINA RESULT:    -5.345      1.575      3.844
REMARK INTER + INTRA:         -12.011
REMARK INTER:                  -9.564
REMARK INTRA:                  -2.447
REMARK UNBOUND:                -2.447
REMARK  Name = lig_assembled_85.pdb
REMARK  19 active torsions:
REMARK  status: ('A' for Active; 'I' for Inactive)
REMARK    1  A    between atoms: _2  and  _10
REMARK    2  A    between atoms: _3  and  _6
REMARK    3  A    between atoms: _3  and  _17
REMARK    4  A    between atoms: _5  and  _23
REMARK    5  A    between atoms: _7  and  _8
REMARK    6  A    between atoms: _7  and  _23
REMARK    7  A    between atoms: _15  and  _16
REMARK    8  A    between atoms: _19  and  _39
REMARK    9  A    between atoms: _21  and  _27
REMARK   10  A    between atoms: _22  and  _26
REMARK   11  A    between atoms: _26  and  _27
REMARK   12  A    between atoms: _29  and  _30
REMARK   13  A    between atoms: _31  and  _32
REMARK   14  A    between atoms: _33  and  _35
REMARK   15  A    between atoms: _35  and  _36
REMARK   16  A    between atoms: _35  and  _37
REMARK   17  A    between atoms: _37  and  _38
REMARK   18  A    between atoms: _37  and  _39
REMARK   19  A    between atoms: _40  and  _42
REMARK                            x       y       z     vdW  Elec       q    Type
REMARK                         _______ _______ _______ _____ _____    ______ ____
ROOT
ATOM      1  C   UNL     1      -4.047  10.937  21.468  0.00  0.00    +0.141 C 
ENDROOT
BRANCH   1   4
ATOM      2  C   UNL     1      -5.079  11.264  19.247  0.00  0.00    +0.401 C 
ATOM      3  O   UNL     1      -5.022  10.070  18.941  0.00  0.00    -0.226 OA
ATOM      4  N   UNL     1      -4.641  11.758  20.405  0.00  0.00    -0.279 N 
ATOM      5  H   UNL     1      -4.722  12.753  20.561  0.00  0.00    +0.152 HD
BRANCH   2   6
ATOM      6  O   UNL     1      -5.642  12.193  18.317  0.00  0.00    -0.444 OA
BRANCH   6   7
ATOM      7  C   UNL     1      -6.321  11.480  17.280  0.00  0.00    +0.292 C 
BRANCH   7   9
ATOM      8  N   UNL     1      -6.462  11.663  14.822  0.00  0.00    -0.131 NA
ATOM      9  C   UNL     1      -5.734  11.805  15.969  0.00  0.00    +0.121 A 
ATOM     10  C   UNL     1      -4.495  12.318  15.661  0.00  0.00    +0.143 A 
ATOM     11  N   UNL     1      -4.514  12.479  14.298  0.00  0.00    -0.219 N 
ATOM     12  N   UNL     1      -5.722  12.101  13.814  0.00  0.00    -0.060 NA
BRANCH  11  13
ATOM     13  C   UNL     1      -3.539  13.037  13.443  0.00  0.00    +0.080 A 
ATOM     14  C   UNL     1      -2.698  12.285  12.608  0.00  0.00    +0.062 A 
ATOM     15  C   UNL     1      -1.608  12.951  12.001  0.00  0.00    +0.016 A 
ATOM     16  C   UNL     1      -1.375  14.317  12.195  0.00  0.00    +0.021 A 
ATOM     17  C   UNL     1      -2.260  15.057  12.965  0.00  0.00    +0.043 A 
ATOM     18 CL   UNL     1      -1.969  16.729  13.242  0.00  0.00    -0.083 Cl
ATOM     19  C   UNL     1      -3.350  14.433  13.564  0.00  0.00    +0.048 A 
BRANCH  14  20
ATOM     20  C   UNL     1      -2.742  10.821  12.317  0.00  0.00    +0.248 C 
ATOM     21  O   UNL     1      -1.929  10.139  12.947  0.00  0.00    -0.270 OA
ATOM     22  N   UNL     1      -3.582  10.240  11.360  0.00  0.00    -0.304 N 
ATOM     23  C   UNL     1      -4.675  10.869  10.631  0.00  0.00    +0.132 C 
ATOM     24  C   UNL     1      -3.481   8.793  11.203  0.00  0.00    +0.132 C 
ENDBRANCH  14  20
ENDBRANCH  11  13
ENDBRANCH   7   9
ENDBRANCH   6   7
ENDBRANCH   2   6
ENDBRANCH   1   4
BRANCH   1  25
ATOM     25  C   UNL     1      -2.874  11.642  22.142  0.00  0.00    +0.163 C 
BRANCH  25  26
ATOM     26  O   UNL     1      -2.642  12.916  21.519  0.00  0.00    -0.388 OA
ATOM     27  H   UNL     1      -3.107  13.601  22.005  0.00  0.00    +0.210 HD
ENDBRANCH  25  26
BRANCH  25  28
ATOM     28  C   UNL     1      -3.170  11.810  23.643  0.00  0.00    +0.175 C 
BRANCH  28  29
ATOM     29  C   UNL     1      -4.500  12.537  23.892  0.00  0.00    +0.176 C 
ATOM     30  O   UNL     1      -4.381  13.883  23.356  0.00  0.00    -0.332 OA
ATOM     31  C   UNL     1      -5.599  14.697  23.410  0.00  0.00    +0.277 C 
ATOM     32  C   UNL     1      -6.147  14.756  24.857  0.00  0.00    +0.110 C 
ATOM     33  C   UNL     1      -6.262  13.349  25.480  0.00  0.00    +0.143 C 
ATOM     34  C   UNL     1      -4.939  12.590  25.367  0.00  0.00    +0.133 C 
BRANCH  34  35
ATOM     35  N   UNL     1      -5.085  11.220  25.885  0.00  0.00    -0.308 N 
ATOM     36  H   UNL     1      -5.779  10.625  25.455  0.00  0.00    +0.149 HD
ATOM     37  C   UNL     1      -4.362  10.714  26.887  0.00  0.00    +0.210 C 
ATOM     38  C   UNL     1      -3.332  11.656  27.539  0.00  0.00    +0.109 C 
ATOM     39  O   UNL     1      -4.496   9.558  27.291  0.00  0.00    -0.276 OA
ENDBRANCH  34  35
BRANCH  31  40
ATOM     40  C   UNL     1      -6.682  14.124  22.471  0.00  0.00    +0.414 C 
ATOM     41  O   UNL     1      -6.386  13.760  21.334  0.00  0.00    -0.240 OA
ATOM     42  O   UNL     1      -7.849  14.025  22.852  0.00  0.00    -0.240 OA
ENDBRANCH  31  40
BRANCH  33  43
ATOM     43  O   UNL     1      -6.624  13.460  26.857  0.00  0.00    -0.390 OA
ATOM     44  H   UNL     1      -5.947  13.051  27.401  0.00  0.00    +0.210 HD
ENDBRANCH  33  43
BRANCH  31  45
ATOM     45  O   UNL     1      -5.257  16.045  22.995  0.00  0.00    -0.343 OA
ATOM     46  C   UNL     1      -4.115  16.141  22.107  0.00  0.00    +0.198 C 
ENDBRANCH  31  45
ENDBRANCH  28  29
BRANCH  28  47
ATOM     47  O   UNL     1      -2.090  12.516  24.286  0.00  0.00    -0.387 OA
ATOM     48  H   UNL     1      -2.421  12.962  25.070  0.00  0.00    +0.210 HD
ENDBRANCH  28  47
ENDBRANCH  25  28
ENDBRANCH   1  25
TORSDOF 15
