REMARK VINA RESULT:    -3.739      2.580      4.720
REMARK INTER + INTRA:         -12.172
REMARK INTER:                  -7.936
REMARK INTRA:                  -4.236
REMARK UNBOUND:                -4.498
REMARK  Name = lig_assembled_33.pdb
REMARK  22 active torsions:
REMARK  status: ('A' for Active; 'I' for Inactive)
REMARK    1  A    between atoms: _2  and  _9
REMARK    2  A    between atoms: _4  and  _20
REMARK    3  A    between atoms: _5  and  _13
REMARK    4  A    between atoms: _5  and  _14
REMARK    5  A    between atoms: _6  and  _7
REMARK    6  A    between atoms: _6  and  _20
REMARK    7  A    between atoms: _9  and  _10
REMARK    8  A    between atoms: _10  and  _11
REMARK    9  A    between atoms: _11  and  _12
REMARK   10  A    between atoms: _12  and  _13
REMARK   11  A    between atoms: _16  and  _36
REMARK   12  A    between atoms: _18  and  _24
REMARK   13  A    between atoms: _19  and  _23
REMARK   14  A    between atoms: _23  and  _24
REMARK   15  A    between atoms: _26  and  _27
REMARK   16  A    between atoms: _28  and  _29
REMARK   17  A    between atoms: _30  and  _32
REMARK   18  A    between atoms: _32  and  _33
REMARK   19  A    between atoms: _32  and  _34
REMARK   20  A    between atoms: _34  and  _35
REMARK   21  A    between atoms: _34  and  _36
REMARK   22  A    between atoms: _37  and  _39
REMARK                            x       y       z     vdW  Elec       q    Type
REMARK                         _______ _______ _______ _____ _____    ______ ____
ROOT
ATOM      1  C   UNL     1      -4.493  13.084  29.351  0.00  0.00    +0.163 C 
ENDROOT
BRANCH   1   2
ATOM      2  O   UNL     1      -4.098  13.948  30.429  0.00  0.00    -0.388 OA
ATOM      3  H   UNL     1      -4.680  13.811  31.180  0.00  0.00    +0.210 HD
ENDBRANCH   1   2
BRANCH   1   4
ATOM      4  C   UNL     1      -4.646  11.632  29.837  0.00  0.00    +0.175 C 
BRANCH   4   5
ATOM      5  C   UNL     1      -3.773  10.659  29.031  0.00  0.00    +0.176 C 
ATOM      6  O   UNL     1      -4.311  10.588  27.682  0.00  0.00    -0.332 OA
ATOM      7  C   UNL     1      -3.538   9.780  26.733  0.00  0.00    +0.277 C 
ATOM      8  C   UNL     1      -3.325   8.350  27.288  0.00  0.00    +0.110 C 
ATOM      9  C   UNL     1      -2.783   8.375  28.733  0.00  0.00    +0.143 C 
ATOM     10  C   UNL     1      -3.661   9.245  29.633  0.00  0.00    +0.133 C 
BRANCH  10  11
ATOM     11  N   UNL     1      -3.087   9.331  30.985  0.00  0.00    -0.308 N 
ATOM     12  H   UNL     1      -2.157   9.715  31.079  0.00  0.00    +0.149 HD
ATOM     13  C   UNL     1      -3.714   8.934  32.095  0.00  0.00    +0.210 C 
ATOM     14  C   UNL     1      -5.119   8.329  31.915  0.00  0.00    +0.109 C 
ATOM     15  O   UNL     1      -3.214   9.031  33.217  0.00  0.00    -0.276 OA
ENDBRANCH  10  11
BRANCH   7  16
ATOM     16  C   UNL     1      -2.169  10.432  26.448  0.00  0.00    +0.414 C 
ATOM     17  O   UNL     1      -1.159   9.737  26.353  0.00  0.00    -0.240 OA
ATOM     18  O   UNL     1      -2.075  11.653  26.314  0.00  0.00    -0.240 OA
ENDBRANCH   7  16
BRANCH   9  19
ATOM     19  O   UNL     1      -2.746   7.046  29.255  0.00  0.00    -0.390 OA
ATOM     20  H   UNL     1      -2.665   6.419  28.532  0.00  0.00    +0.210 HD
ENDBRANCH   9  19
BRANCH   7  21
ATOM     21  O   UNL     1      -4.299   9.684  25.502  0.00  0.00    -0.343 OA
ATOM     22  C   UNL     1      -4.133   8.441  24.774  0.00  0.00    +0.198 C 
ENDBRANCH   7  21
ENDBRANCH   4   5
BRANCH   4  23
ATOM     23  O   UNL     1      -6.028  11.230  29.773  0.00  0.00    -0.387 OA
ATOM     24  H   UNL     1      -6.579  12.000  29.615  0.00  0.00    +0.210 HD
ENDBRANCH   4  23
ENDBRANCH   1   4
BRANCH   1  25
ATOM     25  C   UNL     1      -5.813  13.563  28.756  0.00  0.00    +0.141 C 
BRANCH  25  28
ATOM     26  C   UNL     1      -7.141  13.216  26.701  0.00  0.00    +0.401 C 
ATOM     27  O   UNL     1      -8.154  13.757  27.152  0.00  0.00    -0.226 OA
ATOM     28  N   UNL     1      -6.004  13.076  27.384  0.00  0.00    -0.279 N 
ATOM     29  H   UNL     1      -5.231  12.609  26.933  0.00  0.00    +0.152 HD
BRANCH  26  30
ATOM     30  O   UNL     1      -7.166  12.695  25.370  0.00  0.00    -0.444 OA
BRANCH  30  31
ATOM     31  C   UNL     1      -7.747  13.660  24.490  0.00  0.00    +0.292 C 
BRANCH  31  33
ATOM     32  N   UNL     1      -6.945  14.480  22.298  0.00  0.00    -0.131 NA
ATOM     33  C   UNL     1      -7.298  13.430  23.104  0.00  0.00    +0.120 A 
ATOM     34  C   UNL     1      -7.158  12.254  22.399  0.00  0.00    +0.137 A 
ATOM     35  N   UNL     1      -6.708  12.658  21.178  0.00  0.00    -0.251 N 
ATOM     36  N   UNL     1      -6.598  13.996  21.115  0.00  0.00    -0.065 NA
BRANCH  35  37
ATOM     37  C   UNL     1      -6.378  11.841  20.029  0.00  0.00    +0.145 C 
BRANCH  37  38
ATOM     38  C   UNL     1      -4.910  11.977  19.630  0.00  0.00    +0.023 C 
BRANCH  38  39
ATOM     39  C   UNL     1      -3.990  11.071  20.454  0.00  0.00    +0.002 C 
BRANCH  39  40
ATOM     40  C   UNL     1      -3.084  11.924  21.346  0.00  0.00    +0.011 C 
BRANCH  40  41
ATOM     41  C   UNL     1      -3.310  11.669  22.834  0.00  0.00    +0.120 C 
BRANCH  41  42
ATOM     42  C   UNL     1      -3.711  12.938  23.553  0.00  0.00    +0.305 C 
ATOM     43  O   UNL     1      -3.560  14.071  23.125  0.00  0.00    -0.251 OA
BRANCH  42  44
ATOM     44  O   UNL     1      -4.280  12.691  24.756  0.00  0.00    -0.481 OA
ATOM     45  H   UNL     1      -4.225  13.438  25.379  0.00  0.00    +0.295 HD
ENDBRANCH  42  44
ENDBRANCH  41  42
ENDBRANCH  40  41
ENDBRANCH  39  40
ENDBRANCH  38  39
ENDBRANCH  37  38
ENDBRANCH  35  37
ENDBRANCH  31  33
ENDBRANCH  30  31
ENDBRANCH  26  30
ENDBRANCH  25  28
ENDBRANCH   1  25
TORSDOF 20
