REMARK VINA RESULT:    -4.628      4.243      9.100
REMARK INTER + INTRA:         -12.419
REMARK INTER:                  -9.560
REMARK INTRA:                  -2.858
REMARK UNBOUND:                -2.785
REMARK  Name = lig_assembled_54.pdb
REMARK  24 active torsions:
REMARK  status: ('A' for Active; 'I' for Inactive)
REMARK    1  A    between atoms: _2  and  _9
REMARK    2  A    between atoms: _4  and  _21
REMARK    3  A    between atoms: _5  and  _14
REMARK    4  A    between atoms: _6  and  _7
REMARK    5  A    between atoms: _6  and  _21
REMARK    6  A    between atoms: _9  and  _10
REMARK    7  A    between atoms: _10  and  _11
REMARK    8  A    between atoms: _11  and  _15
REMARK    9  A    between atoms: _11  and  _16
REMARK   10  A    between atoms: _12  and  _13
REMARK   11  A    between atoms: _12  and  _16
REMARK   12  A    between atoms: _14  and  _15
REMARK   13  A    between atoms: _17  and  _37
REMARK   14  A    between atoms: _19  and  _25
REMARK   15  A    between atoms: _20  and  _24
REMARK   16  A    between atoms: _24  and  _25
REMARK   17  A    between atoms: _27  and  _28
REMARK   18  A    between atoms: _29  and  _30
REMARK   19  A    between atoms: _31  and  _33
REMARK   20  A    between atoms: _33  and  _34
REMARK   21  A    between atoms: _33  and  _35
REMARK   22  A    between atoms: _35  and  _36
REMARK   23  A    between atoms: _35  and  _37
REMARK   24  A    between atoms: _38  and  _40
REMARK                            x       y       z     vdW  Elec       q    Type
REMARK                         _______ _______ _______ _____ _____    ______ ____
ROOT
ATOM      1  C   UNL     1      -5.050   7.540  23.195  0.00  0.00    +0.163 C 
ENDROOT
BRANCH   1   2
ATOM      2  O   UNL     1      -3.854   7.648  22.405  0.00  0.00    -0.388 OA
ATOM      3  H   UNL     1      -3.299   8.348  22.758  0.00  0.00    +0.210 HD
ENDBRANCH   1   2
BRANCH   1   4
ATOM      4  C   UNL     1      -5.409   8.892  23.836  0.00  0.00    +0.175 C 
BRANCH   4   5
ATOM      5  C   UNL     1      -4.176   9.605  24.410  0.00  0.00    +0.176 C 
ATOM      6  O   UNL     1      -4.377   9.761  25.842  0.00  0.00    -0.332 OA
ATOM      7  C   UNL     1      -3.247  10.332  26.582  0.00  0.00    +0.277 C 
ATOM      8  C   UNL     1      -2.824  11.686  25.962  0.00  0.00    +0.110 C 
ATOM      9  C   UNL     1      -2.629  11.578  24.435  0.00  0.00    +0.143 C 
ATOM     10  C   UNL     1      -3.863  10.969  23.767  0.00  0.00    +0.133 C 
BRANCH  10  11
ATOM     11  N   UNL     1      -3.632  10.790  22.325  0.00  0.00    -0.308 N 
ATOM     12  H   UNL     1      -2.942  10.110  22.038  0.00  0.00    +0.149 HD
ATOM     13  C   UNL     1      -4.275  11.469  21.370  0.00  0.00    +0.210 C 
ATOM     14  C   UNL     1      -5.301  12.516  21.841  0.00  0.00    +0.109 C 
ATOM     15  O   UNL     1      -4.071  11.288  20.169  0.00  0.00    -0.276 OA
ENDBRANCH  10  11
BRANCH   7  16
ATOM     16  C   UNL     1      -2.045   9.365  26.577  0.00  0.00    +0.414 C 
ATOM     17  O   UNL     1      -2.228   8.149  26.535  0.00  0.00    -0.240 OA
ATOM     18  O   UNL     1      -0.894   9.800  26.616  0.00  0.00    -0.240 OA
ENDBRANCH   7  16
BRANCH   9  19
ATOM     19  O   UNL     1      -2.389  12.875  23.887  0.00  0.00    -0.390 OA
ATOM     20  H   UNL     1      -1.671  12.826  23.251  0.00  0.00    +0.210 HD
ENDBRANCH   9  19
BRANCH   7  21
ATOM     21  O   UNL     1      -3.678  10.569  27.947  0.00  0.00    -0.343 OA
ATOM     22  C   UNL     1      -4.929   9.933  28.313  0.00  0.00    +0.198 C 
ENDBRANCH   7  21
ENDBRANCH   4   5
BRANCH   4  23
ATOM     23  O   UNL     1      -6.400   8.706  24.866  0.00  0.00    -0.387 OA
ATOM     24  H   UNL     1      -7.265   8.945  24.525  0.00  0.00    +0.210 HD
ENDBRANCH   4  23
ENDBRANCH   1   4
BRANCH   1  25
ATOM     25  C   UNL     1      -6.209   7.065  22.325  0.00  0.00    +0.141 C 
BRANCH  25  28
ATOM     26  C   UNL     1      -6.478   8.672  20.468  0.00  0.00    +0.401 C 
ATOM     27  O   UNL     1      -5.506   8.251  19.838  0.00  0.00    -0.226 OA
ATOM     28  N   UNL     1      -6.875   8.181  21.643  0.00  0.00    -0.279 N 
ATOM     29  H   UNL     1      -7.679   8.600  22.088  0.00  0.00    +0.152 HD
BRANCH  26  30
ATOM     30  O   UNL     1      -7.239   9.756  19.929  0.00  0.00    -0.444 OA
BRANCH  30  31
ATOM     31  C   UNL     1      -7.481   9.525  18.539  0.00  0.00    +0.292 C 
BRANCH  31  33
ATOM     32  N   UNL     1      -6.635  11.798  18.037  0.00  0.00    -0.131 NA
ATOM     33  C   UNL     1      -6.687  10.466  17.724  0.00  0.00    +0.120 A 
ATOM     34  C   UNL     1      -5.902  10.232  16.616  0.00  0.00    +0.137 A 
ATOM     35  N   UNL     1      -5.370  11.452  16.327  0.00  0.00    -0.251 N 
ATOM     36  N   UNL     1      -5.818  12.393  17.179  0.00  0.00    -0.065 NA
BRANCH  35  37
ATOM     37  C   UNL     1      -4.396  11.790  15.309  0.00  0.00    +0.150 C 
BRANCH  37  38
ATOM     38  C   UNL     1      -3.238  10.805  15.288  0.00  0.00    +0.084 C 
BRANCH  38  39
ATOM     39  C   UNL     1      -3.165   9.977  13.999  0.00  0.00    +0.252 C 
BRANCH  39  40
ATOM     40  O   UNL     1      -2.843   8.618  14.303  0.00  0.00    -0.352 OA
BRANCH  40  41
ATOM     41  C   UNL     1      -1.515   8.239  13.948  0.00  0.00    +0.159 C 
ATOM     42  C   UNL     1      -0.724   7.985  15.216  0.00  0.00    +0.034 C 
ENDBRANCH  40  41
ENDBRANCH  39  40
BRANCH  39  43
ATOM     43  O   UNL     1      -2.140  10.547  13.176  0.00  0.00    -0.352 OA
BRANCH  43  44
ATOM     44  C   UNL     1      -2.670  11.365  12.130  0.00  0.00    +0.159 C 
ATOM     45  C   UNL     1      -1.772  12.571  11.942  0.00  0.00    +0.034 C 
ENDBRANCH  43  44
ENDBRANCH  39  43
ENDBRANCH  38  39
ENDBRANCH  37  38
ENDBRANCH  35  37
ENDBRANCH  31  33
ENDBRANCH  30  31
ENDBRANCH  26  30
ENDBRANCH  25  28
ENDBRANCH   1  25
TORSDOF 20
