REMARK VINA RESULT:    -4.840      2.237      5.552
REMARK INTER + INTRA:         -13.089
REMARK INTER:                  -9.719
REMARK INTRA:                  -3.370
REMARK UNBOUND:                -3.581
REMARK  Name = lig_assembled_31.pdb
REMARK  20 active torsions:
REMARK  status: ('A' for Active; 'I' for Inactive)
REMARK    1  A    between atoms: _2  and  _11
REMARK    2  A    between atoms: _3  and  _12
REMARK    3  A    between atoms: _4  and  _14
REMARK    4  A    between atoms: _6  and  _24
REMARK    5  A    between atoms: _8  and  _9
REMARK    6  A    between atoms: _8  and  _24
REMARK    7  A    between atoms: _11  and  _12
REMARK    8  A    between atoms: _14  and  _15
REMARK    9  A    between atoms: _20  and  _40
REMARK   10  A    between atoms: _22  and  _28
REMARK   11  A    between atoms: _23  and  _27
REMARK   12  A    between atoms: _27  and  _28
REMARK   13  A    between atoms: _30  and  _31
REMARK   14  A    between atoms: _32  and  _33
REMARK   15  A    between atoms: _34  and  _36
REMARK   16  A    between atoms: _36  and  _37
REMARK   17  A    between atoms: _36  and  _38
REMARK   18  A    between atoms: _38  and  _39
REMARK   19  A    between atoms: _38  and  _40
REMARK   20  A    between atoms: _41  and  _43
REMARK                            x       y       z     vdW  Elec       q    Type
REMARK                         _______ _______ _______ _____ _____    ______ ____
ROOT
ATOM      1  C   UNL     1      -4.036  13.042  24.767  0.00  0.00    +0.401 C 
ATOM      2  O   UNL     1      -2.970  13.366  24.238  0.00  0.00    -0.226 OA
ATOM      3  N   UNL     1      -5.236  13.352  24.276  0.00  0.00    -0.279 N 
ATOM      4  H   UNL     1      -6.053  13.032  24.777  0.00  0.00    +0.152 HD
ENDROOT
BRANCH   1   5
ATOM      5  O   UNL     1      -4.007  12.284  25.979  0.00  0.00    -0.444 OA
BRANCH   5   6
ATOM      6  C   UNL     1      -2.668  11.857  26.244  0.00  0.00    +0.292 C 
BRANCH   6   8
ATOM      7  N   UNL     1      -1.462   9.699  26.378  0.00  0.00    -0.131 NA
ATOM      8  C   UNL     1      -2.631  10.402  26.493  0.00  0.00    +0.120 A 
ATOM      9  C   UNL     1      -3.641   9.538  26.852  0.00  0.00    +0.137 A 
ATOM     10  N   UNL     1      -3.023   8.325  26.929  0.00  0.00    -0.250 N 
ATOM     11  N   UNL     1      -1.714   8.425  26.649  0.00  0.00    -0.065 NA
BRANCH  10  12
ATOM     12  C   UNL     1      -3.609   7.041  27.254  0.00  0.00    +0.164 C 
BRANCH  12  13
ATOM     13  C   UNL     1      -3.605   6.795  28.755  0.00  0.00    +0.129 C 
BRANCH  13  14
ATOM     14  N   UNL     1      -2.826   7.753  29.528  0.00  0.00    -0.298 N 
ATOM     15  H   UNL     1      -1.845   7.593  29.709  0.00  0.00    +0.150 HD
ATOM     16  C   UNL     1      -3.494   8.621  30.350  0.00  0.00    +0.300 C 
ATOM     17  O   UNL     1      -4.720   8.691  30.387  0.00  0.00    -0.253 OA
ATOM     18  N   UNL     1      -2.686   9.418  31.101  0.00  0.00    -0.292 N 
ATOM     19  H   UNL     1      -1.679   9.331  31.101  0.00  0.00    +0.151 HD
BRANCH  18  20
ATOM     20  C   UNL     1      -3.296  10.373  31.997  0.00  0.00    +0.180 C 
BRANCH  20  21
ATOM     21  C   UNL     1      -3.331  11.753  31.450  0.00  0.00    +0.122 A 
ATOM     22  O   UNL     1      -2.660  12.745  32.109  0.00  0.00    -0.466 OA
ATOM     23  C   UNL     1      -2.858  13.890  31.399  0.00  0.00    +0.195 A 
ATOM     24  C   UNL     1      -3.646  13.651  30.298  0.00  0.00    +0.041 A 
ATOM     25  C   UNL     1      -3.954  12.271  30.330  0.00  0.00    +0.046 A 
ENDBRANCH  20  21
ENDBRANCH  18  20
ENDBRANCH  13  14
ENDBRANCH  12  13
ENDBRANCH  10  12
ENDBRANCH   6   8
ENDBRANCH   5   6
ENDBRANCH   1   5
BRANCH   3  26
ATOM     26  C   UNL     1      -5.438  14.131  23.048  0.00  0.00    +0.141 C 
BRANCH  26  27
ATOM     27  C   UNL     1      -5.815  13.243  21.867  0.00  0.00    +0.163 C 
BRANCH  27  28
ATOM     28  O   UNL     1      -7.022  13.727  21.255  0.00  0.00    -0.388 OA
ATOM     29  H   UNL     1      -6.931  13.697  20.299  0.00  0.00    +0.210 HD
ENDBRANCH  27  28
BRANCH  27  30
ATOM     30  C   UNL     1      -4.658  13.215  20.854  0.00  0.00    +0.175 C 
BRANCH  30  31
ATOM     31  C   UNL     1      -4.802  12.068  19.843  0.00  0.00    +0.176 C 
ATOM     32  O   UNL     1      -5.880  12.410  18.929  0.00  0.00    -0.332 OA
ATOM     33  C   UNL     1      -6.094  11.473  17.822  0.00  0.00    +0.277 C 
ATOM     34  C   UNL     1      -6.301  10.037  18.362  0.00  0.00    +0.110 C 
ATOM     35  C   UNL     1      -5.196   9.640  19.363  0.00  0.00    +0.143 C 
ATOM     36  C   UNL     1      -5.056  10.685  20.470  0.00  0.00    +0.133 C 
BRANCH  36  37
ATOM     37  N   UNL     1      -3.943  10.340  21.367  0.00  0.00    -0.308 N 
ATOM     38  H   UNL     1      -3.004  10.390  20.996  0.00  0.00    +0.149 HD
ATOM     39  C   UNL     1      -4.091   9.964  22.640  0.00  0.00    +0.210 C 
ATOM     40  C   UNL     1      -5.535   9.872  23.169  0.00  0.00    +0.109 C 
ATOM     41  O   UNL     1      -3.138   9.695  23.373  0.00  0.00    -0.276 OA
ENDBRANCH  36  37
BRANCH  33  42
ATOM     42  C   UNL     1      -4.896  11.491  16.851  0.00  0.00    +0.414 C 
ATOM     43  O   UNL     1      -4.338  12.552  16.573  0.00  0.00    -0.240 OA
ATOM     44  O   UNL     1      -4.487  10.445  16.344  0.00  0.00    -0.240 OA
ENDBRANCH  33  42
BRANCH  35  45
ATOM     45  O   UNL     1      -5.507   8.374  19.947  0.00  0.00    -0.390 OA
ATOM     46  H   UNL     1      -5.787   8.501  20.856  0.00  0.00    +0.210 HD
ENDBRANCH  35  45
BRANCH  33  47
ATOM     47  O   UNL     1      -7.298  11.876  17.120  0.00  0.00    -0.343 OA
ATOM     48  C   UNL     1      -8.456  12.094  17.965  0.00  0.00    +0.198 C 
ENDBRANCH  33  47
ENDBRANCH  30  31
BRANCH  30  49
ATOM     49  O   UNL     1      -3.396  13.114  21.544  0.00  0.00    -0.387 OA
ATOM     50  H   UNL     1      -2.825  13.837  21.275  0.00  0.00    +0.210 HD
ENDBRANCH  30  49
ENDBRANCH  27  30
ENDBRANCH  26  27
ENDBRANCH   3  26
TORSDOF 18
