REMARK VINA RESULT:    -4.544      2.613      4.095
REMARK INTER + INTRA:         -11.108
REMARK INTER:                  -7.671
REMARK INTRA:                  -3.437
REMARK UNBOUND:                -2.711
REMARK  Name = lig_assembled_36.pdb
REMARK  18 active torsions:
REMARK  status: ('A' for Active; 'I' for Inactive)
REMARK    1  A    between atoms: _2  and  _10
REMARK    2  A    between atoms: _5  and  _21
REMARK    3  A    between atoms: _7  and  _8
REMARK    4  A    between atoms: _7  and  _21
REMARK    5  A    between atoms: _10  and  _11
REMARK    6  A    between atoms: _14  and  _15
REMARK    7  A    between atoms: _17  and  _37
REMARK    8  A    between atoms: _19  and  _25
REMARK    9  A    between atoms: _20  and  _24
REMARK   10  A    between atoms: _24  and  _25
REMARK   11  A    between atoms: _27  and  _28
REMARK   12  A    between atoms: _29  and  _30
REMARK   13  A    between atoms: _31  and  _33
REMARK   14  A    between atoms: _33  and  _34
REMARK   15  A    between atoms: _33  and  _35
REMARK   16  A    between atoms: _35  and  _36
REMARK   17  A    between atoms: _35  and  _37
REMARK   18  A    between atoms: _38  and  _40
REMARK                            x       y       z     vdW  Elec       q    Type
REMARK                         _______ _______ _______ _____ _____    ______ ____
ROOT
ATOM      1  C   UNL     1      -2.942  11.735  24.659  0.00  0.00    +0.163 C 
ENDROOT
BRANCH   1   2
ATOM      2  O   UNL     1      -2.871  11.493  26.074  0.00  0.00    -0.388 OA
ATOM      3  H   UNL     1      -3.013  12.316  26.548  0.00  0.00    +0.210 HD
ENDBRANCH   1   2
BRANCH   1   4
ATOM      4  C   UNL     1      -3.885  10.731  23.976  0.00  0.00    +0.175 C 
BRANCH   4   5
ATOM      5  C   UNL     1      -4.211   9.535  24.883  0.00  0.00    +0.176 C 
ATOM      6  O   UNL     1      -2.956   8.900  25.253  0.00  0.00    -0.332 OA
ATOM      7  C   UNL     1      -3.063   7.794  26.209  0.00  0.00    +0.277 C 
ATOM      8  C   UNL     1      -4.057   6.725  25.691  0.00  0.00    +0.110 C 
ATOM      9  C   UNL     1      -5.396   7.357  25.256  0.00  0.00    +0.143 C 
ATOM     10  C   UNL     1      -5.167   8.498  24.264  0.00  0.00    +0.133 C 
BRANCH  10  11
ATOM     11  N   UNL     1      -6.442   9.148  23.923  0.00  0.00    -0.308 N 
ATOM     12  H   UNL     1      -6.921   9.660  24.651  0.00  0.00    +0.149 HD
ATOM     13  C   UNL     1      -7.009   9.107  22.714  0.00  0.00    +0.210 C 
ATOM     14  C   UNL     1      -6.268   8.298  21.633  0.00  0.00    +0.109 C 
ATOM     15  O   UNL     1      -8.071   9.673  22.453  0.00  0.00    -0.276 OA
ENDBRANCH  10  11
BRANCH   7  16
ATOM     16  C   UNL     1      -3.528   8.306  27.588  0.00  0.00    +0.414 C 
ATOM     17  O   UNL     1      -4.427   7.724  28.195  0.00  0.00    -0.240 OA
ATOM     18  O   UNL     1      -3.005   9.299  28.094  0.00  0.00    -0.240 OA
ENDBRANCH   7  16
BRANCH   7  19
ATOM     19  O   UNL     1      -1.755   7.179  26.333  0.00  0.00    -0.343 OA
ATOM     20  C   UNL     1      -1.761   5.730  26.381  0.00  0.00    +0.198 C 
ENDBRANCH   7  19
BRANCH   9  21
ATOM     21  O   UNL     1      -6.222   6.363  24.647  0.00  0.00    -0.390 OA
ATOM     22  H   UNL     1      -5.670   5.710  24.212  0.00  0.00    +0.210 HD
ENDBRANCH   9  21
ENDBRANCH   4   5
BRANCH   4  23
ATOM     23  O   UNL     1      -3.309  10.272  22.737  0.00  0.00    -0.387 OA
ATOM     24  H   UNL     1      -2.490  10.744  22.570  0.00  0.00    +0.210 HD
ENDBRANCH   4  23
ENDBRANCH   1   4
BRANCH   1  25
ATOM     25  C   UNL     1      -3.433  13.155  24.397  0.00  0.00    +0.141 C 
BRANCH  25  28
ATOM     26  C   UNL     1      -5.218  14.004  22.915  0.00  0.00    +0.401 C 
ATOM     27  O   UNL     1      -5.770  14.661  23.800  0.00  0.00    -0.226 OA
ATOM     28  N   UNL     1      -4.124  13.265  23.107  0.00  0.00    -0.279 N 
ATOM     29  H   UNL     1      -3.750  12.753  22.320  0.00  0.00    +0.152 HD
BRANCH  26  30
ATOM     30  O   UNL     1      -5.769  14.015  21.595  0.00  0.00    -0.444 OA
BRANCH  30  31
ATOM     31  C   UNL     1      -6.609  12.871  21.418  0.00  0.00    +0.292 C 
BRANCH  31  33
ATOM     32  N   UNL     1      -4.692  11.539  20.590  0.00  0.00    -0.131 NA
ATOM     33  C   UNL     1      -5.998  11.931  20.461  0.00  0.00    +0.120 A 
ATOM     34  C   UNL     1      -6.553  11.297  19.372  0.00  0.00    +0.137 A 
ATOM     35  N   UNL     1      -5.562  10.464  18.942  0.00  0.00    -0.247 N 
ATOM     36  N   UNL     1      -4.429  10.653  19.641  0.00  0.00    -0.065 NA
BRANCH  35  37
ATOM     37  C   UNL     1      -5.629   9.462  17.896  0.00  0.00    +0.180 C 
BRANCH  37  38
ATOM     38  C   UNL     1      -4.843   9.889  16.678  0.00  0.00    -0.026 A 
ATOM     39  C   UNL     1      -5.225  11.013  15.931  0.00  0.00    +0.007 A 
ATOM     40  C   UNL     1      -4.489  11.403  14.807  0.00  0.00    +0.019 A 
ATOM     41  C   UNL     1      -3.363  10.672  14.414  0.00  0.00    +0.052 A 
ATOM     42  C   UNL     1      -2.990   9.537  15.138  0.00  0.00    +0.019 A 
ATOM     43  C   UNL     1      -3.727   9.146  16.260  0.00  0.00    +0.007 A 
BRANCH  41  44
ATOM     44  C   UNL     1      -2.597  11.087  13.273  0.00  0.00    +0.099 C 
ATOM     45  N   UNL     1      -1.976  11.432  12.357  0.00  0.00    -0.191 NA
ENDBRANCH  41  44
ENDBRANCH  37  38
ENDBRANCH  35  37
ENDBRANCH  31  33
ENDBRANCH  30  31
ENDBRANCH  26  30
ENDBRANCH  25  28
ENDBRANCH   1  25
TORSDOF 16
