REMARK VINA RESULT:    -4.799      1.899      2.889
REMARK INTER + INTRA:         -11.430
REMARK INTER:                  -9.537
REMARK INTRA:                  -1.893
REMARK UNBOUND:                -2.844
REMARK  Name = lig_assembled_44.pdb
REMARK  17 active torsions:
REMARK  status: ('A' for Active; 'I' for Inactive)
REMARK    1  A    between atoms: _2  and  _9
REMARK    2  A    between atoms: _4  and  _19
REMARK    3  A    between atoms: _6  and  _7
REMARK    4  A    between atoms: _6  and  _19
REMARK    5  A    between atoms: _9  and  _10
REMARK    6  A    between atoms: _15  and  _35
REMARK    7  A    between atoms: _17  and  _23
REMARK    8  A    between atoms: _18  and  _22
REMARK    9  A    between atoms: _22  and  _23
REMARK   10  A    between atoms: _25  and  _26
REMARK   11  A    between atoms: _27  and  _28
REMARK   12  A    between atoms: _29  and  _31
REMARK   13  A    between atoms: _31  and  _32
REMARK   14  A    between atoms: _31  and  _33
REMARK   15  A    between atoms: _33  and  _34
REMARK   16  A    between atoms: _33  and  _35
REMARK   17  A    between atoms: _36  and  _38
REMARK                            x       y       z     vdW  Elec       q    Type
REMARK                         _______ _______ _______ _____ _____    ______ ____
ROOT
ATOM      1  C   UNL     1      -5.021  11.354  21.236  0.00  0.00    +0.163 C 
ENDROOT
BRANCH   1   2
ATOM      2  O   UNL     1      -5.213   9.951  20.990  0.00  0.00    -0.388 OA
ATOM      3  H   UNL     1      -4.370   9.497  21.050  0.00  0.00    +0.210 HD
ENDBRANCH   1   2
BRANCH   1   4
ATOM      4  C   UNL     1      -5.120  12.131  19.927  0.00  0.00    +0.141 C 
BRANCH   4   7
ATOM      5  C   UNL     1      -4.865  11.466  17.561  0.00  0.00    +0.401 C 
ATOM      6  O   UNL     1      -5.874  12.067  17.185  0.00  0.00    -0.226 OA
ATOM      7  N   UNL     1      -4.442  11.438  18.826  0.00  0.00    -0.279 N 
ATOM      8  H   UNL     1      -3.607  10.909  19.038  0.00  0.00    +0.152 HD
BRANCH   5   9
ATOM      9  O   UNL     1      -4.087  10.746  16.601  0.00  0.00    -0.444 OA
BRANCH   9  10
ATOM     10  C   UNL     1      -4.797  10.684  15.361  0.00  0.00    +0.292 C 
BRANCH  10  12
ATOM     11  N   UNL     1      -2.671  10.479  14.103  0.00  0.00    -0.131 NA
ATOM     12  C   UNL     1      -3.909  11.049  14.241  0.00  0.00    +0.120 A 
ATOM     13  C   UNL     1      -4.119  11.927  13.203  0.00  0.00    +0.137 A 
ATOM     14  N   UNL     1      -3.006  11.787  12.426  0.00  0.00    -0.247 N 
ATOM     15  N   UNL     1      -2.120  10.947  12.990  0.00  0.00    -0.065 NA
BRANCH  14  16
ATOM     16  C   UNL     1      -2.719  12.411  11.149  0.00  0.00    +0.180 C 
BRANCH  16  17
ATOM     17  C   UNL     1      -1.538  13.347  11.244  0.00  0.00    -0.026 A 
ATOM     18  C   UNL     1      -0.422  13.178  10.409  0.00  0.00    +0.006 A 
ATOM     19  C   UNL     1       0.676  14.034  10.510  0.00  0.00    +0.015 A 
ATOM     20  C   UNL     1       0.665  15.066  11.447  0.00  0.00    +0.018 A 
ATOM     21 BR   UNL     1       2.145  16.235  11.570  0.00  0.00    -0.050 Br
ATOM     22  C   UNL     1      -0.428  15.241  12.292  0.00  0.00    +0.015 A 
ATOM     23  C   UNL     1      -1.525  14.380  12.194  0.00  0.00    +0.006 A 
ENDBRANCH  16  17
ENDBRANCH  14  16
ENDBRANCH  10  12
ENDBRANCH   9  10
ENDBRANCH   5   9
ENDBRANCH   4   7
ENDBRANCH   1   4
BRANCH   1  24
ATOM     24  C   UNL     1      -3.652  11.616  21.887  0.00  0.00    +0.175 C 
BRANCH  24  25
ATOM     25  C   UNL     1      -3.772  11.887  23.394  0.00  0.00    +0.176 C 
ATOM     26  O   UNL     1      -4.185  10.651  24.039  0.00  0.00    -0.332 OA
ATOM     27  C   UNL     1      -4.250  10.691  25.503  0.00  0.00    +0.277 C 
ATOM     28  C   UNL     1      -5.156  11.856  25.973  0.00  0.00    +0.110 C 
ATOM     29  C   UNL     1      -4.774  13.186  25.289  0.00  0.00    +0.143 C 
ATOM     30  C   UNL     1      -4.734  13.029  23.769  0.00  0.00    +0.133 C 
BRANCH  30  31
ATOM     31  N   UNL     1      -4.285  14.279  23.134  0.00  0.00    -0.308 N 
ATOM     32  H   UNL     1      -3.323  14.555  23.266  0.00  0.00    +0.149 HD
ATOM     33  C   UNL     1      -5.067  15.070  22.395  0.00  0.00    +0.210 C 
ATOM     34  C   UNL     1      -6.535  14.634  22.234  0.00  0.00    +0.109 C 
ATOM     35  O   UNL     1      -4.660  16.104  21.863  0.00  0.00    -0.276 OA
ENDBRANCH  30  31
BRANCH  27  36
ATOM     36  C   UNL     1      -2.840  10.858  26.108  0.00  0.00    +0.414 C 
ATOM     37  O   UNL     1      -1.857  10.403  25.525  0.00  0.00    -0.240 OA
ATOM     38  O   UNL     1      -2.687  11.446  27.179  0.00  0.00    -0.240 OA
ENDBRANCH  27  36
BRANCH  27  39
ATOM     39  O   UNL     1      -4.833   9.444  25.961  0.00  0.00    -0.343 OA
ATOM     40  C   UNL     1      -5.671   8.768  24.990  0.00  0.00    +0.198 C 
ENDBRANCH  27  39
BRANCH  29  41
ATOM     41  O   UNL     1      -5.725  14.194  25.634  0.00  0.00    -0.390 OA
ATOM     42  H   UNL     1      -5.716  14.332  26.584  0.00  0.00    +0.210 HD
ENDBRANCH  29  41
ENDBRANCH  24  25
BRANCH  24  43
ATOM     43  O   UNL     1      -2.995  12.721  21.234  0.00  0.00    -0.387 OA
ATOM     44  H   UNL     1      -3.630  13.424  21.078  0.00  0.00    +0.210 HD
ENDBRANCH  24  43
ENDBRANCH   1  24
TORSDOF 15
