REMARK VINA RESULT:    -4.116      2.852      7.747
REMARK INTER + INTRA:         -10.644
REMARK INTER:                  -7.616
REMARK INTRA:                  -3.028
REMARK UNBOUND:                -2.799
REMARK  Name = lig_assembled_55.pdb
REMARK  20 active torsions:
REMARK  status: ('A' for Active; 'I' for Inactive)
REMARK    1  A    between atoms: _2  and  _10
REMARK    2  A    between atoms: _3  and  _11
REMARK    3  A    between atoms: _3  and  _38
REMARK    4  A    between atoms: _5  and  _18
REMARK    5  A    between atoms: _6  and  _38
REMARK    6  A    between atoms: _7  and  _8
REMARK    7  A    between atoms: _7  and  _18
REMARK    8  A    between atoms: _10  and  _11
REMARK    9  A    between atoms: _14  and  _34
REMARK   10  A    between atoms: _16  and  _22
REMARK   11  A    between atoms: _17  and  _21
REMARK   12  A    between atoms: _21  and  _22
REMARK   13  A    between atoms: _24  and  _25
REMARK   14  A    between atoms: _26  and  _27
REMARK   15  A    between atoms: _28  and  _30
REMARK   16  A    between atoms: _30  and  _31
REMARK   17  A    between atoms: _30  and  _32
REMARK   18  A    between atoms: _32  and  _33
REMARK   19  A    between atoms: _32  and  _34
REMARK   20  A    between atoms: _35  and  _37
REMARK                            x       y       z     vdW  Elec       q    Type
REMARK                         _______ _______ _______ _____ _____    ______ ____
ROOT
ATOM      1  C   UNL     1      -6.093   8.358  24.487  0.00  0.00    +0.163 C 
ENDROOT
BRANCH   1   2
ATOM      2  O   UNL     1      -6.163   8.982  25.780  0.00  0.00    -0.388 OA
ATOM      3  H   UNL     1      -7.052   8.892  26.132  0.00  0.00    +0.210 HD
ENDBRANCH   1   2
BRANCH   1   4
ATOM      4  C   UNL     1      -6.177   9.407  23.365  0.00  0.00    +0.175 C 
BRANCH   4   5
ATOM      5  C   UNL     1      -5.051  10.447  23.460  0.00  0.00    +0.176 C 
ATOM      6  O   UNL     1      -5.385  11.370  24.533  0.00  0.00    -0.332 OA
ATOM      7  C   UNL     1      -4.366  12.378  24.842  0.00  0.00    +0.277 C 
ATOM      8  C   UNL     1      -3.986  13.171  23.567  0.00  0.00    +0.110 C 
ATOM      9  C   UNL     1      -3.653  12.231  22.389  0.00  0.00    +0.143 C 
ATOM     10  C   UNL     1      -4.779  11.222  22.158  0.00  0.00    +0.133 C 
BRANCH  10  11
ATOM     11  N   UNL     1      -4.413  10.278  21.091  0.00  0.00    -0.308 N 
ATOM     12  H   UNL     1      -3.594   9.702  21.231  0.00  0.00    +0.149 HD
ATOM     13  C   UNL     1      -5.091  10.132  19.949  0.00  0.00    +0.210 C 
ATOM     14  C   UNL     1      -6.318  11.042  19.755  0.00  0.00    +0.109 C 
ATOM     15  O   UNL     1      -4.769   9.322  19.079  0.00  0.00    -0.276 OA
ENDBRANCH  10  11
BRANCH   7  16
ATOM     16  C   UNL     1      -3.104  11.716  25.433  0.00  0.00    +0.414 C 
ATOM     17  O   UNL     1      -3.193  10.662  26.061  0.00  0.00    -0.240 OA
ATOM     18  O   UNL     1      -1.998  12.236  25.282  0.00  0.00    -0.240 OA
ENDBRANCH   7  16
BRANCH   7  19
ATOM     19  O   UNL     1      -4.929  13.304  25.806  0.00  0.00    -0.343 OA
ATOM     20  C   UNL     1      -6.248  12.953  26.295  0.00  0.00    +0.198 C 
ENDBRANCH   7  19
BRANCH   9  21
ATOM     21  O   UNL     1      -3.457  12.999  21.201  0.00  0.00    -0.390 OA
ATOM     22  H   UNL     1      -2.522  13.183  21.089  0.00  0.00    +0.210 HD
ENDBRANCH   9  21
ENDBRANCH   4   5
BRANCH   4  23
ATOM     23  O   UNL     1      -7.461  10.061  23.392  0.00  0.00    -0.387 OA
ATOM     24  H   UNL     1      -8.157   9.405  23.310  0.00  0.00    +0.210 HD
ENDBRANCH   4  23
ENDBRANCH   1   4
BRANCH   1  25
ATOM     25  C   UNL     1      -4.792   7.574  24.356  0.00  0.00    +0.141 C 
BRANCH  25  28
ATOM     26  C   UNL     1      -2.828   7.038  25.757  0.00  0.00    +0.401 C 
ATOM     27  O   UNL     1      -2.456   6.104  25.043  0.00  0.00    -0.226 OA
ATOM     28  N   UNL     1      -3.912   7.776  25.514  0.00  0.00    -0.279 N 
ATOM     29  H   UNL     1      -4.141   8.515  26.163  0.00  0.00    +0.152 HD
BRANCH  26  30
ATOM     30  O   UNL     1      -2.069   7.366  26.923  0.00  0.00    -0.444 OA
BRANCH  30  31
ATOM     31  C   UNL     1      -2.796   6.979  28.092  0.00  0.00    +0.292 C 
BRANCH  31  33
ATOM     32  N   UNL     1      -2.234   8.682  29.795  0.00  0.00    -0.131 NA
ATOM     33  C   UNL     1      -3.136   8.163  28.903  0.00  0.00    +0.120 A 
ATOM     34  C   UNL     1      -4.291   8.913  28.942  0.00  0.00    +0.137 A 
ATOM     35  N   UNL     1      -4.036   9.860  29.889  0.00  0.00    -0.250 N 
ATOM     36  N   UNL     1      -2.797   9.719  30.396  0.00  0.00    -0.065 NA
BRANCH  35  37
ATOM     37  C   UNL     1      -4.897  10.932  30.337  0.00  0.00    +0.162 C 
BRANCH  37  38
ATOM     38  C   UNL     1      -4.389  12.330  29.967  0.00  0.00    +0.129 C 
BRANCH  38  39
ATOM     39  N   UNL     1      -3.006  12.613  30.451  0.00  0.00    -0.193 NA
ATOM     40  H   UNL     1      -2.481  13.148  29.748  0.00  0.00    +0.148 HD
BRANCH  39  41
ATOM     41  S   UNL     1      -2.878  13.261  32.000  0.00  0.00    +0.027 S 
ATOM     42  O   UNL     1      -2.918  12.147  32.923  0.00  0.00    -0.158 OA
ATOM     43  O   UNL     1      -1.772  14.193  31.994  0.00  0.00    -0.158 OA
ATOM     44  C   UNL     1      -4.406  14.158  32.140  0.00  0.00    +0.214 C 
ENDBRANCH  39  41
ENDBRANCH  38  39
ENDBRANCH  37  38
ENDBRANCH  35  37
ENDBRANCH  31  33
ENDBRANCH  30  31
ENDBRANCH  26  30
ENDBRANCH  25  28
ENDBRANCH   1  25
TORSDOF 17
