REMARK VINA RESULT:    -5.044      5.217     11.710
REMARK INTER + INTRA:         -12.292
REMARK INTER:                  -8.963
REMARK INTRA:                  -3.329
REMARK UNBOUND:                -2.678
REMARK  Name = lig_assembled_26.pdb
REMARK  20 active torsions:
REMARK  status: ('A' for Active; 'I' for Inactive)
REMARK    1  A    between atoms: _2  and  _9
REMARK    2  A    between atoms: _4  and  _23
REMARK    3  A    between atoms: _6  and  _7
REMARK    4  A    between atoms: _6  and  _23
REMARK    5  A    between atoms: _9  and  _10
REMARK    6  A    between atoms: _9  and  _11
REMARK    7  A    between atoms: _11  and  _12
REMARK    8  A    between atoms: _12  and  _13
REMARK    9  A    between atoms: _19  and  _39
REMARK   10  A    between atoms: _21  and  _27
REMARK   11  A    between atoms: _22  and  _26
REMARK   12  A    between atoms: _26  and  _27
REMARK   13  A    between atoms: _29  and  _30
REMARK   14  A    between atoms: _31  and  _32
REMARK   15  A    between atoms: _33  and  _35
REMARK   16  A    between atoms: _35  and  _36
REMARK   17  A    between atoms: _35  and  _37
REMARK   18  A    between atoms: _37  and  _38
REMARK   19  A    between atoms: _37  and  _39
REMARK   20  A    between atoms: _40  and  _42
REMARK                            x       y       z     vdW  Elec       q    Type
REMARK                         _______ _______ _______ _____ _____    ______ ____
ROOT
ATOM      1  C   UNL     1      -2.438   9.731  27.074  0.00  0.00    +0.163 C 
ENDROOT
BRANCH   1   2
ATOM      2  O   UNL     1      -1.257  10.041  26.316  0.00  0.00    -0.388 OA
ATOM      3  H   UNL     1      -0.847   9.226  26.015  0.00  0.00    +0.210 HD
ENDBRANCH   1   2
BRANCH   1   4
ATOM      4  C   UNL     1      -3.563   9.224  26.156  0.00  0.00    +0.175 C 
BRANCH   4   5
ATOM      5  C   UNL     1      -4.317  10.376  25.476  0.00  0.00    +0.176 C 
ATOM      6  O   UNL     1      -3.512  10.837  24.356  0.00  0.00    -0.332 OA
ATOM      7  C   UNL     1      -4.124  11.872  23.518  0.00  0.00    +0.277 C 
ATOM      8  C   UNL     1      -4.559  13.081  24.382  0.00  0.00    +0.110 C 
ATOM      9  C   UNL     1      -5.392  12.637  25.604  0.00  0.00    +0.143 C 
ATOM     10  C   UNL     1      -4.662  11.557  26.402  0.00  0.00    +0.133 C 
BRANCH  10  11
ATOM     11  N   UNL     1      -5.502  11.081  27.513  0.00  0.00    -0.308 N 
ATOM     12  H   UNL     1      -6.297  10.500  27.287  0.00  0.00    +0.149 HD
ATOM     13  C   UNL     1      -5.282  11.366  28.799  0.00  0.00    +0.210 C 
ATOM     14  C   UNL     1      -4.077  12.275  29.107  0.00  0.00    +0.109 C 
ATOM     15  O   UNL     1      -5.994  10.942  29.709  0.00  0.00    -0.276 OA
ENDBRANCH  10  11
BRANCH   7  16
ATOM     16  C   UNL     1      -5.348  11.311  22.763  0.00  0.00    +0.414 C 
ATOM     17  O   UNL     1      -6.173  12.076  22.266  0.00  0.00    -0.240 OA
ATOM     18  O   UNL     1      -5.509  10.095  22.652  0.00  0.00    -0.240 OA
ENDBRANCH   7  16
BRANCH   7  19
ATOM     19  O   UNL     1      -3.129  12.326  22.565  0.00  0.00    -0.343 OA
ATOM     20  C   UNL     1      -2.995  11.502  21.380  0.00  0.00    +0.198 C 
ENDBRANCH   7  19
BRANCH   9  21
ATOM     21  O   UNL     1      -5.641  13.760  26.450  0.00  0.00    -0.390 OA
ATOM     22  H   UNL     1      -4.966  13.805  27.131  0.00  0.00    +0.210 HD
ENDBRANCH   9  21
ENDBRANCH   4   5
BRANCH   4  23
ATOM     23  O   UNL     1      -4.482   8.403  26.904  0.00  0.00    -0.387 OA
ATOM     24  H   UNL     1      -5.362   8.787  26.863  0.00  0.00    +0.210 HD
ENDBRANCH   4  23
ENDBRANCH   1   4
BRANCH   1  25
ATOM     25  C   UNL     1      -2.121   8.671  28.124  0.00  0.00    +0.141 C 
BRANCH  25  28
ATOM     26  C   UNL     1      -3.662   8.087  29.965  0.00  0.00    +0.401 C 
ATOM     27  O   UNL     1      -3.976   6.996  29.482  0.00  0.00    -0.226 OA
ATOM     28  N   UNL     1      -2.807   8.936  29.395  0.00  0.00    -0.279 N 
ATOM     29  H   UNL     1      -2.621   9.812  29.863  0.00  0.00    +0.152 HD
BRANCH  26  30
ATOM     30  O   UNL     1      -4.242   8.488  31.209  0.00  0.00    -0.444 OA
BRANCH  30  31
ATOM     31  C   UNL     1      -3.224   9.019  32.061  0.00  0.00    +0.292 C 
BRANCH  31  33
ATOM     32  N   UNL     1      -4.734  10.880  32.704  0.00  0.00    -0.131 NA
ATOM     33  C   UNL     1      -3.487  10.440  32.352  0.00  0.00    +0.120 A 
ATOM     34  C   UNL     1      -2.620  11.508  32.337  0.00  0.00    +0.137 A 
ATOM     35  N   UNL     1      -3.399  12.577  32.661  0.00  0.00    -0.248 N 
ATOM     36  N   UNL     1      -4.667  12.190  32.909  0.00  0.00    -0.065 NA
BRANCH  35  37
ATOM     37  C   UNL     1      -3.030  13.973  32.834  0.00  0.00    +0.113 C 
ATOM     38  C   UNL     1      -1.756  14.194  33.662  0.00  0.00    +0.033 C 
BRANCH  37  39
ATOM     39  C   UNL     1      -2.985  14.744  31.502  0.00  0.00    +0.106 C 
BRANCH  39  40
ATOM     40  C   UNL     1      -3.724  16.069  31.529  0.00  0.00    +0.165 C 
ATOM     41  O   UNL     1      -3.501  16.929  32.379  0.00  0.00    -0.292 OA
BRANCH  40  42
ATOM     42  C   UNL     1      -4.790  16.320  30.512  0.00  0.00    +0.017 A 
ATOM     43  C   UNL     1      -5.720  15.342  30.141  0.00  0.00    +0.011 A 
ATOM     44  C   UNL     1      -6.722  15.645  29.215  0.00  0.00    +0.001 A 
ATOM     45  C   UNL     1      -6.796  16.919  28.653  0.00  0.00    +0.000 A 
ATOM     46  C   UNL     1      -5.867  17.893  29.008  0.00  0.00    +0.001 A 
ATOM     47  C   UNL     1      -4.868  17.596  29.935  0.00  0.00    +0.011 A 
ENDBRANCH  40  42
ENDBRANCH  39  40
ENDBRANCH  37  39
ENDBRANCH  35  37
ENDBRANCH  31  33
ENDBRANCH  30  31
ENDBRANCH  26  30
ENDBRANCH  25  28
ENDBRANCH   1  25
TORSDOF 17
