REMARK VINA RESULT:    -5.093     10.909     13.773
REMARK INTER + INTRA:         -10.826
REMARK INTER:                  -7.250
REMARK INTRA:                  -3.576
REMARK UNBOUND:                -2.010
REMARK  Name = lig_assembled_49.pdb
REMARK  16 active torsions:
REMARK  status: ('A' for Active; 'I' for Inactive)
REMARK    1  A    between atoms: _2  and  _9
REMARK    2  A    between atoms: _4  and  _17
REMARK    3  A    between atoms: _6  and  _7
REMARK    4  A    between atoms: _6  and  _17
REMARK    5  A    between atoms: _13  and  _33
REMARK    6  A    between atoms: _15  and  _21
REMARK    7  A    between atoms: _16  and  _20
REMARK    8  A    between atoms: _20  and  _21
REMARK    9  A    between atoms: _23  and  _24
REMARK   10  A    between atoms: _25  and  _26
REMARK   11  A    between atoms: _27  and  _29
REMARK   12  A    between atoms: _29  and  _30
REMARK   13  A    between atoms: _29  and  _31
REMARK   14  A    between atoms: _31  and  _32
REMARK   15  A    between atoms: _31  and  _33
REMARK   16  A    between atoms: _34  and  _36
REMARK                            x       y       z     vdW  Elec       q    Type
REMARK                         _______ _______ _______ _____ _____    ______ ____
ROOT
ATOM      1  C   UNL     1      -5.320   8.405  15.333  0.00  0.00    +0.175 C 
ENDROOT
BRANCH   1   2
ATOM      2  C   UNL     1      -5.651   9.617  16.216  0.00  0.00    +0.176 C 
ATOM      3  O   UNL     1      -6.282   9.127  17.431  0.00  0.00    -0.332 OA
ATOM      4  C   UNL     1      -6.575  10.141  18.448  0.00  0.00    +0.277 C 
ATOM      5  C   UNL     1      -7.425  11.285  17.842  0.00  0.00    +0.110 C 
ATOM      6  C   UNL     1      -6.810  11.818  16.530  0.00  0.00    +0.143 C 
ATOM      7  C   UNL     1      -6.544  10.678  15.546  0.00  0.00    +0.133 C 
BRANCH   7   8
ATOM      8  N   UNL     1      -5.879  11.187  14.336  0.00  0.00    -0.308 N 
ATOM      9  H   UNL     1      -4.924  11.506  14.421  0.00  0.00    +0.149 HD
ATOM     10  C   UNL     1      -6.455  11.255  13.133  0.00  0.00    +0.210 C 
ATOM     11  C   UNL     1      -7.919  10.786  13.042  0.00  0.00    +0.109 C 
ATOM     12  O   UNL     1      -5.869  11.673  12.134  0.00  0.00    -0.276 OA
ENDBRANCH   7   8
BRANCH   4  13
ATOM     13  C   UNL     1      -5.270  10.723  19.032  0.00  0.00    +0.414 C 
ATOM     14  O   UNL     1      -5.148  11.937  19.187  0.00  0.00    -0.240 OA
ATOM     15  O   UNL     1      -4.341   9.978  19.347  0.00  0.00    -0.240 OA
ENDBRANCH   4  13
BRANCH   6  16
ATOM     16  O   UNL     1      -7.700  12.760  15.929  0.00  0.00    -0.390 OA
ATOM     17  H   UNL     1      -7.523  13.636  16.280  0.00  0.00    +0.210 HD
ENDBRANCH   6  16
BRANCH   4  18
ATOM     18  O   UNL     1      -7.343   9.510  19.504  0.00  0.00    -0.343 OA
ATOM     19  C   UNL     1      -7.403   8.063  19.436  0.00  0.00    +0.198 C 
ENDBRANCH   4  18
ENDBRANCH   1   2
BRANCH   1  20
ATOM     20  O   UNL     1      -6.493   7.984  14.607  0.00  0.00    -0.387 OA
ATOM     21  H   UNL     1      -7.012   7.391  15.155  0.00  0.00    +0.210 HD
ENDBRANCH   1  20
BRANCH   1  22
ATOM     22  C   UNL     1      -4.753   7.232  16.150  0.00  0.00    +0.163 C 
BRANCH  22  23
ATOM     23  O   UNL     1      -3.990   7.707  17.271  0.00  0.00    -0.388 OA
ATOM     24  H   UNL     1      -4.149   7.140  18.030  0.00  0.00    +0.210 HD
ENDBRANCH  22  23
BRANCH  22  25
ATOM     25  C   UNL     1      -3.876   6.364  15.253  0.00  0.00    +0.141 C 
BRANCH  25  28
ATOM     26  C   UNL     1      -2.109   7.396  13.868  0.00  0.00    +0.401 C 
ATOM     27  O   UNL     1      -1.196   7.091  14.638  0.00  0.00    -0.226 OA
ATOM     28  N   UNL     1      -3.392   7.102  14.080  0.00  0.00    -0.279 N 
ATOM     29  H   UNL     1      -4.070   7.405  13.394  0.00  0.00    +0.152 HD
BRANCH  26  30
ATOM     30  O   UNL     1      -1.797   8.114  12.672  0.00  0.00    -0.444 OA
BRANCH  30  31
ATOM     31  C   UNL     1      -2.938   8.870  12.257  0.00  0.00    +0.292 C 
BRANCH  31  33
ATOM     32  N   UNL     1      -2.964  10.706  13.913  0.00  0.00    -0.131 NA
ATOM     33  C   UNL     1      -2.776  10.289  12.623  0.00  0.00    +0.120 A 
ATOM     34  C   UNL     1      -2.448  11.375  11.842  0.00  0.00    +0.137 A 
ATOM     35  N   UNL     1      -2.460  12.423  12.714  0.00  0.00    -0.248 N 
ATOM     36  N   UNL     1      -2.767  12.016  13.958  0.00  0.00    -0.065 NA
BRANCH  35  37
ATOM     37  C   UNL     1      -2.212  13.815  12.425  0.00  0.00    +0.109 C 
ATOM     38  C   UNL     1      -2.714  14.771  13.509  0.00  0.00    +0.027 C 
ATOM     39  C   UNL     1      -1.965  16.057  13.200  0.00  0.00    +0.002 C 
ATOM     40  C   UNL     1      -0.569  15.591  12.807  0.00  0.00    +0.002 C 
ATOM     41  C   UNL     1      -0.731  14.175  12.248  0.00  0.00    +0.027 C 
ENDBRANCH  35  37
ENDBRANCH  31  33
ENDBRANCH  30  31
ENDBRANCH  26  30
ENDBRANCH  25  28
ENDBRANCH  22  25
ENDBRANCH   1  22
TORSDOF 14
