REMARK VINA RESULT:    -4.299      2.261      5.922
REMARK INTER + INTRA:         -11.987
REMARK INTER:                  -8.194
REMARK INTRA:                  -3.793
REMARK UNBOUND:                -3.793
REMARK  Name = lig_assembled_21.pdb
REMARK  20 active torsions:
REMARK  status: ('A' for Active; 'I' for Inactive)
REMARK    1  A    between atoms: _2  and  _9
REMARK    2  A    between atoms: _4  and  _23
REMARK    3  A    between atoms: _6  and  _7
REMARK    4  A    between atoms: _6  and  _23
REMARK    5  A    between atoms: _9  and  _10
REMARK    6  A    between atoms: _11  and  _18
REMARK    7  A    between atoms: _12  and  _13
REMARK    8  A    between atoms: _12  and  _18
REMARK    9  A    between atoms: _19  and  _39
REMARK   10  A    between atoms: _21  and  _27
REMARK   11  A    between atoms: _22  and  _26
REMARK   12  A    between atoms: _26  and  _27
REMARK   13  A    between atoms: _29  and  _30
REMARK   14  A    between atoms: _31  and  _32
REMARK   15  A    between atoms: _33  and  _35
REMARK   16  A    between atoms: _35  and  _36
REMARK   17  A    between atoms: _35  and  _37
REMARK   18  A    between atoms: _37  and  _38
REMARK   19  A    between atoms: _37  and  _39
REMARK   20  A    between atoms: _40  and  _42
REMARK                            x       y       z     vdW  Elec       q    Type
REMARK                         _______ _______ _______ _____ _____    ______ ____
ROOT
ATOM      1  C   UNL     1      -4.377   8.349  24.451  0.00  0.00    +0.163 C 
ENDROOT
BRANCH   1   2
ATOM      2  O   UNL     1      -4.393   7.749  23.145  0.00  0.00    -0.388 OA
ATOM      3  H   UNL     1      -4.149   8.406  22.488  0.00  0.00    +0.210 HD
ENDBRANCH   1   2
BRANCH   1   4
ATOM      4  C   UNL     1      -5.480   9.414  24.580  0.00  0.00    +0.175 C 
BRANCH   4   5
ATOM      5  C   UNL     1      -5.055  10.762  23.979  0.00  0.00    +0.176 C 
ATOM      6  O   UNL     1      -4.949  10.596  22.539  0.00  0.00    -0.332 OA
ATOM      7  C   UNL     1      -4.653  11.815  21.780  0.00  0.00    +0.277 C 
ATOM      8  C   UNL     1      -3.372  12.494  22.325  0.00  0.00    +0.110 C 
ATOM      9  C   UNL     1      -3.425  12.663  23.858  0.00  0.00    +0.143 C 
ATOM     10  C   UNL     1      -3.743  11.335  24.546  0.00  0.00    +0.133 C 
BRANCH  10  11
ATOM     11  N   UNL     1      -3.877  11.526  25.999  0.00  0.00    -0.308 N 
ATOM     12  H   UNL     1      -4.698  12.007  26.337  0.00  0.00    +0.149 HD
ATOM     13  C   UNL     1      -2.983  11.106  26.899  0.00  0.00    +0.210 C 
ATOM     14  C   UNL     1      -1.730  10.401  26.349  0.00  0.00    +0.109 C 
ATOM     15  O   UNL     1      -3.129  11.268  28.111  0.00  0.00    -0.276 OA
ENDBRANCH  10  11
BRANCH   7  16
ATOM     16  C   UNL     1      -5.833  12.806  21.855  0.00  0.00    +0.414 C 
ATOM     17  O   UNL     1      -6.989  12.389  21.928  0.00  0.00    -0.240 OA
ATOM     18  O   UNL     1      -5.630  14.020  21.843  0.00  0.00    -0.240 OA
ENDBRANCH   7  16
BRANCH   9  19
ATOM     19  O   UNL     1      -2.170  13.151  24.332  0.00  0.00    -0.390 OA
ATOM     20  H   UNL     1      -1.988  12.780  25.199  0.00  0.00    +0.210 HD
ENDBRANCH   9  19
BRANCH   7  21
ATOM     21  O   UNL     1      -4.418  11.438  20.399  0.00  0.00    -0.343 OA
ATOM     22  C   UNL     1      -4.918  10.128  20.028  0.00  0.00    +0.198 C 
ENDBRANCH   7  21
ENDBRANCH   4   5
BRANCH   4  23
ATOM     23  O   UNL     1      -5.849   9.581  25.964  0.00  0.00    -0.387 OA
ATOM     24  H   UNL     1      -5.062   9.748  26.487  0.00  0.00    +0.210 HD
ENDBRANCH   4  23
ENDBRANCH   1   4
BRANCH   1  25
ATOM     25  C   UNL     1      -4.574   7.279  25.519  0.00  0.00    +0.141 C 
BRANCH  25  28
ATOM     26  C   UNL     1      -2.438   7.110  26.749  0.00  0.00    +0.401 C 
ATOM     27  O   UNL     1      -1.856   6.508  25.843  0.00  0.00    -0.226 OA
ATOM     28  N   UNL     1      -3.711   7.503  26.685  0.00  0.00    -0.279 N 
ATOM     29  H   UNL     1      -4.103   7.982  27.483  0.00  0.00    +0.152 HD
BRANCH  26  30
ATOM     30  O   UNL     1      -1.726   7.411  27.952  0.00  0.00    -0.444 OA
BRANCH  30  31
ATOM     31  C   UNL     1      -2.438   6.884  29.074  0.00  0.00    +0.292 C 
BRANCH  31  33
ATOM     32  N   UNL     1      -4.597   8.024  29.461  0.00  0.00    -0.131 NA
ATOM     33  C   UNL     1      -3.253   7.940  29.702  0.00  0.00    +0.120 A 
ATOM     34  C   UNL     1      -2.893   8.930  30.590  0.00  0.00    +0.137 A 
ATOM     35  N   UNL     1      -4.080   9.525  30.922  0.00  0.00    -0.247 N 
ATOM     36  N   UNL     1      -5.092   8.998  30.210  0.00  0.00    -0.065 NA
BRANCH  35  37
ATOM     37  C   UNL     1      -4.273  10.529  31.964  0.00  0.00    +0.184 C 
BRANCH  37  38
ATOM     38  C   UNL     1      -3.971  11.953  31.565  0.00  0.00    +0.016 A 
ATOM     39  C   UNL     1      -4.912  12.751  30.888  0.00  0.00    +0.137 A 
ATOM     40  C   UNL     1      -4.616  14.067  30.532  0.00  0.00    +0.047 A 
ATOM     41  C   UNL     1      -3.375  14.610  30.864  0.00  0.00    +0.004 A 
ATOM     42  C   UNL     1      -2.424  13.832  31.522  0.00  0.00    +0.001 A 
ATOM     43  C   UNL     1      -2.720  12.514  31.873  0.00  0.00    +0.009 A 
BRANCH  39  44
ATOM     44  O   UNL     1      -6.127  12.128  30.516  0.00  0.00    -0.426 OA
BRANCH  44  45
ATOM     45  C   UNL     1      -6.634  12.185  29.217  0.00  0.00    +0.309 C 
ATOM     46  O   UNL     1      -6.136  11.706  28.206  0.00  0.00    -0.251 OA
ATOM     47  C   UNL     1      -7.963  12.880  29.243  0.00  0.00    +0.136 C 
ENDBRANCH  44  45
ENDBRANCH  39  44
ENDBRANCH  37  38
ENDBRANCH  35  37
ENDBRANCH  31  33
ENDBRANCH  30  31
ENDBRANCH  26  30
ENDBRANCH  25  28
ENDBRANCH   1  25
TORSDOF 17
