REMARK VINA RESULT:    -4.647      4.637      8.357
REMARK INTER + INTRA:         -11.413
REMARK INTER:                  -9.139
REMARK INTRA:                  -2.273
REMARK UNBOUND:                -2.554
REMARK  Name = lig_assembled_9.pdb
REMARK  20 active torsions:
REMARK  status: ('A' for Active; 'I' for Inactive)
REMARK    1  A    between atoms: _2  and  _9
REMARK    2  A    between atoms: _4  and  _23
REMARK    3  A    between atoms: _6  and  _7
REMARK    4  A    between atoms: _6  and  _23
REMARK    5  A    between atoms: _11  and  _12
REMARK    6  A    between atoms: _12  and  _17
REMARK    7  A    between atoms: _13  and  _14
REMARK    8  A    between atoms: _13  and  _17
REMARK    9  A    between atoms: _19  and  _39
REMARK   10  A    between atoms: _21  and  _27
REMARK   11  A    between atoms: _22  and  _26
REMARK   12  A    between atoms: _26  and  _27
REMARK   13  A    between atoms: _29  and  _30
REMARK   14  A    between atoms: _31  and  _32
REMARK   15  A    between atoms: _33  and  _35
REMARK   16  A    between atoms: _35  and  _36
REMARK   17  A    between atoms: _35  and  _37
REMARK   18  A    between atoms: _37  and  _38
REMARK   19  A    between atoms: _37  and  _39
REMARK   20  A    between atoms: _40  and  _42
REMARK                            x       y       z     vdW  Elec       q    Type
REMARK                         _______ _______ _______ _____ _____    ______ ____
ROOT
ATOM      1  C   UNL     1      -6.029  10.716  16.340  0.00  0.00    +0.163 C 
ENDROOT
BRANCH   1   2
ATOM      2  O   UNL     1      -5.214  11.848  15.997  0.00  0.00    -0.388 OA
ATOM      3  H   UNL     1      -5.774  12.614  15.851  0.00  0.00    +0.210 HD
ENDBRANCH   1   2
BRANCH   1   4
ATOM      4  C   UNL     1      -5.232   9.406  16.212  0.00  0.00    +0.175 C 
BRANCH   4   5
ATOM      5  C   UNL     1      -4.228   9.451  15.051  0.00  0.00    +0.176 C 
ATOM      6  O   UNL     1      -4.908  10.009  13.893  0.00  0.00    -0.332 OA
ATOM      7  C   UNL     1      -4.071  10.228  12.710  0.00  0.00    +0.277 C 
ATOM      8  C   UNL     1      -3.346   8.919  12.311  0.00  0.00    +0.110 C 
ATOM      9  C   UNL     1      -2.634   8.271  13.517  0.00  0.00    +0.143 C 
ATOM     10  C   UNL     1      -3.597   8.093  14.691  0.00  0.00    +0.133 C 
BRANCH  10  11
ATOM     11  N   UNL     1      -2.887   7.556  15.863  0.00  0.00    -0.308 N 
ATOM     12  H   UNL     1      -2.183   8.137  16.295  0.00  0.00    +0.149 HD
ATOM     13  C   UNL     1      -3.112   6.350  16.392  0.00  0.00    +0.210 C 
ATOM     14  C   UNL     1      -4.173   5.478  15.695  0.00  0.00    +0.109 C 
ATOM     15  O   UNL     1      -2.513   5.932  17.383  0.00  0.00    -0.276 OA
ENDBRANCH  10  11
BRANCH   7  16
ATOM     16  C   UNL     1      -3.028  11.334  12.975  0.00  0.00    +0.414 C 
ATOM     17  O   UNL     1      -3.270  12.235  13.777  0.00  0.00    -0.240 OA
ATOM     18  O   UNL     1      -1.946  11.325  12.387  0.00  0.00    -0.240 OA
ENDBRANCH   7  16
BRANCH   7  19
ATOM     19  O   UNL     1      -4.935  10.624  11.614  0.00  0.00    -0.343 OA
ATOM     20  C   UNL     1      -5.181   9.593  10.625  0.00  0.00    +0.198 C 
ENDBRANCH   7  19
BRANCH   9  21
ATOM     21  O   UNL     1      -2.110   6.997  13.140  0.00  0.00    -0.390 OA
ATOM     22  H   UNL     1      -2.284   6.360  13.837  0.00  0.00    +0.210 HD
ENDBRANCH   9  21
ENDBRANCH   4   5
BRANCH   4  23
ATOM     23  O   UNL     1      -6.132   8.291  16.047  0.00  0.00    -0.387 OA
ATOM     24  H   UNL     1      -6.834   8.533  15.438  0.00  0.00    +0.210 HD
ENDBRANCH   4  23
ENDBRANCH   1   4
BRANCH   1  25
ATOM     25  C   UNL     1      -6.547  10.859  17.767  0.00  0.00    +0.141 C 
BRANCH  25  28
ATOM     26  C   UNL     1      -4.917  10.381  19.561  0.00  0.00    +0.401 C 
ATOM     27  O   UNL     1      -5.241   9.196  19.669  0.00  0.00    -0.226 OA
ATOM     28  N   UNL     1      -5.479  11.232  18.702  0.00  0.00    -0.279 N 
ATOM     29  H   UNL     1      -5.152  12.188  18.695  0.00  0.00    +0.152 HD
BRANCH  26  30
ATOM     30  O   UNL     1      -3.881  10.897  20.401  0.00  0.00    -0.444 OA
BRANCH  30  31
ATOM     31  C   UNL     1      -4.242  12.204  20.857  0.00  0.00    +0.292 C 
BRANCH  31  33
ATOM     32  N   UNL     1      -4.313  13.466  22.985  0.00  0.00    -0.131 NA
ATOM     33  C   UNL     1      -4.056  12.305  22.317  0.00  0.00    +0.121 A 
ATOM     34  C   UNL     1      -3.639  11.351  23.216  0.00  0.00    +0.143 A 
ATOM     35  N   UNL     1      -3.696  11.972  24.443  0.00  0.00    -0.220 N 
ATOM     36  N   UNL     1      -4.084  13.259  24.275  0.00  0.00    -0.060 NA
BRANCH  35  37
ATOM     37  C   UNL     1      -3.440  11.424  25.726  0.00  0.00    +0.068 A 
ATOM     38  C   UNL     1      -2.875  10.148  25.856  0.00  0.00    +0.042 A 
ATOM     39  C   UNL     1      -2.654   9.597  27.128  0.00  0.00    +0.061 A 
ATOM     40  C   UNL     1      -2.995  10.331  28.270  0.00  0.00    +0.015 A 
ATOM     41  C   UNL     1      -3.545  11.608  28.144  0.00  0.00    +0.003 A 
ATOM     42  C   UNL     1      -3.766  12.156  26.879  0.00  0.00    +0.028 A 
BRANCH  39  43
ATOM     43  C   UNL     1      -2.003   8.273  27.309  0.00  0.00    +0.339 C 
ATOM     44  O   UNL     1      -1.804   7.485  26.399  0.00  0.00    -0.245 OA
BRANCH  43  45
ATOM     45  O   UNL     1      -1.769   8.054  28.627  0.00  0.00    -0.461 OA
BRANCH  45  46
ATOM     46  C   UNL     1      -2.362   6.868  29.170  0.00  0.00    +0.229 C 
ATOM     47  C   UNL     1      -2.674   7.128  30.632  0.00  0.00    +0.048 C 
ENDBRANCH  45  46
ENDBRANCH  43  45
ENDBRANCH  39  43
ENDBRANCH  35  37
ENDBRANCH  31  33
ENDBRANCH  30  31
ENDBRANCH  26  30
ENDBRANCH  25  28
ENDBRANCH   1  25
TORSDOF 17
