REMARK VINA RESULT:    -5.164      2.238      3.760
REMARK INTER + INTRA:         -11.319
REMARK INTER:                  -8.503
REMARK INTRA:                  -2.816
REMARK UNBOUND:                -2.381
REMARK  Name = lig_assembled_7.pdb
REMARK  19 active torsions:
REMARK  status: ('A' for Active; 'I' for Inactive)
REMARK    1  A    between atoms: _2  and  _9
REMARK    2  A    between atoms: _4  and  _21
REMARK    3  A    between atoms: _5  and  _16
REMARK    4  A    between atoms: _6  and  _7
REMARK    5  A    between atoms: _6  and  _21
REMARK    6  A    between atoms: _10  and  _11
REMARK    7  A    between atoms: _13  and  _14
REMARK    8  A    between atoms: _17  and  _37
REMARK    9  A    between atoms: _19  and  _25
REMARK   10  A    between atoms: _20  and  _24
REMARK   11  A    between atoms: _24  and  _25
REMARK   12  A    between atoms: _27  and  _28
REMARK   13  A    between atoms: _29  and  _30
REMARK   14  A    between atoms: _31  and  _33
REMARK   15  A    between atoms: _33  and  _34
REMARK   16  A    between atoms: _33  and  _35
REMARK   17  A    between atoms: _35  and  _36
REMARK   18  A    between atoms: _35  and  _37
REMARK   19  A    between atoms: _38  and  _40
REMARK                            x       y       z     vdW  Elec       q    Type
REMARK                         _______ _______ _______ _____ _____    ______ ____
ROOT
ATOM      1  C   UNL     1      -2.969  12.128  24.206  0.00  0.00    +0.163 C 
ENDROOT
BRANCH   1   2
ATOM      2  O   UNL     1      -2.114  11.844  25.326  0.00  0.00    -0.388 OA
ATOM      3  H   UNL     1      -1.246  12.225  25.171  0.00  0.00    +0.210 HD
ENDBRANCH   1   2
BRANCH   1   4
ATOM      4  C   UNL     1      -3.914  13.274  24.549  0.00  0.00    +0.141 C 
BRANCH   4   7
ATOM      5  C   UNL     1      -4.789  14.414  22.539  0.00  0.00    +0.401 C 
ATOM      6  O   UNL     1      -3.830  15.184  22.443  0.00  0.00    -0.226 OA
ATOM      7  N   UNL     1      -4.913  13.494  23.496  0.00  0.00    -0.279 N 
ATOM      8  H   UNL     1      -5.741  12.915  23.496  0.00  0.00    +0.152 HD
BRANCH   5   9
ATOM      9  O   UNL     1      -5.845  14.498  21.579  0.00  0.00    -0.444 OA
BRANCH   9  10
ATOM     10  C   UNL     1      -6.483  13.223  21.458  0.00  0.00    +0.292 C 
BRANCH  10  12
ATOM     11  N   UNL     1      -4.503  11.906  20.811  0.00  0.00    -0.131 NA
ATOM     12  C   UNL     1      -5.745  12.370  20.509  0.00  0.00    +0.121 A 
ATOM     13  C   UNL     1      -6.104  11.900  19.261  0.00  0.00    +0.143 A 
ATOM     14  N   UNL     1      -5.015  11.183  18.812  0.00  0.00    -0.219 N 
ATOM     15  N   UNL     1      -4.081  11.169  19.797  0.00  0.00    -0.060 NA
BRANCH  14  16
ATOM     16  C   UNL     1      -4.810  10.521  17.558  0.00  0.00    +0.073 A 
ATOM     17  C   UNL     1      -5.098   9.127  17.447  0.00  0.00    -0.024 A 
ATOM     18  C   UNL     1      -4.900   8.467  16.215  0.00  0.00    +0.008 A 
ATOM     19  C   UNL     1      -4.437   9.146  15.091  0.00  0.00    -0.050 A 
ATOM     20  C   UNL     1      -4.240   8.415  13.797  0.00  0.00    +0.044 C 
ATOM     21  C   UNL     1      -4.159  10.506  15.203  0.00  0.00    +0.008 A 
ATOM     22  C   UNL     1      -5.665   8.276  18.563  0.00  0.00    +0.046 C 
ATOM     23  C   UNL     1      -4.314  11.209  16.421  0.00  0.00    -0.024 A 
ATOM     24  C   UNL     1      -3.839  12.639  16.358  0.00  0.00    +0.046 C 
ENDBRANCH  14  16
ENDBRANCH  10  12
ENDBRANCH   9  10
ENDBRANCH   5   9
ENDBRANCH   4   7
ENDBRANCH   1   4
BRANCH   1  25
ATOM     25  C   UNL     1      -3.788  10.887  23.811  0.00  0.00    +0.175 C 
BRANCH  25  26
ATOM     26  C   UNL     1      -4.070   9.974  25.014  0.00  0.00    +0.176 C 
ATOM     27  O   UNL     1      -2.886   9.164  25.248  0.00  0.00    -0.332 OA
ATOM     28  C   UNL     1      -2.933   8.300  26.432  0.00  0.00    +0.277 C 
ATOM     29  C   UNL     1      -4.187   7.393  26.390  0.00  0.00    +0.110 C 
ATOM     30  C   UNL     1      -5.469   8.206  26.111  0.00  0.00    +0.143 C 
ATOM     31  C   UNL     1      -5.308   9.071  24.860  0.00  0.00    +0.133 C 
BRANCH  31  32
ATOM     32  N   UNL     1      -6.503   9.905  24.654  0.00  0.00    -0.308 N 
ATOM     33  H   UNL     1      -6.828  10.463  25.431  0.00  0.00    +0.149 HD
ATOM     34  C   UNL     1      -7.185   9.973  23.508  0.00  0.00    +0.210 C 
ATOM     35  C   UNL     1      -6.679   9.091  22.351  0.00  0.00    +0.109 C 
ATOM     36  O   UNL     1      -8.174  10.692  23.359  0.00  0.00    -0.276 OA
ENDBRANCH  31  32
BRANCH  28  37
ATOM     37  C   UNL     1      -2.949   9.143  27.724  0.00  0.00    +0.414 C 
ATOM     38  O   UNL     1      -2.414  10.251  27.749  0.00  0.00    -0.240 OA
ATOM     39  O   UNL     1      -3.497   8.716  28.741  0.00  0.00    -0.240 OA
ENDBRANCH  28  37
BRANCH  30  40
ATOM     40  O   UNL     1      -6.573   7.318  25.931  0.00  0.00    -0.390 OA
ATOM     41  H   UNL     1      -6.588   7.006  25.023  0.00  0.00    +0.210 HD
ENDBRANCH  30  40
BRANCH  28  42
ATOM     42  O   UNL     1      -1.755   7.453  26.416  0.00  0.00    -0.343 OA
ATOM     43  C   UNL     1      -1.980   6.083  26.834  0.00  0.00    +0.198 C 
ENDBRANCH  28  42
ENDBRANCH  25  26
BRANCH  25  44
ATOM     44  O   UNL     1      -3.105  10.149  22.777  0.00  0.00    -0.387 OA
ATOM     45  H   UNL     1      -2.256  10.560  22.599  0.00  0.00    +0.210 HD
ENDBRANCH  25  44
ENDBRANCH   1  25
TORSDOF 14
