REMARK VINA RESULT:    -4.572      4.885      7.325
REMARK INTER + INTRA:         -12.096
REMARK INTER:                  -9.684
REMARK INTRA:                  -2.412
REMARK UNBOUND:                -3.114
REMARK  Name = lig_assembled_10.pdb
REMARK  21 active torsions:
REMARK  status: ('A' for Active; 'I' for Inactive)
REMARK    1  A    between atoms: _2  and  _9
REMARK    2  A    between atoms: _4  and  _20
REMARK    3  A    between atoms: _5  and  _9
REMARK    4  A    between atoms: _5  and  _12
REMARK    5  A    between atoms: _6  and  _7
REMARK    6  A    between atoms: _6  and  _20
REMARK    7  A    between atoms: _9  and  _10
REMARK    8  A    between atoms: _10  and  _11
REMARK    9  A    between atoms: _11  and  _14
REMARK   10  A    between atoms: _16  and  _36
REMARK   11  A    between atoms: _18  and  _24
REMARK   12  A    between atoms: _19  and  _23
REMARK   13  A    between atoms: _23  and  _24
REMARK   14  A    between atoms: _26  and  _27
REMARK   15  A    between atoms: _28  and  _29
REMARK   16  A    between atoms: _30  and  _32
REMARK   17  A    between atoms: _32  and  _33
REMARK   18  A    between atoms: _32  and  _34
REMARK   19  A    between atoms: _34  and  _35
REMARK   20  A    between atoms: _34  and  _36
REMARK   21  A    between atoms: _37  and  _39
REMARK                            x       y       z     vdW  Elec       q    Type
REMARK                         _______ _______ _______ _____ _____    ______ ____
ROOT
ATOM      1  C   UNL     1      -4.038  11.393  22.034  0.00  0.00    +0.163 C 
ENDROOT
BRANCH   1   2
ATOM      2  O   UNL     1      -3.868  10.018  21.650  0.00  0.00    -0.388 OA
ATOM      3  H   UNL     1      -4.531   9.785  20.995  0.00  0.00    +0.210 HD
ENDBRANCH   1   2
BRANCH   1   4
ATOM      4  C   UNL     1      -2.990  11.804  23.083  0.00  0.00    +0.175 C 
BRANCH   4   5
ATOM      5  C   UNL     1      -3.326  11.258  24.479  0.00  0.00    +0.176 C 
ATOM      6  O   UNL     1      -3.120   9.819  24.458  0.00  0.00    -0.332 OA
ATOM      7  C   UNL     1      -3.292   9.135  25.743  0.00  0.00    +0.277 C 
ATOM      8  C   UNL     1      -4.682   9.456  26.346  0.00  0.00    +0.110 C 
ATOM      9  C   UNL     1      -4.959  10.974  26.360  0.00  0.00    +0.143 C 
ATOM     10  C   UNL     1      -4.748  11.584  24.974  0.00  0.00    +0.133 C 
BRANCH  10  11
ATOM     11  N   UNL     1      -4.930  13.043  25.019  0.00  0.00    -0.308 N 
ATOM     12  H   UNL     1      -4.250  13.588  25.532  0.00  0.00    +0.149 HD
ATOM     13  C   UNL     1      -5.935  13.695  24.428  0.00  0.00    +0.210 C 
ATOM     14  C   UNL     1      -6.968  12.834  23.677  0.00  0.00    +0.109 C 
ATOM     15  O   UNL     1      -6.054  14.920  24.471  0.00  0.00    -0.276 OA
ENDBRANCH  10  11
BRANCH   7  16
ATOM     16  C   UNL     1      -2.189   9.554  26.738  0.00  0.00    +0.414 C 
ATOM     17  O   UNL     1      -2.423   9.585  27.945  0.00  0.00    -0.240 OA
ATOM     18  O   UNL     1      -1.068   9.861  26.333  0.00  0.00    -0.240 OA
ENDBRANCH   7  16
BRANCH   7  19
ATOM     19  O   UNL     1      -3.216   7.706  25.505  0.00  0.00    -0.343 OA
ATOM     20  C   UNL     1      -4.210   7.185  24.586  0.00  0.00    +0.198 C 
ENDBRANCH   7  19
BRANCH   9  21
ATOM     21  O   UNL     1      -6.303  11.215  26.780  0.00  0.00    -0.390 OA
ATOM     22  H   UNL     1      -6.608  12.049  26.416  0.00  0.00    +0.210 HD
ENDBRANCH   9  21
ENDBRANCH   4   5
BRANCH   4  23
ATOM     23  O   UNL     1      -2.869  13.240  23.127  0.00  0.00    -0.387 OA
ATOM     24  H   UNL     1      -3.701  13.640  22.866  0.00  0.00    +0.210 HD
ENDBRANCH   4  23
ENDBRANCH   1   4
BRANCH   1  25
ATOM     25  C   UNL     1      -3.915  12.295  20.811  0.00  0.00    +0.141 C 
BRANCH  25  28
ATOM     26  C   UNL     1      -5.877  12.100  19.322  0.00  0.00    +0.401 C 
ATOM     27  O   UNL     1      -6.557  12.909  19.957  0.00  0.00    -0.226 OA
ATOM     28  N   UNL     1      -4.634  11.749  19.653  0.00  0.00    -0.279 N 
ATOM     29  H   UNL     1      -4.160  11.070  19.075  0.00  0.00    +0.152 HD
BRANCH  26  30
ATOM     30  O   UNL     1      -6.436  11.485  18.159  0.00  0.00    -0.444 OA
BRANCH  30  31
ATOM     31  C   UNL     1      -5.591  10.413  17.732  0.00  0.00    +0.292 C 
BRANCH  31  33
ATOM     32  N   UNL     1      -3.815  11.575  16.454  0.00  0.00    -0.131 NA
ATOM     33  C   UNL     1      -4.919  10.766  16.467  0.00  0.00    +0.120 A 
ATOM     34  C   UNL     1      -5.219  10.393  15.176  0.00  0.00    +0.138 A 
ATOM     35  N   UNL     1      -4.240  10.968  14.426  0.00  0.00    -0.237 N 
ATOM     36  N   UNL     1      -3.411  11.699  15.199  0.00  0.00    -0.065 NA
BRANCH  35  37
ATOM     37  C   UNL     1      -3.974  10.909  12.998  0.00  0.00    +0.227 C 
BRANCH  37  38
ATOM     38  C   UNL     1      -2.855   9.969  12.604  0.00  0.00    +0.330 C 
ATOM     39  O   UNL     1      -2.838   9.408  11.514  0.00  0.00    -0.249 OA
BRANCH  38  40
ATOM     40  O   UNL     1      -1.845   9.803  13.484  0.00  0.00    -0.479 OA
ATOM     41  H   UNL     1      -0.941  10.080  13.182  0.00  0.00    +0.295 HD
ENDBRANCH  38  40
ENDBRANCH  37  38
BRANCH  37  42
ATOM     42  C   UNL     1      -3.848  12.281  12.322  0.00  0.00    +0.158 C 
BRANCH  42  43
ATOM     43  C   UNL     1      -2.414  12.687  12.128  0.00  0.00    +0.307 C 
ATOM     44  O   UNL     1      -1.877  12.782  11.031  0.00  0.00    -0.251 OA
BRANCH  43  45
ATOM     45  O   UNL     1      -1.787  13.017  13.273  0.00  0.00    -0.481 OA
ATOM     46  H   UNL     1      -1.488  12.262  13.817  0.00  0.00    +0.295 HD
ENDBRANCH  43  45
ENDBRANCH  42  43
ENDBRANCH  37  42
ENDBRANCH  35  37
ENDBRANCH  31  33
ENDBRANCH  30  31
ENDBRANCH  26  30
ENDBRANCH  25  28
ENDBRANCH   1  25
TORSDOF 19
