REMARK VINA RESULT:    -3.642      2.387      5.736
REMARK INTER + INTRA:         -10.344
REMARK INTER:                  -6.623
REMARK INTRA:                  -3.721
REMARK UNBOUND:                -3.721
REMARK  Name = lig_assembled_35.pdb
REMARK  19 active torsions:
REMARK  status: ('A' for Active; 'I' for Inactive)
REMARK    1  A    between atoms: _2  and  _9
REMARK    2  A    between atoms: _4  and  _17
REMARK    3  A    between atoms: _5  and  _9
REMARK    4  A    between atoms: _5  and  _11
REMARK    5  A    between atoms: _6  and  _7
REMARK    6  A    between atoms: _6  and  _17
REMARK    7  A    between atoms: _9  and  _10
REMARK    8  A    between atoms: _13  and  _33
REMARK    9  A    between atoms: _15  and  _21
REMARK   10  A    between atoms: _16  and  _20
REMARK   11  A    between atoms: _20  and  _21
REMARK   12  A    between atoms: _23  and  _24
REMARK   13  A    between atoms: _25  and  _26
REMARK   14  A    between atoms: _27  and  _29
REMARK   15  A    between atoms: _29  and  _30
REMARK   16  A    between atoms: _29  and  _31
REMARK   17  A    between atoms: _31  and  _32
REMARK   18  A    between atoms: _31  and  _33
REMARK   19  A    between atoms: _34  and  _36
REMARK                            x       y       z     vdW  Elec       q    Type
REMARK                         _______ _______ _______ _____ _____    ______ ____
ROOT
ATOM      1  C   UNL     1      -2.870  10.268  29.532  0.00  0.00    +0.163 C 
ENDROOT
BRANCH   1   2
ATOM      2  O   UNL     1      -2.391  10.333  28.179  0.00  0.00    -0.388 OA
ATOM      3  H   UNL     1      -2.412   9.456  27.788  0.00  0.00    +0.210 HD
ENDBRANCH   1   2
BRANCH   1   4
ATOM      4  C   UNL     1      -4.235  10.966  29.667  0.00  0.00    +0.175 C 
BRANCH   4   5
ATOM      5  C   UNL     1      -4.144  12.255  30.497  0.00  0.00    +0.176 C 
ATOM      6  O   UNL     1      -4.156  11.883  31.903  0.00  0.00    -0.332 OA
ATOM      7  C   UNL     1      -3.970  12.985  32.852  0.00  0.00    +0.277 C 
ATOM      8  C   UNL     1      -5.013  14.100  32.597  0.00  0.00    +0.110 C 
ATOM      9  C   UNL     1      -5.060  14.507  31.109  0.00  0.00    +0.143 C 
ATOM     10  C   UNL     1      -5.254  13.284  30.212  0.00  0.00    +0.133 C 
BRANCH  10  11
ATOM     11  N   UNL     1      -5.210  13.674  28.793  0.00  0.00    -0.308 N 
ATOM     12  H   UNL     1      -4.325  13.985  28.417  0.00  0.00    +0.149 HD
ATOM     13  C   UNL     1      -6.262  13.642  27.971  0.00  0.00    +0.210 C 
ATOM     14  C   UNL     1      -7.601  13.188  28.582  0.00  0.00    +0.109 C 
ATOM     15  O   UNL     1      -6.192  13.960  26.783  0.00  0.00    -0.276 OA
ENDBRANCH  10  11
BRANCH   7  16
ATOM     16  C   UNL     1      -2.548  13.573  32.735  0.00  0.00    +0.414 C 
ATOM     17  O   UNL     1      -2.361  14.779  32.893  0.00  0.00    -0.240 OA
ATOM     18  O   UNL     1      -1.589  12.842  32.484  0.00  0.00    -0.240 OA
ENDBRANCH   7  16
BRANCH   7  19
ATOM     19  O   UNL     1      -4.175  12.464  34.190  0.00  0.00    -0.343 OA
ATOM     20  C   UNL     1      -3.894  11.050  34.347  0.00  0.00    +0.198 C 
ENDBRANCH   7  19
BRANCH   9  21
ATOM     21  O   UNL     1      -6.134  15.424  30.894  0.00  0.00    -0.390 OA
ATOM     22  H   UNL     1      -6.964  15.007  31.137  0.00  0.00    +0.210 HD
ENDBRANCH   9  21
ENDBRANCH   4   5
BRANCH   4  23
ATOM     23  O   UNL     1      -5.198  10.066  30.250  0.00  0.00    -0.387 OA
ATOM     24  H   UNL     1      -5.717   9.657  29.553  0.00  0.00    +0.210 HD
ENDBRANCH   4  23
ENDBRANCH   1   4
BRANCH   1  25
ATOM     25  C   UNL     1      -2.998   8.812  29.971  0.00  0.00    +0.141 C 
BRANCH  25  28
ATOM     26  C   UNL     1      -4.134   7.250  28.430  0.00  0.00    +0.401 C 
ATOM     27  O   UNL     1      -5.228   7.343  28.992  0.00  0.00    -0.226 OA
ATOM     28  N   UNL     1      -3.036   7.897  28.824  0.00  0.00    -0.279 N 
ATOM     29  H   UNL     1      -2.183   7.748  28.304  0.00  0.00    +0.152 HD
BRANCH  26  30
ATOM     30  O   UNL     1      -4.011   6.399  27.287  0.00  0.00    -0.444 OA
BRANCH  30  31
ATOM     31  C   UNL     1      -4.893   6.853  26.257  0.00  0.00    +0.292 C 
BRANCH  31  33
ATOM     32  N   UNL     1      -3.075   8.423  25.659  0.00  0.00    -0.131 NA
ATOM     33  C   UNL     1      -4.413   8.132  25.699  0.00  0.00    +0.120 A 
ATOM     34  C   UNL     1      -5.118   9.188  25.166  0.00  0.00    +0.138 A 
ATOM     35  N   UNL     1      -4.153  10.081  24.805  0.00  0.00    -0.238 N 
ATOM     36  N   UNL     1      -2.929   9.626  25.124  0.00  0.00    -0.065 NA
BRANCH  35  37
ATOM     37  C   UNL     1      -4.283  11.389  24.191  0.00  0.00    +0.214 C 
ATOM     38  C   UNL     1      -5.751  11.773  24.030  0.00  0.00    +0.045 C 
BRANCH  37  39
ATOM     39  C   UNL     1      -3.498  12.439  24.951  0.00  0.00    +0.329 C 
ATOM     40  O   UNL     1      -2.815  13.307  24.425  0.00  0.00    -0.249 OA
BRANCH  39  41
ATOM     41  O   UNL     1      -3.583  12.334  26.301  0.00  0.00    -0.479 OA
ATOM     42  H   UNL     1      -4.080  11.560  26.637  0.00  0.00    +0.295 HD
ENDBRANCH  39  41
ENDBRANCH  37  39
ENDBRANCH  35  37
ENDBRANCH  31  33
ENDBRANCH  30  31
ENDBRANCH  26  30
ENDBRANCH  25  28
ENDBRANCH   1  25
TORSDOF 16
