REMARK VINA RESULT:    -4.831      4.258     10.487
REMARK INTER + INTRA:         -12.976
REMARK INTER:                  -8.626
REMARK INTRA:                  -4.350
REMARK UNBOUND:                -3.062
REMARK  Name = lig_assembled_74.pdb
REMARK  24 active torsions:
REMARK  status: ('A' for Active; 'I' for Inactive)
REMARK    1  A    between atoms: _2  and  _9
REMARK    2  A    between atoms: _4  and  _22
REMARK    3  A    between atoms: _5  and  _14
REMARK    4  A    between atoms: _6  and  _7
REMARK    5  A    between atoms: _6  and  _22
REMARK    6  A    between atoms: _9  and  _10
REMARK    7  A    between atoms: _10  and  _11
REMARK    8  A    between atoms: _10  and  _13
REMARK    9  A    between atoms: _11  and  _12
REMARK   10  A    between atoms: _12  and  _16
REMARK   11  A    between atoms: _13  and  _14
REMARK   12  A    between atoms: _14  and  _15
REMARK   13  A    between atoms: _18  and  _38
REMARK   14  A    between atoms: _20  and  _26
REMARK   15  A    between atoms: _21  and  _25
REMARK   16  A    between atoms: _25  and  _26
REMARK   17  A    between atoms: _28  and  _29
REMARK   18  A    between atoms: _30  and  _31
REMARK   19  A    between atoms: _32  and  _34
REMARK   20  A    between atoms: _34  and  _35
REMARK   21  A    between atoms: _34  and  _36
REMARK   22  A    between atoms: _36  and  _37
REMARK   23  A    between atoms: _36  and  _38
REMARK   24  A    between atoms: _39  and  _41
REMARK                            x       y       z     vdW  Elec       q    Type
REMARK                         _______ _______ _______ _____ _____    ______ ____
ROOT
ATOM      1  C   UNL     1      -4.951  10.921  18.520  0.00  0.00    +0.163 C 
ENDROOT
BRANCH   1   2
ATOM      2  O   UNL     1      -4.075  10.296  19.473  0.00  0.00    -0.388 OA
ATOM      3  H   UNL     1      -4.467   9.474  19.778  0.00  0.00    +0.210 HD
ENDBRANCH   1   2
BRANCH   1   4
ATOM      4  C   UNL     1      -5.787   9.870  17.770  0.00  0.00    +0.175 C 
BRANCH   4   5
ATOM      5  C   UNL     1      -5.005   9.229  16.613  0.00  0.00    +0.176 C 
ATOM      6  O   UNL     1      -4.099   8.242  17.178  0.00  0.00    -0.332 OA
ATOM      7  C   UNL     1      -3.341   7.448  16.207  0.00  0.00    +0.277 C 
ATOM      8  C   UNL     1      -2.566   8.375  15.238  0.00  0.00    +0.110 C 
ATOM      9  C   UNL     1      -3.482   9.462  14.636  0.00  0.00    +0.143 C 
ATOM     10  C   UNL     1      -4.225  10.224  15.734  0.00  0.00    +0.133 C 
BRANCH  10  11
ATOM     11  N   UNL     1      -5.158  11.197  15.145  0.00  0.00    -0.308 N 
ATOM     12  H   UNL     1      -5.970  10.839  14.662  0.00  0.00    +0.149 HD
ATOM     13  C   UNL     1      -5.002  12.522  15.207  0.00  0.00    +0.210 C 
ATOM     14  C   UNL     1      -3.741  13.035  15.927  0.00  0.00    +0.109 C 
ATOM     15  O   UNL     1      -5.808  13.313  14.717  0.00  0.00    -0.276 OA
ENDBRANCH  10  11
BRANCH   7  16
ATOM     16  C   UNL     1      -4.280   6.528  15.400  0.00  0.00    +0.414 C 
ATOM     17  O   UNL     1      -5.198   5.932  15.962  0.00  0.00    -0.240 OA
ATOM     18  O   UNL     1      -4.120   6.381  14.188  0.00  0.00    -0.240 OA
ENDBRANCH   7  16
BRANCH   9  19
ATOM     19  O   UNL     1      -2.700  10.381  13.872  0.00  0.00    -0.390 OA
ATOM     20  H   UNL     1      -2.935  10.307  12.944  0.00  0.00    +0.210 HD
ENDBRANCH   9  19
BRANCH   7  21
ATOM     21  O   UNL     1      -2.379   6.644  16.938  0.00  0.00    -0.343 OA
ATOM     22  C   UNL     1      -1.093   6.487  16.287  0.00  0.00    +0.198 C 
ENDBRANCH   7  21
ENDBRANCH   4   5
BRANCH   4  23
ATOM     23  O   UNL     1      -7.005  10.463  17.278  0.00  0.00    -0.387 OA
ATOM     24  H   UNL     1      -7.333  11.098  17.918  0.00  0.00    +0.210 HD
ENDBRANCH   4  23
ENDBRANCH   1   4
BRANCH   1  25
ATOM     25  C   UNL     1      -5.881  11.899  19.231  0.00  0.00    +0.141 C 
BRANCH  25  28
ATOM     26  C   UNL     1      -7.502  10.909  20.811  0.00  0.00    +0.401 C 
ATOM     27  O   UNL     1      -8.407  10.825  19.977  0.00  0.00    -0.226 OA
ATOM     28  N   UNL     1      -6.292  11.404  20.550  0.00  0.00    -0.279 N 
ATOM     29  H   UNL     1      -5.619  11.440  21.303  0.00  0.00    +0.152 HD
BRANCH  26  30
ATOM     30  O   UNL     1      -7.745  10.458  22.146  0.00  0.00    -0.444 OA
BRANCH  30  31
ATOM     31  C   UNL     1      -7.217   9.139  22.308  0.00  0.00    +0.292 C 
BRANCH  31  33
ATOM     32  N   UNL     1      -4.766   9.080  21.914  0.00  0.00    -0.131 NA
ATOM     33  C   UNL     1      -5.820   9.189  22.782  0.00  0.00    +0.120 A 
ATOM     34  C   UNL     1      -5.334   9.425  24.051  0.00  0.00    +0.137 A 
ATOM     35  N   UNL     1      -3.999   9.629  23.849  0.00  0.00    -0.251 N 
ATOM     36  N   UNL     1      -3.649   9.326  22.585  0.00  0.00    -0.065 NA
BRANCH  35  37
ATOM     37  C   UNL     1      -3.099  10.395  24.689  0.00  0.00    +0.149 C 
BRANCH  37  38
ATOM     38  C   UNL     1      -3.534  11.848  24.980  0.00  0.00    +0.021 C 
BRANCH  38  39
ATOM     39  C   UNL     1      -2.991  12.868  23.958  0.00  0.00    +0.125 C 
BRANCH  39  40
ATOM     40  C   UNL     1      -3.829  13.019  22.705  0.00  0.00    +0.305 C 
ATOM     41  O   UNL     1      -4.684  13.873  22.535  0.00  0.00    -0.251 OA
BRANCH  40  42
ATOM     42  O   UNL     1      -3.493  12.143  21.740  0.00  0.00    -0.481 OA
ATOM     43  H   UNL     1      -3.323  11.232  22.041  0.00  0.00    +0.295 HD
ENDBRANCH  40  42
ENDBRANCH  39  40
ENDBRANCH  38  39
BRANCH  38  44
ATOM     44  C   UNL     1      -3.167  12.204  26.451  0.00  0.00    +0.009 C 
BRANCH  44  45
ATOM     45  C   UNL     1      -4.257  11.919  27.506  0.00  0.00    -0.017 C 
ATOM     46  C   UNL     1      -3.847  12.389  28.903  0.00  0.00    +0.007 C 
ATOM     47  C   UNL     1      -5.574  12.599  27.116  0.00  0.00    +0.007 C 
ENDBRANCH  44  45
ENDBRANCH  38  44
ENDBRANCH  37  38
ENDBRANCH  35  37
ENDBRANCH  31  33
ENDBRANCH  30  31
ENDBRANCH  26  30
ENDBRANCH  25  28
ENDBRANCH   1  25
TORSDOF 20
