REMARK VINA RESULT:    -4.732      4.151      7.554
REMARK INTER + INTRA:         -11.187
REMARK INTER:                  -7.960
REMARK INTRA:                  -3.227
REMARK UNBOUND:                -2.997
REMARK  Name = lig_assembled_15.pdb
REMARK  16 active torsions:
REMARK  status: ('A' for Active; 'I' for Inactive)
REMARK    1  A    between atoms: _2  and  _9
REMARK    2  A    between atoms: _4  and  _18
REMARK    3  A    between atoms: _6  and  _7
REMARK    4  A    between atoms: _6  and  _18
REMARK    5  A    between atoms: _14  and  _34
REMARK    6  A    between atoms: _16  and  _22
REMARK    7  A    between atoms: _17  and  _21
REMARK    8  A    between atoms: _21  and  _22
REMARK    9  A    between atoms: _24  and  _25
REMARK   10  A    between atoms: _26  and  _27
REMARK   11  A    between atoms: _28  and  _30
REMARK   12  A    between atoms: _30  and  _31
REMARK   13  A    between atoms: _30  and  _32
REMARK   14  A    between atoms: _32  and  _33
REMARK   15  A    between atoms: _32  and  _34
REMARK   16  A    between atoms: _35  and  _37
REMARK                            x       y       z     vdW  Elec       q    Type
REMARK                         _______ _______ _______ _____ _____    ______ ____
ROOT
ATOM      1  C   UNL     1      -4.319   9.289  33.203  0.00  0.00    +0.163 C 
ENDROOT
BRANCH   1   2
ATOM      2  O   UNL     1      -3.061   9.972  33.330  0.00  0.00    -0.388 OA
ATOM      3  H   UNL     1      -2.367   9.442  32.932  0.00  0.00    +0.210 HD
ENDBRANCH   1   2
BRANCH   1   4
ATOM      4  C   UNL     1      -4.085   7.834  32.808  0.00  0.00    +0.141 C 
BRANCH   4   7
ATOM      5  C   UNL     1      -3.056   7.225  30.646  0.00  0.00    +0.401 C 
ATOM      6  O   UNL     1      -4.116   6.852  30.139  0.00  0.00    -0.226 OA
ATOM      7  N   UNL     1      -2.948   7.692  31.891  0.00  0.00    -0.279 N 
ATOM      8  H   UNL     1      -2.033   7.965  32.221  0.00  0.00    +0.152 HD
BRANCH   5   9
ATOM      9  O   UNL     1      -1.855   7.156  29.874  0.00  0.00    -0.444 OA
BRANCH   9  10
ATOM     10  C   UNL     1      -2.184   6.986  28.492  0.00  0.00    +0.292 C 
BRANCH  10  12
ATOM     11  N   UNL     1      -2.010   9.454  28.490  0.00  0.00    -0.131 NA
ATOM     12  C   UNL     1      -2.317   8.299  27.832  0.00  0.00    +0.121 A 
ATOM     13  C   UNL     1      -2.724   8.605  26.553  0.00  0.00    +0.143 A 
ATOM     14  N   UNL     1      -2.619   9.973  26.465  0.00  0.00    -0.220 N 
ATOM     15  N   UNL     1      -2.202  10.467  27.656  0.00  0.00    -0.060 NA
BRANCH  14  16
ATOM     16  C   UNL     1      -2.857  10.811  25.343  0.00  0.00    +0.067 A 
ATOM     17  C   UNL     1      -2.648  12.195  25.421  0.00  0.00    +0.029 A 
ATOM     18  C   UNL     1      -2.927  13.009  24.318  0.00  0.00    +0.017 A 
ATOM     19  C   UNL     1      -3.409  12.443  23.139  0.00  0.00    +0.018 A 
ATOM     20 BR   UNL     1      -3.809  13.553  21.663  0.00  0.00    -0.050 Br
ATOM     21  C   UNL     1      -3.606  11.067  23.046  0.00  0.00    +0.017 A 
ATOM     22  C   UNL     1      -3.328  10.249  24.145  0.00  0.00    +0.029 A 
ENDBRANCH  14  16
ENDBRANCH  10  12
ENDBRANCH   9  10
ENDBRANCH   5   9
ENDBRANCH   4   7
ENDBRANCH   1   4
BRANCH   1  23
ATOM     23  C   UNL     1      -5.211   9.970  32.151  0.00  0.00    +0.175 C 
BRANCH  23  24
ATOM     24  C   UNL     1      -4.513  11.167  31.489  0.00  0.00    +0.176 C 
ATOM     25  O   UNL     1      -4.616  12.301  32.392  0.00  0.00    -0.332 OA
ATOM     26  C   UNL     1      -3.909  13.514  31.970  0.00  0.00    +0.277 C 
ATOM     27  C   UNL     1      -4.358  13.935  30.549  0.00  0.00    +0.110 C 
ATOM     28  C   UNL     1      -4.296  12.753  29.559  0.00  0.00    +0.143 C 
ATOM     29  C   UNL     1      -5.061  11.544  30.099  0.00  0.00    +0.133 C 
BRANCH  29  30
ATOM     30  N   UNL     1      -4.922  10.397  29.188  0.00  0.00    -0.308 N 
ATOM     31  H   UNL     1      -3.993  10.034  29.025  0.00  0.00    +0.149 HD
ATOM     32  C   UNL     1      -5.942   9.803  28.564  0.00  0.00    +0.210 C 
ATOM     33  C   UNL     1      -7.342  10.396  28.814  0.00  0.00    +0.109 C 
ATOM     34  O   UNL     1      -5.798   8.835  27.817  0.00  0.00    -0.276 OA
ENDBRANCH  29  30
BRANCH  26  35
ATOM     35  C   UNL     1      -2.383  13.290  31.984  0.00  0.00    +0.414 C 
ATOM     36  O   UNL     1      -1.912  12.255  32.453  0.00  0.00    -0.240 OA
ATOM     37  O   UNL     1      -1.622  14.145  31.526  0.00  0.00    -0.240 OA
ENDBRANCH  26  35
BRANCH  28  38
ATOM     38  O   UNL     1      -4.858  13.144  28.306  0.00  0.00    -0.390 OA
ATOM     39  H   UNL     1      -4.655  14.067  28.138  0.00  0.00    +0.210 HD
ENDBRANCH  28  38
BRANCH  26  40
ATOM     40  O   UNL     1      -4.255  14.579  32.893  0.00  0.00    -0.343 OA
ATOM     41  C   UNL     1      -5.677  14.779  33.092  0.00  0.00    +0.198 C 
ENDBRANCH  26  40
ENDBRANCH  23  24
BRANCH  23  42
ATOM     42  O   UNL     1      -6.454  10.389  32.750  0.00  0.00    -0.387 OA
ATOM     43  H   UNL     1      -6.314  10.573  33.682  0.00  0.00    +0.210 HD
ENDBRANCH  23  42
ENDBRANCH   1  23
TORSDOF 14
