REMARK VINA RESULT:    -4.891      4.213      9.395
REMARK INTER + INTRA:         -12.145
REMARK INTER:                  -8.476
REMARK INTRA:                  -3.669
REMARK UNBOUND:                -3.108
REMARK  Name = lig_assembled_58.pdb
REMARK  18 active torsions:
REMARK  status: ('A' for Active; 'I' for Inactive)
REMARK    1  A    between atoms: _2  and  _9
REMARK    2  A    between atoms: _4  and  _25
REMARK    3  A    between atoms: _6  and  _7
REMARK    4  A    between atoms: _6  and  _25
REMARK    5  A    between atoms: _9  and  _10
REMARK    6  A    between atoms: _9  and  _16
REMARK    7  A    between atoms: _21  and  _41
REMARK    8  A    between atoms: _23  and  _29
REMARK    9  A    between atoms: _24  and  _28
REMARK   10  A    between atoms: _28  and  _29
REMARK   11  A    between atoms: _31  and  _32
REMARK   12  A    between atoms: _33  and  _34
REMARK   13  A    between atoms: _35  and  _37
REMARK   14  A    between atoms: _37  and  _38
REMARK   15  A    between atoms: _37  and  _39
REMARK   16  A    between atoms: _39  and  _40
REMARK   17  A    between atoms: _39  and  _41
REMARK   18  A    between atoms: _42  and  _44
REMARK                            x       y       z     vdW  Elec       q    Type
REMARK                         _______ _______ _______ _____ _____    ______ ____
ROOT
ATOM      1  C   UNL     1      -3.895  13.184  24.627  0.00  0.00    +0.141 C 
ENDROOT
BRANCH   1   4
ATOM      2  C   UNL     1      -5.850  13.536  23.158  0.00  0.00    +0.401 C 
ATOM      3  O   UNL     1      -6.630  12.924  23.892  0.00  0.00    -0.226 OA
ATOM      4  N   UNL     1      -4.553  13.700  23.421  0.00  0.00    -0.279 N 
ATOM      5  H   UNL     1      -3.991  14.209  22.752  0.00  0.00    +0.152 HD
BRANCH   2   6
ATOM      6  O   UNL     1      -6.343  14.107  21.943  0.00  0.00    -0.444 OA
BRANCH   6   7
ATOM      7  C   UNL     1      -6.967  13.090  21.155  0.00  0.00    +0.292 C 
BRANCH   7   9
ATOM      8  N   UNL     1      -4.849  11.821  20.871  0.00  0.00    -0.131 NA
ATOM      9  C   UNL     1      -5.963  12.400  20.324  0.00  0.00    +0.120 A 
ATOM     10  C   UNL     1      -5.959  12.182  18.966  0.00  0.00    +0.138 A 
ATOM     11  N   UNL     1      -4.905  11.333  18.764  0.00  0.00    -0.240 N 
ATOM     12  N   UNL     1      -4.195  11.187  19.906  0.00  0.00    -0.064 NA
BRANCH  11  13
ATOM     13  C   UNL     1      -4.519  10.593  17.548  0.00  0.00    +0.169 C 
BRANCH  13  14
ATOM     14  C   UNL     1      -5.209   9.221  17.528  0.00  0.00    -0.019 A 
ATOM     15  C   UNL     1      -6.481   9.063  18.103  0.00  0.00    +0.006 A 
ATOM     16  C   UNL     1      -7.093   7.807  18.142  0.00  0.00    +0.000 A 
ATOM     17  C   UNL     1      -6.452   6.695  17.598  0.00  0.00    +0.000 A 
ATOM     18  C   UNL     1      -5.192   6.831  17.027  0.00  0.00    +0.000 A 
ATOM     19  C   UNL     1      -4.572   8.080  17.003  0.00  0.00    +0.006 A 
ENDBRANCH  13  14
BRANCH  13  20
ATOM     20  C   UNL     1      -4.693  11.423  16.268  0.00  0.00    -0.019 A 
ATOM     21  C   UNL     1      -5.661  11.084  15.306  0.00  0.00    +0.006 A 
ATOM     22  C   UNL     1      -5.813  11.842  14.142  0.00  0.00    +0.000 A 
ATOM     23  C   UNL     1      -5.019  12.965  13.928  0.00  0.00    +0.000 A 
ATOM     24  C   UNL     1      -4.095  13.350  14.890  0.00  0.00    +0.000 A 
ATOM     25  C   UNL     1      -3.947  12.599  16.055  0.00  0.00    +0.006 A 
ENDBRANCH  13  20
ENDBRANCH  11  13
ENDBRANCH   7   9
ENDBRANCH   6   7
ENDBRANCH   2   6
ENDBRANCH   1   4
BRANCH   1  26
ATOM     26  C   UNL     1      -2.917  12.059  24.304  0.00  0.00    +0.163 C 
BRANCH  26  27
ATOM     27  O   UNL     1      -2.180  11.694  25.483  0.00  0.00    -0.388 OA
ATOM     28  H   UNL     1      -1.538  11.015  25.263  0.00  0.00    +0.210 HD
ENDBRANCH  26  27
BRANCH  26  29
ATOM     29  C   UNL     1      -3.688  10.852  23.743  0.00  0.00    +0.175 C 
BRANCH  29  30
ATOM     30  C   UNL     1      -4.075   9.851  24.841  0.00  0.00    +0.176 C 
ATOM     31  O   UNL     1      -2.879   9.113  25.214  0.00  0.00    -0.332 OA
ATOM     32  C   UNL     1      -3.035   8.178  26.333  0.00  0.00    +0.277 C 
ATOM     33  C   UNL     1      -4.194   7.190  26.055  0.00  0.00    +0.110 C 
ATOM     34  C   UNL     1      -5.479   7.928  25.624  0.00  0.00    +0.143 C 
ATOM     35  C   UNL     1      -5.202   8.876  24.456  0.00  0.00    +0.133 C 
BRANCH  35  36
ATOM     36  N   UNL     1      -6.414   9.636  24.111  0.00  0.00    -0.308 N 
ATOM     37  H   UNL     1      -6.815  10.232  24.822  0.00  0.00    +0.149 HD
ATOM     38  C   UNL     1      -7.018   9.590  22.921  0.00  0.00    +0.210 C 
ATOM     39  C   UNL     1      -6.398   8.652  21.868  0.00  0.00    +0.109 C 
ATOM     40  O   UNL     1      -8.024  10.249  22.656  0.00  0.00    -0.276 OA
ENDBRANCH  35  36
BRANCH  32  41
ATOM     41  C   UNL     1      -3.308   8.938  27.647  0.00  0.00    +0.414 C 
ATOM     42  O   UNL     1      -2.844  10.064  27.820  0.00  0.00    -0.240 OA
ATOM     43  O   UNL     1      -3.993   8.425  28.534  0.00  0.00    -0.240 OA
ENDBRANCH  32  41
BRANCH  34  44
ATOM     44  O   UNL     1      -6.472   6.978  25.233  0.00  0.00    -0.390 OA
ATOM     45  H   UNL     1      -7.344   7.368  25.328  0.00  0.00    +0.210 HD
ENDBRANCH  34  44
BRANCH  32  46
ATOM     46  O   UNL     1      -1.805   7.417  26.456  0.00  0.00    -0.343 OA
ATOM     47  C   UNL     1      -1.985   5.990  26.644  0.00  0.00    +0.198 C 
ENDBRANCH  32  46
ENDBRANCH  29  30
BRANCH  29  48
ATOM     48  O   UNL     1      -2.909  10.195  22.724  0.00  0.00    -0.387 OA
ATOM     49  H   UNL     1      -1.985  10.439  22.820  0.00  0.00    +0.210 HD
ENDBRANCH  29  48
ENDBRANCH  26  29
ENDBRANCH   1  26
TORSDOF 16
