REMARK VINA RESULT:    -4.572      3.520      9.203
REMARK INTER + INTRA:         -10.972
REMARK INTER:                  -8.474
REMARK INTRA:                  -2.497
REMARK UNBOUND:                -2.792
REMARK  Name = lig_assembled_5.pdb
REMARK  18 active torsions:
REMARK  status: ('A' for Active; 'I' for Inactive)
REMARK    1  A    between atoms: _2  and  _9
REMARK    2  A    between atoms: _4  and  _20
REMARK    3  A    between atoms: _6  and  _7
REMARK    4  A    between atoms: _6  and  _20
REMARK    5  A    between atoms: _12  and  _15
REMARK    6  A    between atoms: _13  and  _15
REMARK    7  A    between atoms: _16  and  _36
REMARK    8  A    between atoms: _18  and  _24
REMARK    9  A    between atoms: _19  and  _23
REMARK   10  A    between atoms: _23  and  _24
REMARK   11  A    between atoms: _26  and  _27
REMARK   12  A    between atoms: _28  and  _29
REMARK   13  A    between atoms: _30  and  _32
REMARK   14  A    between atoms: _32  and  _33
REMARK   15  A    between atoms: _32  and  _34
REMARK   16  A    between atoms: _34  and  _35
REMARK   17  A    between atoms: _34  and  _36
REMARK   18  A    between atoms: _37  and  _39
REMARK                            x       y       z     vdW  Elec       q    Type
REMARK                         _______ _______ _______ _____ _____    ______ ____
ROOT
ATOM      1  C   UNL     1      -6.561   9.706  23.774  0.00  0.00    +0.163 C 
ENDROOT
BRANCH   1   2
ATOM      2  O   UNL     1      -6.951  10.032  25.118  0.00  0.00    -0.388 OA
ATOM      3  H   UNL     1      -6.203  10.410  25.586  0.00  0.00    +0.210 HD
ENDBRANCH   1   2
BRANCH   1   4
ATOM      4  C   UNL     1      -7.684   8.947  23.075  0.00  0.00    +0.141 C 
BRANCH   4   7
ATOM      5  C   UNL     1      -7.778   8.847  20.608  0.00  0.00    +0.401 C 
ATOM      6  O   UNL     1      -7.312   7.708  20.542  0.00  0.00    -0.226 OA
ATOM      7  N   UNL     1      -7.980   9.506  21.750  0.00  0.00    -0.279 N 
ATOM      8  H   UNL     1      -8.358  10.441  21.701  0.00  0.00    +0.152 HD
BRANCH   5   9
ATOM      9  O   UNL     1      -8.126   9.526  19.398  0.00  0.00    -0.444 OA
BRANCH   9  10
ATOM     10  C   UNL     1      -7.667  10.879  19.460  0.00  0.00    +0.292 C 
BRANCH  10  12
ATOM     11  N   UNL     1      -7.575  12.290  17.430  0.00  0.00    -0.131 NA
ATOM     12  C   UNL     1      -7.057  11.272  18.176  0.00  0.00    +0.121 A 
ATOM     13  C   UNL     1      -5.955  10.760  17.532  0.00  0.00    +0.143 A 
ATOM     14  N   UNL     1      -5.818  11.523  16.395  0.00  0.00    -0.220 N 
ATOM     15  N   UNL     1      -6.824  12.432  16.347  0.00  0.00    -0.060 NA
BRANCH  14  16
ATOM     16  C   UNL     1      -4.808  11.463  15.400  0.00  0.00    +0.067 A 
ATOM     17  C   UNL     1      -4.079  12.606  15.049  0.00  0.00    +0.031 A 
ATOM     18  C   UNL     1      -3.132  12.540  14.025  0.00  0.00    +0.048 A 
ATOM     19  C   UNL     1      -2.882  11.340  13.356  0.00  0.00    +0.120 A 
ATOM     20  C   UNL     1      -3.593  10.196  13.715  0.00  0.00    +0.048 A 
ATOM     21  C   UNL     1      -4.555  10.255  14.734  0.00  0.00    +0.031 A 
BRANCH  19  22
ATOM     22  O   UNL     1      -1.976  11.429  12.335  0.00  0.00    -0.495 OA
ATOM     23  C   UNL     1      -2.157  12.504  11.424  0.00  0.00    +0.277 C 
ENDBRANCH  19  22
ENDBRANCH  14  16
ENDBRANCH  10  12
ENDBRANCH   9  10
ENDBRANCH   5   9
ENDBRANCH   4   7
ENDBRANCH   1   4
BRANCH   1  24
ATOM     24  C   UNL     1      -5.281   8.853  23.764  0.00  0.00    +0.175 C 
BRANCH  24  25
ATOM     25  C   UNL     1      -4.090   9.591  24.393  0.00  0.00    +0.176 C 
ATOM     26  O   UNL     1      -4.334   9.697  25.822  0.00  0.00    -0.332 OA
ATOM     27  C   UNL     1      -3.245  10.285  26.609  0.00  0.00    +0.277 C 
ATOM     28  C   UNL     1      -2.853  11.671  26.040  0.00  0.00    +0.110 C 
ATOM     29  C   UNL     1      -2.615  11.614  24.517  0.00  0.00    +0.143 C 
ATOM     30  C   UNL     1      -3.808  10.983  23.798  0.00  0.00    +0.133 C 
BRANCH  30  31
ATOM     31  N   UNL     1      -3.533  10.855  22.358  0.00  0.00    -0.308 N 
ATOM     32  H   UNL     1      -2.830  10.189  22.069  0.00  0.00    +0.149 HD
ATOM     33  C   UNL     1      -4.151  11.562  21.408  0.00  0.00    +0.210 C 
ATOM     34  C   UNL     1      -5.197  12.588  21.882  0.00  0.00    +0.109 C 
ATOM     35  O   UNL     1      -3.910  11.424  20.208  0.00  0.00    -0.276 OA
ENDBRANCH  30  31
BRANCH  27  36
ATOM     36  C   UNL     1      -2.010   9.360  26.610  0.00  0.00    +0.414 C 
ATOM     37  O   UNL     1      -0.878   9.838  26.665  0.00  0.00    -0.240 OA
ATOM     38  O   UNL     1      -2.146   8.137  26.556  0.00  0.00    -0.240 OA
ENDBRANCH  27  36
BRANCH  27  39
ATOM     39  O   UNL     1      -3.720  10.466  27.968  0.00  0.00    -0.343 OA
ATOM     40  C   UNL     1      -5.161  10.424  28.123  0.00  0.00    +0.198 C 
ENDBRANCH  27  39
BRANCH  29  41
ATOM     41  O   UNL     1      -2.407  12.934  24.012  0.00  0.00    -0.390 OA
ATOM     42  H   UNL     1      -2.662  12.968  23.087  0.00  0.00    +0.210 HD
ENDBRANCH  29  41
ENDBRANCH  24  25
BRANCH  24  43
ATOM     43  O   UNL     1      -4.962   8.451  22.417  0.00  0.00    -0.387 OA
ATOM     44  H   UNL     1      -5.340   7.586  22.242  0.00  0.00    +0.210 HD
ENDBRANCH  24  43
ENDBRANCH   1  24
TORSDOF 15
