REMARK VINA RESULT:    -5.132      3.448      7.212
REMARK INTER + INTRA:         -11.415
REMARK INTER:                  -8.117
REMARK INTRA:                  -3.298
REMARK UNBOUND:                -2.233
REMARK  Name = lig_assembled_61.pdb
REMARK  17 active torsions:
REMARK  status: ('A' for Active; 'I' for Inactive)
REMARK    1  A    between atoms: _2  and  _9
REMARK    2  A    between atoms: _4  and  _17
REMARK    3  A    between atoms: _6  and  _7
REMARK    4  A    between atoms: _6  and  _17
REMARK    5  A    between atoms: _9  and  _10
REMARK    6  A    between atoms: _13  and  _33
REMARK    7  A    between atoms: _15  and  _21
REMARK    8  A    between atoms: _16  and  _20
REMARK    9  A    between atoms: _20  and  _21
REMARK   10  A    between atoms: _23  and  _24
REMARK   11  A    between atoms: _25  and  _26
REMARK   12  A    between atoms: _27  and  _29
REMARK   13  A    between atoms: _29  and  _30
REMARK   14  A    between atoms: _29  and  _31
REMARK   15  A    between atoms: _31  and  _32
REMARK   16  A    between atoms: _31  and  _33
REMARK   17  A    between atoms: _34  and  _36
REMARK                            x       y       z     vdW  Elec       q    Type
REMARK                         _______ _______ _______ _____ _____    ______ ____
ROOT
ATOM      1  C   UNL     1      -2.872  11.368  23.024  0.00  0.00    +0.163 C 
ENDROOT
BRANCH   1   2
ATOM      2  O   UNL     1      -2.374  11.982  24.225  0.00  0.00    -0.388 OA
ATOM      3  H   UNL     1      -3.078  12.030  24.876  0.00  0.00    +0.210 HD
ENDBRANCH   1   2
BRANCH   1   4
ATOM      4  C   UNL     1      -3.511  12.422  22.126  0.00  0.00    +0.141 C 
BRANCH   4   7
ATOM      5  C   UNL     1      -5.242  14.020  22.872  0.00  0.00    +0.401 C 
ATOM      6  O   UNL     1      -6.139  13.508  22.199  0.00  0.00    -0.226 OA
ATOM      7  N   UNL     1      -3.983  13.582  22.893  0.00  0.00    -0.279 N 
ATOM      8  H   UNL     1      -3.315  14.075  23.469  0.00  0.00    +0.152 HD
BRANCH   5   9
ATOM      9  O   UNL     1      -5.546  15.158  23.682  0.00  0.00    -0.444 OA
BRANCH   9  10
ATOM     10  C   UNL     1      -6.649  14.854  24.540  0.00  0.00    +0.292 C 
BRANCH  10  12
ATOM     11  N   UNL     1      -5.097  13.330  25.721  0.00  0.00    -0.131 NA
ATOM     12  C   UNL     1      -6.180  14.169  25.759  0.00  0.00    +0.120 A 
ATOM     13  C   UNL     1      -6.669  14.218  27.046  0.00  0.00    +0.137 A 
ATOM     14  N   UNL     1      -5.877  13.343  27.730  0.00  0.00    -0.247 N 
ATOM     15  N   UNL     1      -4.908  12.843  26.941  0.00  0.00    -0.065 NA
BRANCH  14  16
ATOM     16  C   UNL     1      -5.955  12.964  29.129  0.00  0.00    +0.180 C 
BRANCH  16  17
ATOM     17  C   UNL     1      -4.918  13.669  29.958  0.00  0.00    -0.019 A 
ATOM     18  C   UNL     1      -4.993  15.047  30.357  0.00  0.00    +0.013 A 
ATOM     19  C   UNL     1      -3.892  15.454  31.079  0.00  0.00    +0.045 A 
ATOM     20  S   UNL     1      -2.766  14.190  31.297  0.00  0.00    -0.105 S 
ATOM     21  C   UNL     1      -3.741  13.098  30.416  0.00  0.00    +0.050 A 
ENDBRANCH  16  17
ENDBRANCH  14  16
ENDBRANCH  10  12
ENDBRANCH   9  10
ENDBRANCH   5   9
ENDBRANCH   4   7
ENDBRANCH   1   4
BRANCH   1  22
ATOM     22  C   UNL     1      -3.905  10.277  23.352  0.00  0.00    +0.175 C 
BRANCH  22  23
ATOM     23  C   UNL     1      -3.918   9.924  24.847  0.00  0.00    +0.176 C 
ATOM     24  O   UNL     1      -2.973   8.839  25.058  0.00  0.00    -0.332 OA
ATOM     25  C   UNL     1      -2.772   8.436  26.453  0.00  0.00    +0.277 C 
ATOM     26  C   UNL     1      -4.126   8.086  27.116  0.00  0.00    +0.110 C 
ATOM     27  C   UNL     1      -5.174   9.196  26.891  0.00  0.00    +0.143 C 
ATOM     28  C   UNL     1      -5.301   9.539  25.406  0.00  0.00    +0.133 C 
BRANCH  28  29
ATOM     29  N   UNL     1      -6.237  10.657  25.213  0.00  0.00    -0.308 N 
ATOM     30  H   UNL     1      -6.028  11.532  25.672  0.00  0.00    +0.149 HD
ATOM     31  C   UNL     1      -7.346  10.590  24.471  0.00  0.00    +0.210 C 
ATOM     32  C   UNL     1      -7.651   9.234  23.807  0.00  0.00    +0.109 C 
ATOM     33  O   UNL     1      -8.105  11.547  24.316  0.00  0.00    -0.276 OA
ENDBRANCH  28  29
BRANCH  25  34
ATOM     34  C   UNL     1      -2.082   9.561  27.253  0.00  0.00    +0.414 C 
ATOM     35  O   UNL     1      -1.162  10.205  26.750  0.00  0.00    -0.240 OA
ATOM     36  O   UNL     1      -2.444   9.824  28.400  0.00  0.00    -0.240 OA
ENDBRANCH  25  34
BRANCH  25  37
ATOM     37  O   UNL     1      -1.938   7.249  26.461  0.00  0.00    -0.343 OA
ATOM     38  C   UNL     1      -2.076   6.412  27.638  0.00  0.00    +0.198 C 
ENDBRANCH  25  37
BRANCH  27  39
ATOM     39  O   UNL     1      -6.444   8.767  27.385  0.00  0.00    -0.390 OA
ATOM     40  H   UNL     1      -6.736   7.997  26.892  0.00  0.00    +0.210 HD
ENDBRANCH  27  39
ENDBRANCH  22  23
BRANCH  22  41
ATOM     41  O   UNL     1      -3.649   9.097  22.565  0.00  0.00    -0.387 OA
ATOM     42  H   UNL     1      -3.577   9.339  21.639  0.00  0.00    +0.210 HD
ENDBRANCH  22  41
ENDBRANCH   1  22
TORSDOF 15
