REMARK VINA RESULT:    -4.693      7.965     11.254
REMARK INTER + INTRA:         -11.446
REMARK INTER:                  -8.695
REMARK INTRA:                  -2.751
REMARK UNBOUND:                -3.049
REMARK  Name = lig_assembled_28.pdb
REMARK  17 active torsions:
REMARK  status: ('A' for Active; 'I' for Inactive)
REMARK    1  A    between atoms: _2  and  _9
REMARK    2  A    between atoms: _4  and  _22
REMARK    3  A    between atoms: _6  and  _7
REMARK    4  A    between atoms: _6  and  _22
REMARK    5  A    between atoms: _9  and  _10
REMARK    6  A    between atoms: _18  and  _38
REMARK    7  A    between atoms: _20  and  _26
REMARK    8  A    between atoms: _21  and  _25
REMARK    9  A    between atoms: _25  and  _26
REMARK   10  A    between atoms: _28  and  _29
REMARK   11  A    between atoms: _30  and  _31
REMARK   12  A    between atoms: _32  and  _34
REMARK   13  A    between atoms: _34  and  _35
REMARK   14  A    between atoms: _34  and  _36
REMARK   15  A    between atoms: _36  and  _37
REMARK   16  A    between atoms: _36  and  _38
REMARK   17  A    between atoms: _39  and  _41
REMARK                            x       y       z     vdW  Elec       q    Type
REMARK                         _______ _______ _______ _____ _____    ______ ____
ROOT
ATOM      1  C   UNL     1      -3.041   9.579  13.930  0.00  0.00    +0.163 C 
ENDROOT
BRANCH   1   2
ATOM      2  O   UNL     1      -1.716   9.179  13.544  0.00  0.00    -0.388 OA
ATOM      3  H   UNL     1      -1.647   8.222  13.580  0.00  0.00    +0.210 HD
ENDBRANCH   1   2
BRANCH   1   4
ATOM      4  C   UNL     1      -3.655   8.531  14.852  0.00  0.00    +0.141 C 
BRANCH   4   7
ATOM      5  C   UNL     1      -5.608   9.019  16.285  0.00  0.00    +0.401 C 
ATOM      6  O   UNL     1      -6.401   8.392  15.579  0.00  0.00    -0.226 OA
ATOM      7  N   UNL     1      -4.308   9.142  16.017  0.00  0.00    -0.279 N 
ATOM      8  H   UNL     1      -3.739   9.685  16.651  0.00  0.00    +0.152 HD
BRANCH   5   9
ATOM      9  O   UNL     1      -6.091   9.666  17.465  0.00  0.00    -0.444 OA
BRANCH   9  10
ATOM     10  C   UNL     1      -4.986  10.019  18.302  0.00  0.00    +0.292 C 
BRANCH  10  12
ATOM     11  N   UNL     1      -6.087  12.153  18.921  0.00  0.00    -0.131 NA
ATOM     12  C   UNL     1      -5.397  11.031  19.294  0.00  0.00    +0.120 A 
ATOM     13  C   UNL     1      -5.224  11.043  20.659  0.00  0.00    +0.137 A 
ATOM     14  N   UNL     1      -5.915  12.146  21.073  0.00  0.00    -0.247 N 
ATOM     15  N   UNL     1      -6.388  12.836  20.017  0.00  0.00    -0.065 NA
BRANCH  14  16
ATOM     16  C   UNL     1      -6.266  12.591  22.415  0.00  0.00    +0.180 C 
BRANCH  16  17
ATOM     17  C   UNL     1      -5.155  12.413  23.423  0.00  0.00    -0.022 A 
ATOM     18  C   UNL     1      -5.149  11.296  24.278  0.00  0.00    +0.055 A 
ATOM     19  C   UNL     1      -4.056  11.116  25.100  0.00  0.00    +0.167 A 
ATOM     20  O   UNL     1      -3.865  10.066  25.944  0.00  0.00    -0.453 OA
ATOM     21  C   UNL     1      -2.533  10.347  26.422  0.00  0.00    +0.466 C 
ATOM     22  O   UNL     1      -2.022  11.622  25.977  0.00  0.00    -0.453 OA
ATOM     23  C   UNL     1      -3.009  12.003  25.122  0.00  0.00    +0.166 A 
ATOM     24  C   UNL     1      -2.995  13.127  24.324  0.00  0.00    +0.050 A 
ATOM     25  C   UNL     1      -4.077  13.327  23.462  0.00  0.00    +0.009 A 
ENDBRANCH  16  17
ENDBRANCH  14  16
ENDBRANCH  10  12
ENDBRANCH   9  10
ENDBRANCH   5   9
ENDBRANCH   4   7
ENDBRANCH   1   4
BRANCH   1  26
ATOM     26  C   UNL     1      -3.940   9.768  12.696  0.00  0.00    +0.175 C 
BRANCH  26  27
ATOM     27  C   UNL     1      -3.750  11.147  12.048  0.00  0.00    +0.176 C 
ATOM     28  O   UNL     1      -2.461  11.152  11.376  0.00  0.00    -0.332 OA
ATOM     29  C   UNL     1      -2.151  12.361  10.607  0.00  0.00    +0.277 C 
ATOM     30  C   UNL     1      -2.281  13.619  11.500  0.00  0.00    +0.110 C 
ATOM     31  C   UNL     1      -3.624  13.642  12.260  0.00  0.00    +0.143 C 
ATOM     32  C   UNL     1      -3.846  12.336  13.023  0.00  0.00    +0.133 C 
BRANCH  32  33
ATOM     33  N   UNL     1      -5.166  12.335  13.671  0.00  0.00    -0.308 N 
ATOM     34  H   UNL     1      -5.980  12.210  13.084  0.00  0.00    +0.149 HD
ATOM     35  C   UNL     1      -5.361  12.488  14.984  0.00  0.00    +0.210 C 
ATOM     36  C   UNL     1      -4.103  12.701  15.847  0.00  0.00    +0.109 C 
ATOM     37  O   UNL     1      -6.478  12.468  15.501  0.00  0.00    -0.276 OA
ENDBRANCH  32  33
BRANCH  29  38
ATOM     38  C   UNL     1      -3.093  12.492   9.392  0.00  0.00    +0.414 C 
ATOM     39  O   UNL     1      -3.452  11.490   8.775  0.00  0.00    -0.240 OA
ATOM     40  O   UNL     1      -3.494  13.599   9.029  0.00  0.00    -0.240 OA
ENDBRANCH  29  38
BRANCH  29  41
ATOM     41  O   UNL     1      -0.777  12.264  10.151  0.00  0.00    -0.343 OA
ATOM     42  C   UNL     1       0.093  13.334  10.598  0.00  0.00    +0.198 C 
ENDBRANCH  29  41
BRANCH  31  43
ATOM     43  O   UNL     1      -3.638  14.733  13.181  0.00  0.00    -0.390 OA
ATOM     44  H   UNL     1      -3.731  15.558  12.699  0.00  0.00    +0.210 HD
ENDBRANCH  31  43
ENDBRANCH  26  27
BRANCH  26  45
ATOM     45  O   UNL     1      -5.323   9.573  13.054  0.00  0.00    -0.387 OA
ATOM     46  H   UNL     1      -5.398   9.494  14.008  0.00  0.00    +0.210 HD
ENDBRANCH  26  45
ENDBRANCH   1  26
TORSDOF 15
