REMARK VINA RESULT:    -5.025      5.857     11.946
REMARK INTER + INTRA:         -11.437
REMARK INTER:                  -7.722
REMARK INTRA:                  -3.715
REMARK UNBOUND:                -2.447
REMARK  Name = lig_assembled_85.pdb
REMARK  19 active torsions:
REMARK  status: ('A' for Active; 'I' for Inactive)
REMARK    1  A    between atoms: _2  and  _10
REMARK    2  A    between atoms: _3  and  _6
REMARK    3  A    between atoms: _3  and  _17
REMARK    4  A    between atoms: _5  and  _23
REMARK    5  A    between atoms: _7  and  _8
REMARK    6  A    between atoms: _7  and  _23
REMARK    7  A    between atoms: _15  and  _16
REMARK    8  A    between atoms: _19  and  _39
REMARK    9  A    between atoms: _21  and  _27
REMARK   10  A    between atoms: _22  and  _26
REMARK   11  A    between atoms: _26  and  _27
REMARK   12  A    between atoms: _29  and  _30
REMARK   13  A    between atoms: _31  and  _32
REMARK   14  A    between atoms: _33  and  _35
REMARK   15  A    between atoms: _35  and  _36
REMARK   16  A    between atoms: _35  and  _37
REMARK   17  A    between atoms: _37  and  _38
REMARK   18  A    between atoms: _37  and  _39
REMARK   19  A    between atoms: _40  and  _42
REMARK                            x       y       z     vdW  Elec       q    Type
REMARK                         _______ _______ _______ _____ _____    ______ ____
ROOT
ATOM      1  C   UNL     1      -4.901   7.465  24.202  0.00  0.00    +0.141 C 
ENDROOT
BRANCH   1   4
ATOM      2  C   UNL     1      -3.103   6.950  25.817  0.00  0.00    +0.401 C 
ATOM      3  O   UNL     1      -3.427   5.767  25.944  0.00  0.00    -0.226 OA
ATOM      4  N   UNL     1      -3.740   7.817  25.029  0.00  0.00    -0.279 N 
ATOM      5  H   UNL     1      -3.405   8.769  24.998  0.00  0.00    +0.152 HD
BRANCH   2   6
ATOM      6  O   UNL     1      -1.982   7.446  26.553  0.00  0.00    -0.444 OA
BRANCH   6   7
ATOM      7  C   UNL     1      -1.946   6.828  27.842  0.00  0.00    +0.292 C 
BRANCH   7   9
ATOM      8  N   UNL     1      -2.855   7.249  30.099  0.00  0.00    -0.131 NA
ATOM      9  C   UNL     1      -2.559   7.712  28.849  0.00  0.00    +0.121 A 
ATOM     10  C   UNL     1      -2.873   9.050  28.772  0.00  0.00    +0.143 A 
ATOM     11  N   UNL     1      -3.358   9.365  30.018  0.00  0.00    -0.219 N 
ATOM     12  N   UNL     1      -3.314   8.268  30.811  0.00  0.00    -0.060 NA
BRANCH  11  13
ATOM     13  C   UNL     1      -3.763  10.614  30.537  0.00  0.00    +0.080 A 
ATOM     14  C   UNL     1      -4.871  11.339  30.072  0.00  0.00    +0.062 A 
ATOM     15  C   UNL     1      -5.009  12.678  30.507  0.00  0.00    +0.016 A 
ATOM     16  C   UNL     1      -4.097  13.267  31.390  0.00  0.00    +0.021 A 
ATOM     17  C   UNL     1      -3.051  12.510  31.894  0.00  0.00    +0.043 A 
ATOM     18 CL   UNL     1      -1.901  13.227  32.953  0.00  0.00    -0.083 Cl
ATOM     19  C   UNL     1      -2.896  11.185  31.496  0.00  0.00    +0.048 A 
BRANCH  14  20
ATOM     20  C   UNL     1      -5.916  10.916  29.093  0.00  0.00    +0.248 C 
ATOM     21  O   UNL     1      -5.638  11.124  27.909  0.00  0.00    -0.270 OA
ATOM     22  N   UNL     1      -7.158  10.384  29.459  0.00  0.00    -0.304 N 
ATOM     23  C   UNL     1      -7.593   9.960  30.783  0.00  0.00    +0.132 C 
ATOM     24  C   UNL     1      -8.061  10.037  28.366  0.00  0.00    +0.132 C 
ENDBRANCH  14  20
ENDBRANCH  11  13
ENDBRANCH   7   9
ENDBRANCH   6   7
ENDBRANCH   2   6
ENDBRANCH   1   4
BRANCH   1  25
ATOM     25  C   UNL     1      -6.070   8.419  24.426  0.00  0.00    +0.163 C 
BRANCH  25  26
ATOM     26  O   UNL     1      -5.900   9.120  25.669  0.00  0.00    -0.388 OA
ATOM     27  H   UNL     1      -6.751   9.210  26.105  0.00  0.00    +0.210 HD
ENDBRANCH  25  26
BRANCH  25  28
ATOM     28  C   UNL     1      -6.163   9.404  23.248  0.00  0.00    +0.175 C 
BRANCH  28  29
ATOM     29  C   UNL     1      -5.056  10.468  23.295  0.00  0.00    +0.176 C 
ATOM     30  O   UNL     1      -5.391  11.414  24.348  0.00  0.00    -0.332 OA
ATOM     31  C   UNL     1      -4.387  12.449  24.612  0.00  0.00    +0.277 C 
ATOM     32  C   UNL     1      -4.044  13.214  23.310  0.00  0.00    +0.110 C 
ATOM     33  C   UNL     1      -3.712  12.249  22.153  0.00  0.00    +0.143 C 
ATOM     34  C   UNL     1      -4.821  11.212  21.968  0.00  0.00    +0.133 C 
BRANCH  34  35
ATOM     35  N   UNL     1      -4.453  10.246  20.921  0.00  0.00    -0.308 N 
ATOM     36  H   UNL     1      -3.614   9.701  21.056  0.00  0.00    +0.149 HD
ATOM     37  C   UNL     1      -5.157  10.042  19.804  0.00  0.00    +0.210 C 
ATOM     38  C   UNL     1      -6.417  10.907  19.616  0.00  0.00    +0.109 C 
ATOM     39  O   UNL     1      -4.833   9.215  18.951  0.00  0.00    -0.276 OA
ENDBRANCH  34  35
BRANCH  31  40
ATOM     40  C   UNL     1      -3.102  11.829  25.199  0.00  0.00    +0.414 C 
ATOM     41  O   UNL     1      -2.037  12.442  25.144  0.00  0.00    -0.240 OA
ATOM     42  O   UNL     1      -3.131  10.717  25.728  0.00  0.00    -0.240 OA
ENDBRANCH  31  40
BRANCH  33  43
ATOM     43  O   UNL     1      -3.551  12.987  20.941  0.00  0.00    -0.390 OA
ATOM     44  H   UNL     1      -2.908  13.687  21.074  0.00  0.00    +0.210 HD
ENDBRANCH  33  43
BRANCH  31  45
ATOM     45  O   UNL     1      -4.952  13.391  25.560  0.00  0.00    -0.343 OA
ATOM     46  C   UNL     1      -6.114  14.117  25.084  0.00  0.00    +0.198 C 
ENDBRANCH  31  45
ENDBRANCH  28  29
BRANCH  28  47
ATOM     47  O   UNL     1      -7.458  10.035  23.229  0.00  0.00    -0.387 OA
ATOM     48  H   UNL     1      -8.013   9.647  23.910  0.00  0.00    +0.210 HD
ENDBRANCH  28  47
ENDBRANCH  25  28
ENDBRANCH   1  25
TORSDOF 15
