REMARK VINA RESULT:    -5.173      6.985     11.183
REMARK INTER + INTRA:         -12.222
REMARK INTER:                  -8.800
REMARK INTRA:                  -3.422
REMARK UNBOUND:                -2.966
REMARK  Name = lig_assembled_89.pdb
REMARK  19 active torsions:
REMARK  status: ('A' for Active; 'I' for Inactive)
REMARK    1  A    between atoms: _2  and  _12
REMARK    2  A    between atoms: _5  and  _20
REMARK    3  A    between atoms: _7  and  _29
REMARK    4  A    between atoms: _9  and  _10
REMARK    5  A    between atoms: _9  and  _29
REMARK    6  A    between atoms: _20  and  _21
REMARK    7  A    between atoms: _20  and  _22
REMARK    8  A    between atoms: _25  and  _45
REMARK    9  A    between atoms: _27  and  _33
REMARK   10  A    between atoms: _28  and  _32
REMARK   11  A    between atoms: _32  and  _33
REMARK   12  A    between atoms: _35  and  _36
REMARK   13  A    between atoms: _37  and  _38
REMARK   14  A    between atoms: _39  and  _41
REMARK   15  A    between atoms: _41  and  _42
REMARK   16  A    between atoms: _41  and  _43
REMARK   17  A    between atoms: _43  and  _44
REMARK   18  A    between atoms: _43  and  _45
REMARK   19  A    between atoms: _46  and  _48
REMARK                            x       y       z     vdW  Elec       q    Type
REMARK                         _______ _______ _______ _____ _____    ______ ____
ROOT
ATOM      1  C   UNL     1      -2.572   7.236  27.404  0.00  0.00    +0.401 C 
ATOM      2  O   UNL     1      -1.961   7.470  26.360  0.00  0.00    -0.226 OA
ATOM      3  N   UNL     1      -3.893   7.062  27.472  0.00  0.00    -0.279 N 
ATOM      4  H   UNL     1      -4.302   6.865  28.375  0.00  0.00    +0.152 HD
ENDROOT
BRANCH   3   5
ATOM      5  C   UNL     1      -4.786   7.142  26.310  0.00  0.00    +0.141 C 
BRANCH   5   6
ATOM      6  C   UNL     1      -5.806   8.267  26.453  0.00  0.00    +0.163 C 
BRANCH   6   7
ATOM      7  O   UNL     1      -5.296   9.285  27.329  0.00  0.00    -0.388 OA
ATOM      8  H   UNL     1      -5.818  10.085  27.228  0.00  0.00    +0.210 HD
ENDBRANCH   6   7
BRANCH   6   9
ATOM      9  C   UNL     1      -6.131   8.846  25.065  0.00  0.00    +0.175 C 
BRANCH   9  10
ATOM     10  C   UNL     1      -4.987   9.714  24.519  0.00  0.00    +0.176 C 
ATOM     11  O   UNL     1      -5.258  11.094  24.889  0.00  0.00    -0.332 OA
ATOM     12  C   UNL     1      -4.212  12.060  24.541  0.00  0.00    +0.277 C 
ATOM     13  C   UNL     1      -3.880  11.978  23.030  0.00  0.00    +0.110 C 
ATOM     14  C   UNL     1      -3.616  10.525  22.583  0.00  0.00    +0.143 C 
ATOM     15  C   UNL     1      -4.765   9.606  22.999  0.00  0.00    +0.133 C 
BRANCH  15  16
ATOM     16  N   UNL     1      -4.463   8.210  22.645  0.00  0.00    -0.308 N 
ATOM     17  H   UNL     1      -3.661   7.776  23.081  0.00  0.00    +0.149 HD
ATOM     18  C   UNL     1      -5.178   7.479  21.786  0.00  0.00    +0.210 C 
ATOM     19  C   UNL     1      -6.378   8.178  21.119  0.00  0.00    +0.109 C 
ATOM     20  O   UNL     1      -4.909   6.307  21.519  0.00  0.00    -0.276 OA
ENDBRANCH  15  16
BRANCH  12  21
ATOM     21  C   UNL     1      -2.932  11.802  25.364  0.00  0.00    +0.414 C 
ATOM     22  O   UNL     1      -2.926  10.946  26.248  0.00  0.00    -0.240 OA
ATOM     23  O   UNL     1      -1.907  12.448  25.144  0.00  0.00    -0.240 OA
ENDBRANCH  12  21
BRANCH  14  24
ATOM     24  O   UNL     1      -3.466  10.477  21.164  0.00  0.00    -0.390 OA
ATOM     25  H   UNL     1      -4.262  10.115  20.769  0.00  0.00    +0.210 HD
ENDBRANCH  14  24
BRANCH  12  26
ATOM     26  O   UNL     1      -4.716  13.390  24.827  0.00  0.00    -0.343 OA
ATOM     27  C   UNL     1      -4.819  14.266  23.676  0.00  0.00    +0.198 C 
ENDBRANCH  12  26
ENDBRANCH   9  10
BRANCH   9  28
ATOM     28  O   UNL     1      -7.352   9.610  25.119  0.00  0.00    -0.387 OA
ATOM     29  H   UNL     1      -7.653   9.670  26.029  0.00  0.00    +0.210 HD
ENDBRANCH   9  28
ENDBRANCH   6   9
ENDBRANCH   5   6
ENDBRANCH   3   5
BRANCH   1  30
ATOM     30  O   UNL     1      -1.842   7.136  28.629  0.00  0.00    -0.444 OA
BRANCH  30  31
ATOM     31  C   UNL     1      -2.756   7.067  29.727  0.00  0.00    +0.292 C 
BRANCH  31  33
ATOM     32  N   UNL     1      -4.715   8.498  30.165  0.00  0.00    -0.131 NA
ATOM     33  C   UNL     1      -3.372   8.385  29.959  0.00  0.00    +0.121 A 
ATOM     34  C   UNL     1      -2.800   9.632  30.035  0.00  0.00    +0.145 A 
ATOM     35  N   UNL     1      -3.843  10.492  30.319  0.00  0.00    -0.199 N 
ATOM     36  N   UNL     1      -4.989   9.776  30.391  0.00  0.00    -0.059 NA
BRANCH  35  37
ATOM     37  C   UNL     1      -3.722  11.886  30.594  0.00  0.00    +0.186 A 
ATOM     38  C   UNL     1      -4.380  12.958  30.025  0.00  0.00    +0.158 A 
ATOM     39  C   UNL     1      -5.281  13.081  28.921  0.00  0.00    +0.280 A 
ATOM     40  O   UNL     1      -5.365  12.230  28.045  0.00  0.00    -0.265 OA
ATOM     41  N   UNL     1      -6.043  14.266  28.896  0.00  0.00    -0.302 N 
ATOM     42  C   UNL     1      -5.604  15.427  29.639  0.00  0.00    +0.069 A 
ATOM     43  C   UNL     1      -6.150  16.704  29.442  0.00  0.00    +0.028 A 
ATOM     44  C   UNL     1      -5.666  17.817  30.143  0.00  0.00    +0.002 A 
ATOM     45  C   UNL     1      -4.632  17.678  31.063  0.00  0.00    +0.002 A 
ATOM     46  C   UNL     1      -4.076  16.424  31.293  0.00  0.00    +0.028 A 
ATOM     47  C   UNL     1      -4.555  15.316  30.578  0.00  0.00    +0.072 A 
ATOM     48  N   UNL     1      -4.010  14.038  30.780  0.00  0.00    -0.291 N 
ATOM     49  C   UNL     1      -3.073  13.605  31.684  0.00  0.00    +0.207 A 
ATOM     50  N   UNL     1      -2.882  12.305  31.608  0.00  0.00    -0.216 NA
BRANCH  41  51
ATOM     51  C   UNL     1      -7.168  14.347  27.936  0.00  0.00    +0.085 C 
ATOM     52  C   UNL     1      -6.914  15.314  26.763  0.00  0.00    +0.030 C 
ATOM     53  C   UNL     1      -8.486  14.686  28.632  0.00  0.00    +0.030 C 
ENDBRANCH  41  51
ENDBRANCH  35  37
ENDBRANCH  31  33
ENDBRANCH  30  31
ENDBRANCH   1  30
TORSDOF 15
