REMARK VINA RESULT:    -5.049      2.599      8.328
REMARK INTER + INTRA:         -12.980
REMARK INTER:                  -9.211
REMARK INTRA:                  -3.768
REMARK UNBOUND:                -3.060
REMARK  Name = lig_assembled_37.pdb
REMARK  21 active torsions:
REMARK  status: ('A' for Active; 'I' for Inactive)
REMARK    1  A    between atoms: _2  and  _9
REMARK    2  A    between atoms: _4  and  _24
REMARK    3  A    between atoms: _6  and  _7
REMARK    4  A    between atoms: _6  and  _24
REMARK    5  A    between atoms: _9  and  _10
REMARK    6  A    between atoms: _9  and  _11
REMARK    7  A    between atoms: _11  and  _18
REMARK    8  A    between atoms: _12  and  _13
REMARK    9  A    between atoms: _12  and  _18
REMARK   10  A    between atoms: _20  and  _40
REMARK   11  A    between atoms: _22  and  _28
REMARK   12  A    between atoms: _23  and  _27
REMARK   13  A    between atoms: _27  and  _28
REMARK   14  A    between atoms: _30  and  _31
REMARK   15  A    between atoms: _32  and  _33
REMARK   16  A    between atoms: _34  and  _36
REMARK   17  A    between atoms: _36  and  _37
REMARK   18  A    between atoms: _36  and  _38
REMARK   19  A    between atoms: _38  and  _39
REMARK   20  A    between atoms: _38  and  _40
REMARK   21  A    between atoms: _41  and  _43
REMARK                            x       y       z     vdW  Elec       q    Type
REMARK                         _______ _______ _______ _____ _____    ______ ____
ROOT
ATOM      1  C   UNL     1      -6.020   7.641  22.786  0.00  0.00    +0.141 C 
ENDROOT
BRANCH   1   4
ATOM      2  C   UNL     1      -4.083   6.182  23.262  0.00  0.00    +0.401 C 
ATOM      3  O   UNL     1      -4.514   5.235  22.599  0.00  0.00    -0.226 OA
ATOM      4  N   UNL     1      -4.724   7.342  23.409  0.00  0.00    -0.279 N 
ATOM      5  H   UNL     1      -4.294   8.056  23.980  0.00  0.00    +0.152 HD
BRANCH   2   6
ATOM      6  O   UNL     1      -2.824   6.048  23.926  0.00  0.00    -0.444 OA
BRANCH   6   7
ATOM      7  C   UNL     1      -3.029   5.515  25.237  0.00  0.00    +0.292 C 
BRANCH   7   9
ATOM      8  N   UNL     1      -1.737   7.291  26.387  0.00  0.00    -0.131 NA
ATOM      9  C   UNL     1      -2.899   6.578  26.251  0.00  0.00    +0.120 A 
ATOM     10  C   UNL     1      -3.816   7.033  27.171  0.00  0.00    +0.138 A 
ATOM     11  N   UNL     1      -3.146   8.002  27.858  0.00  0.00    -0.238 N 
ATOM     12  N   UNL     1      -1.902   8.166  27.370  0.00  0.00    -0.065 NA
BRANCH  11  13
ATOM     13  C   UNL     1      -3.613   8.861  28.928  0.00  0.00    +0.214 C 
ATOM     14  C   UNL     1      -2.482   9.216  29.893  0.00  0.00    +0.045 C 
BRANCH  13  15
ATOM     15  C   UNL     1      -4.249  10.119  28.381  0.00  0.00    +0.332 C 
ATOM     16  O   UNL     1      -5.213  10.127  27.624  0.00  0.00    -0.248 OA
BRANCH  15  17
ATOM     17  O   UNL     1      -3.610  11.230  28.837  0.00  0.00    -0.458 OA
BRANCH  17  18
ATOM     18  C   UNL     1      -4.452  12.302  29.289  0.00  0.00    +0.267 C 
BRANCH  18  19
ATOM     19  C   UNL     1      -3.876  12.916  30.539  0.00  0.00    -0.010 A 
ATOM     20  C   UNL     1      -3.450  12.104  31.599  0.00  0.00    +0.007 A 
ATOM     21  C   UNL     1      -2.891  12.670  32.746  0.00  0.00    +0.000 A 
ATOM     22  C   UNL     1      -2.753  14.053  32.846  0.00  0.00    +0.000 A 
ATOM     23  C   UNL     1      -3.178  14.871  31.801  0.00  0.00    +0.000 A 
ATOM     24  C   UNL     1      -3.740  14.307  30.654  0.00  0.00    +0.007 A 
ENDBRANCH  18  19
ENDBRANCH  17  18
ENDBRANCH  15  17
ENDBRANCH  13  15
ENDBRANCH  11  13
ENDBRANCH   7   9
ENDBRANCH   6   7
ENDBRANCH   2   6
ENDBRANCH   1   4
BRANCH   1  25
ATOM     25  C   UNL     1      -6.693   8.850  23.428  0.00  0.00    +0.163 C 
BRANCH  25  26
ATOM     26  O   UNL     1      -6.195   9.039  24.762  0.00  0.00    -0.388 OA
ATOM     27  H   UNL     1      -5.235   9.053  24.748  0.00  0.00    +0.210 HD
ENDBRANCH  25  26
BRANCH  25  28
ATOM     28  C   UNL     1      -6.441  10.098  22.564  0.00  0.00    +0.175 C 
BRANCH  28  29
ATOM     29  C   UNL     1      -5.076  10.737  22.858  0.00  0.00    +0.176 C 
ATOM     30  O   UNL     1      -5.213  11.554  24.054  0.00  0.00    -0.332 OA
ATOM     31  C   UNL     1      -3.975  12.163  24.550  0.00  0.00    +0.277 C 
ATOM     32  C   UNL     1      -3.290  12.985  23.431  0.00  0.00    +0.110 C 
ATOM     33  C   UNL     1      -3.151  12.169  22.129  0.00  0.00    +0.143 C 
ATOM     34  C   UNL     1      -4.496  11.578  21.705  0.00  0.00    +0.133 C 
BRANCH  34  35
ATOM     35  N   UNL     1      -4.335  10.731  20.513  0.00  0.00    -0.308 N 
ATOM     36  H   UNL     1      -3.690   9.955  20.569  0.00  0.00    +0.149 HD
ATOM     37  C   UNL     1      -4.984  10.921  19.361  0.00  0.00    +0.210 C 
ATOM     38  C   UNL     1      -5.940  12.128  19.299  0.00  0.00    +0.109 C 
ATOM     39  O   UNL     1      -4.840  10.187  18.383  0.00  0.00    -0.276 OA
ENDBRANCH  34  35
BRANCH  31  40
ATOM     40  C   UNL     1      -3.002  11.083  25.066  0.00  0.00    +0.414 C 
ATOM     41  O   UNL     1      -1.942  11.407  25.600  0.00  0.00    -0.240 OA
ATOM     42  O   UNL     1      -3.277   9.888  24.949  0.00  0.00    -0.240 OA
ENDBRANCH  31  40
BRANCH  31  43
ATOM     43  O   UNL     1      -4.322  13.065  25.633  0.00  0.00    -0.343 OA
ATOM     44  C   UNL     1      -5.741  13.325  25.782  0.00  0.00    +0.198 C 
ENDBRANCH  31  43
BRANCH  33  45
ATOM     45  O   UNL     1      -2.656  13.008  21.085  0.00  0.00    -0.390 OA
ATOM     46  H   UNL     1      -2.903  12.639  20.233  0.00  0.00    +0.210 HD
ENDBRANCH  33  45
ENDBRANCH  28  29
BRANCH  28  47
ATOM     47  O   UNL     1      -7.494  11.061  22.764  0.00  0.00    -0.387 OA
ATOM     48  H   UNL     1      -7.964  11.197  21.938  0.00  0.00    +0.210 HD
ENDBRANCH  28  47
ENDBRANCH  25  28
ENDBRANCH   1  25
TORSDOF 18
