REMARK VINA RESULT:    -5.076      4.355      7.304
REMARK INTER + INTRA:         -11.671
REMARK INTER:                  -8.711
REMARK INTRA:                  -2.960
REMARK UNBOUND:                -2.589
REMARK  Name = lig_assembled_82.pdb
REMARK  19 active torsions:
REMARK  status: ('A' for Active; 'I' for Inactive)
REMARK    1  A    between atoms: _2  and  _9
REMARK    2  A    between atoms: _4  and  _22
REMARK    3  A    between atoms: _5  and  _16
REMARK    4  A    between atoms: _6  and  _7
REMARK    5  A    between atoms: _6  and  _22
REMARK    6  A    between atoms: _9  and  _10
REMARK    7  A    between atoms: _16  and  _17
REMARK    8  A    between atoms: _18  and  _38
REMARK    9  A    between atoms: _20  and  _26
REMARK   10  A    between atoms: _21  and  _25
REMARK   11  A    between atoms: _25  and  _26
REMARK   12  A    between atoms: _28  and  _29
REMARK   13  A    between atoms: _30  and  _31
REMARK   14  A    between atoms: _32  and  _34
REMARK   15  A    between atoms: _34  and  _35
REMARK   16  A    between atoms: _34  and  _36
REMARK   17  A    between atoms: _36  and  _37
REMARK   18  A    between atoms: _36  and  _38
REMARK   19  A    between atoms: _39  and  _41
REMARK                            x       y       z     vdW  Elec       q    Type
REMARK                         _______ _______ _______ _____ _____    ______ ____
ROOT
ATOM      1  C   UNL     1      -2.974  11.948  23.099  0.00  0.00    +0.163 C 
ENDROOT
BRANCH   1   2
ATOM      2  O   UNL     1      -2.236  12.201  24.306  0.00  0.00    -0.388 OA
ATOM      3  H   UNL     1      -2.712  12.839  24.844  0.00  0.00    +0.210 HD
ENDBRANCH   1   2
BRANCH   1   4
ATOM      4  C   UNL     1      -3.849  13.150  22.760  0.00  0.00    +0.141 C 
BRANCH   4   7
ATOM      5  C   UNL     1      -5.937  13.437  21.471  0.00  0.00    +0.401 C 
ATOM      6  O   UNL     1      -6.434  14.231  22.273  0.00  0.00    -0.226 OA
ATOM      7  N   UNL     1      -4.736  12.878  21.622  0.00  0.00    -0.279 N 
ATOM      8  H   UNL     1      -4.418  12.230  20.915  0.00  0.00    +0.152 HD
BRANCH   5   9
ATOM      9  O   UNL     1      -6.678  13.075  20.302  0.00  0.00    -0.444 OA
BRANCH   9  10
ATOM     10  C   UNL     1      -7.258  11.781  20.485  0.00  0.00    +0.292 C 
BRANCH  10  12
ATOM     11  N   UNL     1      -5.357  10.275  19.995  0.00  0.00    -0.131 NA
ATOM     12  C   UNL     1      -6.587  10.783  19.648  0.00  0.00    +0.120 A 
ATOM     13  C   UNL     1      -6.980  10.199  18.457  0.00  0.00    +0.137 A 
ATOM     14  N   UNL     1      -5.898   9.458  18.075  0.00  0.00    -0.247 N 
ATOM     15  N   UNL     1      -4.965   9.437  19.046  0.00  0.00    -0.065 NA
BRANCH  14  16
ATOM     16  C   UNL     1      -5.640   8.821  16.781  0.00  0.00    +0.176 C 
BRANCH  16  17
ATOM     17  C   UNL     1      -4.830   9.696  15.855  0.00  0.00    -0.049 C 
ATOM     18  C   UNL     1      -5.559  10.736  15.065  0.00  0.00    +0.023 C 
ATOM     19  C   UNL     1      -4.837  12.134  14.802  0.00  0.00    -0.025 C 
ATOM     20  C   UNL     1      -3.858  12.942  15.664  0.00  0.00    +0.012 C 
ATOM     21  C   UNL     1      -4.015  11.260  13.745  0.00  0.00    -0.000 C 
ATOM     22  C   UNL     1      -2.934  10.325  14.372  0.00  0.00    +0.031 C 
ATOM     23  C   UNL     1      -6.004  13.097  14.467  0.00  0.00    +0.012 C 
ATOM     24  C   UNL     1      -5.332  10.471  13.522  0.00  0.00    +0.012 C 
ATOM     25  C   UNL     1      -3.535   9.532  15.523  0.00  0.00    -0.025 C 
ENDBRANCH  16  17
ENDBRANCH  14  16
ENDBRANCH  10  12
ENDBRANCH   9  10
ENDBRANCH   5   9
ENDBRANCH   4   7
ENDBRANCH   1   4
BRANCH   1  26
ATOM     26  C   UNL     1      -3.855  10.696  23.245  0.00  0.00    +0.175 C 
BRANCH  26  27
ATOM     27  C   UNL     1      -3.962  10.232  24.706  0.00  0.00    +0.176 C 
ATOM     28  O   UNL     1      -2.944   9.217  24.928  0.00  0.00    -0.332 OA
ATOM     29  C   UNL     1      -2.826   8.729  26.305  0.00  0.00    +0.277 C 
ATOM     30  C   UNL     1      -4.194   8.218  26.818  0.00  0.00    +0.110 C 
ATOM     31  C   UNL     1      -5.315   9.251  26.574  0.00  0.00    +0.143 C 
ATOM     32  C   UNL     1      -5.346   9.692  25.110  0.00  0.00    +0.133 C 
BRANCH  32  33
ATOM     33  N   UNL     1      -6.360  10.739  24.909  0.00  0.00    -0.308 N 
ATOM     34  H   UNL     1      -6.277  11.587  25.452  0.00  0.00    +0.149 HD
ATOM     35  C   UNL     1      -7.383  10.641  24.056  0.00  0.00    +0.210 C 
ATOM     36  C   UNL     1      -7.498   9.326  23.263  0.00  0.00    +0.109 C 
ATOM     37  O   UNL     1      -8.210  11.541  23.897  0.00  0.00    -0.276 OA
ENDBRANCH  32  33
BRANCH  29  38
ATOM     38  C   UNL     1      -2.309   9.845  27.238  0.00  0.00    +0.414 C 
ATOM     39  O   UNL     1      -1.666  10.788  26.780  0.00  0.00    -0.240 OA
ATOM     40  O   UNL     1      -2.536   9.801  28.448  0.00  0.00    -0.240 OA
ENDBRANCH  29  38
BRANCH  29  41
ATOM     41  O   UNL     1      -1.892   7.618  26.309  0.00  0.00    -0.343 OA
ATOM     42  C   UNL     1      -2.327   6.456  27.059  0.00  0.00    +0.198 C 
ENDBRANCH  29  41
BRANCH  31  43
ATOM     43  O   UNL     1      -6.578   8.682  26.921  0.00  0.00    -0.390 OA
ATOM     44  H   UNL     1      -6.594   8.484  27.861  0.00  0.00    +0.210 HD
ENDBRANCH  31  43
ENDBRANCH  26  27
BRANCH  26  45
ATOM     45  O   UNL     1      -3.344   9.629  22.421  0.00  0.00    -0.387 OA
ATOM     46  H   UNL     1      -3.664   8.787  22.752  0.00  0.00    +0.210 HD
ENDBRANCH  26  45
ENDBRANCH   1  26
TORSDOF 15
