REMARK VINA RESULT:    -3.757      2.061      6.744
REMARK INTER + INTRA:          -9.872
REMARK INTER:                  -5.904
REMARK INTRA:                  -3.968
REMARK UNBOUND:                -3.040
REMARK  Name = lig_assembled_1.pdb
REMARK  18 active torsions:
REMARK  status: ('A' for Active; 'I' for Inactive)
REMARK    1  A    between atoms: _2  and  _9
REMARK    2  A    between atoms: _4  and  _15
REMARK    3  A    between atoms: _5  and  _9
REMARK    4  A    between atoms: _5  and  _10
REMARK    5  A    between atoms: _6  and  _7
REMARK    6  A    between atoms: _6  and  _15
REMARK    7  A    between atoms: _11  and  _31
REMARK    8  A    between atoms: _13  and  _19
REMARK    9  A    between atoms: _14  and  _18
REMARK   10  A    between atoms: _18  and  _19
REMARK   11  A    between atoms: _21  and  _22
REMARK   12  A    between atoms: _23  and  _24
REMARK   13  A    between atoms: _25  and  _27
REMARK   14  A    between atoms: _27  and  _28
REMARK   15  A    between atoms: _27  and  _29
REMARK   16  A    between atoms: _29  and  _30
REMARK   17  A    between atoms: _29  and  _31
REMARK   18  A    between atoms: _32  and  _34
REMARK                            x       y       z     vdW  Elec       q    Type
REMARK                         _______ _______ _______ _____ _____    ______ ____
ROOT
ATOM      1  C   UNL     1      -3.432  11.690  25.201  0.00  0.00    +0.175 C 
ENDROOT
BRANCH   1   2
ATOM      2  C   UNL     1      -4.096  10.383  24.744  0.00  0.00    +0.176 C 
ATOM      3  O   UNL     1      -3.322   9.276  25.282  0.00  0.00    -0.332 OA
ATOM      4  C   UNL     1      -3.871   7.940  25.034  0.00  0.00    +0.277 C 
ATOM      5  C   UNL     1      -4.109   7.725  23.519  0.00  0.00    +0.110 C 
ATOM      6  C   UNL     1      -4.901   8.893  22.895  0.00  0.00    +0.143 C 
ATOM      7  C   UNL     1      -4.244  10.235  23.218  0.00  0.00    +0.133 C 
BRANCH   7   8
ATOM      8  N   UNL     1      -5.054  11.346  22.693  0.00  0.00    -0.308 N 
ATOM      9  H   UNL     1      -5.992  11.455  23.051  0.00  0.00    +0.149 HD
ATOM     10  C   UNL     1      -4.631  12.217  21.774  0.00  0.00    +0.210 C 
ATOM     11  C   UNL     1      -3.206  12.008  21.229  0.00  0.00    +0.109 C 
ATOM     12  O   UNL     1      -5.327  13.147  21.363  0.00  0.00    -0.276 OA
ENDBRANCH   7   8
BRANCH   4  13
ATOM     13  C   UNL     1      -5.198   7.743  25.797  0.00  0.00    +0.414 C 
ATOM     14  O   UNL     1      -6.072   7.006  25.342  0.00  0.00    -0.240 OA
ATOM     15  O   UNL     1      -5.394   8.321  26.866  0.00  0.00    -0.240 OA
ENDBRANCH   4  13
BRANCH   4  16
ATOM     16  O   UNL     1      -2.898   6.963  25.487  0.00  0.00    -0.343 OA
ATOM     17  C   UNL     1      -2.877   5.725  24.734  0.00  0.00    +0.198 C 
ENDBRANCH   4  16
BRANCH   6  18
ATOM     18  O   UNL     1      -4.965   8.729  21.478  0.00  0.00    -0.390 OA
ATOM     19  H   UNL     1      -5.693   9.248  21.128  0.00  0.00    +0.210 HD
ENDBRANCH   6  18
ENDBRANCH   1   2
BRANCH   1  20
ATOM     20  O   UNL     1      -1.999  11.537  25.226  0.00  0.00    -0.387 OA
ATOM     21  H   UNL     1      -1.699  11.185  24.384  0.00  0.00    +0.210 HD
ENDBRANCH   1  20
BRANCH   1  22
ATOM     22  C   UNL     1      -3.940  12.146  26.580  0.00  0.00    +0.163 C 
BRANCH  22  23
ATOM     23  O   UNL     1      -3.432  11.296  27.622  0.00  0.00    -0.388 OA
ATOM     24  H   UNL     1      -4.155  10.794  28.007  0.00  0.00    +0.210 HD
ENDBRANCH  22  23
BRANCH  22  25
ATOM     25  C   UNL     1      -5.465  12.132  26.592  0.00  0.00    +0.141 C 
BRANCH  25  28
ATOM     26  C   UNL     1      -6.563  11.885  28.791  0.00  0.00    +0.401 C 
ATOM     27  O   UNL     1      -6.689  13.098  28.970  0.00  0.00    -0.226 OA
ATOM     28  N   UNL     1      -5.996  11.345  27.711  0.00  0.00    -0.279 N 
ATOM     29  H   UNL     1      -5.930  10.338  27.660  0.00  0.00    +0.152 HD
BRANCH  26  30
ATOM     30  O   UNL     1      -7.040  10.982  29.792  0.00  0.00    -0.444 OA
BRANCH  30  31
ATOM     31  C   UNL     1      -6.212  11.075  30.954  0.00  0.00    +0.292 C 
BRANCH  31  33
ATOM     32  N   UNL     1      -3.751  10.996  30.683  0.00  0.00    -0.131 NA
ATOM     33  C   UNL     1      -4.951  10.338  30.748  0.00  0.00    +0.120 A 
ATOM     34  C   UNL     1      -4.733   8.987  30.592  0.00  0.00    +0.137 A 
ATOM     35  N   UNL     1      -3.383   8.891  30.431  0.00  0.00    -0.249 N 
ATOM     36  N   UNL     1      -2.797  10.098  30.481  0.00  0.00    -0.065 NA
BRANCH  35  37
ATOM     37  C   UNL     1      -2.594   7.695  30.236  0.00  0.00    +0.173 C 
BRANCH  37  38
ATOM     38  C   UNL     1      -2.275   7.435  28.769  0.00  0.00    +0.179 C 
BRANCH  38  39
ATOM     39  O   UNL     1      -2.439   8.617  27.988  0.00  0.00    -0.393 OA
ATOM     40  H   UNL     1      -3.221   9.084  28.341  0.00  0.00    +0.209 HD
ENDBRANCH  38  39
ENDBRANCH  37  38
ENDBRANCH  35  37
ENDBRANCH  31  33
ENDBRANCH  30  31
ENDBRANCH  26  30
ENDBRANCH  25  28
ENDBRANCH  22  25
ENDBRANCH   1  22
TORSDOF 16
