REMARK VINA RESULT:    -4.060      5.242      7.458
REMARK INTER + INTRA:         -11.940
REMARK INTER:                  -7.683
REMARK INTRA:                  -4.257
REMARK UNBOUND:                -4.083
REMARK  Name = lig_assembled_83.pdb
REMARK  20 active torsions:
REMARK  status: ('A' for Active; 'I' for Inactive)
REMARK    1  A    between atoms: _2  and  _12
REMARK    2  A    between atoms: _3  and  _14
REMARK    3  A    between atoms: _7  and  _24
REMARK    4  A    between atoms: _9  and  _10
REMARK    5  A    between atoms: _9  and  _24
REMARK    6  A    between atoms: _12  and  _13
REMARK    7  A    between atoms: _13  and  _14
REMARK    8  A    between atoms: _13  and  _18
REMARK    9  A    between atoms: _20  and  _40
REMARK   10  A    between atoms: _22  and  _28
REMARK   11  A    between atoms: _23  and  _27
REMARK   12  A    between atoms: _27  and  _28
REMARK   13  A    between atoms: _30  and  _31
REMARK   14  A    between atoms: _32  and  _33
REMARK   15  A    between atoms: _34  and  _36
REMARK   16  A    between atoms: _36  and  _37
REMARK   17  A    between atoms: _36  and  _38
REMARK   18  A    between atoms: _38  and  _39
REMARK   19  A    between atoms: _38  and  _40
REMARK   20  A    between atoms: _41  and  _43
REMARK                            x       y       z     vdW  Elec       q    Type
REMARK                         _______ _______ _______ _____ _____    ______ ____
ROOT
ATOM      1  C   UNL     1      -2.946   9.723  28.101  0.00  0.00    +0.141 C 
ENDROOT
BRANCH   1   4
ATOM      2  C   UNL     1      -2.739   7.520  27.000  0.00  0.00    +0.401 C 
ATOM      3  O   UNL     1      -1.675   7.795  26.441  0.00  0.00    -0.226 OA
ATOM      4  N   UNL     1      -3.406   8.364  27.789  0.00  0.00    -0.279 N 
ATOM      5  H   UNL     1      -4.276   8.051  28.195  0.00  0.00    +0.152 HD
BRANCH   2   6
ATOM      6  O   UNL     1      -3.315   6.227  26.802  0.00  0.00    -0.444 OA
BRANCH   6   7
ATOM      7  C   UNL     1      -3.542   6.014  25.406  0.00  0.00    +0.292 C 
BRANCH   7   9
ATOM      8  N   UNL     1      -5.607   7.355  25.729  0.00  0.00    -0.131 NA
ATOM      9  C   UNL     1      -4.597   6.916  24.911  0.00  0.00    +0.120 A 
ATOM     10  C   UNL     1      -4.774   7.454  23.656  0.00  0.00    +0.137 A 
ATOM     11  N   UNL     1      -5.893   8.218  23.782  0.00  0.00    -0.249 N 
ATOM     12  N   UNL     1      -6.401   8.149  25.023  0.00  0.00    -0.065 NA
BRANCH  11  13
ATOM     13  C   UNL     1      -6.551   9.001  22.758  0.00  0.00    +0.178 C 
BRANCH  13  14
ATOM     14  C   UNL     1      -6.182  10.485  22.849  0.00  0.00    +0.156 C 
BRANCH  14  15
ATOM     15  O   UNL     1      -6.156  10.896  24.221  0.00  0.00    -0.388 OA
ATOM     16  H   UNL     1      -6.100  10.110  24.801  0.00  0.00    +0.210 HD
ENDBRANCH  14  15
BRANCH  14  17
ATOM     17  C   UNL     1      -4.818  10.742  22.190  0.00  0.00    +0.162 C 
BRANCH  17  18
ATOM     18  N   UNL     1      -4.302  12.071  22.476  0.00  0.00    -0.269 N 
ATOM     19  C   UNL     1      -4.644  13.190  21.750  0.00  0.00    +0.113 A 
ATOM     20  C   UNL     1      -3.979  14.235  22.348  0.00  0.00    +0.137 A 
ATOM     21  N   UNL     1      -3.220  13.792  23.396  0.00  0.00    -0.172 NA
ATOM     22  C   UNL     1      -3.435  12.491  23.457  0.00  0.00    +0.450 A 
ATOM     23  N   UNL     1      -2.816  11.648  24.455  0.00  0.00    +0.120 N 
ATOM     24  O   UNL     1      -3.083  10.435  24.430  0.00  0.00    +0.045 OA
ATOM     25  O   UNL     1      -2.049  12.187  25.261  0.00  0.00    -0.573 OA
ENDBRANCH  17  18
ENDBRANCH  14  17
ENDBRANCH  13  14
ENDBRANCH  11  13
ENDBRANCH   7   9
ENDBRANCH   6   7
ENDBRANCH   2   6
ENDBRANCH   1   4
BRANCH   1  26
ATOM     26  C   UNL     1      -4.010  10.770  27.785  0.00  0.00    +0.163 C 
BRANCH  26  27
ATOM     27  O   UNL     1      -4.944  10.247  26.827  0.00  0.00    -0.388 OA
ATOM     28  H   UNL     1      -5.828  10.255  27.203  0.00  0.00    +0.210 HD
ENDBRANCH  26  27
BRANCH  26  29
ATOM     29  C   UNL     1      -4.725  11.182  29.083  0.00  0.00    +0.175 C 
BRANCH  29  30
ATOM     30  C   UNL     1      -4.256  10.356  30.290  0.00  0.00    +0.176 C 
ATOM     31  O   UNL     1      -5.295   9.387  30.600  0.00  0.00    -0.332 OA
ATOM     32  C   UNL     1      -4.974   8.434  31.666  0.00  0.00    +0.277 C 
ATOM     33  C   UNL     1      -4.557   9.184  32.955  0.00  0.00    +0.110 C 
ATOM     34  C   UNL     1      -3.476  10.247  32.670  0.00  0.00    +0.143 C 
ATOM     35  C   UNL     1      -3.911  11.184  31.542  0.00  0.00    +0.133 C 
BRANCH  35  36
ATOM     36  N   UNL     1      -2.838  12.138  31.221  0.00  0.00    -0.308 N 
ATOM     37  H   UNL     1      -1.982  11.770  30.830  0.00  0.00    +0.149 HD
ATOM     38  C   UNL     1      -2.922  13.457  31.411  0.00  0.00    +0.210 C 
ATOM     39  C   UNL     1      -4.230  13.983  32.032  0.00  0.00    +0.109 C 
ATOM     40  O   UNL     1      -2.012  14.234  31.119  0.00  0.00    -0.276 OA
ENDBRANCH  35  36
BRANCH  32  41
ATOM     41  C   UNL     1      -3.838   7.486  31.229  0.00  0.00    +0.414 C 
ATOM     42  O   UNL     1      -3.988   6.743  30.261  0.00  0.00    -0.240 OA
ATOM     43  O   UNL     1      -2.771   7.466  31.845  0.00  0.00    -0.240 OA
ENDBRANCH  32  41
BRANCH  32  44
ATOM     44  O   UNL     1      -6.170   7.663  31.953  0.00  0.00    -0.343 OA
ATOM     45  C   UNL     1      -7.310   7.964  31.109  0.00  0.00    +0.198 C 
ENDBRANCH  32  44
BRANCH  34  46
ATOM     46  O   UNL     1      -3.231  11.014  33.850  0.00  0.00    -0.390 OA
ATOM     47  H   UNL     1      -3.795  11.791  33.850  0.00  0.00    +0.210 HD
ENDBRANCH  34  46
ENDBRANCH  29  30
BRANCH  29  48
ATOM     48  O   UNL     1      -6.153  11.061  28.923  0.00  0.00    -0.387 OA
ATOM     49  H   UNL     1      -6.594  11.418  29.697  0.00  0.00    +0.210 HD
ENDBRANCH  29  48
ENDBRANCH  26  29
ENDBRANCH   1  26
TORSDOF 18
