REMARK VINA RESULT:    -4.900      1.833      2.353
REMARK INTER + INTRA:         -10.491
REMARK INTER:                  -7.884
REMARK INTRA:                  -2.606
REMARK UNBOUND:                -2.010
REMARK  Name = lig_assembled_49.pdb
REMARK  16 active torsions:
REMARK  status: ('A' for Active; 'I' for Inactive)
REMARK    1  A    between atoms: _2  and  _9
REMARK    2  A    between atoms: _4  and  _17
REMARK    3  A    between atoms: _6  and  _7
REMARK    4  A    between atoms: _6  and  _17
REMARK    5  A    between atoms: _13  and  _33
REMARK    6  A    between atoms: _15  and  _21
REMARK    7  A    between atoms: _16  and  _20
REMARK    8  A    between atoms: _20  and  _21
REMARK    9  A    between atoms: _23  and  _24
REMARK   10  A    between atoms: _25  and  _26
REMARK   11  A    between atoms: _27  and  _29
REMARK   12  A    between atoms: _29  and  _30
REMARK   13  A    between atoms: _29  and  _31
REMARK   14  A    between atoms: _31  and  _32
REMARK   15  A    between atoms: _31  and  _33
REMARK   16  A    between atoms: _34  and  _36
REMARK                            x       y       z     vdW  Elec       q    Type
REMARK                         _______ _______ _______ _____ _____    ______ ____
ROOT
ATOM      1  C   UNL     1      -4.718  12.432  29.502  0.00  0.00    +0.175 C 
ENDROOT
BRANCH   1   2
ATOM      2  C   UNL     1      -4.487  13.506  30.575  0.00  0.00    +0.176 C 
ATOM      3  O   UNL     1      -4.308  12.833  31.851  0.00  0.00    -0.332 OA
ATOM      4  C   UNL     1      -3.969  13.700  32.983  0.00  0.00    +0.277 C 
ATOM      5  C   UNL     1      -5.016  14.831  33.131  0.00  0.00    +0.110 C 
ATOM      6  C   UNL     1      -5.264  15.556  31.791  0.00  0.00    +0.143 C 
ATOM      7  C   UNL     1      -5.605  14.560  30.683  0.00  0.00    +0.133 C 
BRANCH   7   8
ATOM      8  N   UNL     1      -5.753  15.254  29.394  0.00  0.00    -0.308 N 
ATOM      9  H   UNL     1      -4.923  15.640  28.968  0.00  0.00    +0.149 HD
ATOM     10  C   UNL     1      -6.914  15.406  28.750  0.00  0.00    +0.210 C 
ATOM     11  C   UNL     1      -8.165  14.830  29.439  0.00  0.00    +0.109 C 
ATOM     12  O   UNL     1      -7.006  15.980  27.664  0.00  0.00    -0.276 OA
ENDBRANCH   7   8
BRANCH   4  13
ATOM     13  C   UNL     1      -2.567  14.316  32.800  0.00  0.00    +0.414 C 
ATOM     14  O   UNL     1      -2.321  15.439  33.237  0.00  0.00    -0.240 OA
ATOM     15  O   UNL     1      -1.682  13.690  32.215  0.00  0.00    -0.240 OA
ENDBRANCH   4  13
BRANCH   6  16
ATOM     16  O   UNL     1      -6.339  16.484  31.938  0.00  0.00    -0.390 OA
ATOM     17  H   UNL     1      -7.039  16.085  32.460  0.00  0.00    +0.210 HD
ENDBRANCH   6  16
BRANCH   4  18
ATOM     18  O   UNL     1      -3.994  12.893  34.189  0.00  0.00    -0.343 OA
ATOM     19  C   UNL     1      -3.944  11.461  33.969  0.00  0.00    +0.198 C 
ENDBRANCH   4  18
ENDBRANCH   1   2
BRANCH   1  20
ATOM     20  O   UNL     1      -6.098  12.013  29.507  0.00  0.00    -0.387 OA
ATOM     21  H   UNL     1      -6.219  11.303  28.872  0.00  0.00    +0.210 HD
ENDBRANCH   1  20
BRANCH   1  22
ATOM     22  C   UNL     1      -3.795  11.216  29.691  0.00  0.00    +0.163 C 
BRANCH  22  23
ATOM     23  O   UNL     1      -2.953  11.026  28.542  0.00  0.00    -0.388 OA
ATOM     24  H   UNL     1      -2.050  10.871  28.828  0.00  0.00    +0.210 HD
ENDBRANCH  22  23
BRANCH  22  25
ATOM     25  C   UNL     1      -4.638   9.969  29.934  0.00  0.00    +0.141 C 
BRANCH  25  28
ATOM     26  C   UNL     1      -5.652   9.014  27.893  0.00  0.00    +0.401 C 
ATOM     27  O   UNL     1      -6.683   9.684  27.978  0.00  0.00    -0.226 OA
ATOM     28  N   UNL     1      -4.646   9.079  28.766  0.00  0.00    -0.279 N 
ATOM     29  H   UNL     1      -3.845   8.482  28.616  0.00  0.00    +0.152 HD
BRANCH  26  30
ATOM     30  O   UNL     1      -5.505   8.102  26.801  0.00  0.00    -0.444 OA
BRANCH  30  31
ATOM     31  C   UNL     1      -4.117   7.825  26.593  0.00  0.00    +0.292 C 
BRANCH  31  33
ATOM     32  N   UNL     1      -2.244   9.424  26.363  0.00  0.00    -0.131 NA
ATOM     33  C   UNL     1      -3.459   8.967  25.930  0.00  0.00    +0.120 A 
ATOM     34  C   UNL     1      -3.875   9.734  24.865  0.00  0.00    +0.137 A 
ATOM     35  N   UNL     1      -2.873  10.645  24.705  0.00  0.00    -0.248 N 
ATOM     36  N   UNL     1      -1.894  10.452  25.605  0.00  0.00    -0.065 NA
BRANCH  35  37
ATOM     37  C   UNL     1      -2.801  11.718  23.742  0.00  0.00    +0.109 C 
ATOM     38  C   UNL     1      -3.800  11.585  22.591  0.00  0.00    +0.027 C 
ATOM     39  C   UNL     1      -3.832  12.987  22.007  0.00  0.00    +0.002 C 
ATOM     40  C   UNL     1      -3.784  13.901  23.225  0.00  0.00    +0.002 C 
ATOM     41  C   UNL     1      -3.064  13.114  24.323  0.00  0.00    +0.027 C 
ENDBRANCH  35  37
ENDBRANCH  31  33
ENDBRANCH  30  31
ENDBRANCH  26  30
ENDBRANCH  25  28
ENDBRANCH  22  25
ENDBRANCH   1  22
TORSDOF 14
