REMARK VINA RESULT:    -5.467      2.891      7.908
REMARK INTER + INTRA:         -12.604
REMARK INTER:                  -9.103
REMARK INTRA:                  -3.500
REMARK UNBOUND:                -3.141
REMARK  Name = lig_assembled_91.pdb
REMARK  16 active torsions:
REMARK  status: ('A' for Active; 'I' for Inactive)
REMARK    1  A    between atoms: _2  and  _10
REMARK    2  A    between atoms: _5  and  _26
REMARK    3  A    between atoms: _7  and  _8
REMARK    4  A    between atoms: _7  and  _26
REMARK    5  A    between atoms: _22  and  _42
REMARK    6  A    between atoms: _24  and  _30
REMARK    7  A    between atoms: _25  and  _29
REMARK    8  A    between atoms: _29  and  _30
REMARK    9  A    between atoms: _32  and  _33
REMARK   10  A    between atoms: _34  and  _35
REMARK   11  A    between atoms: _36  and  _38
REMARK   12  A    between atoms: _38  and  _39
REMARK   13  A    between atoms: _38  and  _40
REMARK   14  A    between atoms: _40  and  _41
REMARK   15  A    between atoms: _40  and  _42
REMARK   16  A    between atoms: _43  and  _45
REMARK                            x       y       z     vdW  Elec       q    Type
REMARK                         _______ _______ _______ _____ _____    ______ ____
ROOT
ATOM      1  C   UNL     1      -5.794   8.579  23.073  0.00  0.00    +0.401 C 
ATOM      2  O   UNL     1      -5.716   8.220  21.896  0.00  0.00    -0.226 OA
ATOM      3  N   UNL     1      -6.858   9.190  23.597  0.00  0.00    -0.279 N 
ATOM      4  H   UNL     1      -6.832   9.437  24.576  0.00  0.00    +0.152 HD
ENDROOT
BRANCH   3   5
ATOM      5  C   UNL     1      -8.065   9.524  22.830  0.00  0.00    +0.141 C 
BRANCH   5   6
ATOM      6  C   UNL     1      -8.265  11.031  22.713  0.00  0.00    +0.163 C 
BRANCH   6   7
ATOM      7  O   UNL     1      -7.984  11.664  23.972  0.00  0.00    -0.388 OA
ATOM      8  H   UNL     1      -7.678  12.561  23.819  0.00  0.00    +0.210 HD
ENDBRANCH   6   7
BRANCH   6   9
ATOM      9  C   UNL     1      -7.354  11.585  21.604  0.00  0.00    +0.175 C 
BRANCH   9  10
ATOM     10  C   UNL     1      -6.031  12.131  22.161  0.00  0.00    +0.176 C 
ATOM     11  O   UNL     1      -6.300  13.425  22.767  0.00  0.00    -0.332 OA
ATOM     12  C   UNL     1      -5.166  14.054  23.449  0.00  0.00    +0.277 C 
ATOM     13  C   UNL     1      -3.954  14.166  22.492  0.00  0.00    +0.110 C 
ATOM     14  C   UNL     1      -3.648  12.821  21.799  0.00  0.00    +0.143 C 
ATOM     15  C   UNL     1      -4.898  12.255  21.125  0.00  0.00    +0.133 C 
BRANCH  15  16
ATOM     16  N   UNL     1      -4.616  10.933  20.543  0.00  0.00    -0.308 N 
ATOM     17  H   UNL     1      -4.298  10.203  21.165  0.00  0.00    +0.149 HD
ATOM     18  C   UNL     1      -4.753  10.636  19.248  0.00  0.00    +0.210 C 
ATOM     19  C   UNL     1      -5.215  11.778  18.323  0.00  0.00    +0.109 C 
ATOM     20  O   UNL     1      -4.524   9.515  18.792  0.00  0.00    -0.276 OA
ENDBRANCH  15  16
BRANCH  12  21
ATOM     21  C   UNL     1      -4.762  13.245  24.699  0.00  0.00    +0.414 C 
ATOM     22  O   UNL     1      -3.589  13.219  25.069  0.00  0.00    -0.240 OA
ATOM     23  O   UNL     1      -5.609  12.618  25.337  0.00  0.00    -0.240 OA
ENDBRANCH  12  21
BRANCH  14  24
ATOM     24  O   UNL     1      -2.627  13.005  20.819  0.00  0.00    -0.390 OA
ATOM     25  H   UNL     1      -2.035  12.250  20.826  0.00  0.00    +0.210 HD
ENDBRANCH  14  24
BRANCH  12  26
ATOM     26  O   UNL     1      -5.564  15.393  23.841  0.00  0.00    -0.343 OA
ATOM     27  C   UNL     1      -5.406  16.404  22.814  0.00  0.00    +0.198 C 
ENDBRANCH  12  26
ENDBRANCH   9  10
BRANCH   9  28
ATOM     28  O   UNL     1      -8.043  12.613  20.863  0.00  0.00    -0.387 OA
ATOM     29  H   UNL     1      -7.650  12.697  19.991  0.00  0.00    +0.210 HD
ENDBRANCH   9  28
ENDBRANCH   6   9
ENDBRANCH   5   6
ENDBRANCH   3   5
BRANCH   1  30
ATOM     30  O   UNL     1      -4.692   8.332  23.950  0.00  0.00    -0.444 OA
BRANCH  30  31
ATOM     31  C   UNL     1      -3.861   9.494  24.012  0.00  0.00    +0.292 C 
BRANCH  31  33
ATOM     32  N   UNL     1      -2.146  10.177  25.652  0.00  0.00    -0.131 NA
ATOM     33  C   UNL     1      -3.407   9.733  25.396  0.00  0.00    +0.121 A 
ATOM     34  C   UNL     1      -4.082   9.598  26.588  0.00  0.00    +0.143 A 
ATOM     35  N   UNL     1      -3.169   9.931  27.569  0.00  0.00    -0.218 N 
ATOM     36  N   UNL     1      -2.011  10.297  26.964  0.00  0.00    -0.060 NA
BRANCH  35  37
ATOM     37  C   UNL     1      -3.314   9.917  28.990  0.00  0.00    +0.085 A 
ATOM     38  C   UNL     1      -3.060   8.708  29.733  0.00  0.00    +0.026 A 
ATOM     39  C   UNL     1      -3.257   8.796  31.125  0.00  0.00    +0.074 A 
ATOM     40  C   UNL     1      -3.046   7.698  31.945  0.00  0.00    +0.028 A 
ATOM     41  C   UNL     1      -2.628   6.469  31.446  0.00  0.00    +0.002 A 
ATOM     42  C   UNL     1      -2.388   6.345  30.092  0.00  0.00    +0.001 A 
ATOM     43  N   UNL     1      -3.628   9.910  31.752  0.00  0.00    -0.247 NA
ATOM     44  C   UNL     1      -3.833  11.033  31.066  0.00  0.00    +0.074 A 
ATOM     45  C   UNL     1      -4.219  12.136  31.821  0.00  0.00    +0.028 A 
ATOM     46  C   UNL     1      -4.506  13.368  31.243  0.00  0.00    +0.002 A 
ATOM     47  C   UNL     1      -4.418  13.501  29.872  0.00  0.00    +0.001 A 
ATOM     48  C   UNL     1      -4.036  12.400  29.098  0.00  0.00    +0.012 A 
ATOM     49  C   UNL     1      -2.579   7.449  29.253  0.00  0.00    +0.012 A 
ATOM     50  C   UNL     1      -3.710  11.128  29.671  0.00  0.00    +0.026 A 
ENDBRANCH  35  37
ENDBRANCH  31  33
ENDBRANCH  30  31
ENDBRANCH   1  30
TORSDOF 14
