REMARK VINA RESULT:    -4.557      4.380      6.835
REMARK INTER + INTRA:          -9.883
REMARK INTER:                  -7.495
REMARK INTRA:                  -2.388
REMARK UNBOUND:                -1.997
REMARK  Name = lig_assembled_57.pdb
REMARK  17 active torsions:
REMARK  status: ('A' for Active; 'I' for Inactive)
REMARK    1  A    between atoms: _2  and  _10
REMARK    2  A    between atoms: _3  and  _13
REMARK    3  A    between atoms: _5  and  _19
REMARK    4  A    between atoms: _7  and  _8
REMARK    5  A    between atoms: _7  and  _19
REMARK    6  A    between atoms: _15  and  _35
REMARK    7  A    between atoms: _17  and  _23
REMARK    8  A    between atoms: _18  and  _22
REMARK    9  A    between atoms: _22  and  _23
REMARK   10  A    between atoms: _25  and  _26
REMARK   11  A    between atoms: _27  and  _28
REMARK   12  A    between atoms: _29  and  _31
REMARK   13  A    between atoms: _31  and  _32
REMARK   14  A    between atoms: _31  and  _33
REMARK   15  A    between atoms: _33  and  _34
REMARK   16  A    between atoms: _33  and  _35
REMARK   17  A    between atoms: _36  and  _38
REMARK                            x       y       z     vdW  Elec       q    Type
REMARK                         _______ _______ _______ _____ _____    ______ ____
ROOT
ATOM      1  C   UNL     1      -3.226  12.009  25.169  0.00  0.00    +0.163 C 
ENDROOT
BRANCH   1   2
ATOM      2  O   UNL     1      -2.054  11.844  25.984  0.00  0.00    -0.388 OA
ATOM      3  H   UNL     1      -2.312  11.555  26.863  0.00  0.00    +0.210 HD
ENDBRANCH   1   2
BRANCH   1   4
ATOM      4  C   UNL     1      -3.015  13.149  24.178  0.00  0.00    +0.141 C 
BRANCH   4   7
ATOM      5  C   UNL     1      -3.903  12.545  21.953  0.00  0.00    +0.401 C 
ATOM      6  O   UNL     1      -5.070  12.825  22.238  0.00  0.00    -0.226 OA
ATOM      7  N   UNL     1      -2.880  12.660  22.801  0.00  0.00    -0.279 N 
ATOM      8  H   UNL     1      -1.960  12.395  22.477  0.00  0.00    +0.152 HD
BRANCH   5   9
ATOM      9  O   UNL     1      -3.606  12.060  20.641  0.00  0.00    -0.444 OA
BRANCH   9  10
ATOM     10  C   UNL     1      -4.451  10.946  20.340  0.00  0.00    +0.292 C 
BRANCH  10  12
ATOM     11  N   UNL     1      -5.777  12.137  18.630  0.00  0.00    -0.131 NA
ATOM     12  C   UNL     1      -4.989  11.076  18.973  0.00  0.00    +0.120 A 
ATOM     13  C   UNL     1      -4.813  10.269  17.869  0.00  0.00    +0.137 A 
ATOM     14  N   UNL     1      -5.443  10.939  16.864  0.00  0.00    -0.248 N 
ATOM     15  N   UNL     1      -6.082  12.024  17.348  0.00  0.00    -0.065 NA
BRANCH  14  16
ATOM     16  C   UNL     1      -5.469  10.703  15.424  0.00  0.00    +0.111 C 
ATOM     17  C   UNL     1      -5.186  12.002  14.655  0.00  0.00    +0.042 C 
ATOM     18  C   UNL     1      -3.705  12.365  14.744  0.00  0.00    +0.086 C 
ATOM     19  N   UNL     1      -2.827  11.318  14.210  0.00  0.00    -0.305 NA
ATOM     20  C   UNL     1      -3.067  10.014  14.828  0.00  0.00    +0.086 C 
ATOM     21  C   UNL     1      -2.848  11.268  12.751  0.00  0.00    +0.104 C 
ATOM     22  C   UNL     1      -4.542   9.593  14.901  0.00  0.00    +0.042 C 
ENDBRANCH  14  16
ENDBRANCH  10  12
ENDBRANCH   9  10
ENDBRANCH   5   9
ENDBRANCH   4   7
ENDBRANCH   1   4
BRANCH   1  23
ATOM     23  C   UNL     1      -4.462  12.304  26.037  0.00  0.00    +0.175 C 
BRANCH  23  24
ATOM     24  C   UNL     1      -4.851  11.105  26.913  0.00  0.00    +0.176 C 
ATOM     25  O   UNL     1      -3.863  10.986  27.973  0.00  0.00    -0.332 OA
ATOM     26  C   UNL     1      -4.131   9.952  28.977  0.00  0.00    +0.277 C 
ATOM     27  C   UNL     1      -4.336   8.576  28.296  0.00  0.00    +0.110 C 
ATOM     28  C   UNL     1      -5.356   8.659  27.141  0.00  0.00    +0.143 C 
ATOM     29  C   UNL     1      -4.982   9.769  26.157  0.00  0.00    +0.133 C 
BRANCH  29  30
ATOM     30  N   UNL     1      -6.007   9.896  25.109  0.00  0.00    -0.308 N 
ATOM     31  H   UNL     1      -6.918  10.239  25.380  0.00  0.00    +0.149 HD
ATOM     32  C   UNL     1      -5.812   9.588  23.824  0.00  0.00    +0.210 C 
ATOM     33  C   UNL     1      -4.421   9.043  23.449  0.00  0.00    +0.109 C 
ATOM     34  O   UNL     1      -6.685   9.718  22.965  0.00  0.00    -0.276 OA
ENDBRANCH  29  30
BRANCH  26  35
ATOM     35  C   UNL     1      -5.382  10.307  29.808  0.00  0.00    +0.414 C 
ATOM     36  O   UNL     1      -6.225   9.447  30.058  0.00  0.00    -0.240 OA
ATOM     37  O   UNL     1      -5.548  11.453  30.227  0.00  0.00    -0.240 OA
ENDBRANCH  26  35
BRANCH  28  38
ATOM     38  O   UNL     1      -5.401   7.412  26.447  0.00  0.00    -0.390 OA
ATOM     39  H   UNL     1      -6.247   7.323  26.002  0.00  0.00    +0.210 HD
ENDBRANCH  28  38
BRANCH  26  40
ATOM     40  O   UNL     1      -2.975   9.862  29.849  0.00  0.00    -0.343 OA
ATOM     41  C   UNL     1      -2.911   8.661  30.659  0.00  0.00    +0.198 C 
ENDBRANCH  26  40
ENDBRANCH  23  24
BRANCH  23  42
ATOM     42  O   UNL     1      -5.572  12.692  25.203  0.00  0.00    -0.387 OA
ATOM     43  H   UNL     1      -5.242  13.091  24.395  0.00  0.00    +0.210 HD
ENDBRANCH  23  42
ENDBRANCH   1  23
TORSDOF 14
