REMARK VINA RESULT:    -4.609      4.185     10.483
REMARK INTER + INTRA:         -10.470
REMARK INTER:                  -7.684
REMARK INTRA:                  -2.786
REMARK UNBOUND:                -2.494
REMARK  Name = lig_assembled_56.pdb
REMARK  16 active torsions:
REMARK  status: ('A' for Active; 'I' for Inactive)
REMARK    1  A    between atoms: _2  and  _10
REMARK    2  A    between atoms: _5  and  _18
REMARK    3  A    between atoms: _7  and  _8
REMARK    4  A    between atoms: _7  and  _18
REMARK    5  A    between atoms: _14  and  _34
REMARK    6  A    between atoms: _16  and  _22
REMARK    7  A    between atoms: _17  and  _21
REMARK    8  A    between atoms: _21  and  _22
REMARK    9  A    between atoms: _24  and  _25
REMARK   10  A    between atoms: _26  and  _27
REMARK   11  A    between atoms: _28  and  _30
REMARK   12  A    between atoms: _30  and  _31
REMARK   13  A    between atoms: _30  and  _32
REMARK   14  A    between atoms: _32  and  _33
REMARK   15  A    between atoms: _32  and  _34
REMARK   16  A    between atoms: _35  and  _37
REMARK                            x       y       z     vdW  Elec       q    Type
REMARK                         _______ _______ _______ _____ _____    ______ ____
ROOT
ATOM      1  C   UNL     1      -2.116  10.164  27.178  0.00  0.00    +0.163 C 
ENDROOT
BRANCH   1   2
ATOM      2  O   UNL     1      -1.023   9.705  26.366  0.00  0.00    -0.388 OA
ATOM      3  H   UNL     1      -0.699  10.430  25.825  0.00  0.00    +0.210 HD
ENDBRANCH   1   2
BRANCH   1   4
ATOM      4  C   UNL     1      -2.207   9.329  28.451  0.00  0.00    +0.141 C 
BRANCH   4   7
ATOM      5  C   UNL     1      -3.238   9.476  30.691  0.00  0.00    +0.401 C 
ATOM      6  O   UNL     1      -2.908   8.335  31.022  0.00  0.00    -0.226 OA
ATOM      7  N   UNL     1      -2.958  10.020  29.506  0.00  0.00    -0.279 N 
ATOM      8  H   UNL     1      -3.280  10.960  29.325  0.00  0.00    +0.152 HD
BRANCH   5   9
ATOM      9  O   UNL     1      -3.971  10.282  31.617  0.00  0.00    -0.444 OA
BRANCH   9  10
ATOM     10  C   UNL     1      -3.086  10.773  32.628  0.00  0.00    +0.292 C 
BRANCH  10  12
ATOM     11  N   UNL     1      -1.741  12.802  32.189  0.00  0.00    -0.131 NA
ATOM     12  C   UNL     1      -2.939  12.236  32.514  0.00  0.00    +0.121 A 
ATOM     13  C   UNL     1      -3.873  13.232  32.688  0.00  0.00    +0.143 A 
ATOM     14  N   UNL     1      -3.195  14.403  32.437  0.00  0.00    -0.220 N 
ATOM     15  N   UNL     1      -1.902  14.117  32.147  0.00  0.00    -0.060 NA
BRANCH  14  16
ATOM     16  C   UNL     1      -3.685  15.732  32.445  0.00  0.00    +0.070 A 
ATOM     17  C   UNL     1      -3.821  16.442  33.640  0.00  0.00    +0.047 A 
ATOM     18  C   UNL     1      -4.322  17.733  33.577  0.00  0.00    +0.113 A 
ATOM     19  N   UNL     1      -4.684  18.343  32.429  0.00  0.00    -0.263 NA
ATOM     20  C   UNL     1      -4.540  17.636  31.288  0.00  0.00    +0.113 A 
ATOM     21  C   UNL     1      -4.049  16.343  31.242  0.00  0.00    +0.047 A 
ENDBRANCH  14  16
ENDBRANCH  10  12
ENDBRANCH   9  10
ENDBRANCH   5   9
ENDBRANCH   4   7
ENDBRANCH   1   4
BRANCH   1  22
ATOM     22  C   UNL     1      -3.446  10.078  26.410  0.00  0.00    +0.175 C 
BRANCH  22  23
ATOM     23  C   UNL     1      -4.344  11.296  26.670  0.00  0.00    +0.176 C 
ATOM     24  O   UNL     1      -5.300  10.934  27.704  0.00  0.00    -0.332 OA
ATOM     25  C   UNL     1      -6.179  12.015  28.161  0.00  0.00    +0.277 C 
ATOM     26  C   UNL     1      -6.921  12.653  26.962  0.00  0.00    +0.110 C 
ATOM     27  C   UNL     1      -5.949  13.026  25.823  0.00  0.00    +0.143 C 
ATOM     28  C   UNL     1      -5.082  11.830  25.428  0.00  0.00    +0.133 C 
BRANCH  28  29
ATOM     29  N   UNL     1      -4.101  12.220  24.404  0.00  0.00    -0.308 N 
ATOM     30  H   UNL     1      -3.421  12.927  24.647  0.00  0.00    +0.149 HD
ATOM     31  C   UNL     1      -4.050  11.702  23.174  0.00  0.00    +0.210 C 
ATOM     32  C   UNL     1      -5.116  10.647  22.826  0.00  0.00    +0.109 C 
ATOM     33  O   UNL     1      -3.207  12.038  22.341  0.00  0.00    -0.276 OA
ENDBRANCH  28  29
BRANCH  25  34
ATOM     34  C   UNL     1      -5.371  13.099  28.904  0.00  0.00    +0.414 C 
ATOM     35  O   UNL     1      -4.251  12.845  29.346  0.00  0.00    -0.240 OA
ATOM     36  O   UNL     1      -5.838  14.228  29.060  0.00  0.00    -0.240 OA
ENDBRANCH  25  34
BRANCH  27  37
ATOM     37  O   UNL     1      -6.688  13.468  24.684  0.00  0.00    -0.390 OA
ATOM     38  H   UNL     1      -7.212  14.237  24.920  0.00  0.00    +0.210 HD
ENDBRANCH  27  37
BRANCH  25  39
ATOM     39  O   UNL     1      -7.166  11.442  29.058  0.00  0.00    -0.343 OA
ATOM     40  C   UNL     1      -6.789  10.175  29.653  0.00  0.00    +0.198 C 
ENDBRANCH  25  39
ENDBRANCH  22  23
BRANCH  22  41
ATOM     41  O   UNL     1      -4.142   8.864  26.758  0.00  0.00    -0.387 OA
ATOM     42  H   UNL     1      -3.639   8.386  27.421  0.00  0.00    +0.210 HD
ENDBRANCH  22  41
ENDBRANCH   1  22
TORSDOF 14
