REMARK VINA RESULT:    -4.612      6.344      9.794
REMARK INTER + INTRA:         -11.977
REMARK INTER:                  -9.759
REMARK INTRA:                  -2.219
REMARK UNBOUND:                -3.320
REMARK  Name = lig_assembled_16.pdb
REMARK  19 active torsions:
REMARK  status: ('A' for Active; 'I' for Inactive)
REMARK    1  A    between atoms: _2  and  _9
REMARK    2  A    between atoms: _4  and  _22
REMARK    3  A    between atoms: _6  and  _7
REMARK    4  A    between atoms: _6  and  _22
REMARK    5  A    between atoms: _9  and  _10
REMARK    6  A    between atoms: _13  and  _14
REMARK    7  A    between atoms: _14  and  _16
REMARK    8  A    between atoms: _18  and  _38
REMARK    9  A    between atoms: _20  and  _26
REMARK   10  A    between atoms: _21  and  _25
REMARK   11  A    between atoms: _25  and  _26
REMARK   12  A    between atoms: _28  and  _29
REMARK   13  A    between atoms: _30  and  _31
REMARK   14  A    between atoms: _32  and  _34
REMARK   15  A    between atoms: _34  and  _35
REMARK   16  A    between atoms: _34  and  _36
REMARK   17  A    between atoms: _36  and  _37
REMARK   18  A    between atoms: _36  and  _38
REMARK   19  A    between atoms: _39  and  _41
REMARK                            x       y       z     vdW  Elec       q    Type
REMARK                         _______ _______ _______ _____ _____    ______ ____
ROOT
ATOM      1  C   UNL     1      -3.020  10.713  14.517  0.00  0.00    +0.163 C 
ENDROOT
BRANCH   1   2
ATOM      2  O   UNL     1      -2.199  10.425  13.374  0.00  0.00    -0.388 OA
ATOM      3  H   UNL     1      -1.274  10.443  13.631  0.00  0.00    +0.210 HD
ENDBRANCH   1   2
BRANCH   1   4
ATOM      4  C   UNL     1      -4.201  11.620  14.132  0.00  0.00    +0.175 C 
BRANCH   4   5
ATOM      5  C   UNL     1      -3.824  12.623  13.031  0.00  0.00    +0.176 C 
ATOM      6  O   UNL     1      -2.549  13.223  13.391  0.00  0.00    -0.332 OA
ATOM      7  C   UNL     1      -1.976  14.136  12.397  0.00  0.00    +0.277 C 
ATOM      8  C   UNL     1      -2.992  15.245  12.031  0.00  0.00    +0.110 C 
ATOM      9  C   UNL     1      -4.373  14.657  11.673  0.00  0.00    +0.143 C 
ATOM     10  C   UNL     1      -4.873  13.721  12.773  0.00  0.00    +0.133 C 
BRANCH  10  11
ATOM     11  N   UNL     1      -6.148  13.100  12.381  0.00  0.00    -0.308 N 
ATOM     12  H   UNL     1      -6.141  12.462  11.598  0.00  0.00    +0.149 HD
ATOM     13  C   UNL     1      -7.314  13.324  12.992  0.00  0.00    +0.210 C 
ATOM     14  C   UNL     1      -7.297  14.322  14.166  0.00  0.00    +0.109 C 
ATOM     15  O   UNL     1      -8.364  12.779  12.651  0.00  0.00    -0.276 OA
ENDBRANCH  10  11
BRANCH   7  16
ATOM     16  C   UNL     1      -1.568  13.369  11.121  0.00  0.00    +0.414 C 
ATOM     17  O   UNL     1      -1.727  13.881  10.013  0.00  0.00    -0.240 OA
ATOM     18  O   UNL     1      -1.081  12.241  11.200  0.00  0.00    -0.240 OA
ENDBRANCH   7  16
BRANCH   7  19
ATOM     19  O   UNL     1      -0.806  14.762  12.985  0.00  0.00    -0.343 OA
ATOM     20  C   UNL     1      -0.476  16.067  12.447  0.00  0.00    +0.198 C 
ENDBRANCH   7  19
BRANCH   9  21
ATOM     21  O   UNL     1      -5.315  15.716  11.491  0.00  0.00    -0.390 OA
ATOM     22  H   UNL     1      -5.324  15.981  10.569  0.00  0.00    +0.210 HD
ENDBRANCH   9  21
ENDBRANCH   4   5
BRANCH   4  23
ATOM     23  O   UNL     1      -4.691  12.319  15.294  0.00  0.00    -0.387 OA
ATOM     24  H   UNL     1      -5.265  13.037  15.018  0.00  0.00    +0.210 HD
ENDBRANCH   4  23
ENDBRANCH   1   4
BRANCH   1  25
ATOM     25  C   UNL     1      -3.550   9.416  15.120  0.00  0.00    +0.141 C 
BRANCH  25  28
ATOM     26  C   UNL     1      -4.423   8.679  17.311  0.00  0.00    +0.401 C 
ATOM     27  O   UNL     1      -4.102   7.500  17.148  0.00  0.00    -0.226 OA
ATOM     28  N   UNL     1      -4.209   9.641  16.412  0.00  0.00    -0.279 N 
ATOM     29  H   UNL     1      -4.517  10.578  16.633  0.00  0.00    +0.152 HD
BRANCH  26  30
ATOM     30  O   UNL     1      -5.069   9.062  18.528  0.00  0.00    -0.444 OA
BRANCH  30  31
ATOM     31  C   UNL     1      -5.274  10.477  18.536  0.00  0.00    +0.292 C 
BRANCH  31  33
ATOM     32  N   UNL     1      -3.861  10.359  20.567  0.00  0.00    -0.131 NA
ATOM     33  C   UNL     1      -4.725  11.066  19.770  0.00  0.00    +0.120 A 
ATOM     34  C   UNL     1      -4.915  12.318  20.310  0.00  0.00    +0.137 A 
ATOM     35  N   UNL     1      -4.068  12.342  21.378  0.00  0.00    -0.247 N 
ATOM     36  N   UNL     1      -3.476  11.148  21.563  0.00  0.00    -0.065 NA
BRANCH  35  37
ATOM     37  C   UNL     1      -3.757  13.461  22.244  0.00  0.00    +0.180 C 
BRANCH  37  38
ATOM     38  C   UNL     1      -3.845  13.071  23.702  0.00  0.00    -0.026 A 
ATOM     39  C   UNL     1      -2.717  12.596  24.386  0.00  0.00    +0.006 A 
ATOM     40  C   UNL     1      -2.796  12.273  25.743  0.00  0.00    +0.015 A 
ATOM     41  C   UNL     1      -4.003  12.406  26.432  0.00  0.00    +0.059 A 
ATOM     42  C   UNL     1      -5.144  12.858  25.753  0.00  0.00    +0.015 A 
ATOM     43  C   UNL     1      -5.064  13.175  24.393  0.00  0.00    +0.006 A 
BRANCH  41  44
ATOM     44  C   UNL     1      -4.013  12.118  27.891  0.00  0.00    +0.337 C 
ATOM     45  O   UNL     1      -4.971  12.371  28.603  0.00  0.00    -0.245 OA
BRANCH  44  46
ATOM     46  O   UNL     1      -2.867  11.589  28.357  0.00  0.00    -0.477 OA
ATOM     47  H   UNL     1      -2.419  10.969  27.753  0.00  0.00    +0.295 HD
ENDBRANCH  44  46
ENDBRANCH  41  44
ENDBRANCH  37  38
ENDBRANCH  35  37
ENDBRANCH  31  33
ENDBRANCH  30  31
ENDBRANCH  26  30
ENDBRANCH  25  28
ENDBRANCH   1  25
TORSDOF 17
