REMARK VINA RESULT:    -4.864      2.217      3.842
REMARK INTER + INTRA:         -11.970
REMARK INTER:                  -9.129
REMARK INTRA:                  -2.840
REMARK UNBOUND:                -2.840
REMARK  Name = lig_assembled_77.pdb
REMARK  19 active torsions:
REMARK  status: ('A' for Active; 'I' for Inactive)
REMARK    1  A    between atoms: _2  and  _10
REMARK    2  A    between atoms: _3  and  _17
REMARK    3  A    between atoms: _5  and  _27
REMARK    4  A    between atoms: _7  and  _8
REMARK    5  A    between atoms: _7  and  _27
REMARK    6  A    between atoms: _13  and  _47
REMARK    7  A    between atoms: _14  and  _47
REMARK    8  A    between atoms: _23  and  _43
REMARK    9  A    between atoms: _25  and  _31
REMARK   10  A    between atoms: _26  and  _30
REMARK   11  A    between atoms: _30  and  _31
REMARK   12  A    between atoms: _33  and  _34
REMARK   13  A    between atoms: _35  and  _36
REMARK   14  A    between atoms: _37  and  _39
REMARK   15  A    between atoms: _39  and  _40
REMARK   16  A    between atoms: _39  and  _41
REMARK   17  A    between atoms: _41  and  _42
REMARK   18  A    between atoms: _41  and  _43
REMARK   19  A    between atoms: _44  and  _46
REMARK                            x       y       z     vdW  Elec       q    Type
REMARK                         _______ _______ _______ _____ _____    ______ ____
ROOT
ATOM      1  C   UNL     1      -4.103  11.737  21.282  0.00  0.00    +0.401 C 
ATOM      2  O   UNL     1      -5.202  12.281  21.411  0.00  0.00    -0.226 OA
ATOM      3  N   UNL     1      -3.072  11.933  22.106  0.00  0.00    -0.279 N 
ATOM      4  H   UNL     1      -2.213  11.434  21.923  0.00  0.00    +0.152 HD
ENDROOT
BRANCH   3   5
ATOM      5  C   UNL     1      -3.115  12.835  23.263  0.00  0.00    +0.141 C 
BRANCH   5   6
ATOM      6  C   UNL     1      -3.198  12.068  24.579  0.00  0.00    +0.163 C 
BRANCH   6   7
ATOM      7  O   UNL     1      -2.067  12.386  25.406  0.00  0.00    -0.388 OA
ATOM      8  H   UNL     1      -2.355  12.496  26.315  0.00  0.00    +0.210 HD
ENDBRANCH   6   7
BRANCH   6   9
ATOM      9  C   UNL     1      -4.516  12.413  25.293  0.00  0.00    +0.175 C 
BRANCH   9  10
ATOM     10  C   UNL     1      -4.911  11.348  26.326  0.00  0.00    +0.176 C 
ATOM     11  O   UNL     1      -3.967  11.424  27.430  0.00  0.00    -0.332 OA
ATOM     12  C   UNL     1      -4.251  10.545  28.568  0.00  0.00    +0.277 C 
ATOM     13  C   UNL     1      -4.386   9.076  28.097  0.00  0.00    +0.110 C 
ATOM     14  C   UNL     1      -5.356   8.949  26.903  0.00  0.00    +0.143 C 
ATOM     15  C   UNL     1      -4.970   9.910  25.778  0.00  0.00    +0.133 C 
BRANCH  15  16
ATOM     16  N   UNL     1      -5.950   9.841  24.683  0.00  0.00    -0.308 N 
ATOM     17  H   UNL     1      -6.870  10.226  24.848  0.00  0.00    +0.149 HD
ATOM     18  C   UNL     1      -5.705   9.303  23.485  0.00  0.00    +0.210 C 
ATOM     19  C   UNL     1      -4.303   8.701  23.274  0.00  0.00    +0.109 C 
ATOM     20  O   UNL     1      -6.541   9.273  22.582  0.00  0.00    -0.276 OA
ENDBRANCH  15  16
BRANCH  12  21
ATOM     21  C   UNL     1      -5.547  10.978  29.285  0.00  0.00    +0.414 C 
ATOM     22  O   UNL     1      -6.412  10.147  29.559  0.00  0.00    -0.240 OA
ATOM     23  O   UNL     1      -5.727  12.158  29.589  0.00  0.00    -0.240 OA
ENDBRANCH  12  21
BRANCH  14  24
ATOM     24  O   UNL     1      -5.335   7.610  26.406  0.00  0.00    -0.390 OA
ATOM     25  H   UNL     1      -4.680   7.537  25.708  0.00  0.00    +0.210 HD
ENDBRANCH  14  24
BRANCH  12  26
ATOM     26  O   UNL     1      -3.133  10.628  29.489  0.00  0.00    -0.343 OA
ATOM     27  C   UNL     1      -3.000   9.504  30.395  0.00  0.00    +0.198 C 
ENDBRANCH  12  26
ENDBRANCH   9  10
BRANCH   9  28
ATOM     28  O   UNL     1      -5.574  12.585  24.328  0.00  0.00    -0.387 OA
ATOM     29  H   UNL     1      -6.158  13.291  24.615  0.00  0.00    +0.210 HD
ENDBRANCH   9  28
ENDBRANCH   6   9
ENDBRANCH   5   6
ENDBRANCH   3   5
BRANCH   1  30
ATOM     30  O   UNL     1      -3.899  10.833  20.193  0.00  0.00    -0.444 OA
BRANCH  30  31
ATOM     31  C   UNL     1      -5.079  10.782  19.387  0.00  0.00    +0.292 C 
BRANCH  31  33
ATOM     32  N   UNL     1      -4.665   9.605  17.253  0.00  0.00    -0.131 NA
ATOM     33  C   UNL     1      -4.727  10.773  17.954  0.00  0.00    +0.121 A 
ATOM     34  C   UNL     1      -4.424  11.820  17.114  0.00  0.00    +0.143 A 
ATOM     35  N   UNL     1      -4.190  11.236  15.889  0.00  0.00    -0.220 N 
ATOM     36  N   UNL     1      -4.329   9.892  16.003  0.00  0.00    -0.060 NA
BRANCH  35  37
ATOM     37  C   UNL     1      -3.912  11.858  14.643  0.00  0.00    +0.067 A 
ATOM     38  C   UNL     1      -3.166  11.195  13.657  0.00  0.00    +0.030 A 
ATOM     39  C   UNL     1      -2.799  11.866  12.487  0.00  0.00    +0.029 A 
ATOM     40  C   UNL     1      -3.183  13.196  12.302  0.00  0.00    +0.094 A 
ATOM     41  C   UNL     1      -4.004  13.836  13.235  0.00  0.00    +0.029 A 
ATOM     42  C   UNL     1      -4.358  13.171  14.411  0.00  0.00    +0.030 A 
BRANCH  40  43
ATOM     43  S   UNL     1      -2.655  14.071  10.842  0.00  0.00    +0.025 S 
ATOM     44  O   UNL     1      -2.552  13.075   9.789  0.00  0.00    -0.164 OA
ATOM     45  O   UNL     1      -3.525  15.222  10.689  0.00  0.00    -0.164 OA
BRANCH  43  46
ATOM     46  C   UNL     1      -1.017  14.713  11.116  0.00  0.00    +0.094 A 
ATOM     47  C   UNL     1      -0.701  15.404  12.286  0.00  0.00    +0.029 A 
ATOM     48  C   UNL     1       0.579  15.948  12.441  0.00  0.00    +0.024 A 
ATOM     49  C   UNL     1       1.563  15.772  11.460  0.00  0.00    +0.025 A 
ATOM     50  C   UNL     1       1.219  15.103  10.280  0.00  0.00    +0.024 A 
ATOM     51  C   UNL     1      -0.056  14.556  10.113  0.00  0.00    +0.029 A 
BRANCH  49  52
ATOM     52  N   UNL     1       2.776  16.461  11.547  0.00  0.00    -0.358 N 
ATOM     53  H   UNL     1       2.746  17.303  12.113  0.00  0.00    +0.142 HD
ATOM     54  H   UNL     1       3.576  15.876  11.761  0.00  0.00    +0.142 HD
ENDBRANCH  49  52
ENDBRANCH  43  46
ENDBRANCH  40  43
ENDBRANCH  35  37
ENDBRANCH  31  33
ENDBRANCH  30  31
ENDBRANCH   1  30
TORSDOF 17
