REMARK VINA RESULT:    -4.764      2.613      7.134
REMARK INTER + INTRA:         -11.234
REMARK INTER:                  -7.298
REMARK INTRA:                  -3.936
REMARK UNBOUND:                -2.989
REMARK  Name = lig_assembled_51.pdb
REMARK  16 active torsions:
REMARK  status: ('A' for Active; 'I' for Inactive)
REMARK    1  A    between atoms: _2  and  _9
REMARK    2  A    between atoms: _4  and  _22
REMARK    3  A    between atoms: _6  and  _7
REMARK    4  A    between atoms: _6  and  _22
REMARK    5  A    between atoms: _18  and  _38
REMARK    6  A    between atoms: _20  and  _26
REMARK    7  A    between atoms: _21  and  _25
REMARK    8  A    between atoms: _25  and  _26
REMARK    9  A    between atoms: _28  and  _29
REMARK   10  A    between atoms: _30  and  _31
REMARK   11  A    between atoms: _32  and  _34
REMARK   12  A    between atoms: _34  and  _35
REMARK   13  A    between atoms: _34  and  _36
REMARK   14  A    between atoms: _36  and  _37
REMARK   15  A    between atoms: _36  and  _38
REMARK   16  A    between atoms: _39  and  _41
REMARK                            x       y       z     vdW  Elec       q    Type
REMARK                         _______ _______ _______ _____ _____    ______ ____
ROOT
ATOM      1  C   UNL     1      -4.057   9.130  31.813  0.00  0.00    +0.163 C 
ENDROOT
BRANCH   1   2
ATOM      2  O   UNL     1      -5.346   9.745  31.968  0.00  0.00    -0.388 OA
ATOM      3  H   UNL     1      -5.731   9.475  32.805  0.00  0.00    +0.210 HD
ENDBRANCH   1   2
BRANCH   1   4
ATOM      4  C   UNL     1      -2.967  10.197  31.802  0.00  0.00    +0.141 C 
BRANCH   4   7
ATOM      5  C   UNL     1      -3.884  12.355  31.022  0.00  0.00    +0.401 C 
ATOM      6  O   UNL     1      -4.370  12.652  32.116  0.00  0.00    -0.226 OA
ATOM      7  N   UNL     1      -3.218  11.225  30.784  0.00  0.00    -0.279 N 
ATOM      8  H   UNL     1      -2.865  11.066  29.850  0.00  0.00    +0.152 HD
BRANCH   5   9
ATOM      9  O   UNL     1      -4.037  13.261  29.926  0.00  0.00    -0.444 OA
BRANCH   9  10
ATOM     10  C   UNL     1      -5.060  12.782  29.049  0.00  0.00    +0.292 C 
BRANCH  10  12
ATOM     11  N   UNL     1      -3.226  12.132  27.520  0.00  0.00    -0.131 NA
ATOM     12  C   UNL     1      -4.515  12.551  27.699  0.00  0.00    +0.120 A 
ATOM     13  C   UNL     1      -5.116  12.692  26.469  0.00  0.00    +0.137 A 
ATOM     14  N   UNL     1      -4.139  12.349  25.575  0.00  0.00    -0.245 N 
ATOM     15  N   UNL     1      -3.006  12.012  26.218  0.00  0.00    -0.065 NA
BRANCH  14  16
ATOM     16  C   UNL     1      -4.228  12.334  24.112  0.00  0.00    +0.066 C 
ATOM     17  C   UNL     1      -5.530  11.614  23.666  0.00  0.00    +0.034 C 
ATOM     18  C   UNL     1      -5.667  11.627  22.133  0.00  0.00    -0.008 C 
ATOM     19  C   UNL     1      -5.692  13.084  21.641  0.00  0.00    +0.007 C 
ATOM     20  C   UNL     1      -4.389  13.798  22.035  0.00  0.00    -0.008 C 
ATOM     21  C   UNL     1      -3.195  13.059  21.413  0.00  0.00    +0.007 C 
ATOM     22  C   UNL     1      -3.160  11.606  21.911  0.00  0.00    -0.008 C 
ATOM     23  C   UNL     1      -4.466  10.901  21.510  0.00  0.00    +0.007 C 
ATOM     24  C   UNL     1      -4.250  13.789  23.567  0.00  0.00    +0.034 C 
ATOM     25  C   UNL     1      -3.028  11.597  23.444  0.00  0.00    +0.034 C 
ENDBRANCH  14  16
ENDBRANCH  10  12
ENDBRANCH   9  10
ENDBRANCH   5   9
ENDBRANCH   4   7
ENDBRANCH   1   4
BRANCH   1  26
ATOM     26  C   UNL     1      -3.989   8.314  30.510  0.00  0.00    +0.175 C 
BRANCH  26  27
ATOM     27  C   UNL     1      -5.020   8.790  29.476  0.00  0.00    +0.176 C 
ATOM     28  O   UNL     1      -6.283   8.130  29.768  0.00  0.00    -0.332 OA
ATOM     29  C   UNL     1      -7.420   8.545  28.942  0.00  0.00    +0.277 C 
ATOM     30  C   UNL     1      -7.083   8.389  27.439  0.00  0.00    +0.110 C 
ATOM     31  C   UNL     1      -5.733   9.047  27.087  0.00  0.00    +0.143 C 
ATOM     32  C   UNL     1      -4.621   8.546  28.009  0.00  0.00    +0.133 C 
BRANCH  32  33
ATOM     33  N   UNL     1      -3.358   9.245  27.721  0.00  0.00    -0.308 N 
ATOM     34  H   UNL     1      -3.352  10.253  27.786  0.00  0.00    +0.149 HD
ATOM     35  C   UNL     1      -2.221   8.633  27.380  0.00  0.00    +0.210 C 
ATOM     36  C   UNL     1      -2.270   7.098  27.265  0.00  0.00    +0.109 C 
ATOM     37  O   UNL     1      -1.174   9.244  27.158  0.00  0.00    -0.276 OA
ENDBRANCH  32  33
BRANCH  29  38
ATOM     38  C   UNL     1      -7.803  10.011  29.234  0.00  0.00    +0.414 C 
ATOM     39  O   UNL     1      -8.173  10.749  28.322  0.00  0.00    -0.240 OA
ATOM     40  O   UNL     1      -7.742  10.454  30.382  0.00  0.00    -0.240 OA
ENDBRANCH  29  38
BRANCH  31  41
ATOM     41  O   UNL     1      -5.390   8.750  25.732  0.00  0.00    -0.390 OA
ATOM     42  H   UNL     1      -4.790   8.001  25.710  0.00  0.00    +0.210 HD
ENDBRANCH  31  41
BRANCH  29  43
ATOM     43  O   UNL     1      -8.541   7.677  29.252  0.00  0.00    -0.343 OA
ATOM     44  C   UNL     1      -8.377   6.868  30.444  0.00  0.00    +0.198 C 
ENDBRANCH  29  43
ENDBRANCH  26  27
BRANCH  26  45
ATOM     45  O   UNL     1      -4.178   6.913  30.792  0.00  0.00    -0.387 OA
ATOM     46  H   UNL     1      -3.703   6.389  30.142  0.00  0.00    +0.210 HD
ENDBRANCH  26  45
ENDBRANCH   1  26
TORSDOF 14
