REMARK VINA RESULT:    -5.228      3.241     10.765
REMARK INTER + INTRA:         -11.357
REMARK INTER:                  -8.215
REMARK INTRA:                  -3.142
REMARK UNBOUND:                -2.004
REMARK  Name = lig_assembled_6.pdb
REMARK  17 active torsions:
REMARK  status: ('A' for Active; 'I' for Inactive)
REMARK    1  A    between atoms: _2  and  _10
REMARK    2  A    between atoms: _3  and  _13
REMARK    3  A    between atoms: _5  and  _21
REMARK    4  A    between atoms: _7  and  _8
REMARK    5  A    between atoms: _7  and  _21
REMARK    6  A    between atoms: _17  and  _37
REMARK    7  A    between atoms: _19  and  _25
REMARK    8  A    between atoms: _20  and  _24
REMARK    9  A    between atoms: _24  and  _25
REMARK   10  A    between atoms: _27  and  _28
REMARK   11  A    between atoms: _29  and  _30
REMARK   12  A    between atoms: _31  and  _33
REMARK   13  A    between atoms: _33  and  _34
REMARK   14  A    between atoms: _33  and  _35
REMARK   15  A    between atoms: _35  and  _36
REMARK   16  A    between atoms: _35  and  _37
REMARK   17  A    between atoms: _38  and  _40
REMARK                            x       y       z     vdW  Elec       q    Type
REMARK                         _______ _______ _______ _____ _____    ______ ____
ROOT
ATOM      1  C   UNL     1      -6.042   8.305  24.453  0.00  0.00    +0.163 C 
ENDROOT
BRANCH   1   2
ATOM      2  O   UNL     1      -6.130   8.871  25.770  0.00  0.00    -0.388 OA
ATOM      3  H   UNL     1      -6.380   9.796  25.706  0.00  0.00    +0.210 HD
ENDBRANCH   1   2
BRANCH   1   4
ATOM      4  C   UNL     1      -4.701   7.599  24.277  0.00  0.00    +0.141 C 
BRANCH   4   7
ATOM      5  C   UNL     1      -2.790   6.950  25.703  0.00  0.00    +0.401 C 
ATOM      6  O   UNL     1      -2.396   6.069  24.936  0.00  0.00    -0.226 OA
ATOM      7  N   UNL     1      -3.863   7.710  25.477  0.00  0.00    -0.279 N 
ATOM      8  H   UNL     1      -4.113   8.400  26.171  0.00  0.00    +0.152 HD
BRANCH   5   9
ATOM      9  O   UNL     1      -2.072   7.187  26.916  0.00  0.00    -0.444 OA
BRANCH   9  10
ATOM     10  C   UNL     1      -2.935   6.961  28.034  0.00  0.00    +0.292 C 
BRANCH  10  12
ATOM     11  N   UNL     1      -4.690   8.668  28.401  0.00  0.00    -0.131 NA
ATOM     12  C   UNL     1      -3.406   8.245  28.587  0.00  0.00    +0.121 A 
ATOM     13  C   UNL     1      -2.730   9.180  29.336  0.00  0.00    +0.143 A 
ATOM     14  N   UNL     1      -3.661  10.154  29.614  0.00  0.00    -0.220 N 
ATOM     15  N   UNL     1      -4.835   9.832  29.020  0.00  0.00    -0.060 NA
BRANCH  14  16
ATOM     16  C   UNL     1      -3.517  11.317  30.418  0.00  0.00    +0.067 A 
ATOM     17  C   UNL     1      -4.149  12.517  30.057  0.00  0.00    +0.034 A 
ATOM     18  C   UNL     1      -3.950  13.672  30.822  0.00  0.00    +0.086 A 
ATOM     19  C   UNL     1      -3.122  13.626  31.950  0.00  0.00    +0.273 A 
ATOM     20  C   UNL     1      -2.509  12.427  32.333  0.00  0.00    +0.086 A 
ATOM     21  C   UNL     1      -2.710  11.274  31.566  0.00  0.00    +0.034 A 
BRANCH  19  22
ATOM     22  N   UNL     1      -2.883  14.852  32.724  0.00  0.00    +0.080 N 
ATOM     23  O   UNL     1      -3.087  15.937  32.160  0.00  0.00    +0.041 OA
ATOM     24  O   UNL     1      -2.485  14.729  33.890  0.00  0.00    -0.576 OA
ENDBRANCH  19  22
ENDBRANCH  14  16
ENDBRANCH  10  12
ENDBRANCH   9  10
ENDBRANCH   5   9
ENDBRANCH   4   7
ENDBRANCH   1   4
BRANCH   1  25
ATOM     25  C   UNL     1      -6.195   9.392  23.375  0.00  0.00    +0.175 C 
BRANCH  25  26
ATOM     26  C   UNL     1      -5.070  10.435  23.443  0.00  0.00    +0.176 C 
ATOM     27  O   UNL     1      -5.389  11.368  24.512  0.00  0.00    -0.332 OA
ATOM     28  C   UNL     1      -4.368  12.381  24.795  0.00  0.00    +0.277 C 
ATOM     29  C   UNL     1      -4.010  13.163  23.507  0.00  0.00    +0.110 C 
ATOM     30  C   UNL     1      -3.694  12.213  22.333  0.00  0.00    +0.143 C 
ATOM     31  C   UNL     1      -4.820  11.199  22.129  0.00  0.00    +0.133 C 
BRANCH  31  32
ATOM     32  N   UNL     1      -4.469  10.245  21.065  0.00  0.00    -0.308 N 
ATOM     33  H   UNL     1      -3.637   9.685  21.190  0.00  0.00    +0.149 HD
ATOM     34  C   UNL     1      -5.176  10.072  19.946  0.00  0.00    +0.210 C 
ATOM     35  C   UNL     1      -6.423  10.959  19.774  0.00  0.00    +0.109 C 
ATOM     36  O   UNL     1      -4.866   9.255  19.078  0.00  0.00    -0.276 OA
ENDBRANCH  31  32
BRANCH  28  37
ATOM     37  C   UNL     1      -3.095  11.728  25.372  0.00  0.00    +0.414 C 
ATOM     38  O   UNL     1      -1.998  12.261  25.214  0.00  0.00    -0.240 OA
ATOM     39  O   UNL     1      -3.165  10.668  25.996  0.00  0.00    -0.240 OA
ENDBRANCH  28  37
BRANCH  30  40
ATOM     40  O   UNL     1      -3.518  12.969  21.135  0.00  0.00    -0.390 OA
ATOM     41  H   UNL     1      -2.867  12.538  20.576  0.00  0.00    +0.210 HD
ENDBRANCH  30  40
BRANCH  28  42
ATOM     42  O   UNL     1      -4.918  13.315  25.759  0.00  0.00    -0.343 OA
ATOM     43  C   UNL     1      -6.066  12.827  26.499  0.00  0.00    +0.198 C 
ENDBRANCH  28  42
ENDBRANCH  25  26
BRANCH  25  44
ATOM     44  O   UNL     1      -7.479  10.036  23.499  0.00  0.00    -0.387 OA
ATOM     45  H   UNL     1      -8.169   9.370  23.545  0.00  0.00    +0.210 HD
ENDBRANCH  25  44
ENDBRANCH   1  25
TORSDOF 15
