REMARK VINA RESULT:    -5.376      3.242     10.131
REMARK INTER + INTRA:         -11.922
REMARK INTER:                  -9.726
REMARK INTRA:                  -2.196
REMARK UNBOUND:                -2.303
REMARK  Name = lig_assembled_4.pdb
REMARK  19 active torsions:
REMARK  status: ('A' for Active; 'I' for Inactive)
REMARK    1  A    between atoms: _2  and  _9
REMARK    2  A    between atoms: _4  and  _21
REMARK    3  A    between atoms: _6  and  _7
REMARK    4  A    between atoms: _6  and  _21
REMARK    5  A    between atoms: _10  and  _11
REMARK    6  A    between atoms: _11  and  _12
REMARK    7  A    between atoms: _11  and  _13
REMARK    8  A    between atoms: _17  and  _37
REMARK    9  A    between atoms: _19  and  _25
REMARK   10  A    between atoms: _20  and  _24
REMARK   11  A    between atoms: _24  and  _25
REMARK   12  A    between atoms: _27  and  _28
REMARK   13  A    between atoms: _29  and  _30
REMARK   14  A    between atoms: _31  and  _33
REMARK   15  A    between atoms: _33  and  _34
REMARK   16  A    between atoms: _33  and  _35
REMARK   17  A    between atoms: _35  and  _36
REMARK   18  A    between atoms: _35  and  _37
REMARK   19  A    between atoms: _38  and  _40
REMARK                            x       y       z     vdW  Elec       q    Type
REMARK                         _______ _______ _______ _____ _____    ______ ____
ROOT
ATOM      1  C   UNL     1      -3.230  11.714  25.099  0.00  0.00    +0.163 C 
ENDROOT
BRANCH   1   2
ATOM      2  O   UNL     1      -2.007  10.960  25.076  0.00  0.00    -0.388 OA
ATOM      3  H   UNL     1      -1.263  11.559  24.976  0.00  0.00    +0.210 HD
ENDBRANCH   1   2
BRANCH   1   4
ATOM      4  C   UNL     1      -3.036  13.045  24.379  0.00  0.00    +0.141 C 
BRANCH   4   7
ATOM      5  C   UNL     1      -4.100  12.856  22.157  0.00  0.00    +0.401 C 
ATOM      6  O   UNL     1      -3.186  12.185  21.672  0.00  0.00    -0.226 OA
ATOM      7  N   UNL     1      -4.110  13.306  23.412  0.00  0.00    -0.279 N 
ATOM      8  H   UNL     1      -4.900  13.857  23.715  0.00  0.00    +0.152 HD
BRANCH   5   9
ATOM      9  O   UNL     1      -5.226  13.188  21.340  0.00  0.00    -0.444 OA
BRANCH   9  10
ATOM     10  C   UNL     1      -5.761  11.997  20.758  0.00  0.00    +0.292 C 
BRANCH  10  12
ATOM     11  N   UNL     1      -6.875  12.074  18.557  0.00  0.00    -0.131 NA
ATOM     12  C   UNL     1      -5.726  12.075  19.286  0.00  0.00    +0.121 A 
ATOM     13  C   UNL     1      -4.648  12.117  18.431  0.00  0.00    +0.143 A 
ATOM     14  N   UNL     1      -5.195  12.007  17.166  0.00  0.00    -0.219 N 
ATOM     15  N   UNL     1      -6.541  12.060  17.273  0.00  0.00    -0.060 NA
BRANCH  14  16
ATOM     16  C   UNL     1      -4.499  11.839  15.931  0.00  0.00    +0.070 A 
ATOM     17  C   UNL     1      -4.118  10.569  15.418  0.00  0.00    -0.019 A 
ATOM     18  C   UNL     1      -3.405  10.548  14.197  0.00  0.00    +0.006 A 
ATOM     19  C   UNL     1      -3.067  11.717  13.515  0.00  0.00    +0.000 A 
ATOM     20  C   UNL     1      -3.451  12.949  14.021  0.00  0.00    +0.002 A 
ATOM     21  C   UNL     1      -4.160  13.011  15.220  0.00  0.00    +0.028 A 
BRANCH  17  22
ATOM     22  C   UNL     1      -4.419   9.235  16.104  0.00  0.00    +0.015 C 
ATOM     23  C   UNL     1      -3.371   8.135  15.877  0.00  0.00    +0.012 C 
ATOM     24  C   UNL     1      -5.801   8.730  15.680  0.00  0.00    +0.012 C 
ENDBRANCH  17  22
ENDBRANCH  14  16
ENDBRANCH  10  12
ENDBRANCH   9  10
ENDBRANCH   5   9
ENDBRANCH   4   7
ENDBRANCH   1   4
BRANCH   1  25
ATOM     25  C   UNL     1      -3.690  11.973  26.544  0.00  0.00    +0.175 C 
BRANCH  25  26
ATOM     26  C   UNL     1      -3.397  10.780  27.466  0.00  0.00    +0.176 C 
ATOM     27  O   UNL     1      -4.015   9.601  26.883  0.00  0.00    -0.332 OA
ATOM     28  C   UNL     1      -3.750   8.337  27.576  0.00  0.00    +0.277 C 
ATOM     29  C   UNL     1      -4.140   8.448  29.071  0.00  0.00    +0.110 C 
ATOM     30  C   UNL     1      -3.531   9.705  29.727  0.00  0.00    +0.143 C 
ATOM     31  C   UNL     1      -3.866  10.961  28.921  0.00  0.00    +0.133 C 
BRANCH  31  32
ATOM     32  N   UNL     1      -3.208  12.139  29.508  0.00  0.00    -0.308 N 
ATOM     33  H   UNL     1      -2.198  12.169  29.498  0.00  0.00    +0.149 HD
ATOM     34  C   UNL     1      -3.858  13.171  30.052  0.00  0.00    +0.210 C 
ATOM     35  C   UNL     1      -5.396  13.083  30.075  0.00  0.00    +0.109 C 
ATOM     36  O   UNL     1      -3.281  14.152  30.522  0.00  0.00    -0.276 OA
ENDBRANCH  31  32
BRANCH  28  37
ATOM     37  C   UNL     1      -2.261   7.951  27.459  0.00  0.00    +0.414 C 
ATOM     38  O   UNL     1      -1.641   8.179  26.421  0.00  0.00    -0.240 OA
ATOM     39  O   UNL     1      -1.680   7.412  28.402  0.00  0.00    -0.240 OA
ENDBRANCH  28  37
BRANCH  30  40
ATOM     40  O   UNL     1      -4.036   9.848  31.055  0.00  0.00    -0.390 OA
ATOM     41  H   UNL     1      -4.638  10.595  31.090  0.00  0.00    +0.210 HD
ENDBRANCH  30  40
BRANCH  28  42
ATOM     42  O   UNL     1      -4.571   7.308  26.965  0.00  0.00    -0.343 OA
ATOM     43  C   UNL     1      -4.994   7.590  25.607  0.00  0.00    +0.198 C 
ENDBRANCH  28  42
ENDBRANCH  25  26
BRANCH  25  44
ATOM     44  O   UNL     1      -5.097  12.285  26.568  0.00  0.00    -0.387 OA
ATOM     45  H   UNL     1      -5.559  11.733  25.933  0.00  0.00    +0.210 HD
ENDBRANCH  25  44
ENDBRANCH   1  25
TORSDOF 15
