REMARK VINA RESULT:    -4.870      6.702     12.310
REMARK INTER + INTRA:         -12.869
REMARK INTER:                  -9.926
REMARK INTRA:                  -2.943
REMARK UNBOUND:                -3.302
REMARK  Name = lig_assembled_84.pdb
REMARK  21 active torsions:
REMARK  status: ('A' for Active; 'I' for Inactive)
REMARK    1  A    between atoms: _2  and  _11
REMARK    2  A    between atoms: _3  and  _14
REMARK    3  A    between atoms: _4  and  _17
REMARK    4  A    between atoms: _6  and  _28
REMARK    5  A    between atoms: _8  and  _9
REMARK    6  A    between atoms: _8  and  _28
REMARK    7  A    between atoms: _11  and  _12
REMARK    8  A    between atoms: _12  and  _13
REMARK    9  A    between atoms: _12  and  _14
REMARK   10  A    between atoms: _24  and  _44
REMARK   11  A    between atoms: _26  and  _32
REMARK   12  A    between atoms: _27  and  _31
REMARK   13  A    between atoms: _31  and  _32
REMARK   14  A    between atoms: _34  and  _35
REMARK   15  A    between atoms: _36  and  _37
REMARK   16  A    between atoms: _38  and  _40
REMARK   17  A    between atoms: _40  and  _41
REMARK   18  A    between atoms: _40  and  _42
REMARK   19  A    between atoms: _42  and  _43
REMARK   20  A    between atoms: _42  and  _44
REMARK   21  A    between atoms: _45  and  _47
REMARK                            x       y       z     vdW  Elec       q    Type
REMARK                         _______ _______ _______ _____ _____    ______ ____
ROOT
ATOM      1  C   UNL     1      -7.415   8.157  20.271  0.00  0.00    +0.401 C 
ATOM      2  O   UNL     1      -6.696   7.156  20.212  0.00  0.00    -0.226 OA
ATOM      3  N   UNL     1      -7.841   8.702  21.411  0.00  0.00    -0.279 N 
ATOM      4  H   UNL     1      -8.419   9.528  21.358  0.00  0.00    +0.152 HD
ENDROOT
BRANCH   1   5
ATOM      5  O   UNL     1      -7.825   8.791  19.057  0.00  0.00    -0.444 OA
BRANCH   5   6
ATOM      6  C   UNL     1      -7.621  10.202  19.162  0.00  0.00    +0.292 C 
BRANCH   6   8
ATOM      7  N   UNL     1      -6.597  12.046  17.858  0.00  0.00    -0.131 NA
ATOM      8  C   UNL     1      -6.851  10.707  18.009  0.00  0.00    +0.120 A 
ATOM      9  C   UNL     1      -6.316  10.024  16.940  0.00  0.00    +0.137 A 
ATOM     10  N   UNL     1      -5.811  11.008  16.142  0.00  0.00    -0.251 N 
ATOM     11  N   UNL     1      -5.960  12.218  16.707  0.00  0.00    -0.065 NA
BRANCH  10  12
ATOM     12  C   UNL     1      -5.305  10.880  14.789  0.00  0.00    +0.149 C 
BRANCH  12  13
ATOM     13  C   UNL     1      -3.801  11.165  14.645  0.00  0.00    +0.021 C 
ATOM     14  C   UNL     1      -2.963  10.149  15.435  0.00  0.00    +0.010 C 
BRANCH  13  15
ATOM     15  C   UNL     1      -3.362  11.128  13.161  0.00  0.00    +0.089 C 
BRANCH  15  16
ATOM     16  N   UNL     1      -3.163  12.437  12.524  0.00  0.00    -0.299 NA
ATOM     17  C   UNL     1      -1.999  12.381  11.599  0.00  0.00    +0.103 C 
ATOM     18  C   UNL     1      -1.806  13.711  10.843  0.00  0.00    +0.120 C 
ATOM     19  N   UNL     1      -1.622  14.804  11.805  0.00  0.00    -0.327 N 
ATOM     20  C   UNL     1      -2.692  14.915  12.807  0.00  0.00    +0.120 C 
ATOM     21  C   UNL     1      -2.929  13.538  13.492  0.00  0.00    +0.103 C 
BRANCH  19  22
ATOM     22  C   UNL     1      -0.565  15.682  11.737  0.00  0.00    +0.030 A 
ATOM     23  C   UNL     1       0.764  15.223  11.681  0.00  0.00    +0.024 A 
ATOM     24  C   UNL     1       1.853  16.101  11.637  0.00  0.00    +0.022 A 
ATOM     25  C   UNL     1       1.632  17.468  11.643  0.00  0.00    +0.041 A 
ATOM     26 CL   UNL     1       2.966  18.554  11.595  0.00  0.00    -0.084 Cl
ATOM     27  C   UNL     1       0.333  17.963  11.695  0.00  0.00    +0.022 A 
ATOM     28  C   UNL     1      -0.749  17.073  11.744  0.00  0.00    +0.024 A 
ENDBRANCH  19  22
ENDBRANCH  15  16
ENDBRANCH  13  15
ENDBRANCH  12  13
ENDBRANCH  10  12
ENDBRANCH   6   8
ENDBRANCH   5   6
ENDBRANCH   1   5
BRANCH   3  29
ATOM     29  C   UNL     1      -7.517   8.168  22.740  0.00  0.00    +0.141 C 
BRANCH  29  30
ATOM     30  C   UNL     1      -6.519   9.052  23.481  0.00  0.00    +0.163 C 
BRANCH  30  31
ATOM     31  O   UNL     1      -7.025   9.378  24.786  0.00  0.00    -0.388 OA
ATOM     32  H   UNL     1      -6.732   8.716  25.417  0.00  0.00    +0.210 HD
ENDBRANCH  30  31
BRANCH  30  33
ATOM     33  C   UNL     1      -5.166   8.328  23.580  0.00  0.00    +0.175 C 
BRANCH  33  34
ATOM     34  C   UNL     1      -4.084   9.211  24.220  0.00  0.00    +0.176 C 
ATOM     35  O   UNL     1      -4.365   9.300  25.644  0.00  0.00    -0.332 OA
ATOM     36  C   UNL     1      -3.370  10.022  26.443  0.00  0.00    +0.277 C 
ATOM     37  C   UNL     1      -3.138  11.440  25.865  0.00  0.00    +0.110 C 
ATOM     38  C   UNL     1      -2.866  11.398  24.346  0.00  0.00    +0.143 C 
ATOM     39  C   UNL     1      -3.960  10.621  23.614  0.00  0.00    +0.133 C 
BRANCH  39  40
ATOM     40  N   UNL     1      -3.645  10.514  22.181  0.00  0.00    -0.308 N 
ATOM     41  H   UNL     1      -2.878   9.915  21.910  0.00  0.00    +0.149 HD
ATOM     42  C   UNL     1      -4.307  11.156  21.214  0.00  0.00    +0.210 C 
ATOM     43  C   UNL     1      -5.455  12.081  21.662  0.00  0.00    +0.109 C 
ATOM     44  O   UNL     1      -4.031  11.036  20.021  0.00  0.00    -0.276 OA
ENDBRANCH  39  40
BRANCH  36  45
ATOM     45  C   UNL     1      -2.033   9.254  26.476  0.00  0.00    +0.414 C 
ATOM     46  O   UNL     1      -0.966   9.863  26.419  0.00  0.00    -0.240 OA
ATOM     47  O   UNL     1      -2.021   8.025  26.559  0.00  0.00    -0.240 OA
ENDBRANCH  36  45
BRANCH  36  48
ATOM     48  O   UNL     1      -3.889  10.158  27.791  0.00  0.00    -0.343 OA
ATOM     49  C   UNL     1      -4.604  11.392  28.051  0.00  0.00    +0.198 C 
ENDBRANCH  36  48
BRANCH  38  50
ATOM     50  O   UNL     1      -2.809  12.729  23.830  0.00  0.00    -0.390 OA
ATOM     51  H   UNL     1      -1.901  13.040  23.846  0.00  0.00    +0.210 HD
ENDBRANCH  38  50
ENDBRANCH  33  34
BRANCH  33  52
ATOM     52  O   UNL     1      -4.740   7.890  22.274  0.00  0.00    -0.387 OA
ATOM     53  H   UNL     1      -4.726   6.930  22.247  0.00  0.00    +0.210 HD
ENDBRANCH  33  52
ENDBRANCH  30  33
ENDBRANCH  29  30
ENDBRANCH   3  29
TORSDOF 18
