REMARK VINA RESULT:    -4.022      3.567     10.062
REMARK INTER + INTRA:         -11.186
REMARK INTER:                  -8.323
REMARK INTRA:                  -2.862
REMARK UNBOUND:                -3.049
REMARK  Name = lig_assembled_45.pdb
REMARK  24 active torsions:
REMARK  status: ('A' for Active; 'I' for Inactive)
REMARK    1  A    between atoms: _2  and  _10
REMARK    2  A    between atoms: _3  and  _12
REMARK    3  A    between atoms: _3  and  _13
REMARK    4  A    between atoms: _3  and  _14
REMARK    5  A    between atoms: _3  and  _16
REMARK    6  A    between atoms: _5  and  _21
REMARK    7  A    between atoms: _6  and  _16
REMARK    8  A    between atoms: _7  and  _8
REMARK    9  A    between atoms: _7  and  _21
REMARK   10  A    between atoms: _10  and  _11
REMARK   11  A    between atoms: _11  and  _12
REMARK   12  A    between atoms: _14  and  _15
REMARK   13  A    between atoms: _17  and  _37
REMARK   14  A    between atoms: _19  and  _25
REMARK   15  A    between atoms: _20  and  _24
REMARK   16  A    between atoms: _24  and  _25
REMARK   17  A    between atoms: _27  and  _28
REMARK   18  A    between atoms: _29  and  _30
REMARK   19  A    between atoms: _31  and  _33
REMARK   20  A    between atoms: _33  and  _34
REMARK   21  A    between atoms: _33  and  _35
REMARK   22  A    between atoms: _35  and  _36
REMARK   23  A    between atoms: _35  and  _37
REMARK   24  A    between atoms: _38  and  _40
REMARK                            x       y       z     vdW  Elec       q    Type
REMARK                         _______ _______ _______ _____ _____    ______ ____
ROOT
ATOM      1  C   UNL     1      -6.357   8.483  23.210  0.00  0.00    +0.163 C 
ENDROOT
BRANCH   1   2
ATOM      2  O   UNL     1      -6.358   8.520  24.647  0.00  0.00    -0.388 OA
ATOM      3  H   UNL     1      -6.490   9.423  24.944  0.00  0.00    +0.210 HD
ENDBRANCH   1   2
BRANCH   1   4
ATOM      4  C   UNL     1      -6.562   9.891  22.624  0.00  0.00    +0.175 C 
BRANCH   4   5
ATOM      5  C   UNL     1      -5.438  10.855  23.029  0.00  0.00    +0.176 C 
ATOM      6  O   UNL     1      -5.527  11.068  24.464  0.00  0.00    -0.332 OA
ATOM      7  C   UNL     1      -4.461  11.886  25.052  0.00  0.00    +0.277 C 
ATOM      8  C   UNL     1      -4.362  13.250  24.325  0.00  0.00    +0.110 C 
ATOM      9  C   UNL     1      -4.297  13.075  22.793  0.00  0.00    +0.143 C 
ATOM     10  C   UNL     1      -5.451  12.206  22.290  0.00  0.00    +0.133 C 
BRANCH  10  11
ATOM     11  N   UNL     1      -5.329  11.976  20.842  0.00  0.00    -0.308 N 
ATOM     12  H   UNL     1      -4.482  11.540  20.503  0.00  0.00    +0.149 HD
ATOM     13  C   UNL     1      -6.263  12.306  19.946  0.00  0.00    +0.210 C 
ATOM     14  C   UNL     1      -7.529  12.992  20.491  0.00  0.00    +0.109 C 
ATOM     15  O   UNL     1      -6.140  12.087  18.740  0.00  0.00    -0.276 OA
ENDBRANCH  10  11
BRANCH   7  16
ATOM     16  C   UNL     1      -3.103  11.157  24.967  0.00  0.00    +0.414 C 
ATOM     17  O   UNL     1      -2.067  11.736  25.291  0.00  0.00    -0.240 OA
ATOM     18  O   UNL     1      -3.044   9.991  24.574  0.00  0.00    -0.240 OA
ENDBRANCH   7  16
BRANCH   9  19
ATOM     19  O   UNL     1      -4.361  14.354  22.160  0.00  0.00    -0.390 OA
ATOM     20  H   UNL     1      -4.496  14.238  21.217  0.00  0.00    +0.210 HD
ENDBRANCH   9  19
BRANCH   7  21
ATOM     21  O   UNL     1      -4.797  12.131  26.441  0.00  0.00    -0.343 OA
ATOM     22  C   UNL     1      -5.045  10.940  27.231  0.00  0.00    +0.198 C 
ENDBRANCH   7  21
ENDBRANCH   4   5
BRANCH   4  23
ATOM     23  O   UNL     1      -7.840  10.418  23.033  0.00  0.00    -0.387 OA
ATOM     24  H   UNL     1      -7.800  11.377  23.052  0.00  0.00    +0.210 HD
ENDBRANCH   4  23
ENDBRANCH   1   4
BRANCH   1  25
ATOM     25  C   UNL     1      -5.038   7.908  22.704  0.00  0.00    +0.141 C 
BRANCH  25  28
ATOM     26  C   UNL     1      -3.105   6.676  23.629  0.00  0.00    +0.401 C 
ATOM     27  O   UNL     1      -2.705   6.291  22.528  0.00  0.00    -0.226 OA
ATOM     28  N   UNL     1      -4.191   7.431  23.805  0.00  0.00    -0.279 N 
ATOM     29  H   UNL     1      -4.445   7.688  24.748  0.00  0.00    +0.152 HD
BRANCH  26  30
ATOM     30  O   UNL     1      -2.380   6.300  24.802  0.00  0.00    -0.444 OA
BRANCH  30  31
ATOM     31  C   UNL     1      -3.280   6.207  25.910  0.00  0.00    +0.292 C 
BRANCH  31  33
ATOM     32  N   UNL     1      -1.812   7.988  26.820  0.00  0.00    -0.131 NA
ATOM     33  C   UNL     1      -2.858   7.119  26.989  0.00  0.00    +0.120 A 
ATOM     34  C   UNL     1      -3.366   7.271  28.259  0.00  0.00    +0.137 A 
ATOM     35  N   UNL     1      -2.585   8.246  28.798  0.00  0.00    -0.251 N 
ATOM     36  N   UNL     1      -1.652   8.673  27.944  0.00  0.00    -0.065 NA
BRANCH  35  37
ATOM     37  C   UNL     1      -2.666   8.796  30.137  0.00  0.00    +0.150 C 
BRANCH  37  38
ATOM     38  C   UNL     1      -2.784  10.314  30.148  0.00  0.00    +0.074 C 
BRANCH  38  39
ATOM     39  C   UNL     1      -4.132  10.900  30.589  0.00  0.00    +0.134 C 
BRANCH  39  40
ATOM     40  N   UNL     1      -4.122  12.258  31.365  0.00  0.00    +0.241 N 
ATOM     41  C   UNL     1      -5.498  12.463  32.022  0.00  0.00    +0.192 C 
BRANCH  40  42
ATOM     42  C   UNL     1      -3.918  13.372  30.285  0.00  0.00    +0.129 C 
ATOM     43  C   UNL     1      -5.136  14.267  30.080  0.00  0.00    +0.060 C 
ENDBRANCH  40  42
BRANCH  40  44
ATOM     44  C   UNL     1      -3.031  12.377  32.446  0.00  0.00    +0.129 C 
ATOM     45  C   UNL     1      -1.977  13.432  32.155  0.00  0.00    +0.060 C 
ENDBRANCH  40  44
ENDBRANCH  39  40
ENDBRANCH  38  39
ENDBRANCH  37  38
ENDBRANCH  35  37
ENDBRANCH  31  33
ENDBRANCH  30  31
ENDBRANCH  26  30
ENDBRANCH  25  28
ENDBRANCH   1  25
TORSDOF 19
