REMARK VINA RESULT:    -5.202      5.607     12.805
REMARK INTER + INTRA:         -10.817
REMARK INTER:                  -8.473
REMARK INTRA:                  -2.344
REMARK UNBOUND:                -1.813
REMARK  Name = lig_assembled_40.pdb
REMARK  17 active torsions:
REMARK  status: ('A' for Active; 'I' for Inactive)
REMARK    1  A    between atoms: _2  and  _9
REMARK    2  A    between atoms: _4  and  _19
REMARK    3  A    between atoms: _6  and  _7
REMARK    4  A    between atoms: _6  and  _19
REMARK    5  A    between atoms: _12  and  _13
REMARK    6  A    between atoms: _15  and  _35
REMARK    7  A    between atoms: _17  and  _23
REMARK    8  A    between atoms: _18  and  _22
REMARK    9  A    between atoms: _22  and  _23
REMARK   10  A    between atoms: _25  and  _26
REMARK   11  A    between atoms: _27  and  _28
REMARK   12  A    between atoms: _29  and  _31
REMARK   13  A    between atoms: _31  and  _32
REMARK   14  A    between atoms: _31  and  _33
REMARK   15  A    between atoms: _33  and  _34
REMARK   16  A    between atoms: _33  and  _35
REMARK   17  A    between atoms: _36  and  _38
REMARK                            x       y       z     vdW  Elec       q    Type
REMARK                         _______ _______ _______ _____ _____    ______ ____
ROOT
ATOM      1  C   UNL     1      -3.384   9.318  13.859  0.00  0.00    +0.163 C 
ENDROOT
BRANCH   1   2
ATOM      2  O   UNL     1      -2.201   8.871  13.178  0.00  0.00    -0.388 OA
ATOM      3  H   UNL     1      -2.302   7.947  12.933  0.00  0.00    +0.210 HD
ENDBRANCH   1   2
BRANCH   1   4
ATOM      4  C   UNL     1      -4.053   8.145  14.569  0.00  0.00    +0.141 C 
BRANCH   4   7
ATOM      5  C   UNL     1      -4.999   8.694  16.784  0.00  0.00    +0.401 C 
ATOM      6  O   UNL     1      -6.100   9.025  16.337  0.00  0.00    -0.226 OA
ATOM      7  N   UNL     1      -3.982   8.277  16.029  0.00  0.00    -0.279 N 
ATOM      8  H   UNL     1      -3.114   8.037  16.488  0.00  0.00    +0.152 HD
BRANCH   5   9
ATOM      9  O   UNL     1      -4.774   8.759  18.195  0.00  0.00    -0.444 OA
BRANCH   9  10
ATOM     10  C   UNL     1      -5.618   9.762  18.768  0.00  0.00    +0.292 C 
BRANCH  10  12
ATOM     11  N   UNL     1      -4.428  11.713  19.718  0.00  0.00    -0.131 NA
ATOM     12  C   UNL     1      -4.922  10.450  19.871  0.00  0.00    +0.121 A 
ATOM     13  C   UNL     1      -4.666  10.020  21.151  0.00  0.00    +0.143 A 
ATOM     14  N   UNL     1      -4.033  11.077  21.765  0.00  0.00    -0.220 N 
ATOM     15  N   UNL     1      -3.881  12.084  20.869  0.00  0.00    -0.060 NA
BRANCH  14  16
ATOM     16  C   UNL     1      -3.618  11.195  23.116  0.00  0.00    +0.067 A 
ATOM     17  C   UNL     1      -3.737  10.117  24.001  0.00  0.00    +0.028 A 
ATOM     18  C   UNL     1      -3.388  10.270  25.346  0.00  0.00    +0.005 A 
ATOM     19  C   UNL     1      -2.918  11.497  25.824  0.00  0.00    -0.050 A 
ATOM     20  C   UNL     1      -2.765  12.563  24.931  0.00  0.00    +0.005 A 
ATOM     21  C   UNL     1      -2.587  11.678  27.276  0.00  0.00    +0.044 C 
ATOM     22  C   UNL     1      -3.111  12.417  23.585  0.00  0.00    +0.028 A 
ENDBRANCH  14  16
ENDBRANCH  10  12
ENDBRANCH   9  10
ENDBRANCH   5   9
ENDBRANCH   4   7
ENDBRANCH   1   4
BRANCH   1  23
ATOM     23  C   UNL     1      -4.378   9.957  12.874  0.00  0.00    +0.175 C 
BRANCH  23  24
ATOM     24  C   UNL     1      -3.971  11.386  12.487  0.00  0.00    +0.176 C 
ATOM     25  O   UNL     1      -2.770  11.304  11.671  0.00  0.00    -0.332 OA
ATOM     26  C   UNL     1      -2.291  12.574  11.118  0.00  0.00    +0.277 C 
ATOM     27  C   UNL     1      -2.086  13.613  12.247  0.00  0.00    +0.110 C 
ATOM     28  C   UNL     1      -3.325  13.713  13.162  0.00  0.00    +0.143 C 
ATOM     29  C   UNL     1      -3.738  12.334  13.678  0.00  0.00    +0.133 C 
BRANCH  29  30
ATOM     30  N   UNL     1      -4.970  12.432  14.477  0.00  0.00    -0.308 N 
ATOM     31  H   UNL     1      -5.842  12.565  13.984  0.00  0.00    +0.149 HD
ATOM     32  C   UNL     1      -5.012  12.355  15.810  0.00  0.00    +0.210 C 
ATOM     33  C   UNL     1      -3.663  12.177  16.532  0.00  0.00    +0.109 C 
ATOM     34  O   UNL     1      -6.060  12.425  16.451  0.00  0.00    -0.276 OA
ENDBRANCH  29  30
BRANCH  26  35
ATOM     35  C   UNL     1      -3.289  13.131  10.081  0.00  0.00    +0.414 C 
ATOM     36  O   UNL     1      -3.577  14.327  10.077  0.00  0.00    -0.240 OA
ATOM     37  O   UNL     1      -3.807  12.384   9.249  0.00  0.00    -0.240 OA
ENDBRANCH  26  35
BRANCH  28  38
ATOM     38  O   UNL     1      -3.037  14.565  14.271  0.00  0.00    -0.390 OA
ATOM     39  H   UNL     1      -2.645  14.048  14.979  0.00  0.00    +0.210 HD
ENDBRANCH  28  38
BRANCH  26  40
ATOM     40  O   UNL     1      -1.010  12.332  10.481  0.00  0.00    -0.343 OA
ATOM     41  C   UNL     1      -0.193  13.512  10.280  0.00  0.00    +0.198 C 
ENDBRANCH  26  40
ENDBRANCH  23  24
BRANCH  23  42
ATOM     42  O   UNL     1      -5.706   9.953  13.435  0.00  0.00    -0.387 OA
ATOM     43  H   UNL     1      -5.658  10.154  14.373  0.00  0.00    +0.210 HD
ENDBRANCH  23  42
ENDBRANCH   1  23
TORSDOF 14
