REMARK VINA RESULT:    -4.410      5.902     11.598
REMARK INTER + INTRA:         -10.856
REMARK INTER:                  -7.890
REMARK INTRA:                  -2.966
REMARK UNBOUND:                -2.966
REMARK  Name = lig_assembled_89.pdb
REMARK  19 active torsions:
REMARK  status: ('A' for Active; 'I' for Inactive)
REMARK    1  A    between atoms: _2  and  _12
REMARK    2  A    between atoms: _5  and  _20
REMARK    3  A    between atoms: _7  and  _29
REMARK    4  A    between atoms: _9  and  _10
REMARK    5  A    between atoms: _9  and  _29
REMARK    6  A    between atoms: _20  and  _21
REMARK    7  A    between atoms: _20  and  _22
REMARK    8  A    between atoms: _25  and  _45
REMARK    9  A    between atoms: _27  and  _33
REMARK   10  A    between atoms: _28  and  _32
REMARK   11  A    between atoms: _32  and  _33
REMARK   12  A    between atoms: _35  and  _36
REMARK   13  A    between atoms: _37  and  _38
REMARK   14  A    between atoms: _39  and  _41
REMARK   15  A    between atoms: _41  and  _42
REMARK   16  A    between atoms: _41  and  _43
REMARK   17  A    between atoms: _43  and  _44
REMARK   18  A    between atoms: _43  and  _45
REMARK   19  A    between atoms: _46  and  _48
REMARK                            x       y       z     vdW  Elec       q    Type
REMARK                         _______ _______ _______ _____ _____    ______ ____
ROOT
ATOM      1  C   UNL     1      -1.978   8.674  27.353  0.00  0.00    +0.401 C 
ATOM      2  O   UNL     1      -1.328   9.704  27.162  0.00  0.00    -0.226 OA
ATOM      3  N   UNL     1      -2.823   8.503  28.371  0.00  0.00    -0.279 N 
ATOM      4  H   UNL     1      -3.319   7.625  28.438  0.00  0.00    +0.152 HD
ENDROOT
BRANCH   3   5
ATOM      5  C   UNL     1      -3.074   9.520  29.400  0.00  0.00    +0.141 C 
BRANCH   5   6
ATOM      6  C   UNL     1      -4.396  10.245  29.173  0.00  0.00    +0.163 C 
BRANCH   6   7
ATOM      7  O   UNL     1      -5.190  10.208  30.370  0.00  0.00    -0.388 OA
ATOM      8  H   UNL     1      -5.081  11.031  30.853  0.00  0.00    +0.210 HD
ENDBRANCH   6   7
BRANCH   6   9
ATOM      9  C   UNL     1      -4.119  11.696  28.742  0.00  0.00    +0.175 C 
BRANCH   9  10
ATOM     10  C   UNL     1      -5.139  12.197  27.709  0.00  0.00    +0.176 C 
ATOM     11  O   UNL     1      -6.334  12.611  28.425  0.00  0.00    -0.332 OA
ATOM     12  C   UNL     1      -7.386  13.221  27.605  0.00  0.00    +0.277 C 
ATOM     13  C   UNL     1      -7.774  12.281  26.438  0.00  0.00    +0.110 C 
ATOM     14  C   UNL     1      -6.532  11.789  25.665  0.00  0.00    +0.143 C 
ATOM     15  C   UNL     1      -5.503  11.176  26.615  0.00  0.00    +0.133 C 
BRANCH  15  16
ATOM     16  N   UNL     1      -4.288  10.790  25.879  0.00  0.00    -0.308 N 
ATOM     17  H   UNL     1      -3.983   9.829  25.944  0.00  0.00    +0.149 HD
ATOM     18  C   UNL     1      -3.564  11.626  25.131  0.00  0.00    +0.210 C 
ATOM     19  C   UNL     1      -4.041  13.090  25.074  0.00  0.00    +0.109 C 
ATOM     20  O   UNL     1      -2.559  11.272  24.514  0.00  0.00    -0.276 OA
ENDBRANCH  15  16
BRANCH  12  21
ATOM     21  C   UNL     1      -6.920  14.579  27.041  0.00  0.00    +0.414 C 
ATOM     22  O   UNL     1      -7.011  14.814  25.837  0.00  0.00    -0.240 OA
ATOM     23  O   UNL     1      -6.454  15.439  27.789  0.00  0.00    -0.240 OA
ENDBRANCH  12  21
BRANCH  14  24
ATOM     24  O   UNL     1      -6.922  10.812  24.699  0.00  0.00    -0.390 OA
ATOM     25  H   UNL     1      -7.878  10.721  24.702  0.00  0.00    +0.210 HD
ENDBRANCH  14  24
BRANCH  12  26
ATOM     26  O   UNL     1      -8.553  13.415  28.444  0.00  0.00    -0.343 OA
ATOM     27  C   UNL     1      -8.715  12.438  29.503  0.00  0.00    +0.198 C 
ENDBRANCH  12  26
ENDBRANCH   9  10
BRANCH   9  28
ATOM     28  O   UNL     1      -2.781  11.810  28.215  0.00  0.00    -0.387 OA
ATOM     29  H   UNL     1      -2.163  11.941  28.938  0.00  0.00    +0.210 HD
ENDBRANCH   9  28
ENDBRANCH   6   9
ENDBRANCH   5   6
ENDBRANCH   3   5
BRANCH   1  30
ATOM     30  O   UNL     1      -1.837   7.584  26.439  0.00  0.00    -0.444 OA
BRANCH  30  31
ATOM     31  C   UNL     1      -2.985   6.735  26.526  0.00  0.00    +0.292 C 
BRANCH  31  33
ATOM     32  N   UNL     1      -5.059   7.850  25.799  0.00  0.00    -0.131 NA
ATOM     33  C   UNL     1      -3.966   7.096  25.489  0.00  0.00    +0.121 A 
ATOM     34  C   UNL     1      -3.984   6.812  24.145  0.00  0.00    +0.145 A 
ATOM     35  N   UNL     1      -5.111   7.444  23.656  0.00  0.00    -0.199 N 
ATOM     36  N   UNL     1      -5.742   8.062  24.681  0.00  0.00    -0.059 NA
BRANCH  35  37
ATOM     37  C   UNL     1      -5.494   7.520  22.285  0.00  0.00    +0.186 A 
ATOM     38  C   UNL     1      -5.447   8.588  21.413  0.00  0.00    +0.158 A 
ATOM     39  C   UNL     1      -5.138   9.975  21.580  0.00  0.00    +0.280 A 
ATOM     40  O   UNL     1      -5.180  10.530  22.670  0.00  0.00    -0.265 OA
ATOM     41  N   UNL     1      -4.813  10.666  20.394  0.00  0.00    -0.302 N 
ATOM     42  C   UNL     1      -5.220  10.137  19.112  0.00  0.00    +0.069 A 
ATOM     43  C   UNL     1      -5.178  10.894  17.932  0.00  0.00    +0.028 A 
ATOM     44  C   UNL     1      -5.628  10.366  16.714  0.00  0.00    +0.002 A 
ATOM     45  C   UNL     1      -6.122   9.068  16.645  0.00  0.00    +0.002 A 
ATOM     46  C   UNL     1      -6.166   8.284  17.793  0.00  0.00    +0.028 A 
ATOM     47  C   UNL     1      -5.727   8.823  19.012  0.00  0.00    +0.072 A 
ATOM     48  N   UNL     1      -5.767   8.061  20.191  0.00  0.00    -0.291 N 
ATOM     49  C   UNL     1      -6.100   6.745  20.388  0.00  0.00    +0.207 A 
ATOM     50  N   UNL     1      -5.936   6.379  21.641  0.00  0.00    -0.216 NA
BRANCH  41  51
ATOM     51  C   UNL     1      -4.239  12.026  20.519  0.00  0.00    +0.085 C 
ATOM     52  C   UNL     1      -2.930  12.074  21.331  0.00  0.00    +0.030 C 
ATOM     53  C   UNL     1      -5.253  13.022  21.080  0.00  0.00    +0.030 C 
ENDBRANCH  41  51
ENDBRANCH  35  37
ENDBRANCH  31  33
ENDBRANCH  30  31
ENDBRANCH   1  30
TORSDOF 15
