REMARK VINA RESULT:    -5.511      5.450     11.935
REMARK INTER + INTRA:         -12.308
REMARK INTER:                  -8.456
REMARK INTRA:                  -3.851
REMARK UNBOUND:                -2.447
REMARK  Name = lig_assembled_85.pdb
REMARK  19 active torsions:
REMARK  status: ('A' for Active; 'I' for Inactive)
REMARK    1  A    between atoms: _2  and  _10
REMARK    2  A    between atoms: _3  and  _6
REMARK    3  A    between atoms: _3  and  _17
REMARK    4  A    between atoms: _5  and  _23
REMARK    5  A    between atoms: _7  and  _8
REMARK    6  A    between atoms: _7  and  _23
REMARK    7  A    between atoms: _15  and  _16
REMARK    8  A    between atoms: _19  and  _39
REMARK    9  A    between atoms: _21  and  _27
REMARK   10  A    between atoms: _22  and  _26
REMARK   11  A    between atoms: _26  and  _27
REMARK   12  A    between atoms: _29  and  _30
REMARK   13  A    between atoms: _31  and  _32
REMARK   14  A    between atoms: _33  and  _35
REMARK   15  A    between atoms: _35  and  _36
REMARK   16  A    between atoms: _35  and  _37
REMARK   17  A    between atoms: _37  and  _38
REMARK   18  A    between atoms: _37  and  _39
REMARK   19  A    between atoms: _40  and  _42
REMARK                            x       y       z     vdW  Elec       q    Type
REMARK                         _______ _______ _______ _____ _____    ______ ____
ROOT
ATOM      1  C   UNL     1      -4.938   7.570  24.078  0.00  0.00    +0.141 C 
ENDROOT
BRANCH   1   4
ATOM      2  C   UNL     1      -3.092   6.920  25.586  0.00  0.00    +0.401 C 
ATOM      3  O   UNL     1      -3.387   5.723  25.586  0.00  0.00    -0.226 OA
ATOM      4  N   UNL     1      -3.765   7.855  24.914  0.00  0.00    -0.279 N 
ATOM      5  H   UNL     1      -3.451   8.812  24.984  0.00  0.00    +0.152 HD
BRANCH   2   6
ATOM      6  O   UNL     1      -1.964   7.357  26.349  0.00  0.00    -0.444 OA
BRANCH   6   7
ATOM      7  C   UNL     1      -2.274   7.288  27.743  0.00  0.00    +0.292 C 
BRANCH   7   9
ATOM      8  N   UNL     1      -4.458   8.403  28.029  0.00  0.00    -0.131 NA
ATOM      9  C   UNL     1      -3.098   8.443  28.140  0.00  0.00    +0.121 A 
ATOM     10  C   UNL     1      -2.721   9.644  28.697  0.00  0.00    +0.143 A 
ATOM     11  N   UNL     1      -3.901  10.310  28.917  0.00  0.00    -0.219 N 
ATOM     12  N   UNL     1      -4.940   9.532  28.529  0.00  0.00    -0.060 NA
BRANCH  11  13
ATOM     13  C   UNL     1      -4.129  11.558  29.537  0.00  0.00    +0.080 A 
ATOM     14  C   UNL     1      -3.871  11.825  30.891  0.00  0.00    +0.062 A 
ATOM     15  C   UNL     1      -4.377  13.030  31.431  0.00  0.00    +0.016 A 
ATOM     16  C   UNL     1      -5.091  13.948  30.653  0.00  0.00    +0.021 A 
ATOM     17  C   UNL     1      -5.271  13.699  29.300  0.00  0.00    +0.043 A 
ATOM     18 CL   UNL     1      -6.176  14.799  28.336  0.00  0.00    -0.083 Cl
ATOM     19  C   UNL     1      -4.773  12.529  28.736  0.00  0.00    +0.048 A 
BRANCH  14  20
ATOM     20  C   UNL     1      -3.184  10.960  31.896  0.00  0.00    +0.248 C 
ATOM     21  O   UNL     1      -2.018  11.277  32.147  0.00  0.00    -0.270 OA
ATOM     22  N   UNL     1      -3.764   9.828  32.477  0.00  0.00    -0.304 N 
ATOM     23  C   UNL     1      -5.152   9.391  32.392  0.00  0.00    +0.132 C 
ATOM     24  C   UNL     1      -2.940   9.095  33.433  0.00  0.00    +0.132 C 
ENDBRANCH  14  20
ENDBRANCH  11  13
ENDBRANCH   7   9
ENDBRANCH   6   7
ENDBRANCH   2   6
ENDBRANCH   1   4
BRANCH   1  25
ATOM     25  C   UNL     1      -6.057   8.581  24.305  0.00  0.00    +0.163 C 
BRANCH  25  26
ATOM     26  O   UNL     1      -5.835   9.293  25.534  0.00  0.00    -0.388 OA
ATOM     27  H   UNL     1      -5.352   8.733  26.146  0.00  0.00    +0.210 HD
ENDBRANCH  25  26
BRANCH  25  28
ATOM     28  C   UNL     1      -6.125   9.550  23.112  0.00  0.00    +0.175 C 
BRANCH  28  29
ATOM     29  C   UNL     1      -4.987  10.582  23.141  0.00  0.00    +0.176 C 
ATOM     30  O   UNL     1      -5.311  11.577  24.151  0.00  0.00    -0.332 OA
ATOM     31  C   UNL     1      -4.282  12.591  24.394  0.00  0.00    +0.277 C 
ATOM     32  C   UNL     1      -3.893  13.296  23.072  0.00  0.00    +0.110 C 
ATOM     33  C   UNL     1      -3.570  12.278  21.958  0.00  0.00    +0.143 C 
ATOM     34  C   UNL     1      -4.706  11.268  21.791  0.00  0.00    +0.133 C 
BRANCH  34  35
ATOM     35  N   UNL     1      -4.350  10.252  20.788  0.00  0.00    -0.308 N 
ATOM     36  H   UNL     1      -3.548   9.667  20.974  0.00  0.00    +0.149 HD
ATOM     37  C   UNL     1      -5.017  10.053  19.648  0.00  0.00    +0.210 C 
ATOM     38  C   UNL     1      -6.219  10.979  19.382  0.00  0.00    +0.109 C 
ATOM     39  O   UNL     1      -4.705   9.185  18.833  0.00  0.00    -0.276 OA
ENDBRANCH  34  35
BRANCH  31  40
ATOM     40  C   UNL     1      -3.027  11.956  25.029  0.00  0.00    +0.414 C 
ATOM     41  O   UNL     1      -3.090  10.839  25.542  0.00  0.00    -0.240 OA
ATOM     42  O   UNL     1      -1.953  12.559  25.027  0.00  0.00    -0.240 OA
ENDBRANCH  31  40
BRANCH  33  43
ATOM     43  O   UNL     1      -3.365  12.964  20.722  0.00  0.00    -0.390 OA
ATOM     44  H   UNL     1      -4.114  13.539  20.547  0.00  0.00    +0.210 HD
ENDBRANCH  33  43
BRANCH  31  45
ATOM     45  O   UNL     1      -4.835  13.584  25.296  0.00  0.00    -0.343 OA
ATOM     46  C   UNL     1      -6.033  14.246  24.817  0.00  0.00    +0.198 C 
ENDBRANCH  31  45
ENDBRANCH  28  29
BRANCH  28  47
ATOM     47  O   UNL     1      -7.401  10.219  23.087  0.00  0.00    -0.387 OA
ATOM     48  H   UNL     1      -7.893   9.941  22.310  0.00  0.00    +0.210 HD
ENDBRANCH  28  47
ENDBRANCH  25  28
ENDBRANCH   1  25
TORSDOF 15
