REMARK VINA RESULT:    -4.245      3.288      5.901
REMARK INTER + INTRA:         -10.442
REMARK INTER:                  -7.843
REMARK INTRA:                  -2.598
REMARK UNBOUND:                -2.598
REMARK  Name = lig_assembled_67.pdb
REMARK  18 active torsions:
REMARK  status: ('A' for Active; 'I' for Inactive)
REMARK    1  A    between atoms: _2  and  _9
REMARK    2  A    between atoms: _4  and  _19
REMARK    3  A    between atoms: _6  and  _7
REMARK    4  A    between atoms: _6  and  _19
REMARK    5  A    between atoms: _9  and  _10
REMARK    6  A    between atoms: _10  and  _11
REMARK    7  A    between atoms: _15  and  _35
REMARK    8  A    between atoms: _17  and  _23
REMARK    9  A    between atoms: _18  and  _22
REMARK   10  A    between atoms: _22  and  _23
REMARK   11  A    between atoms: _25  and  _26
REMARK   12  A    between atoms: _27  and  _28
REMARK   13  A    between atoms: _29  and  _31
REMARK   14  A    between atoms: _31  and  _32
REMARK   15  A    between atoms: _31  and  _33
REMARK   16  A    between atoms: _33  and  _34
REMARK   17  A    between atoms: _33  and  _35
REMARK   18  A    between atoms: _36  and  _38
REMARK                            x       y       z     vdW  Elec       q    Type
REMARK                         _______ _______ _______ _____ _____    ______ ____
ROOT
ATOM      1  C   UNL     1      -4.335  11.441  28.029  0.00  0.00    +0.163 C 
ENDROOT
BRANCH   1   2
ATOM      2  O   UNL     1      -4.893  12.574  28.715  0.00  0.00    -0.388 OA
ATOM      3  H   UNL     1      -4.315  12.827  29.440  0.00  0.00    +0.210 HD
ENDBRANCH   1   2
BRANCH   1   4
ATOM      4  C   UNL     1      -3.258  11.883  27.023  0.00  0.00    +0.175 C 
BRANCH   4   5
ATOM      5  C   UNL     1      -3.682  11.622  25.571  0.00  0.00    +0.176 C 
ATOM      6  O   UNL     1      -4.795  12.507  25.264  0.00  0.00    -0.332 OA
ATOM      7  C   UNL     1      -5.269  12.473  23.878  0.00  0.00    +0.277 C 
ATOM      8  C   UNL     1      -5.622  11.024  23.462  0.00  0.00    +0.110 C 
ATOM      9  C   UNL     1      -4.481  10.041  23.797  0.00  0.00    +0.143 C 
ATOM     10  C   UNL     1      -4.065  10.163  25.263  0.00  0.00    +0.133 C 
BRANCH  10  11
ATOM     11  N   UNL     1      -2.920   9.284  25.549  0.00  0.00    -0.308 N 
ATOM     12  H   UNL     1      -2.014   9.559  25.194  0.00  0.00    +0.149 HD
ATOM     13  C   UNL     1      -2.999   8.147  26.245  0.00  0.00    +0.210 C 
ATOM     14  C   UNL     1      -4.397   7.742  26.749  0.00  0.00    +0.109 C 
ATOM     15  O   UNL     1      -2.020   7.438  26.481  0.00  0.00    -0.276 OA
ENDBRANCH  10  11
BRANCH   7  16
ATOM     16  C   UNL     1      -4.199  13.038  22.920  0.00  0.00    +0.414 C 
ATOM     17  O   UNL     1      -4.073  12.574  21.787  0.00  0.00    -0.240 OA
ATOM     18  O   UNL     1      -3.461  13.956  23.280  0.00  0.00    -0.240 OA
ENDBRANCH   7  16
BRANCH   9  19
ATOM     19  O   UNL     1      -4.907   8.702  23.538  0.00  0.00    -0.390 OA
ATOM     20  H   UNL     1      -4.698   8.469  22.631  0.00  0.00    +0.210 HD
ENDBRANCH   9  19
BRANCH   7  21
ATOM     21  O   UNL     1      -6.472  13.279  23.794  0.00  0.00    -0.343 OA
ATOM     22  C   UNL     1      -7.251  13.344  25.016  0.00  0.00    +0.198 C 
ENDBRANCH   7  21
ENDBRANCH   4   5
BRANCH   4  23
ATOM     23  O   UNL     1      -2.012  11.215  27.304  0.00  0.00    -0.387 OA
ATOM     24  H   UNL     1      -1.920  10.452  26.728  0.00  0.00    +0.210 HD
ENDBRANCH   4  23
ENDBRANCH   1   4
BRANCH   1  25
ATOM     25  C   UNL     1      -3.725  10.471  29.035  0.00  0.00    +0.141 C 
BRANCH  25  28
ATOM     26  C   UNL     1      -2.861  10.734  31.336  0.00  0.00    +0.401 C 
ATOM     27  O   UNL     1      -3.398   9.707  31.756  0.00  0.00    -0.226 OA
ATOM     28  N   UNL     1      -2.966  11.170  30.080  0.00  0.00    -0.279 N 
ATOM     29  H   UNL     1      -2.496  12.030  29.832  0.00  0.00    +0.152 HD
BRANCH  26  30
ATOM     30  O   UNL     1      -2.077  11.525  32.233  0.00  0.00    -0.444 OA
BRANCH  30  31
ATOM     31  C   UNL     1      -2.942  12.289  33.077  0.00  0.00    +0.292 C 
BRANCH  31  33
ATOM     32  N   UNL     1      -2.488  14.055  31.403  0.00  0.00    -0.131 NA
ATOM     33  C   UNL     1      -3.218  13.606  32.474  0.00  0.00    +0.120 A 
ATOM     34  C   UNL     1      -4.153  14.560  32.810  0.00  0.00    +0.137 A 
ATOM     35  N   UNL     1      -3.938  15.561  31.912  0.00  0.00    -0.251 N 
ATOM     36  N   UNL     1      -2.937  15.257  31.070  0.00  0.00    -0.065 NA
BRANCH  35  37
ATOM     37  C   UNL     1      -4.645  16.816  31.786  0.00  0.00    +0.150 C 
BRANCH  37  38
ATOM     38  C   UNL     1      -4.919  17.221  30.339  0.00  0.00    +0.084 C 
BRANCH  38  39
ATOM     39  C   UNL     1      -6.248  16.685  29.827  0.00  0.00    +0.252 C 
ATOM     40  O   UNL     1      -6.839  17.618  28.915  0.00  0.00    -0.349 OA
ATOM     41  C   UNL     1      -7.597  16.784  28.042  0.00  0.00    +0.191 C 
ATOM     42  C   UNL     1      -6.741  15.550  27.911  0.00  0.00    +0.191 C 
ATOM     43  O   UNL     1      -6.059  15.433  29.161  0.00  0.00    -0.349 OA
ENDBRANCH  38  39
ENDBRANCH  37  38
ENDBRANCH  35  37
ENDBRANCH  31  33
ENDBRANCH  30  31
ENDBRANCH  26  30
ENDBRANCH  25  28
ENDBRANCH   1  25
TORSDOF 16
