REMARK VINA RESULT:    -4.672      2.775      8.201
REMARK INTER + INTRA:         -10.594
REMARK INTER:                  -8.081
REMARK INTRA:                  -2.513
REMARK UNBOUND:                -2.508
REMARK  Name = lig_assembled_48.pdb
REMARK  16 active torsions:
REMARK  status: ('A' for Active; 'I' for Inactive)
REMARK    1  A    between atoms: _2  and  _9
REMARK    2  A    between atoms: _4  and  _18
REMARK    3  A    between atoms: _6  and  _7
REMARK    4  A    between atoms: _6  and  _18
REMARK    5  A    between atoms: _14  and  _34
REMARK    6  A    between atoms: _16  and  _22
REMARK    7  A    between atoms: _17  and  _21
REMARK    8  A    between atoms: _21  and  _22
REMARK    9  A    between atoms: _24  and  _25
REMARK   10  A    between atoms: _26  and  _27
REMARK   11  A    between atoms: _28  and  _30
REMARK   12  A    between atoms: _30  and  _31
REMARK   13  A    between atoms: _30  and  _32
REMARK   14  A    between atoms: _32  and  _33
REMARK   15  A    between atoms: _32  and  _34
REMARK   16  A    between atoms: _35  and  _37
REMARK                            x       y       z     vdW  Elec       q    Type
REMARK                         _______ _______ _______ _____ _____    ______ ____
ROOT
ATOM      1  C   UNL     1      -4.250   9.106  24.123  0.00  0.00    +0.163 C 
ENDROOT
BRANCH   1   2
ATOM      2  O   UNL     1      -3.760   8.380  22.984  0.00  0.00    -0.388 OA
ATOM      3  H   UNL     1      -3.165   7.686  23.278  0.00  0.00    +0.210 HD
ENDBRANCH   1   2
BRANCH   1   4
ATOM      4  C   UNL     1      -4.320   8.186  25.337  0.00  0.00    +0.141 C 
BRANCH   4   7
ATOM      5  C   UNL     1      -2.407   8.466  26.877  0.00  0.00    +0.401 C 
ATOM      6  O   UNL     1      -1.692   7.653  26.287  0.00  0.00    -0.226 OA
ATOM      7  N   UNL     1      -3.651   8.772  26.506  0.00  0.00    -0.279 N 
ATOM      8  H   UNL     1      -4.163   9.445  27.060  0.00  0.00    +0.152 HD
BRANCH   5   9
ATOM      9  O   UNL     1      -1.895   9.130  28.035  0.00  0.00    -0.444 OA
BRANCH   9  10
ATOM     10  C   UNL     1      -2.626   8.711  29.190  0.00  0.00    +0.292 C 
BRANCH  10  12
ATOM     11  N   UNL     1      -4.661  10.110  29.266  0.00  0.00    -0.131 NA
ATOM     12  C   UNL     1      -3.406   9.838  29.732  0.00  0.00    +0.120 A 
ATOM     13  C   UNL     1      -3.090  10.739  30.726  0.00  0.00    +0.137 A 
ATOM     14  N   UNL     1      -4.227  11.473  30.886  0.00  0.00    -0.248 N 
ATOM     15  N   UNL     1      -5.142  11.137  29.951  0.00  0.00    -0.065 NA
BRANCH  14  16
ATOM     16  C   UNL     1      -4.587  12.462  31.895  0.00  0.00    +0.109 C 
ATOM     17  C   UNL     1      -3.338  13.197  32.420  0.00  0.00    +0.027 C 
ATOM     18  C   UNL     1      -2.779  14.163  31.377  0.00  0.00    +0.002 C 
ATOM     19  C   UNL     1      -3.818  15.210  30.995  0.00  0.00    +0.000 C 
ATOM     20  C   UNL     1      -5.132  14.587  30.531  0.00  0.00    +0.002 C 
ATOM     21  C   UNL     1      -5.651  13.495  31.474  0.00  0.00    +0.027 C 
ENDBRANCH  14  16
ENDBRANCH  10  12
ENDBRANCH   9  10
ENDBRANCH   5   9
ENDBRANCH   4   7
ENDBRANCH   1   4
BRANCH   1  22
ATOM     22  C   UNL     1      -5.644   9.693  23.842  0.00  0.00    +0.175 C 
BRANCH  22  23
ATOM     23  C   UNL     1      -5.569  11.007  23.051  0.00  0.00    +0.176 C 
ATOM     24  O   UNL     1      -5.253  10.680  21.670  0.00  0.00    -0.332 OA
ATOM     25  C   UNL     1      -5.245  11.810  20.736  0.00  0.00    +0.277 C 
ATOM     26  C   UNL     1      -4.293  12.922  21.242  0.00  0.00    +0.110 C 
ATOM     27  C   UNL     1      -4.570  13.282  22.717  0.00  0.00    +0.143 C 
ATOM     28  C   UNL     1      -4.559  12.032  23.598  0.00  0.00    +0.133 C 
BRANCH  28  29
ATOM     29  N   UNL     1      -4.909  12.376  24.985  0.00  0.00    -0.308 N 
ATOM     30  H   UNL     1      -5.868  12.625  25.181  0.00  0.00    +0.149 HD
ATOM     31  C   UNL     1      -4.043  12.380  26.001  0.00  0.00    +0.210 C 
ATOM     32  C   UNL     1      -2.583  12.020  25.665  0.00  0.00    +0.109 C 
ATOM     33  O   UNL     1      -4.368  12.658  27.156  0.00  0.00    -0.276 OA
ENDBRANCH  28  29
BRANCH  25  34
ATOM     34  C   UNL     1      -6.665  12.388  20.563  0.00  0.00    +0.414 C 
ATOM     35  O   UNL     1      -7.649  11.658  20.676  0.00  0.00    -0.240 OA
ATOM     36  O   UNL     1      -6.827  13.582  20.311  0.00  0.00    -0.240 OA
ENDBRANCH  25  34
BRANCH  27  37
ATOM     37  O   UNL     1      -3.577  14.196  23.185  0.00  0.00    -0.390 OA
ATOM     38  H   UNL     1      -2.762  14.063  22.694  0.00  0.00    +0.210 HD
ENDBRANCH  27  37
BRANCH  25  39
ATOM     39  O   UNL     1      -4.752  11.333  19.458  0.00  0.00    -0.343 OA
ATOM     40  C   UNL     1      -4.979   9.924  19.202  0.00  0.00    +0.198 C 
ENDBRANCH  25  39
ENDBRANCH  22  23
BRANCH  22  41
ATOM     41  O   UNL     1      -6.355   9.898  25.079  0.00  0.00    -0.387 OA
ATOM     42  H   UNL     1      -6.182  10.784  25.405  0.00  0.00    +0.210 HD
ENDBRANCH  22  41
ENDBRANCH   1  22
TORSDOF 14
