REMARK VINA RESULT:    -5.419      3.458      9.117
REMARK INTER + INTRA:         -11.550
REMARK INTER:                  -8.708
REMARK INTRA:                  -2.842
REMARK UNBOUND:                -2.170
REMARK  Name = lig_assembled_87.pdb
REMARK  17 active torsions:
REMARK  status: ('A' for Active; 'I' for Inactive)
REMARK    1  A    between atoms: _2  and  _10
REMARK    2  A    between atoms: _3  and  _13
REMARK    3  A    between atoms: _5  and  _21
REMARK    4  A    between atoms: _7  and  _8
REMARK    5  A    between atoms: _7  and  _21
REMARK    6  A    between atoms: _17  and  _37
REMARK    7  A    between atoms: _19  and  _25
REMARK    8  A    between atoms: _20  and  _24
REMARK    9  A    between atoms: _24  and  _25
REMARK   10  A    between atoms: _27  and  _28
REMARK   11  A    between atoms: _29  and  _30
REMARK   12  A    between atoms: _31  and  _33
REMARK   13  A    between atoms: _33  and  _34
REMARK   14  A    between atoms: _33  and  _35
REMARK   15  A    between atoms: _35  and  _36
REMARK   16  A    between atoms: _35  and  _37
REMARK   17  A    between atoms: _38  and  _40
REMARK                            x       y       z     vdW  Elec       q    Type
REMARK                         _______ _______ _______ _____ _____    ______ ____
ROOT
ATOM      1  C   UNL     1      -5.400   7.677  23.996  0.00  0.00    +0.163 C 
ENDROOT
BRANCH   1   2
ATOM      2  O   UNL     1      -4.262   7.016  24.572  0.00  0.00    -0.388 OA
ATOM      3  H   UNL     1      -4.533   6.539  25.361  0.00  0.00    +0.210 HD
ENDBRANCH   1   2
BRANCH   1   4
ATOM      4  C   UNL     1      -6.021   6.800  22.914  0.00  0.00    +0.141 C 
BRANCH   4   7
ATOM      5  C   UNL     1      -5.809   7.184  20.483  0.00  0.00    +0.401 C 
ATOM      6  O   UNL     1      -5.112   6.184  20.290  0.00  0.00    -0.226 OA
ATOM      7  N   UNL     1      -6.272   7.550  21.678  0.00  0.00    -0.279 N 
ATOM      8  H   UNL     1      -6.828   8.392  21.736  0.00  0.00    +0.152 HD
BRANCH   5   9
ATOM      9  O   UNL     1      -6.149   8.017  19.372  0.00  0.00    -0.444 OA
BRANCH   9  10
ATOM     10  C   UNL     1      -6.177   9.384  19.791  0.00  0.00    +0.292 C 
BRANCH  10  12
ATOM     11  N   UNL     1      -6.282  11.508  18.534  0.00  0.00    -0.131 NA
ATOM     12  C   UNL     1      -5.744  10.261  18.688  0.00  0.00    +0.120 A 
ATOM     13  C   UNL     1      -4.804  10.050  17.705  0.00  0.00    +0.137 A 
ATOM     14  N   UNL     1      -4.722  11.252  17.052  0.00  0.00    -0.248 N 
ATOM     15  N   UNL     1      -5.699  12.073  17.490  0.00  0.00    -0.065 NA
BRANCH  14  16
ATOM     16  C   UNL     1      -3.793  11.726  16.010  0.00  0.00    +0.112 C 
ATOM     17  C   UNL     1      -4.252  13.008  15.262  0.00  0.00    +0.045 C 
ATOM     18  C   UNL     1      -4.433  12.865  13.741  0.00  0.00    +0.059 C 
ATOM     19  C   UNL     1      -3.091  12.899  12.997  0.00  0.00    +0.020 C 
ATOM     20  C   UNL     1      -2.719  11.430  12.800  0.00  0.00    +0.020 C 
ATOM     21  C   UNL     1      -3.779  10.672  13.601  0.00  0.00    +0.059 C 
ATOM     22  N   UNL     1      -4.921  11.547  13.356  0.00  0.00    -0.299 NA
ATOM     23  C   UNL     1      -6.208  11.133  13.874  0.00  0.00    +0.105 C 
ATOM     24  C   UNL     1      -3.363  10.559  15.069  0.00  0.00    +0.045 C 
ENDBRANCH  14  16
ENDBRANCH  10  12
ENDBRANCH   9  10
ENDBRANCH   5   9
ENDBRANCH   4   7
ENDBRANCH   1   4
BRANCH   1  25
ATOM     25  C   UNL     1      -5.000   9.034  23.391  0.00  0.00    +0.175 C 
BRANCH  25  26
ATOM     26  C   UNL     1      -3.896   9.726  24.204  0.00  0.00    +0.176 C 
ATOM     27  O   UNL     1      -4.259   9.645  25.610  0.00  0.00    -0.332 OA
ATOM     28  C   UNL     1      -3.264  10.166  26.552  0.00  0.00    +0.277 C 
ATOM     29  C   UNL     1      -2.888  11.624  26.192  0.00  0.00    +0.110 C 
ATOM     30  C   UNL     1      -2.526  11.766  24.699  0.00  0.00    +0.143 C 
ATOM     31  C   UNL     1      -3.628  11.191  23.809  0.00  0.00    +0.133 C 
BRANCH  31  32
ATOM     32  N   UNL     1      -3.233  11.253  22.393  0.00  0.00    -0.308 N 
ATOM     33  H   UNL     1      -2.466  10.669  22.091  0.00  0.00    +0.149 HD
ATOM     34  C   UNL     1      -3.821  12.032  21.481  0.00  0.00    +0.210 C 
ATOM     35  C   UNL     1      -4.969  12.930  21.978  0.00  0.00    +0.109 C 
ATOM     36  O   UNL     1      -3.478  12.053  20.298  0.00  0.00    -0.276 OA
ENDBRANCH  31  32
BRANCH  28  37
ATOM     37  C   UNL     1      -1.994   9.290  26.546  0.00  0.00    +0.414 C 
ATOM     38  O   UNL     1      -0.884   9.806  26.667  0.00  0.00    -0.240 OA
ATOM     39  O   UNL     1      -2.079   8.067  26.419  0.00  0.00    -0.240 OA
ENDBRANCH  28  37
BRANCH  30  40
ATOM     40  O   UNL     1      -2.335  13.145  24.379  0.00  0.00    -0.390 OA
ATOM     41  H   UNL     1      -1.755  13.548  25.029  0.00  0.00    +0.210 HD
ENDBRANCH  30  40
BRANCH  28  42
ATOM     42  O   UNL     1      -3.854  10.159  27.877  0.00  0.00    -0.343 OA
ATOM     43  C   UNL     1      -3.793  11.426  28.581  0.00  0.00    +0.198 C 
ENDBRANCH  28  42
ENDBRANCH  25  26
BRANCH  25  44
ATOM     44  O   UNL     1      -6.154   9.891  23.288  0.00  0.00    -0.387 OA
ATOM     45  H   UNL     1      -6.489   9.871  22.388  0.00  0.00    +0.210 HD
ENDBRANCH  25  44
ENDBRANCH   1  25
TORSDOF 14
