REMARK VINA RESULT:    -5.614      3.136     10.677
REMARK INTER + INTRA:         -13.693
REMARK INTER:                 -10.458
REMARK INTRA:                  -3.235
REMARK UNBOUND:                -3.157
REMARK  Name = lig_assembled_64.pdb
REMARK  19 active torsions:
REMARK  status: ('A' for Active; 'I' for Inactive)
REMARK    1  A    between atoms: _2  and  _10
REMARK    2  A    between atoms: _5  and  _27
REMARK    3  A    between atoms: _7  and  _8
REMARK    4  A    between atoms: _7  and  _27
REMARK    5  A    between atoms: _12  and  _13
REMARK    6  A    between atoms: _13  and  _21
REMARK    7  A    between atoms: _14  and  _15
REMARK    8  A    between atoms: _23  and  _43
REMARK    9  A    between atoms: _25  and  _31
REMARK   10  A    between atoms: _26  and  _30
REMARK   11  A    between atoms: _30  and  _31
REMARK   12  A    between atoms: _33  and  _34
REMARK   13  A    between atoms: _35  and  _36
REMARK   14  A    between atoms: _37  and  _39
REMARK   15  A    between atoms: _39  and  _40
REMARK   16  A    between atoms: _39  and  _41
REMARK   17  A    between atoms: _41  and  _42
REMARK   18  A    between atoms: _41  and  _43
REMARK   19  A    between atoms: _44  and  _46
REMARK                            x       y       z     vdW  Elec       q    Type
REMARK                         _______ _______ _______ _____ _____    ______ ____
ROOT
ATOM      1  C   UNL     1      -5.941   6.767  20.533  0.00  0.00    +0.401 C 
ATOM      2  O   UNL     1      -5.026   6.038  20.144  0.00  0.00    -0.226 OA
ATOM      3  N   UNL     1      -6.240   6.969  21.817  0.00  0.00    -0.279 N 
ATOM      4  H   UNL     1      -7.003   7.593  22.037  0.00  0.00    +0.152 HD
ENDROOT
BRANCH   3   5
ATOM      5  C   UNL     1      -5.521   6.335  22.929  0.00  0.00    +0.141 C 
BRANCH   5   6
ATOM      6  C   UNL     1      -5.163   7.339  24.020  0.00  0.00    +0.163 C 
BRANCH   6   7
ATOM      7  O   UNL     1      -3.990   6.901  24.725  0.00  0.00    -0.388 OA
ATOM      8  H   UNL     1      -4.155   6.040  25.118  0.00  0.00    +0.210 HD
ENDBRANCH   6   7
BRANCH   6   9
ATOM      9  C   UNL     1      -4.940   8.725  23.390  0.00  0.00    +0.175 C 
BRANCH   9  10
ATOM     10  C   UNL     1      -3.890   9.545  24.154  0.00  0.00    +0.176 C 
ATOM     11  O   UNL     1      -4.231   9.504  25.567  0.00  0.00    -0.332 OA
ATOM     12  C   UNL     1      -3.273  10.150  26.469  0.00  0.00    +0.277 C 
ATOM     13  C   UNL     1      -3.022  11.614  26.034  0.00  0.00    +0.110 C 
ATOM     14  C   UNL     1      -2.687  11.712  24.531  0.00  0.00    +0.143 C 
ATOM     15  C   UNL     1      -3.747  11.005  23.685  0.00  0.00    +0.133 C 
BRANCH  15  16
ATOM     16  N   UNL     1      -3.372  11.030  22.263  0.00  0.00    -0.308 N 
ATOM     17  H   UNL     1      -2.515  10.567  21.993  0.00  0.00    +0.149 HD
ATOM     18  C   UNL     1      -4.089  11.624  21.305  0.00  0.00    +0.210 C 
ATOM     19  C   UNL     1      -5.376  12.343  21.753  0.00  0.00    +0.109 C 
ATOM     20  O   UNL     1      -3.758  11.616  20.119  0.00  0.00    -0.276 OA
ENDBRANCH  15  16
BRANCH  12  21
ATOM     21  C   UNL     1      -1.935   9.381  26.488  0.00  0.00    +0.414 C 
ATOM     22  O   UNL     1      -0.871   9.990  26.591  0.00  0.00    -0.240 OA
ATOM     23  O   UNL     1      -1.920   8.153  26.400  0.00  0.00    -0.240 OA
ENDBRANCH  12  21
BRANCH  12  24
ATOM     24  O   UNL     1      -3.848  10.160  27.801  0.00  0.00    -0.343 OA
ATOM     25  C   UNL     1      -5.119   9.473  27.925  0.00  0.00    +0.198 C 
ENDBRANCH  12  24
BRANCH  14  26
ATOM     26  O   UNL     1      -2.614  13.084  24.142  0.00  0.00    -0.390 OA
ATOM     27  H   UNL     1      -2.447  13.628  24.916  0.00  0.00    +0.210 HD
ENDBRANCH  14  26
ENDBRANCH   9  10
BRANCH   9  28
ATOM     28  O   UNL     1      -6.186   9.448  23.329  0.00  0.00    -0.387 OA
ATOM     29  H   UNL     1      -6.868   8.881  22.961  0.00  0.00    +0.210 HD
ENDBRANCH   9  28
ENDBRANCH   6   9
ENDBRANCH   5   6
ENDBRANCH   3   5
BRANCH   1  30
ATOM     30  O   UNL     1      -6.742   7.452  19.566  0.00  0.00    -0.444 OA
BRANCH  30  31
ATOM     31  C   UNL     1      -6.676   8.861  19.801  0.00  0.00    +0.292 C 
BRANCH  31  33
ATOM     32  N   UNL     1      -6.528  10.798  18.258  0.00  0.00    -0.131 NA
ATOM     33  C   UNL     1      -6.106   9.554  18.631  0.00  0.00    +0.121 A 
ATOM     34  C   UNL     1      -5.127   9.134  17.761  0.00  0.00    +0.143 A 
ATOM     35  N   UNL     1      -4.990  10.162  16.858  0.00  0.00    -0.220 N 
ATOM     36  N   UNL     1      -5.844  11.162  17.180  0.00  0.00    -0.060 NA
BRANCH  35  37
ATOM     37  C   UNL     1      -4.117  10.244  15.745  0.00  0.00    +0.071 A 
ATOM     38  C   UNL     1      -3.385   9.133  15.343  0.00  0.00    +0.063 A 
ATOM     39  CA  UNL     1      -2.552   9.279  14.251  0.00  0.00    +0.150 A 
ATOM     40  N   UNL     1      -2.390  10.434  13.543  0.00  0.00    -0.240 NA
ATOM     41  C   UNL     1      -3.100  11.520  13.952  0.00  0.00    +0.074 A 
ATOM     42  C   UNL     1      -3.977  11.450  15.039  0.00  0.00    +0.056 A 
BRANCH  41  43
ATOM     43  C   UNL     1      -2.856  12.768  13.189  0.00  0.00    +0.000 A 
ATOM     44  C   UNL     1      -2.343  12.755  11.878  0.00  0.00    +0.010 A 
ATOM     45  C   UNL     1      -2.153  13.939  11.153  0.00  0.00    +0.001 A 
ATOM     46  C   UNL     1      -2.472  15.166  11.723  0.00  0.00    +0.000 A 
ATOM     47  C   UNL     1      -2.973  15.212  13.020  0.00  0.00    +0.001 A 
ATOM     48  C   UNL     1      -3.162  14.028  13.742  0.00  0.00    +0.010 A 
ENDBRANCH  41  43
BRANCH  39  49
ATOM     49  C   UNL     1      -1.747   8.113  13.785  0.00  0.00    +0.355 C 
ATOM     50  OXT UNL     1      -1.119   7.371  14.518  0.00  0.00    -0.243 OA
BRANCH  49  51
ATOM     51  O   UNL     1      -1.809   7.996  12.439  0.00  0.00    -0.476 OA
ATOM     52  H   UNL     1      -1.569   8.861  12.031  0.00  0.00    +0.295 HD
ENDBRANCH  49  51
ENDBRANCH  39  49
ENDBRANCH  35  37
ENDBRANCH  31  33
ENDBRANCH  30  31
ENDBRANCH   1  30
TORSDOF 17
