REMARK VINA RESULT:    -5.499      3.553      6.399
REMARK INTER + INTRA:         -14.678
REMARK INTER:                 -10.896
REMARK INTRA:                  -3.782
REMARK UNBOUND:                -3.392
REMARK  Name = lig_assembled_47.pdb
REMARK  22 active torsions:
REMARK  status: ('A' for Active; 'I' for Inactive)
REMARK    1  A    between atoms: _2  and  _9
REMARK    2  A    between atoms: _4  and  _30
REMARK    3  A    between atoms: _6  and  _7
REMARK    4  A    between atoms: _6  and  _30
REMARK    5  A    between atoms: _9  and  _10
REMARK    6  A    between atoms: _10  and  _11
REMARK    7  A    between atoms: _10  and  _12
REMARK    8  A    between atoms: _11  and  _24
REMARK    9  A    between atoms: _12  and  _13
REMARK   10  A    between atoms: _12  and  _19
REMARK   11  A    between atoms: _26  and  _46
REMARK   12  A    between atoms: _28  and  _34
REMARK   13  A    between atoms: _29  and  _33
REMARK   14  A    between atoms: _33  and  _34
REMARK   15  A    between atoms: _36  and  _37
REMARK   16  A    between atoms: _38  and  _39
REMARK   17  A    between atoms: _40  and  _42
REMARK   18  A    between atoms: _42  and  _43
REMARK   19  A    between atoms: _42  and  _44
REMARK   20  A    between atoms: _44  and  _45
REMARK   21  A    between atoms: _44  and  _46
REMARK   22  A    between atoms: _47  and  _49
REMARK                            x       y       z     vdW  Elec       q    Type
REMARK                         _______ _______ _______ _____ _____    ______ ____
ROOT
ATOM      1  C   UNL     1      -5.916   9.118  20.474  0.00  0.00    +0.401 C 
ATOM      2  O   UNL     1      -4.780   9.592  20.557  0.00  0.00    -0.226 OA
ATOM      3  N   UNL     1      -6.526   8.469  21.467  0.00  0.00    -0.279 N 
ATOM      4  H   UNL     1      -7.463   8.125  21.306  0.00  0.00    +0.152 HD
ENDROOT
BRANCH   3   5
ATOM      5  C   UNL     1      -5.915   8.227  22.779  0.00  0.00    +0.141 C 
BRANCH   5   6
ATOM      6  C   UNL     1      -6.702   8.889  23.905  0.00  0.00    +0.163 C 
BRANCH   6   7
ATOM      7  O   UNL     1      -6.478   8.189  25.139  0.00  0.00    -0.388 OA
ATOM      8  H   UNL     1      -5.535   8.065  25.271  0.00  0.00    +0.210 HD
ENDBRANCH   6   7
BRANCH   6   9
ATOM      9  C   UNL     1      -6.285  10.365  24.025  0.00  0.00    +0.175 C 
BRANCH   9  10
ATOM     10  C   UNL     1      -4.858  10.519  24.571  0.00  0.00    +0.176 C 
ATOM     11  O   UNL     1      -4.927  10.478  26.023  0.00  0.00    -0.332 OA
ATOM     12  C   UNL     1      -3.638  10.505  26.720  0.00  0.00    +0.277 C 
ATOM     13  C   UNL     1      -2.805  11.731  26.271  0.00  0.00    +0.110 C 
ATOM     14  C   UNL     1      -2.730  11.834  24.733  0.00  0.00    +0.143 C 
ATOM     15  C   UNL     1      -4.126  11.793  24.111  0.00  0.00    +0.133 C 
BRANCH  15  16
ATOM     16  N   UNL     1      -4.036  11.805  22.642  0.00  0.00    -0.308 N 
ATOM     17  H   UNL     1      -3.639  10.995  22.187  0.00  0.00    +0.149 HD
ATOM     18  C   UNL     1      -4.445  12.817  21.871  0.00  0.00    +0.210 C 
ATOM     19  C   UNL     1      -5.021  14.047  22.596  0.00  0.00    +0.109 C 
ATOM     20  O   UNL     1      -4.371  12.793  20.642  0.00  0.00    -0.276 OA
ENDBRANCH  15  16
BRANCH  12  21
ATOM     21  C   UNL     1      -2.841   9.212  26.448  0.00  0.00    +0.414 C 
ATOM     22  O   UNL     1      -1.614   9.212  26.529  0.00  0.00    -0.240 OA
ATOM     23  O   UNL     1      -3.426   8.171  26.147  0.00  0.00    -0.240 OA
ENDBRANCH  12  21
BRANCH  12  24
ATOM     24  O   UNL     1      -3.900  10.627  28.142  0.00  0.00    -0.343 OA
ATOM     25  C   UNL     1      -5.195  10.136  28.571  0.00  0.00    +0.198 C 
ENDBRANCH  12  24
BRANCH  14  26
ATOM     26  O   UNL     1      -2.086  13.054  24.363  0.00  0.00    -0.390 OA
ATOM     27  H   UNL     1      -1.644  12.941  23.519  0.00  0.00    +0.210 HD
ENDBRANCH  14  26
ENDBRANCH   9  10
BRANCH   9  28
ATOM     28  O   UNL     1      -7.217  11.078  24.863  0.00  0.00    -0.387 OA
ATOM     29  H   UNL     1      -8.058  11.161  24.407  0.00  0.00    +0.210 HD
ENDBRANCH   9  28
ENDBRANCH   6   9
ENDBRANCH   5   6
ENDBRANCH   3   5
BRANCH   1  30
ATOM     30  O   UNL     1      -6.642   9.265  19.252  0.00  0.00    -0.444 OA
BRANCH  30  31
ATOM     31  C   UNL     1      -6.958   7.973  18.725  0.00  0.00    +0.292 C 
BRANCH  31  33
ATOM     32  N   UNL     1      -4.929   6.564  18.470  0.00  0.00    -0.131 NA
ATOM     33  C   UNL     1      -5.837   7.437  17.927  0.00  0.00    +0.120 A 
ATOM     34  C   UNL     1      -5.482   7.694  16.621  0.00  0.00    +0.137 A 
ATOM     35  N   UNL     1      -4.328   6.988  16.445  0.00  0.00    -0.251 N 
ATOM     36  N   UNL     1      -4.011   6.294  17.551  0.00  0.00    -0.065 NA
BRANCH  35  37
ATOM     37  C   UNL     1      -3.404   7.044  15.322  0.00  0.00    +0.160 C 
BRANCH  37  38
ATOM     38  C   UNL     1      -2.492   8.274  15.329  0.00  0.00    +0.131 C 
BRANCH  38  39
ATOM     39  C   UNL     1      -1.053   7.777  15.377  0.00  0.00    +0.311 C 
ATOM     40  O   UNL     1      -0.097   8.524  15.518  0.00  0.00    -0.251 OA
BRANCH  39  41
ATOM     41  O   UNL     1      -0.871   6.440  15.367  0.00  0.00    -0.480 OA
ATOM     42  H   UNL     1      -0.774   5.975  16.214  0.00  0.00    +0.295 HD
ENDBRANCH  39  41
ENDBRANCH  38  39
BRANCH  38  43
ATOM     43  C   UNL     1      -2.726   9.267  14.146  0.00  0.00    +0.064 C 
BRANCH  43  44
ATOM     44  C   UNL     1      -3.635   8.761  13.024  0.00  0.00    -0.039 A 
ATOM     45  C   UNL     1      -3.073   8.098  11.915  0.00  0.00    +0.004 A 
ATOM     46  C   UNL     1      -3.876   7.622  10.873  0.00  0.00    +0.000 A 
ATOM     47  C   UNL     1      -5.253   7.816  10.909  0.00  0.00    +0.000 A 
ATOM     48  C   UNL     1      -5.825   8.485  11.986  0.00  0.00    +0.000 A 
ATOM     49  C   UNL     1      -5.025   8.945  13.039  0.00  0.00    +0.004 A 
ENDBRANCH  43  44
BRANCH  43  50
ATOM     50  C   UNL     1      -3.146  10.641  14.682  0.00  0.00    -0.039 A 
ATOM     51  C   UNL     1      -3.585  10.783  16.009  0.00  0.00    +0.004 A 
ATOM     52  C   UNL     1      -4.130  11.992  16.451  0.00  0.00    +0.000 A 
ATOM     53  C   UNL     1      -4.220  13.080  15.587  0.00  0.00    +0.000 A 
ATOM     54  C   UNL     1      -3.755  12.968  14.282  0.00  0.00    +0.000 A 
ATOM     55  C   UNL     1      -3.224  11.759  13.834  0.00  0.00    +0.004 A 
ENDBRANCH  43  50
ENDBRANCH  38  43
ENDBRANCH  37  38
ENDBRANCH  35  37
ENDBRANCH  31  33
ENDBRANCH  30  31
ENDBRANCH   1  30
TORSDOF 20
