REMARK VINA RESULT:    -5.079      6.201     13.087
REMARK INTER + INTRA:         -11.190
REMARK INTER:                  -9.024
REMARK INTRA:                  -2.166
REMARK UNBOUND:                -1.954
REMARK  Name = lig_assembled_60.pdb
REMARK  18 active torsions:
REMARK  status: ('A' for Active; 'I' for Inactive)
REMARK    1  A    between atoms: _2  and  _10
REMARK    2  A    between atoms: _3  and  _41
REMARK    3  A    between atoms: _5  and  _21
REMARK    4  A    between atoms: _7  and  _8
REMARK    5  A    between atoms: _7  and  _21
REMARK    6  A    between atoms: _13  and  _41
REMARK    7  A    between atoms: _17  and  _37
REMARK    8  A    between atoms: _19  and  _25
REMARK    9  A    between atoms: _20  and  _24
REMARK   10  A    between atoms: _24  and  _25
REMARK   11  A    between atoms: _27  and  _28
REMARK   12  A    between atoms: _29  and  _30
REMARK   13  A    between atoms: _31  and  _33
REMARK   14  A    between atoms: _33  and  _34
REMARK   15  A    between atoms: _33  and  _35
REMARK   16  A    between atoms: _35  and  _36
REMARK   17  A    between atoms: _35  and  _37
REMARK   18  A    between atoms: _38  and  _40
REMARK                            x       y       z     vdW  Elec       q    Type
REMARK                         _______ _______ _______ _____ _____    ______ ____
ROOT
ATOM      1  C   UNL     1      -4.074  11.392  25.085  0.00  0.00    +0.141 C 
ENDROOT
BRANCH   1   4
ATOM      2  C   UNL     1      -4.214  10.204  22.923  0.00  0.00    +0.401 C 
ATOM      3  O   UNL     1      -3.013   9.924  22.892  0.00  0.00    -0.226 OA
ATOM      4  N   UNL     1      -4.793  10.892  23.907  0.00  0.00    -0.279 N 
ATOM      5  H   UNL     1      -5.784  11.081  23.838  0.00  0.00    +0.152 HD
BRANCH   2   6
ATOM      6  O   UNL     1      -5.054   9.778  21.847  0.00  0.00    -0.444 OA
BRANCH   6   7
ATOM      7  C   UNL     1      -5.931  10.845  21.475  0.00  0.00    +0.292 C 
BRANCH   7   9
ATOM      8  N   UNL     1      -6.379  12.234  19.475  0.00  0.00    -0.131 NA
ATOM      9  C   UNL     1      -5.821  11.119  20.030  0.00  0.00    +0.121 A 
ATOM     10  C   UNL     1      -5.189  10.397  19.045  0.00  0.00    +0.143 A 
ATOM     11  N   UNL     1      -5.358  11.136  17.896  0.00  0.00    -0.220 N 
ATOM     12  N   UNL     1      -6.102  12.233  18.178  0.00  0.00    -0.060 NA
BRANCH  11  13
ATOM     13  C   UNL     1      -4.835  10.890  16.600  0.00  0.00    +0.067 A 
ATOM     14  C   UNL     1      -4.509   9.585  16.197  0.00  0.00    +0.030 A 
ATOM     15  C   UNL     1      -3.930   9.363  14.946  0.00  0.00    +0.030 A 
ATOM     16  C   UNL     1      -3.689  10.441  14.091  0.00  0.00    +0.105 A 
ATOM     17  C   UNL     1      -4.025  11.743  14.476  0.00  0.00    +0.030 A 
ATOM     18  C   UNL     1      -4.604  11.965  15.728  0.00  0.00    +0.030 A 
BRANCH  16  19
ATOM     19  S   UNL     1      -2.884  10.155  12.543  0.00  0.00    +0.056 S 
ATOM     20  O   UNL     1      -1.966   9.049  12.679  0.00  0.00    -0.153 OA
ATOM     21  O   UNL     1      -3.862  10.227  11.482  0.00  0.00    -0.153 OA
BRANCH  19  22
ATOM     22  N   UNL     1      -1.936  11.530  12.393  0.00  0.00    -0.204 NA
ATOM     23  H   UNL     1      -2.491  12.293  12.007  0.00  0.00    +0.144 HD
ATOM     24  H   UNL     1      -1.098  11.314  11.851  0.00  0.00    +0.144 HD
ENDBRANCH  19  22
ENDBRANCH  16  19
ENDBRANCH  11  13
ENDBRANCH   7   9
ENDBRANCH   6   7
ENDBRANCH   2   6
ENDBRANCH   1   4
BRANCH   1  25
ATOM     25  C   UNL     1      -3.972  10.335  26.180  0.00  0.00    +0.163 C 
BRANCH  25  26
ATOM     26  O   UNL     1      -2.849   9.474  25.929  0.00  0.00    -0.388 OA
ATOM     27  H   UNL     1      -3.128   8.734  25.382  0.00  0.00    +0.210 HD
ENDBRANCH  25  26
BRANCH  25  28
ATOM     28  C   UNL     1      -3.841  11.024  27.549  0.00  0.00    +0.175 C 
BRANCH  28  29
ATOM     29  C   UNL     1      -3.357  10.056  28.639  0.00  0.00    +0.176 C 
ATOM     30  O   UNL     1      -3.988   8.767  28.405  0.00  0.00    -0.332 OA
ATOM     31  C   UNL     1      -3.560   7.681  29.292  0.00  0.00    +0.277 C 
ATOM     32  C   UNL     1      -3.741   8.091  30.775  0.00  0.00    +0.110 C 
ATOM     33  C   UNL     1      -3.113   9.471  31.065  0.00  0.00    +0.143 C 
ATOM     34  C   UNL     1      -3.626  10.524  30.081  0.00  0.00    +0.133 C 
BRANCH  34  35
ATOM     35  N   UNL     1      -2.956  11.813  30.312  0.00  0.00    -0.308 N 
ATOM     36  H   UNL     1      -1.976  11.885  30.075  0.00  0.00    +0.149 HD
ATOM     37  C   UNL     1      -3.557  12.895  30.816  0.00  0.00    +0.210 C 
ATOM     38  C   UNL     1      -5.043  12.745  31.192  0.00  0.00    +0.109 C 
ATOM     39  O   UNL     1      -2.974  13.966  30.984  0.00  0.00    -0.276 OA
ENDBRANCH  34  35
BRANCH  31  40
ATOM     40  C   UNL     1      -2.084   7.314  29.035  0.00  0.00    +0.414 C 
ATOM     41  O   UNL     1      -1.429   6.736  29.901  0.00  0.00    -0.240 OA
ATOM     42  O   UNL     1      -1.548   7.596  27.962  0.00  0.00    -0.240 OA
ENDBRANCH  31  40
BRANCH  33  43
ATOM     43  O   UNL     1      -3.433   9.875  32.396  0.00  0.00    -0.390 OA
ATOM     44  H   UNL     1      -3.171  10.790  32.525  0.00  0.00    +0.210 HD
ENDBRANCH  33  43
BRANCH  31  45
ATOM     45  O   UNL     1      -4.403   6.529  29.030  0.00  0.00    -0.343 OA
ATOM     46  C   UNL     1      -4.987   6.487  27.704  0.00  0.00    +0.198 C 
ENDBRANCH  31  45
ENDBRANCH  28  29
BRANCH  28  47
ATOM     47  O   UNL     1      -5.100  11.612  27.931  0.00  0.00    -0.387 OA
ATOM     48  H   UNL     1      -5.196  11.574  28.885  0.00  0.00    +0.210 HD
ENDBRANCH  28  47
ENDBRANCH  25  28
ENDBRANCH   1  25
TORSDOF 16
