REMARK VINA RESULT:    -5.267     10.147     15.830
REMARK INTER + INTRA:         -12.013
REMARK INTER:                  -9.929
REMARK INTRA:                  -2.084
REMARK UNBOUND:                -2.589
REMARK  Name = lig_assembled_82.pdb
REMARK  19 active torsions:
REMARK  status: ('A' for Active; 'I' for Inactive)
REMARK    1  A    between atoms: _2  and  _9
REMARK    2  A    between atoms: _4  and  _22
REMARK    3  A    between atoms: _5  and  _16
REMARK    4  A    between atoms: _6  and  _7
REMARK    5  A    between atoms: _6  and  _22
REMARK    6  A    between atoms: _9  and  _10
REMARK    7  A    between atoms: _16  and  _17
REMARK    8  A    between atoms: _18  and  _38
REMARK    9  A    between atoms: _20  and  _26
REMARK   10  A    between atoms: _21  and  _25
REMARK   11  A    between atoms: _25  and  _26
REMARK   12  A    between atoms: _28  and  _29
REMARK   13  A    between atoms: _30  and  _31
REMARK   14  A    between atoms: _32  and  _34
REMARK   15  A    between atoms: _34  and  _35
REMARK   16  A    between atoms: _34  and  _36
REMARK   17  A    between atoms: _36  and  _37
REMARK   18  A    between atoms: _36  and  _38
REMARK   19  A    between atoms: _39  and  _41
REMARK                            x       y       z     vdW  Elec       q    Type
REMARK                         _______ _______ _______ _____ _____    ______ ____
ROOT
ATOM      1  C   UNL     1      -1.958  12.526  12.362  0.00  0.00    +0.163 C 
ENDROOT
BRANCH   1   2
ATOM      2  O   UNL     1      -1.209  12.268  11.163  0.00  0.00    -0.388 OA
ATOM      3  H   UNL     1      -0.270  12.267  11.366  0.00  0.00    +0.210 HD
ENDBRANCH   1   2
BRANCH   1   4
ATOM      4  C   UNL     1      -3.065  11.489  12.518  0.00  0.00    +0.141 C 
BRANCH   4   7
ATOM      5  C   UNL     1      -3.052  10.377  14.725  0.00  0.00    +0.401 C 
ATOM      6  O   UNL     1      -2.260   9.495  14.381  0.00  0.00    -0.226 OA
ATOM      7  N   UNL     1      -3.487  11.345  13.917  0.00  0.00    -0.279 N 
ATOM      8  H   UNL     1      -4.143  12.017  14.289  0.00  0.00    +0.152 HD
BRANCH   5   9
ATOM      9  O   UNL     1      -3.549  10.378  16.065  0.00  0.00    -0.444 OA
BRANCH   9  10
ATOM     10  C   UNL     1      -4.799  11.072  16.110  0.00  0.00    +0.292 C 
BRANCH  10  12
ATOM     11  N   UNL     1      -6.268  12.091  17.821  0.00  0.00    -0.131 NA
ATOM     12  C   UNL     1      -5.284  11.190  17.489  0.00  0.00    +0.120 A 
ATOM     13  C   UNL     1      -4.905  10.514  18.634  0.00  0.00    +0.137 A 
ATOM     14  N   UNL     1      -5.595  11.139  19.634  0.00  0.00    -0.247 N 
ATOM     15  N   UNL     1      -6.476  12.022  19.128  0.00  0.00    -0.065 NA
BRANCH  14  16
ATOM     16  C   UNL     1      -5.410  11.018  21.083  0.00  0.00    +0.176 C 
BRANCH  16  17
ATOM     17  C   UNL     1      -4.671  12.195  21.673  0.00  0.00    -0.049 C 
ATOM     18  C   UNL     1      -5.263  12.855  22.878  0.00  0.00    +0.023 C 
ATOM     19  C   UNL     1      -4.275  13.417  23.998  0.00  0.00    -0.025 C 
ATOM     20  C   UNL     1      -2.911  12.913  24.484  0.00  0.00    +0.012 C 
ATOM     21  C   UNL     1      -4.057  14.572  22.913  0.00  0.00    -0.000 C 
ATOM     22  C   UNL     1      -3.157  14.168  21.702  0.00  0.00    +0.031 C 
ATOM     23  C   UNL     1      -5.166  13.519  25.261  0.00  0.00    +0.012 C 
ATOM     24  C   UNL     1      -5.552  14.375  22.548  0.00  0.00    +0.012 C 
ATOM     25  C   UNL     1      -3.619  12.837  21.131  0.00  0.00    -0.025 C 
ENDBRANCH  16  17
ENDBRANCH  14  16
ENDBRANCH  10  12
ENDBRANCH   9  10
ENDBRANCH   5   9
ENDBRANCH   4   7
ENDBRANCH   1   4
BRANCH   1  26
ATOM     26  C   UNL     1      -2.575  13.935  12.332  0.00  0.00    +0.175 C 
BRANCH  26  27
ATOM     27  C   UNL     1      -1.748  14.911  11.482  0.00  0.00    +0.176 C 
ATOM     28  O   UNL     1      -0.417  14.991  12.063  0.00  0.00    -0.332 OA
ATOM     29  C   UNL     1       0.552  15.802  11.318  0.00  0.00    +0.277 C 
ATOM     30  C   UNL     1      -0.004  17.228  11.082  0.00  0.00    +0.110 C 
ATOM     31  C   UNL     1      -1.430  17.193  10.494  0.00  0.00    +0.143 C 
ATOM     32  C   UNL     1      -2.353  16.320  11.346  0.00  0.00    +0.133 C 
BRANCH  32  33
ATOM     33  N   UNL     1      -3.686  16.225  10.729  0.00  0.00    -0.308 N 
ATOM     34  H   UNL     1      -3.750  15.822   9.805  0.00  0.00    +0.149 HD
ATOM     35  C   UNL     1      -4.815  16.636  11.311  0.00  0.00    +0.210 C 
ATOM     36  C   UNL     1      -4.681  17.269  12.709  0.00  0.00    +0.109 C 
ATOM     37  O   UNL     1      -5.920  16.530  10.776  0.00  0.00    -0.276 OA
ENDBRANCH  32  33
BRANCH  29  38
ATOM     38  C   UNL     1       0.884  15.146   9.961  0.00  0.00    +0.414 C 
ATOM     39  O   UNL     1       0.487  14.010   9.707  0.00  0.00    -0.240 OA
ATOM     40  O   UNL     1       1.549  15.754   9.121  0.00  0.00    -0.240 OA
ENDBRANCH  29  38
BRANCH  29  41
ATOM     41  O   UNL     1       1.758  15.907  12.118  0.00  0.00    -0.343 OA
ATOM     42  C   UNL     1       2.328  17.238  12.194  0.00  0.00    +0.198 C 
ENDBRANCH  29  41
BRANCH  31  43
ATOM     43  O   UNL     1      -1.959  18.518  10.435  0.00  0.00    -0.390 OA
ATOM     44  H   UNL     1      -2.725  18.533   9.856  0.00  0.00    +0.210 HD
ENDBRANCH  31  43
ENDBRANCH  26  27
BRANCH  26  45
ATOM     45  O   UNL     1      -2.718  14.443  13.674  0.00  0.00    -0.387 OA
ATOM     46  H   UNL     1      -2.958  15.372  13.641  0.00  0.00    +0.210 HD
ENDBRANCH  26  45
ENDBRANCH   1  26
TORSDOF 15
