REMARK VINA RESULT:    -4.923      4.156      7.585
REMARK INTER + INTRA:         -10.357
REMARK INTER:                  -7.210
REMARK INTRA:                  -3.147
REMARK UNBOUND:                -1.837
REMARK  Name = lig_assembled_2.pdb
REMARK  16 active torsions:
REMARK  status: ('A' for Active; 'I' for Inactive)
REMARK    1  A    between atoms: _2  and  _9
REMARK    2  A    between atoms: _4  and  _18
REMARK    3  A    between atoms: _6  and  _7
REMARK    4  A    between atoms: _6  and  _18
REMARK    5  A    between atoms: _14  and  _34
REMARK    6  A    between atoms: _16  and  _22
REMARK    7  A    between atoms: _17  and  _21
REMARK    8  A    between atoms: _21  and  _22
REMARK    9  A    between atoms: _24  and  _25
REMARK   10  A    between atoms: _26  and  _27
REMARK   11  A    between atoms: _28  and  _30
REMARK   12  A    between atoms: _30  and  _31
REMARK   13  A    between atoms: _30  and  _32
REMARK   14  A    between atoms: _32  and  _33
REMARK   15  A    between atoms: _32  and  _34
REMARK   16  A    between atoms: _35  and  _37
REMARK                            x       y       z     vdW  Elec       q    Type
REMARK                         _______ _______ _______ _____ _____    ______ ____
ROOT
ATOM      1  C   UNL     1      -6.597   8.641  11.657  0.00  0.00    +0.163 C 
ENDROOT
BRANCH   1   2
ATOM      2  O   UNL     1      -5.328   8.039  11.352  0.00  0.00    -0.388 OA
ATOM      3  H   UNL     1      -5.295   7.154  11.723  0.00  0.00    +0.210 HD
ENDBRANCH   1   2
BRANCH   1   4
ATOM      4  C   UNL     1      -7.072   9.483  10.477  0.00  0.00    +0.141 C 
BRANCH   4   7
ATOM      5  C   UNL     1      -5.583  11.315   9.749  0.00  0.00    +0.401 C 
ATOM      6  O   UNL     1      -6.156  12.174  10.423  0.00  0.00    -0.226 OA
ATOM      7  N   UNL     1      -5.948  10.033   9.710  0.00  0.00    -0.279 N 
ATOM      8  H   UNL     1      -5.422   9.405   9.119  0.00  0.00    +0.152 HD
BRANCH   5   9
ATOM      9  O   UNL     1      -4.460  11.694   8.949  0.00  0.00    -0.444 OA
BRANCH   9  10
ATOM     10  C   UNL     1      -3.300  10.979   9.386  0.00  0.00    +0.292 C 
BRANCH  10  12
ATOM     11  N   UNL     1      -2.402  11.684  11.581  0.00  0.00    -0.131 NA
ATOM     12  C   UNL     1      -2.452  11.845  10.227  0.00  0.00    +0.121 A 
ATOM     13  C   UNL     1      -1.615  12.876   9.866  0.00  0.00    +0.143 A 
ATOM     14  N   UNL     1      -1.047  13.302  11.045  0.00  0.00    -0.220 N 
ATOM     15  N   UNL     1      -1.553  12.576  12.071  0.00  0.00    -0.060 NA
BRANCH  14  16
ATOM     16  C   UNL     1      -0.063  14.305  11.245  0.00  0.00    +0.067 A 
ATOM     17  C   UNL     1       0.045  14.975  12.471  0.00  0.00    +0.029 A 
ATOM     18  C   UNL     1       0.998  15.986  12.635  0.00  0.00    +0.022 A 
ATOM     19  C   UNL     1       1.843  16.328  11.581  0.00  0.00    +0.041 A 
ATOM     20 CL   UNL     1       2.995  17.588  11.785  0.00  0.00    -0.084 Cl
ATOM     21  C   UNL     1       1.753  15.658  10.363  0.00  0.00    +0.022 A 
ATOM     22  C   UNL     1       0.804  14.646  10.192  0.00  0.00    +0.029 A 
ENDBRANCH  14  16
ENDBRANCH  10  12
ENDBRANCH   9  10
ENDBRANCH   5   9
ENDBRANCH   4   7
ENDBRANCH   1   4
BRANCH   1  23
ATOM     23  C   UNL     1      -6.499   9.524  12.912  0.00  0.00    +0.175 C 
BRANCH  23  24
ATOM     24  C   UNL     1      -5.047   9.709  13.377  0.00  0.00    +0.176 C 
ATOM     25  O   UNL     1      -4.664   8.526  14.130  0.00  0.00    -0.332 OA
ATOM     26  C   UNL     1      -3.266   8.478  14.567  0.00  0.00    +0.277 C 
ATOM     27  C   UNL     1      -2.907   9.750  15.373  0.00  0.00    +0.110 C 
ATOM     28  C   UNL     1      -3.324  11.034  14.626  0.00  0.00    +0.143 C 
ATOM     29  C   UNL     1      -4.796  10.976  14.215  0.00  0.00    +0.133 C 
BRANCH  29  30
ATOM     30  N   UNL     1      -5.158  12.166  13.429  0.00  0.00    -0.308 N 
ATOM     31  H   UNL     1      -4.702  12.299  12.538  0.00  0.00    +0.149 HD
ATOM     32  C   UNL     1      -6.051  13.081  13.816  0.00  0.00    +0.210 C 
ATOM     33  C   UNL     1      -6.710  12.862  15.191  0.00  0.00    +0.109 C 
ATOM     34  O   UNL     1      -6.346  14.060  13.130  0.00  0.00    -0.276 OA
ENDBRANCH  29  30
BRANCH  26  35
ATOM     35  C   UNL     1      -2.318   8.350  13.357  0.00  0.00    +0.414 C 
ATOM     36  O   UNL     1      -1.174   8.799  13.414  0.00  0.00    -0.240 OA
ATOM     37  O   UNL     1      -2.698   7.798  12.323  0.00  0.00    -0.240 OA
ENDBRANCH  26  35
BRANCH  28  38
ATOM     38  O   UNL     1      -3.114  12.170  15.466  0.00  0.00    -0.390 OA
ATOM     39  H   UNL     1      -3.585  12.049  16.293  0.00  0.00    +0.210 HD
ENDBRANCH  28  38
BRANCH  26  40
ATOM     40  O   UNL     1      -3.106   7.326  15.436  0.00  0.00    -0.343 OA
ATOM     41  C   UNL     1      -3.917   6.177  15.084  0.00  0.00    +0.198 C 
ENDBRANCH  26  40
ENDBRANCH  23  24
BRANCH  23  42
ATOM     42  O   UNL     1      -7.294   8.964  13.977  0.00  0.00    -0.387 OA
ATOM     43  H   UNL     1      -8.032   9.547  14.167  0.00  0.00    +0.210 HD
ENDBRANCH  23  42
ENDBRANCH   1  23
TORSDOF 14
