REMARK VINA RESULT:    -4.289      3.762      9.922
REMARK INTER + INTRA:         -10.523
REMARK INTER:                  -7.688
REMARK INTRA:                  -2.835
REMARK UNBOUND:                -2.598
REMARK  Name = lig_assembled_67.pdb
REMARK  18 active torsions:
REMARK  status: ('A' for Active; 'I' for Inactive)
REMARK    1  A    between atoms: _2  and  _9
REMARK    2  A    between atoms: _4  and  _19
REMARK    3  A    between atoms: _6  and  _7
REMARK    4  A    between atoms: _6  and  _19
REMARK    5  A    between atoms: _9  and  _10
REMARK    6  A    between atoms: _10  and  _11
REMARK    7  A    between atoms: _15  and  _35
REMARK    8  A    between atoms: _17  and  _23
REMARK    9  A    between atoms: _18  and  _22
REMARK   10  A    between atoms: _22  and  _23
REMARK   11  A    between atoms: _25  and  _26
REMARK   12  A    between atoms: _27  and  _28
REMARK   13  A    between atoms: _29  and  _31
REMARK   14  A    between atoms: _31  and  _32
REMARK   15  A    between atoms: _31  and  _33
REMARK   16  A    between atoms: _33  and  _34
REMARK   17  A    between atoms: _33  and  _35
REMARK   18  A    between atoms: _36  and  _38
REMARK                            x       y       z     vdW  Elec       q    Type
REMARK                         _______ _______ _______ _____ _____    ______ ____
ROOT
ATOM      1  C   UNL     1      -3.190  12.209  24.574  0.00  0.00    +0.163 C 
ENDROOT
BRANCH   1   2
ATOM      2  O   UNL     1      -2.032  12.194  25.424  0.00  0.00    -0.388 OA
ATOM      3  H   UNL     1      -2.146  12.831  26.133  0.00  0.00    +0.210 HD
ENDBRANCH   1   2
BRANCH   1   4
ATOM      4  C   UNL     1      -4.469  12.462  25.391  0.00  0.00    +0.175 C 
BRANCH   4   5
ATOM      5  C   UNL     1      -4.850  11.253  26.258  0.00  0.00    +0.176 C 
ATOM      6  O   UNL     1      -3.900  11.172  27.355  0.00  0.00    -0.332 OA
ATOM      7  C   UNL     1      -4.170  10.132  28.353  0.00  0.00    +0.277 C 
ATOM      8  C   UNL     1      -4.301   8.749  27.670  0.00  0.00    +0.110 C 
ATOM      9  C   UNL     1      -5.278   8.792  26.477  0.00  0.00    +0.143 C 
ATOM     10  C   UNL     1      -4.906   9.911  25.503  0.00  0.00    +0.133 C 
BRANCH  10  11
ATOM     11  N   UNL     1      -5.893   9.999  24.416  0.00  0.00    -0.308 N 
ATOM     12  H   UNL     1      -6.833  10.284  24.654  0.00  0.00    +0.149 HD
ATOM     13  C   UNL     1      -5.629   9.726  23.136  0.00  0.00    +0.210 C 
ATOM     14  C   UNL     1      -4.195   9.269  22.809  0.00  0.00    +0.109 C 
ATOM     15  O   UNL     1      -6.473   9.823  22.244  0.00  0.00    -0.276 OA
ENDBRANCH  10  11
BRANCH   7  16
ATOM     16  C   UNL     1      -5.464  10.447  29.133  0.00  0.00    +0.414 C 
ATOM     17  O   UNL     1      -6.243   9.543  29.432  0.00  0.00    -0.240 OA
ATOM     18  O   UNL     1      -5.727  11.603  29.464  0.00  0.00    -0.240 OA
ENDBRANCH   7  16
BRANCH   9  19
ATOM     19  O   UNL     1      -5.253   7.542  25.787  0.00  0.00    -0.390 OA
ATOM     20  H   UNL     1      -5.032   7.688  24.865  0.00  0.00    +0.210 HD
ENDBRANCH   9  19
BRANCH   7  21
ATOM     21  O   UNL     1      -3.046  10.086  29.269  0.00  0.00    -0.343 OA
ATOM     22  C   UNL     1      -2.859   8.817  29.944  0.00  0.00    +0.198 C 
ENDBRANCH   7  21
ENDBRANCH   4   5
BRANCH   4  23
ATOM     23  O   UNL     1      -5.559  12.807  24.513  0.00  0.00    -0.387 OA
ATOM     24  H   UNL     1      -5.857  13.699  24.707  0.00  0.00    +0.210 HD
ENDBRANCH   4  23
ENDBRANCH   1   4
BRANCH   1  25
ATOM     25  C   UNL     1      -3.043  13.291  23.510  0.00  0.00    +0.141 C 
BRANCH  25  28
ATOM     26  C   UNL     1      -4.103  12.705  21.357  0.00  0.00    +0.401 C 
ATOM     27  O   UNL     1      -5.212  13.142  21.676  0.00  0.00    -0.226 OA
ATOM     28  N   UNL     1      -3.035  12.729  22.154  0.00  0.00    -0.279 N 
ATOM     29  H   UNL     1      -2.171  12.338  21.806  0.00  0.00    +0.152 HD
BRANCH  26  30
ATOM     30  O   UNL     1      -3.931  12.131  20.059  0.00  0.00    -0.444 OA
BRANCH  30  31
ATOM     31  C   UNL     1      -5.185  11.631  19.587  0.00  0.00    +0.292 C 
BRANCH  31  33
ATOM     32  N   UNL     1      -5.071   9.192  19.182  0.00  0.00    -0.131 NA
ATOM     33  C   UNL     1      -4.977  10.472  18.699  0.00  0.00    +0.120 A 
ATOM     34  C   UNL     1      -4.679  10.424  17.356  0.00  0.00    +0.137 A 
ATOM     35  N   UNL     1      -4.601   9.092  17.084  0.00  0.00    -0.251 N 
ATOM     36  N   UNL     1      -4.835   8.355  18.181  0.00  0.00    -0.065 NA
BRANCH  35  37
ATOM     37  C   UNL     1      -4.325   8.452  15.817  0.00  0.00    +0.150 C 
BRANCH  37  38
ATOM     38  C   UNL     1      -2.951   8.793  15.246  0.00  0.00    +0.084 C 
BRANCH  38  39
ATOM     39  C   UNL     1      -3.026   9.807  14.113  0.00  0.00    +0.252 C 
ATOM     40  O   UNL     1      -4.387   9.997  13.711  0.00  0.00    -0.349 OA
ATOM     41  C   UNL     1      -4.399  11.342  13.235  0.00  0.00    +0.191 C 
ATOM     42  C   UNL     1      -3.446  12.047  14.164  0.00  0.00    +0.191 C 
ATOM     43  O   UNL     1      -2.478  11.062  14.528  0.00  0.00    -0.349 OA
ENDBRANCH  38  39
ENDBRANCH  37  38
ENDBRANCH  35  37
ENDBRANCH  31  33
ENDBRANCH  30  31
ENDBRANCH  26  30
ENDBRANCH  25  28
ENDBRANCH   1  25
TORSDOF 16
