REMARK VINA RESULT:    -5.087      2.379      3.407
REMARK INTER + INTRA:         -11.392
REMARK INTER:                  -8.957
REMARK INTRA:                  -2.435
REMARK UNBOUND:                -1.695
REMARK  Name = lig_assembled_12.pdb
REMARK  19 active torsions:
REMARK  status: ('A' for Active; 'I' for Inactive)
REMARK    1  A    between atoms: _2  and  _9
REMARK    2  A    between atoms: _4  and  _21
REMARK    3  A    between atoms: _6  and  _7
REMARK    4  A    between atoms: _6  and  _21
REMARK    5  A    between atoms: _9  and  _16
REMARK    6  A    between atoms: _10  and  _11
REMARK    7  A    between atoms: _10  and  _16
REMARK    8  A    between atoms: _17  and  _37
REMARK    9  A    between atoms: _19  and  _25
REMARK   10  A    between atoms: _20  and  _24
REMARK   11  A    between atoms: _24  and  _25
REMARK   12  A    between atoms: _27  and  _28
REMARK   13  A    between atoms: _29  and  _30
REMARK   14  A    between atoms: _31  and  _33
REMARK   15  A    between atoms: _33  and  _34
REMARK   16  A    between atoms: _33  and  _35
REMARK   17  A    between atoms: _35  and  _36
REMARK   18  A    between atoms: _35  and  _37
REMARK   19  A    between atoms: _38  and  _40
REMARK                            x       y       z     vdW  Elec       q    Type
REMARK                         _______ _______ _______ _____ _____    ______ ____
ROOT
ATOM      1  C   UNL     1      -5.973  12.338  27.438  0.00  0.00    +0.163 C 
ENDROOT
BRANCH   1   2
ATOM      2  O   UNL     1      -6.263  10.985  27.049  0.00  0.00    -0.388 OA
ATOM      3  H   UNL     1      -5.484  10.592  26.650  0.00  0.00    +0.210 HD
ENDBRANCH   1   2
BRANCH   1   4
ATOM      4  C   UNL     1      -5.597  12.414  28.927  0.00  0.00    +0.175 C 
BRANCH   4   5
ATOM      5  C   UNL     1      -4.424  11.486  29.275  0.00  0.00    +0.176 C 
ATOM      6  O   UNL     1      -4.927  10.122  29.310  0.00  0.00    -0.332 OA
ATOM      7  C   UNL     1      -3.919   9.080  29.525  0.00  0.00    +0.277 C 
ATOM      8  C   UNL     1      -3.106   9.371  30.811  0.00  0.00    +0.110 C 
ATOM      9  C   UNL     1      -2.576  10.820  30.834  0.00  0.00    +0.143 C 
ATOM     10  C   UNL     1      -3.708  11.821  30.597  0.00  0.00    +0.133 C 
BRANCH  10  11
ATOM     11  N   UNL     1      -3.178  13.192  30.535  0.00  0.00    -0.308 N 
ATOM     12  H   UNL     1      -2.542  13.419  29.783  0.00  0.00    +0.149 HD
ATOM     13  C   UNL     1      -3.481  14.157  31.408  0.00  0.00    +0.210 C 
ATOM     14  C   UNL     1      -4.432  13.773  32.558  0.00  0.00    +0.109 C 
ATOM     15  O   UNL     1      -3.034  15.301  31.323  0.00  0.00    -0.276 OA
ENDBRANCH  10  11
BRANCH   7  16
ATOM     16  C   UNL     1      -2.961   8.988  28.319  0.00  0.00    +0.414 C 
ATOM     17  O   UNL     1      -3.364   9.247  27.186  0.00  0.00    -0.240 OA
ATOM     18  O   UNL     1      -1.786   8.655  28.479  0.00  0.00    -0.240 OA
ENDBRANCH   7  16
BRANCH   9  19
ATOM     19  O   UNL     1      -1.966  11.090  32.097  0.00  0.00    -0.390 OA
ATOM     20  H   UNL     1      -2.520  10.745  32.801  0.00  0.00    +0.210 HD
ENDBRANCH   9  19
BRANCH   7  21
ATOM     21  O   UNL     1      -4.610   7.816  29.697  0.00  0.00    -0.343 OA
ATOM     22  C   UNL     1      -6.009   7.826  29.317  0.00  0.00    +0.198 C 
ENDBRANCH   7  21
ENDBRANCH   4   5
BRANCH   4  23
ATOM     23  O   UNL     1      -6.741  12.096  29.745  0.00  0.00    -0.387 OA
ATOM     24  H   UNL     1      -7.422  12.761  29.616  0.00  0.00    +0.210 HD
ENDBRANCH   4  23
ENDBRANCH   1   4
BRANCH   1  25
ATOM     25  C   UNL     1      -4.828  12.888  26.594  0.00  0.00    +0.141 C 
BRANCH  25  28
ATOM     26  C   UNL     1      -3.157  12.054  24.976  0.00  0.00    +0.401 C 
ATOM     27  O   UNL     1      -2.760  13.178  24.664  0.00  0.00    -0.226 OA
ATOM     28  N   UNL     1      -4.124  11.825  25.866  0.00  0.00    -0.279 N 
ATOM     29  H   UNL     1      -4.388  10.867  26.048  0.00  0.00    +0.152 HD
BRANCH  26  30
ATOM     30  O   UNL     1      -2.563  10.910  24.357  0.00  0.00    -0.444 OA
BRANCH  30  31
ATOM     31  C   UNL     1      -3.575  10.142  23.700  0.00  0.00    +0.292 C 
BRANCH  31  33
ATOM     32  N   UNL     1      -3.111  11.207  21.510  0.00  0.00    -0.131 NA
ATOM     33  C   UNL     1      -4.014  10.817  22.466  0.00  0.00    +0.120 A 
ATOM     34  C   UNL     1      -5.280  11.164  22.055  0.00  0.00    +0.139 A 
ATOM     35  N   UNL     1      -5.081  11.787  20.859  0.00  0.00    -0.226 N 
ATOM     36  N   UNL     1      -3.778  11.790  20.522  0.00  0.00    -0.063 NA
BRANCH  35  37
ATOM     37  C   UNL     1      -6.069  12.356  19.958  0.00  0.00    +0.305 C 
BRANCH  37  38
ATOM     38  O   UNL     1      -5.604  12.233  18.616  0.00  0.00    -0.353 OA
BRANCH  38  39
ATOM     39  C   UNL     1      -6.103  11.058  17.991  0.00  0.00    +0.197 C 
BRANCH  39  40
ATOM     40  C   UNL     1      -5.147  10.691  16.888  0.00  0.00    -0.022 A 
ATOM     41  C   UNL     1      -5.113   9.386  16.379  0.00  0.00    +0.006 A 
ATOM     42  C   UNL     1      -4.200   9.037  15.383  0.00  0.00    +0.000 A 
ATOM     43  C   UNL     1      -3.306   9.987  14.892  0.00  0.00    +0.000 A 
ATOM     44  C   UNL     1      -3.322  11.286  15.398  0.00  0.00    +0.000 A 
ATOM     45  C   UNL     1      -4.236  11.636  16.394  0.00  0.00    +0.006 A 
ENDBRANCH  39  40
ENDBRANCH  38  39
ENDBRANCH  37  38
ENDBRANCH  35  37
ENDBRANCH  31  33
ENDBRANCH  30  31
ENDBRANCH  26  30
ENDBRANCH  25  28
ENDBRANCH   1  25
TORSDOF 17
