REMARK VINA RESULT:    -4.717      2.167      3.452
REMARK INTER + INTRA:         -10.669
REMARK INTER:                  -7.830
REMARK INTRA:                  -2.840
REMARK UNBOUND:                -2.505
REMARK  Name = lig_assembled_3.pdb
REMARK  16 active torsions:
REMARK  status: ('A' for Active; 'I' for Inactive)
REMARK    1  A    between atoms: _2  and  _9
REMARK    2  A    between atoms: _4  and  _18
REMARK    3  A    between atoms: _6  and  _7
REMARK    4  A    between atoms: _6  and  _18
REMARK    5  A    between atoms: _14  and  _34
REMARK    6  A    between atoms: _16  and  _22
REMARK    7  A    between atoms: _17  and  _21
REMARK    8  A    between atoms: _21  and  _22
REMARK    9  A    between atoms: _24  and  _25
REMARK   10  A    between atoms: _26  and  _27
REMARK   11  A    between atoms: _28  and  _30
REMARK   12  A    between atoms: _30  and  _31
REMARK   13  A    between atoms: _30  and  _32
REMARK   14  A    between atoms: _32  and  _33
REMARK   15  A    between atoms: _32  and  _34
REMARK   16  A    between atoms: _35  and  _37
REMARK                            x       y       z     vdW  Elec       q    Type
REMARK                         _______ _______ _______ _____ _____    ______ ____
ROOT
ATOM      1  C   UNL     1      -3.472   9.750  30.751  0.00  0.00    +0.163 C 
ENDROOT
BRANCH   1   2
ATOM      2  O   UNL     1      -4.650   8.987  31.058  0.00  0.00    -0.388 OA
ATOM      3  H   UNL     1      -4.395   8.137  31.425  0.00  0.00    +0.210 HD
ENDBRANCH   1   2
BRANCH   1   4
ATOM      4  C   UNL     1      -2.774  10.174  32.039  0.00  0.00    +0.141 C 
BRANCH   4   7
ATOM      5  C   UNL     1      -4.371  11.247  33.590  0.00  0.00    +0.401 C 
ATOM      6  O   UNL     1      -4.809  10.179  34.026  0.00  0.00    -0.226 OA
ATOM      7  N   UNL     1      -3.424  11.337  32.656  0.00  0.00    -0.279 N 
ATOM      8  H   UNL     1      -3.137  12.259  32.356  0.00  0.00    +0.152 HD
BRANCH   5   9
ATOM      9  O   UNL     1      -4.899  12.474  34.100  0.00  0.00    -0.444 OA
BRANCH   9  10
ATOM     10  C   UNL     1      -3.872  13.469  34.108  0.00  0.00    +0.292 C 
BRANCH  10  12
ATOM     11  N   UNL     1      -2.841  14.299  32.018  0.00  0.00    -0.131 NA
ATOM     12  C   UNL     1      -3.912  14.258  32.862  0.00  0.00    +0.121 A 
ATOM     13  C   UNL     1      -4.927  15.026  32.339  0.00  0.00    +0.143 A 
ATOM     14  N   UNL     1      -4.435  15.503  31.145  0.00  0.00    -0.220 N 
ATOM     15  N   UNL     1      -3.163  15.061  30.981  0.00  0.00    -0.060 NA
BRANCH  14  16
ATOM     16  C   UNL     1      -5.084  16.310  30.175  0.00  0.00    +0.067 A 
ATOM     17  C   UNL     1      -4.684  17.636  29.957  0.00  0.00    +0.028 A 
ATOM     18  C   UNL     1      -5.356  18.423  29.018  0.00  0.00    +0.002 A 
ATOM     19  C   UNL     1      -6.423  17.895  28.294  0.00  0.00    +0.000 A 
ATOM     20  C   UNL     1      -6.820  16.575  28.500  0.00  0.00    +0.002 A 
ATOM     21  C   UNL     1      -6.154  15.781  29.437  0.00  0.00    +0.028 A 
ENDBRANCH  14  16
ENDBRANCH  10  12
ENDBRANCH   9  10
ENDBRANCH   5   9
ENDBRANCH   4   7
ENDBRANCH   1   4
BRANCH   1  22
ATOM     22  C   UNL     1      -3.824  10.998  29.923  0.00  0.00    +0.175 C 
BRANCH  22  23
ATOM     23  C   UNL     1      -3.984  10.674  28.430  0.00  0.00    +0.176 C 
ATOM     24  O   UNL     1      -3.121  11.574  27.682  0.00  0.00    -0.332 OA
ATOM     25  C   UNL     1      -3.062  11.341  26.236  0.00  0.00    +0.277 C 
ATOM     26  C   UNL     1      -4.485  11.355  25.627  0.00  0.00    +0.110 C 
ATOM     27  C   UNL     1      -5.448  10.436  26.409  0.00  0.00    +0.143 C 
ATOM     28  C   UNL     1      -5.428  10.764  27.902  0.00  0.00    +0.133 C 
BRANCH  28  29
ATOM     29  N   UNL     1      -6.283   9.826  28.647  0.00  0.00    -0.308 N 
ATOM     30  H   UNL     1      -6.039   8.846  28.624  0.00  0.00    +0.149 HD
ATOM     31  C   UNL     1      -7.360  10.185  29.351  0.00  0.00    +0.210 C 
ATOM     32  C   UNL     1      -7.720  11.683  29.344  0.00  0.00    +0.109 C 
ATOM     33  O   UNL     1      -8.049   9.379  29.977  0.00  0.00    -0.276 OA
ENDBRANCH  28  29
BRANCH  25  34
ATOM     34  C   UNL     1      -2.382   9.990  25.927  0.00  0.00    +0.414 C 
ATOM     35  O   UNL     1      -2.881   9.218  25.110  0.00  0.00    -0.240 OA
ATOM     36  O   UNL     1      -1.336   9.673  26.495  0.00  0.00    -0.240 OA
ENDBRANCH  25  34
BRANCH  27  37
ATOM     37  O   UNL     1      -6.777  10.595  25.910  0.00  0.00    -0.390 OA
ATOM     38  H   UNL     1      -7.217  11.302  26.389  0.00  0.00    +0.210 HD
ENDBRANCH  27  37
BRANCH  25  39
ATOM     39  O   UNL     1      -2.298  12.419  25.638  0.00  0.00    -0.343 OA
ATOM     40  C   UNL     1      -2.874  12.983  24.433  0.00  0.00    +0.198 C 
ENDBRANCH  25  39
ENDBRANCH  22  23
BRANCH  22  41
ATOM     41  O   UNL     1      -2.820  12.015  30.105  0.00  0.00    -0.387 OA
ATOM     42  H   UNL     1      -2.775  12.258  31.033  0.00  0.00    +0.210 HD
ENDBRANCH  22  41
ENDBRANCH   1  22
TORSDOF 14
