REMARK VINA RESULT:    -5.204      6.646     12.216
REMARK INTER + INTRA:         -12.607
REMARK INTER:                  -8.613
REMARK INTRA:                  -3.993
REMARK UNBOUND:                -2.840
REMARK  Name = lig_assembled_77.pdb
REMARK  19 active torsions:
REMARK  status: ('A' for Active; 'I' for Inactive)
REMARK    1  A    between atoms: _2  and  _10
REMARK    2  A    between atoms: _3  and  _17
REMARK    3  A    between atoms: _5  and  _27
REMARK    4  A    between atoms: _7  and  _8
REMARK    5  A    between atoms: _7  and  _27
REMARK    6  A    between atoms: _13  and  _47
REMARK    7  A    between atoms: _14  and  _47
REMARK    8  A    between atoms: _23  and  _43
REMARK    9  A    between atoms: _25  and  _31
REMARK   10  A    between atoms: _26  and  _30
REMARK   11  A    between atoms: _30  and  _31
REMARK   12  A    between atoms: _33  and  _34
REMARK   13  A    between atoms: _35  and  _36
REMARK   14  A    between atoms: _37  and  _39
REMARK   15  A    between atoms: _39  and  _40
REMARK   16  A    between atoms: _39  and  _41
REMARK   17  A    between atoms: _41  and  _42
REMARK   18  A    between atoms: _41  and  _43
REMARK   19  A    between atoms: _44  and  _46
REMARK                            x       y       z     vdW  Elec       q    Type
REMARK                         _______ _______ _______ _____ _____    ______ ____
ROOT
ATOM      1  C   UNL     1      -2.231   9.160  27.085  0.00  0.00    +0.401 C 
ATOM      2  O   UNL     1      -1.458   9.935  26.516  0.00  0.00    -0.226 OA
ATOM      3  N   UNL     1      -3.398   8.763  26.576  0.00  0.00    -0.279 N 
ATOM      4  H   UNL     1      -3.958   8.117  27.114  0.00  0.00    +0.152 HD
ENDROOT
BRANCH   3   5
ATOM      5  C   UNL     1      -3.915   9.212  25.278  0.00  0.00    +0.141 C 
BRANCH   5   6
ATOM      6  C   UNL     1      -4.990  10.283  25.433  0.00  0.00    +0.163 C 
BRANCH   6   7
ATOM      7  O   UNL     1      -5.680  10.109  26.682  0.00  0.00    -0.388 OA
ATOM      8  H   UNL     1      -6.442  10.692  26.711  0.00  0.00    +0.210 HD
ENDBRANCH   6   7
BRANCH   6   9
ATOM      9  C   UNL     1      -4.343  11.676  25.351  0.00  0.00    +0.175 C 
BRANCH   9  10
ATOM     10  C   UNL     1      -5.186  12.657  24.522  0.00  0.00    +0.176 C 
ATOM     11  O   UNL     1      -4.304  13.307  23.566  0.00  0.00    -0.332 OA
ATOM     12  C   UNL     1      -4.958  14.207  22.611  0.00  0.00    +0.277 C 
ATOM     13  C   UNL     1      -5.796  15.273  23.358  0.00  0.00    +0.110 C 
ATOM     14  C   UNL     1      -6.727  14.631  24.409  0.00  0.00    +0.143 C 
ATOM     15  C   UNL     1      -5.944  13.713  25.348  0.00  0.00    +0.133 C 
BRANCH  15  16
ATOM     16  N   UNL     1      -6.854  13.041  26.289  0.00  0.00    -0.308 N 
ATOM     17  H   UNL     1      -7.541  12.406  25.909  0.00  0.00    +0.149 HD
ATOM     18  C   UNL     1      -6.831  13.216  27.613  0.00  0.00    +0.210 C 
ATOM     19  C   UNL     1      -5.788  14.210  28.160  0.00  0.00    +0.109 C 
ATOM     20  O   UNL     1      -7.596  12.628  28.379  0.00  0.00    -0.276 OA
ENDBRANCH  15  16
BRANCH  12  21
ATOM     21  C   UNL     1      -5.869  13.415  21.650  0.00  0.00    +0.414 C 
ATOM     22  O   UNL     1      -5.592  12.256  21.346  0.00  0.00    -0.240 OA
ATOM     23  O   UNL     1      -6.881  13.936  21.178  0.00  0.00    -0.240 OA
ENDBRANCH  12  21
BRANCH  14  24
ATOM     24  O   UNL     1      -7.365  15.654  25.175  0.00  0.00    -0.390 OA
ATOM     25  H   UNL     1      -7.685  16.342  24.587  0.00  0.00    +0.210 HD
ENDBRANCH  14  24
BRANCH  12  26
ATOM     26  O   UNL     1      -3.924  14.886  21.854  0.00  0.00    -0.343 OA
ATOM     27  C   UNL     1      -3.945  16.333  21.950  0.00  0.00    +0.198 C 
ENDBRANCH  12  26
ENDBRANCH   9  10
BRANCH   9  28
ATOM     28  O   UNL     1      -3.015  11.576  24.801  0.00  0.00    -0.387 OA
ATOM     29  H   UNL     1      -2.943  10.772  24.281  0.00  0.00    +0.210 HD
ENDBRANCH   9  28
ENDBRANCH   6   9
ENDBRANCH   5   6
ENDBRANCH   3   5
BRANCH   1  30
ATOM     30  O   UNL     1      -1.872   8.638  28.367  0.00  0.00    -0.444 OA
BRANCH  30  31
ATOM     31  C   UNL     1      -3.049   8.472  29.162  0.00  0.00    +0.292 C 
BRANCH  31  33
ATOM     32  N   UNL     1      -2.903   9.629  31.342  0.00  0.00    -0.131 NA
ATOM     33  C   UNL     1      -3.259   9.650  30.026  0.00  0.00    +0.121 A 
ATOM     34  C   UNL     1      -3.793  10.882  29.724  0.00  0.00    +0.143 A 
ATOM     35  N   UNL     1      -3.733  11.593  30.900  0.00  0.00    -0.220 N 
ATOM     36  N   UNL     1      -3.202  10.808  31.870  0.00  0.00    -0.060 NA
BRANCH  35  37
ATOM     37  C   UNL     1      -4.080  12.949  31.141  0.00  0.00    +0.067 A 
ATOM     38  C   UNL     1      -5.336  13.289  31.667  0.00  0.00    +0.030 A 
ATOM     39  C   UNL     1      -5.706  14.633  31.784  0.00  0.00    +0.029 A 
ATOM     40  C   UNL     1      -4.820  15.633  31.379  0.00  0.00    +0.094 A 
ATOM     41  C   UNL     1      -3.533  15.308  30.940  0.00  0.00    +0.029 A 
ATOM     42  C   UNL     1      -3.168  13.966  30.809  0.00  0.00    +0.030 A 
BRANCH  40  43
ATOM     43  S   UNL     1      -5.320  17.341  31.462  0.00  0.00    +0.025 S 
ATOM     44  O   UNL     1      -6.546  17.365  32.242  0.00  0.00    -0.164 OA
ATOM     45  O   UNL     1      -4.164  18.111  31.879  0.00  0.00    -0.164 OA
BRANCH  43  46
ATOM     46  C   UNL     1      -5.732  17.902  29.823  0.00  0.00    +0.094 A 
ATOM     47  C   UNL     1      -6.914  17.500  29.201  0.00  0.00    +0.029 A 
ATOM     48  C   UNL     1      -7.177  17.909  27.889  0.00  0.00    +0.024 A 
ATOM     49  C   UNL     1      -6.294  18.755  27.206  0.00  0.00    +0.025 A 
ATOM     50  C   UNL     1      -5.099  19.123  27.833  0.00  0.00    +0.024 A 
ATOM     51  C   UNL     1      -4.824  18.719  29.143  0.00  0.00    +0.029 A 
BRANCH  49  52
ATOM     52  N   UNL     1      -6.480  19.016  25.845  0.00  0.00    -0.358 N 
ATOM     53  H   UNL     1      -6.400  18.205  25.242  0.00  0.00    +0.142 HD
ATOM     54  H   UNL     1      -7.298  19.579  25.634  0.00  0.00    +0.142 HD
ENDBRANCH  49  52
ENDBRANCH  43  46
ENDBRANCH  40  43
ENDBRANCH  35  37
ENDBRANCH  31  33
ENDBRANCH  30  31
ENDBRANCH   1  30
TORSDOF 17
