REMARK VINA RESULT:    -4.060      3.706      7.866
REMARK INTER + INTRA:         -10.400
REMARK INTER:                  -7.350
REMARK INTRA:                  -3.049
REMARK UNBOUND:                -3.373
REMARK  Name = lig_assembled_27.pdb
REMARK  16 active torsions:
REMARK  status: ('A' for Active; 'I' for Inactive)
REMARK    1  A    between atoms: _2  and  _9
REMARK    2  A    between atoms: _4  and  _18
REMARK    3  A    between atoms: _6  and  _7
REMARK    4  A    between atoms: _6  and  _18
REMARK    5  A    between atoms: _14  and  _34
REMARK    6  A    between atoms: _16  and  _22
REMARK    7  A    between atoms: _17  and  _21
REMARK    8  A    between atoms: _21  and  _22
REMARK    9  A    between atoms: _24  and  _25
REMARK   10  A    between atoms: _26  and  _27
REMARK   11  A    between atoms: _28  and  _30
REMARK   12  A    between atoms: _30  and  _31
REMARK   13  A    between atoms: _30  and  _32
REMARK   14  A    between atoms: _32  and  _33
REMARK   15  A    between atoms: _32  and  _34
REMARK   16  A    between atoms: _35  and  _37
REMARK                            x       y       z     vdW  Elec       q    Type
REMARK                         _______ _______ _______ _____ _____    ______ ____
ROOT
ATOM      1  C   UNL     1      -5.113   8.126  22.657  0.00  0.00    +0.163 C 
ENDROOT
BRANCH   1   2
ATOM      2  O   UNL     1      -5.003   8.256  21.230  0.00  0.00    -0.388 OA
ATOM      3  H   UNL     1      -4.078   8.342  20.986  0.00  0.00    +0.210 HD
ENDBRANCH   1   2
BRANCH   1   4
ATOM      4  C   UNL     1      -5.688   6.759  23.014  0.00  0.00    +0.141 C 
BRANCH   4   7
ATOM      5  C   UNL     1      -4.888   5.954  25.209  0.00  0.00    +0.401 C 
ATOM      6  O   UNL     1      -5.748   6.562  25.850  0.00  0.00    -0.226 OA
ATOM      7  N   UNL     1      -4.782   5.994  23.880  0.00  0.00    -0.279 N 
ATOM      8  H   UNL     1      -4.037   5.469  23.445  0.00  0.00    +0.152 HD
BRANCH   5   9
ATOM      9  O   UNL     1      -3.933   5.154  25.911  0.00  0.00    -0.444 OA
BRANCH   9  10
ATOM     10  C   UNL     1      -2.641   5.760  25.818  0.00  0.00    +0.292 C 
BRANCH  10  12
ATOM     11  N   UNL     1      -1.799   7.969  26.549  0.00  0.00    -0.131 NA
ATOM     12  C   UNL     1      -2.502   6.831  26.822  0.00  0.00    +0.121 A 
ATOM     13  C   UNL     1      -2.999   6.906  28.102  0.00  0.00    +0.143 A 
ATOM     14  N   UNL     1      -2.577   8.126  28.578  0.00  0.00    -0.220 N 
ATOM     15  N   UNL     1      -1.847   8.749  27.621  0.00  0.00    -0.060 NA
BRANCH  14  16
ATOM     16  C   UNL     1      -2.817   8.717  29.845  0.00  0.00    +0.068 A 
ATOM     17  C   UNL     1      -3.071   7.899  30.957  0.00  0.00    +0.028 A 
ATOM     18  C   UNL     1      -3.312   8.470  32.210  0.00  0.00    +0.003 A 
ATOM     19  C   UNL     1      -3.302   9.855  32.360  0.00  0.00    +0.020 A 
ATOM     20  C   UNL     1      -3.048  10.667  31.258  0.00  0.00    +0.043 A 
ATOM     21 CL   UNL     1      -3.034  12.379  31.444  0.00  0.00    -0.083 Cl
ATOM     22  C   UNL     1      -2.805  10.110  30.001  0.00  0.00    +0.047 A 
ENDBRANCH  14  16
ENDBRANCH  10  12
ENDBRANCH   9  10
ENDBRANCH   5   9
ENDBRANCH   4   7
ENDBRANCH   1   4
BRANCH   1  23
ATOM     23  C   UNL     1      -6.011   9.230  23.242  0.00  0.00    +0.175 C 
BRANCH  23  24
ATOM     24  C   UNL     1      -5.201  10.451  23.702  0.00  0.00    +0.176 C 
ATOM     25  O   UNL     1      -4.750  11.161  22.515  0.00  0.00    -0.332 OA
ATOM     26  C   UNL     1      -4.044  12.422  22.761  0.00  0.00    +0.277 C 
ATOM     27  C   UNL     1      -2.851  12.196  23.721  0.00  0.00    +0.110 C 
ATOM     28  C   UNL     1      -3.275  11.416  24.983  0.00  0.00    +0.143 C 
ATOM     29  C   UNL     1      -4.003  10.124  24.612  0.00  0.00    +0.133 C 
BRANCH  29  30
ATOM     30  N   UNL     1      -4.478   9.434  25.821  0.00  0.00    -0.308 N 
ATOM     31  H   UNL     1      -4.239   8.458  25.932  0.00  0.00    +0.149 HD
ATOM     32  C   UNL     1      -5.204  10.012  26.781  0.00  0.00    +0.210 C 
ATOM     33  C   UNL     1      -5.574  11.492  26.570  0.00  0.00    +0.109 C 
ATOM     34  O   UNL     1      -5.576   9.413  27.791  0.00  0.00    -0.276 OA
ENDBRANCH  29  30
BRANCH  26  35
ATOM     35  C   UNL     1      -4.998  13.474  23.364  0.00  0.00    +0.414 C 
ATOM     36  O   UNL     1      -6.108  13.663  22.866  0.00  0.00    -0.240 OA
ATOM     37  O   UNL     1      -4.659  14.134  24.347  0.00  0.00    -0.240 OA
ENDBRANCH  26  35
BRANCH  28  38
ATOM     38  O   UNL     1      -2.122  11.099  25.764  0.00  0.00    -0.390 OA
ATOM     39  H   UNL     1      -1.440  10.733  25.195  0.00  0.00    +0.210 HD
ENDBRANCH  28  38
BRANCH  26  40
ATOM     40  O   UNL     1      -3.527  12.901  21.493  0.00  0.00    -0.343 OA
ATOM     41  C   UNL     1      -3.928  12.125  20.336  0.00  0.00    +0.198 C 
ENDBRANCH  26  40
ENDBRANCH  23  24
BRANCH  23  42
ATOM     42  O   UNL     1      -6.789   8.708  24.338  0.00  0.00    -0.387 OA
ATOM     43  H   UNL     1      -6.821   7.751  24.281  0.00  0.00    +0.210 HD
ENDBRANCH  23  42
ENDBRANCH   1  23
TORSDOF 14
