REMARK VINA RESULT:    -4.088      2.753      6.941
REMARK INTER + INTRA:         -12.887
REMARK INTER:                  -8.533
REMARK INTRA:                  -4.354
REMARK UNBOUND:                -4.498
REMARK  Name = lig_assembled_33.pdb
REMARK  22 active torsions:
REMARK  status: ('A' for Active; 'I' for Inactive)
REMARK    1  A    between atoms: _2  and  _9
REMARK    2  A    between atoms: _4  and  _20
REMARK    3  A    between atoms: _5  and  _13
REMARK    4  A    between atoms: _5  and  _14
REMARK    5  A    between atoms: _6  and  _7
REMARK    6  A    between atoms: _6  and  _20
REMARK    7  A    between atoms: _9  and  _10
REMARK    8  A    between atoms: _10  and  _11
REMARK    9  A    between atoms: _11  and  _12
REMARK   10  A    between atoms: _12  and  _13
REMARK   11  A    between atoms: _16  and  _36
REMARK   12  A    between atoms: _18  and  _24
REMARK   13  A    between atoms: _19  and  _23
REMARK   14  A    between atoms: _23  and  _24
REMARK   15  A    between atoms: _26  and  _27
REMARK   16  A    between atoms: _28  and  _29
REMARK   17  A    between atoms: _30  and  _32
REMARK   18  A    between atoms: _32  and  _33
REMARK   19  A    between atoms: _32  and  _34
REMARK   20  A    between atoms: _34  and  _35
REMARK   21  A    between atoms: _34  and  _36
REMARK   22  A    between atoms: _37  and  _39
REMARK                            x       y       z     vdW  Elec       q    Type
REMARK                         _______ _______ _______ _____ _____    ______ ____
ROOT
ATOM      1  C   UNL     1      -2.205   9.772  27.142  0.00  0.00    +0.163 C 
ENDROOT
BRANCH   1   2
ATOM      2  O   UNL     1      -0.895   9.832  26.555  0.00  0.00    -0.388 OA
ATOM      3  H   UNL     1      -0.247   9.500  27.181  0.00  0.00    +0.210 HD
ENDBRANCH   1   2
BRANCH   1   4
ATOM      4  C   UNL     1      -3.217   9.144  26.168  0.00  0.00    +0.175 C 
BRANCH   4   5
ATOM      5  C   UNL     1      -3.675  10.138  25.090  0.00  0.00    +0.176 C 
ATOM      6  O   UNL     1      -4.129  11.346  25.760  0.00  0.00    -0.332 OA
ATOM      7  C   UNL     1      -4.508  12.455  24.880  0.00  0.00    +0.277 C 
ATOM      8  C   UNL     1      -5.574  11.992  23.856  0.00  0.00    +0.110 C 
ATOM      9  C   UNL     1      -5.150  10.692  23.140  0.00  0.00    +0.143 C 
ATOM     10  C   UNL     1      -4.774   9.608  24.150  0.00  0.00    +0.133 C 
BRANCH  10  11
ATOM     11  N   UNL     1      -4.288   8.404  23.457  0.00  0.00    -0.308 N 
ATOM     12  H   UNL     1      -3.420   8.472  22.945  0.00  0.00    +0.149 HD
ATOM     13  C   UNL     1      -4.920   7.227  23.461  0.00  0.00    +0.210 C 
ATOM     14  C   UNL     1      -6.254   7.162  24.230  0.00  0.00    +0.109 C 
ATOM     15  O   UNL     1      -4.483   6.231  22.883  0.00  0.00    -0.276 OA
ENDBRANCH  10  11
BRANCH   7  16
ATOM     16  C   UNL     1      -3.277  13.004  24.130  0.00  0.00    +0.414 C 
ATOM     17  O   UNL     1      -3.413  13.577  23.050  0.00  0.00    -0.240 OA
ATOM     18  O   UNL     1      -2.148  12.874  24.605  0.00  0.00    -0.240 OA
ENDBRANCH   7  16
BRANCH   9  19
ATOM     19  O   UNL     1      -6.221  10.222  22.321  0.00  0.00    -0.390 OA
ATOM     20  H   UNL     1      -6.611   9.441  22.721  0.00  0.00    +0.210 HD
ENDBRANCH   9  19
BRANCH   7  21
ATOM     21  O   UNL     1      -5.087  13.502  25.701  0.00  0.00    -0.343 OA
ATOM     22  C   UNL     1      -6.345  14.036  25.215  0.00  0.00    +0.198 C 
ENDBRANCH   7  21
ENDBRANCH   4   5
BRANCH   4  23
ATOM     23  O   UNL     1      -4.355   8.637  26.893  0.00  0.00    -0.387 OA
ATOM     24  H   UNL     1      -4.379   7.680  26.822  0.00  0.00    +0.210 HD
ENDBRANCH   4  23
ENDBRANCH   1   4
BRANCH   1  25
ATOM     25  C   UNL     1      -2.162   8.955  28.429  0.00  0.00    +0.141 C 
BRANCH  25  28
ATOM     26  C   UNL     1      -3.926   8.821  30.155  0.00  0.00    +0.401 C 
ATOM     27  O   UNL     1      -4.136   7.618  29.981  0.00  0.00    -0.226 OA
ATOM     28  N   UNL     1      -3.026   9.527  29.470  0.00  0.00    -0.279 N 
ATOM     29  H   UNL     1      -2.933  10.511  29.678  0.00  0.00    +0.152 HD
BRANCH  26  30
ATOM     30  O   UNL     1      -4.684   9.522  31.144  0.00  0.00    -0.444 OA
BRANCH  30  31
ATOM     31  C   UNL     1      -3.860   9.780  32.284  0.00  0.00    +0.292 C 
BRANCH  31  33
ATOM     32  N   UNL     1      -2.117  11.521  32.057  0.00  0.00    -0.131 NA
ATOM     33  C   UNL     1      -3.425  11.189  32.297  0.00  0.00    +0.120 A 
ATOM     34  C   UNL     1      -4.146  12.340  32.530  0.00  0.00    +0.137 A 
ATOM     35  N   UNL     1      -3.222  13.334  32.408  0.00  0.00    -0.251 N 
ATOM     36  N   UNL     1      -2.002  12.838  32.142  0.00  0.00    -0.065 NA
BRANCH  35  37
ATOM     37  C   UNL     1      -3.418  14.762  32.544  0.00  0.00    +0.145 C 
BRANCH  37  38
ATOM     38  C   UNL     1      -3.785  15.420  31.215  0.00  0.00    +0.023 C 
BRANCH  38  39
ATOM     39  C   UNL     1      -5.284  15.347  30.916  0.00  0.00    +0.002 C 
BRANCH  39  40
ATOM     40  C   UNL     1      -5.507  14.788  29.509  0.00  0.00    +0.011 C 
BRANCH  40  41
ATOM     41  C   UNL     1      -5.942  13.324  29.516  0.00  0.00    +0.120 C 
BRANCH  41  42
ATOM     42  C   UNL     1      -4.866  12.430  28.939  0.00  0.00    +0.305 C 
ATOM     43  O   UNL     1      -3.664  12.596  29.070  0.00  0.00    -0.251 OA
BRANCH  42  44
ATOM     44  O   UNL     1      -5.380  11.389  28.243  0.00  0.00    -0.481 OA
ATOM     45  H   UNL     1      -5.943  10.799  28.776  0.00  0.00    +0.295 HD
ENDBRANCH  42  44
ENDBRANCH  41  42
ENDBRANCH  40  41
ENDBRANCH  39  40
ENDBRANCH  38  39
ENDBRANCH  37  38
ENDBRANCH  35  37
ENDBRANCH  31  33
ENDBRANCH  30  31
ENDBRANCH  26  30
ENDBRANCH  25  28
ENDBRANCH   1  25
TORSDOF 20
