REMARK VINA RESULT:    -4.986      6.375     12.300
REMARK INTER + INTRA:         -11.470
REMARK INTER:                  -9.465
REMARK INTRA:                  -2.005
REMARK UNBOUND:                -2.841
REMARK  Name = lig_assembled_86.pdb
REMARK  17 active torsions:
REMARK  status: ('A' for Active; 'I' for Inactive)
REMARK    1  A    between atoms: _2  and  _10
REMARK    2  A    between atoms: _3  and  _13
REMARK    3  A    between atoms: _5  and  _21
REMARK    4  A    between atoms: _7  and  _8
REMARK    5  A    between atoms: _7  and  _21
REMARK    6  A    between atoms: _17  and  _37
REMARK    7  A    between atoms: _19  and  _25
REMARK    8  A    between atoms: _20  and  _24
REMARK    9  A    between atoms: _24  and  _25
REMARK   10  A    between atoms: _27  and  _28
REMARK   11  A    between atoms: _29  and  _30
REMARK   12  A    between atoms: _31  and  _33
REMARK   13  A    between atoms: _33  and  _34
REMARK   14  A    between atoms: _33  and  _35
REMARK   15  A    between atoms: _35  and  _36
REMARK   16  A    between atoms: _35  and  _37
REMARK   17  A    between atoms: _38  and  _40
REMARK                            x       y       z     vdW  Elec       q    Type
REMARK                         _______ _______ _______ _____ _____    ______ ____
ROOT
ATOM      1  C   UNL     1      -3.240  11.799  25.128  0.00  0.00    +0.163 C 
ENDROOT
BRANCH   1   2
ATOM      2  O   UNL     1      -2.021  11.040  25.067  0.00  0.00    -0.388 OA
ATOM      3  H   UNL     1      -1.279  11.636  24.940  0.00  0.00    +0.210 HD
ENDBRANCH   1   2
BRANCH   1   4
ATOM      4  C   UNL     1      -3.080  13.105  24.357  0.00  0.00    +0.141 C 
BRANCH   4   7
ATOM      5  C   UNL     1      -4.101  12.848  22.121  0.00  0.00    +0.401 C 
ATOM      6  O   UNL     1      -3.140  12.237  21.649  0.00  0.00    -0.226 OA
ATOM      7  N   UNL     1      -4.156  13.296  23.376  0.00  0.00    -0.279 N 
ATOM      8  H   UNL     1      -4.984  13.796  23.668  0.00  0.00    +0.152 HD
BRANCH   5   9
ATOM      9  O   UNL     1      -5.236  13.107  21.290  0.00  0.00    -0.444 OA
BRANCH   9  10
ATOM     10  C   UNL     1      -5.776  11.870  20.819  0.00  0.00    +0.292 C 
BRANCH  10  12
ATOM     11  N   UNL     1      -7.288  12.179  18.878  0.00  0.00    -0.131 NA
ATOM     12  C   UNL     1      -6.030  11.944  19.368  0.00  0.00    +0.120 A 
ATOM     13  C   UNL     1      -5.156  11.823  18.313  0.00  0.00    +0.137 A 
ATOM     14  N   UNL     1      -5.933  12.029  17.214  0.00  0.00    -0.248 N 
ATOM     15  N   UNL     1      -7.221  12.212  17.554  0.00  0.00    -0.065 NA
BRANCH  14  16
ATOM     16  C   UNL     1      -5.502  12.072  15.825  0.00  0.00    +0.112 C 
ATOM     17  C   UNL     1      -4.016  12.464  15.696  0.00  0.00    +0.045 C 
ATOM     18  C   UNL     1      -3.206  11.591  14.733  0.00  0.00    +0.059 C 
ATOM     19  C   UNL     1      -2.871  10.236  15.364  0.00  0.00    +0.020 C 
ATOM     20  C   UNL     1      -3.988   9.307  14.898  0.00  0.00    +0.020 C 
ATOM     21  C   UNL     1      -4.931  10.211  14.100  0.00  0.00    +0.059 C 
ATOM     22  N   UNL     1      -3.976  11.179  13.560  0.00  0.00    -0.299 NA
ATOM     23  C   UNL     1      -4.527  12.236  12.733  0.00  0.00    +0.105 C 
ATOM     24  C   UNL     1      -5.989  10.853  15.008  0.00  0.00    +0.045 C 
ENDBRANCH  14  16
ENDBRANCH  10  12
ENDBRANCH   9  10
ENDBRANCH   5   9
ENDBRANCH   4   7
ENDBRANCH   1   4
BRANCH   1  25
ATOM     25  C   UNL     1      -3.625  12.106  26.585  0.00  0.00    +0.175 C 
BRANCH  25  26
ATOM     26  C   UNL     1      -3.386  10.904  27.511  0.00  0.00    +0.176 C 
ATOM     27  O   UNL     1      -4.021   9.743  26.909  0.00  0.00    -0.332 OA
ATOM     28  C   UNL     1      -3.806   8.471  27.606  0.00  0.00    +0.277 C 
ATOM     29  C   UNL     1      -4.232   8.588  29.090  0.00  0.00    +0.110 C 
ATOM     30  C   UNL     1      -3.607   9.828  29.765  0.00  0.00    +0.143 C 
ATOM     31  C   UNL     1      -3.888  11.094  28.955  0.00  0.00    +0.133 C 
BRANCH  31  32
ATOM     32  N   UNL     1      -3.215  12.253  29.561  0.00  0.00    -0.308 N 
ATOM     33  H   UNL     1      -2.205  12.259  29.573  0.00  0.00    +0.149 HD
ATOM     34  C   UNL     1      -3.852  13.298  30.096  0.00  0.00    +0.210 C 
ATOM     35  C   UNL     1      -5.391  13.247  30.086  0.00  0.00    +0.109 C 
ATOM     36  O   UNL     1      -3.261  14.263  30.584  0.00  0.00    -0.276 OA
ENDBRANCH  31  32
BRANCH  28  37
ATOM     37  C   UNL     1      -2.325   8.046  27.526  0.00  0.00    +0.414 C 
ATOM     38  O   UNL     1      -1.816   7.399  28.439  0.00  0.00    -0.240 OA
ATOM     39  O   UNL     1      -1.640   8.351  26.548  0.00  0.00    -0.240 OA
ENDBRANCH  28  37
BRANCH  30  40
ATOM     40  O   UNL     1      -4.142   9.981  31.080  0.00  0.00    -0.390 OA
ATOM     41  H   UNL     1      -4.407  10.894  31.213  0.00  0.00    +0.210 HD
ENDBRANCH  30  40
BRANCH  28  42
ATOM     42  O   UNL     1      -4.637   7.465  26.970  0.00  0.00    -0.343 OA
ATOM     43  C   UNL     1      -5.756   7.003  27.768  0.00  0.00    +0.198 C 
ENDBRANCH  28  42
ENDBRANCH  25  26
BRANCH  25  44
ATOM     44  O   UNL     1      -5.003  12.523  26.658  0.00  0.00    -0.387 OA
ATOM     45  H   UNL     1      -5.551  11.776  26.907  0.00  0.00    +0.210 HD
ENDBRANCH  25  44
ENDBRANCH   1  25
TORSDOF 14
