REMARK VINA RESULT:    -4.136      3.762      6.008
REMARK INTER + INTRA:         -10.071
REMARK INTER:                  -7.158
REMARK INTRA:                  -2.913
REMARK UNBOUND:                -2.913
REMARK  Name = lig_assembled_93.pdb
REMARK  16 active torsions:
REMARK  status: ('A' for Active; 'I' for Inactive)
REMARK    1  A    between atoms: _2  and  _9
REMARK    2  A    between atoms: _4  and  _18
REMARK    3  A    between atoms: _6  and  _7
REMARK    4  A    between atoms: _6  and  _18
REMARK    5  A    between atoms: _14  and  _34
REMARK    6  A    between atoms: _16  and  _22
REMARK    7  A    between atoms: _17  and  _21
REMARK    8  A    between atoms: _21  and  _22
REMARK    9  A    between atoms: _24  and  _25
REMARK   10  A    between atoms: _26  and  _27
REMARK   11  A    between atoms: _28  and  _30
REMARK   12  A    between atoms: _30  and  _31
REMARK   13  A    between atoms: _30  and  _32
REMARK   14  A    between atoms: _32  and  _33
REMARK   15  A    between atoms: _32  and  _34
REMARK   16  A    between atoms: _35  and  _37
REMARK                            x       y       z     vdW  Elec       q    Type
REMARK                         _______ _______ _______ _____ _____    ______ ____
ROOT
ATOM      1  C   UNL     1      -2.913  11.276  25.780  0.00  0.00    +0.163 C 
ENDROOT
BRANCH   1   2
ATOM      2  O   UNL     1      -1.973  12.284  25.372  0.00  0.00    -0.388 OA
ATOM      3  H   UNL     1      -1.795  12.195  24.433  0.00  0.00    +0.210 HD
ENDBRANCH   1   2
BRANCH   1   4
ATOM      4  C   UNL     1      -2.186  10.146  26.501  0.00  0.00    +0.141 C 
BRANCH   4   7
ATOM      5  C   UNL     1      -3.511   8.962  28.219  0.00  0.00    +0.401 C 
ATOM      6  O   UNL     1      -3.939   8.110  27.436  0.00  0.00    -0.226 OA
ATOM      7  N   UNL     1      -2.691   9.953  27.866  0.00  0.00    -0.279 N 
ATOM      8  H   UNL     1      -2.402  10.609  28.579  0.00  0.00    +0.152 HD
BRANCH   5   9
ATOM      9  O   UNL     1      -3.906   8.905  29.592  0.00  0.00    -0.444 OA
BRANCH   9  10
ATOM     10  C   UNL     1      -2.978   9.647  30.388  0.00  0.00    +0.292 C 
BRANCH  10  12
ATOM     11  N   UNL     1      -4.717  10.860  31.650  0.00  0.00    -0.131 NA
ATOM     12  C   UNL     1      -3.602  10.892  30.874  0.00  0.00    +0.121 A 
ATOM     13  C   UNL     1      -3.233  12.202  30.680  0.00  0.00    +0.143 A 
ATOM     14  N   UNL     1      -4.157  12.957  31.383  0.00  0.00    -0.219 N 
ATOM     15  N   UNL     1      -5.045  12.109  31.945  0.00  0.00    -0.060 NA
BRANCH  14  16
ATOM     16  C   UNL     1      -4.204  14.379  31.535  0.00  0.00    +0.080 A 
ATOM     17  C   UNL     1      -4.994  15.110  30.615  0.00  0.00    +0.029 A 
ATOM     18  C   UNL     1      -5.088  16.503  30.671  0.00  0.00    +0.002 A 
ATOM     19  C   UNL     1      -4.399  17.206  31.645  0.00  0.00    +0.001 A 
ATOM     20  C   UNL     1      -3.619  16.512  32.567  0.00  0.00    +0.016 A 
ATOM     21  C   UNL     1      -3.513  15.105  32.528  0.00  0.00    +0.039 A 
ATOM     22  I   UNL     1      -2.264  14.349  34.059  0.00  0.00    -0.042 I 
ENDBRANCH  14  16
ENDBRANCH  10  12
ENDBRANCH   9  10
ENDBRANCH   5   9
ENDBRANCH   4   7
ENDBRANCH   1   4
BRANCH   1  23
ATOM     23  C   UNL     1      -3.672  10.709  24.568  0.00  0.00    +0.175 C 
BRANCH  23  24
ATOM     24  C   UNL     1      -4.731  11.687  24.039  0.00  0.00    +0.176 C 
ATOM     25  O   UNL     1      -4.040  12.757  23.337  0.00  0.00    -0.332 OA
ATOM     26  C   UNL     1      -4.902  13.737  22.669  0.00  0.00    +0.277 C 
ATOM     27  C   UNL     1      -5.916  14.339  23.672  0.00  0.00    +0.110 C 
ATOM     28  C   UNL     1      -6.652  13.240  24.466  0.00  0.00    +0.143 C 
ATOM     29  C   UNL     1      -5.661  12.275  25.117  0.00  0.00    +0.133 C 
BRANCH  29  30
ATOM     30  N   UNL     1      -6.375  11.183  25.798  0.00  0.00    -0.308 N 
ATOM     31  H   UNL     1      -6.879  10.520  25.225  0.00  0.00    +0.149 HD
ATOM     32  C   UNL     1      -6.402  11.012  27.122  0.00  0.00    +0.210 C 
ATOM     33  C   UNL     1      -5.647  12.054  27.968  0.00  0.00    +0.109 C 
ATOM     34  O   UNL     1      -6.997  10.079  27.664  0.00  0.00    -0.276 OA
ENDBRANCH  29  30
BRANCH  26  35
ATOM     35  C   UNL     1      -5.663  13.085  21.495  0.00  0.00    +0.414 C 
ATOM     36  O   UNL     1      -5.132  12.198  20.828  0.00  0.00    -0.240 OA
ATOM     37  O   UNL     1      -6.807  13.446  21.216  0.00  0.00    -0.240 OA
ENDBRANCH  26  35
BRANCH  28  38
ATOM     38  O   UNL     1      -7.461  13.838  25.480  0.00  0.00    -0.390 OA
ATOM     39  H   UNL     1      -7.622  14.759  25.260  0.00  0.00    +0.210 HD
ENDBRANCH  28  38
BRANCH  26  40
ATOM     40  O   UNL     1      -4.060  14.808  22.170  0.00  0.00    -0.343 OA
ATOM     41  C   UNL     1      -4.659  16.128  22.215  0.00  0.00    +0.198 C 
ENDBRANCH  26  40
ENDBRANCH  23  24
BRANCH  23  42
ATOM     42  O   UNL     1      -4.286   9.450  24.912  0.00  0.00    -0.387 OA
ATOM     43  H   UNL     1      -5.241   9.546  24.898  0.00  0.00    +0.210 HD
ENDBRANCH  23  42
ENDBRANCH   1  23
TORSDOF 14
