REMARK VINA RESULT:    -5.525      7.355     11.088
REMARK INTER + INTRA:         -12.597
REMARK INTER:                 -10.282
REMARK INTRA:                  -2.315
REMARK UNBOUND:                -2.389
REMARK  Name = lig_assembled_92.pdb
REMARK  18 active torsions:
REMARK  status: ('A' for Active; 'I' for Inactive)
REMARK    1  A    between atoms: _2  and  _11
REMARK    2  A    between atoms: _3  and  _46
REMARK    3  A    between atoms: _6  and  _25
REMARK    4  A    between atoms: _8  and  _9
REMARK    5  A    between atoms: _8  and  _25
REMARK    6  A    between atoms: _14  and  _46
REMARK    7  A    between atoms: _21  and  _41
REMARK    8  A    between atoms: _23  and  _29
REMARK    9  A    between atoms: _24  and  _28
REMARK   10  A    between atoms: _28  and  _29
REMARK   11  A    between atoms: _31  and  _32
REMARK   12  A    between atoms: _33  and  _34
REMARK   13  A    between atoms: _35  and  _37
REMARK   14  A    between atoms: _37  and  _38
REMARK   15  A    between atoms: _37  and  _39
REMARK   16  A    between atoms: _39  and  _40
REMARK   17  A    between atoms: _39  and  _41
REMARK   18  A    between atoms: _42  and  _44
REMARK                            x       y       z     vdW  Elec       q    Type
REMARK                         _______ _______ _______ _____ _____    ______ ____
ROOT
ATOM      1  C   UNL     1      -4.122  11.842  14.578  0.00  0.00    +0.401 C 
ATOM      2  O   UNL     1      -3.315  11.196  15.251  0.00  0.00    -0.226 OA
ATOM      3  N   UNL     1      -3.940  12.155  13.295  0.00  0.00    -0.279 N 
ATOM      4  H   UNL     1      -4.664  12.680  12.824  0.00  0.00    +0.152 HD
ENDROOT
BRANCH   3   5
ATOM      5  C   UNL     1      -2.746  11.780  12.526  0.00  0.00    +0.141 C 
BRANCH   5   6
ATOM      6  C   UNL     1      -1.718  12.906  12.488  0.00  0.00    +0.163 C 
BRANCH   6   7
ATOM      7  O   UNL     1      -0.701  12.610  11.516  0.00  0.00    -0.388 OA
ATOM      8  H   UNL     1      -1.079  12.650  10.634  0.00  0.00    +0.210 HD
ENDBRANCH   6   7
BRANCH   6   9
ATOM      9  C   UNL     1      -2.422  14.234  12.160  0.00  0.00    +0.175 C 
BRANCH   9  10
ATOM     10  C   UNL     1      -1.533  15.169  11.327  0.00  0.00    +0.176 C 
ATOM     11  O   UNL     1      -0.252  15.290  12.004  0.00  0.00    -0.332 OA
ATOM     12  C   UNL     1       0.769  16.066  11.295  0.00  0.00    +0.277 C 
ATOM     13  C   UNL     1       0.230  17.474  10.940  0.00  0.00    +0.110 C 
ATOM     14  C   UNL     1      -1.146  17.397  10.246  0.00  0.00    +0.143 C 
ATOM     15  C   UNL     1      -2.130  16.564  11.068  0.00  0.00    +0.133 C 
BRANCH  15  16
ATOM     16  N   UNL     1      -3.410  16.427  10.354  0.00  0.00    -0.308 N 
ATOM     17  H   UNL     1      -3.410  15.920   9.480  0.00  0.00    +0.149 HD
ATOM     18  C   UNL     1      -4.570  16.928  10.787  0.00  0.00    +0.210 C 
ATOM     19  C   UNL     1      -4.531  17.717  12.109  0.00  0.00    +0.109 C 
ATOM     20  O   UNL     1      -5.630  16.784  10.175  0.00  0.00    -0.276 OA
ENDBRANCH  15  16
BRANCH  12  21
ATOM     21  C   UNL     1       1.209  15.342  10.006  0.00  0.00    +0.414 C 
ATOM     22  O   UNL     1       1.608  15.988   9.037  0.00  0.00    -0.240 OA
ATOM     23  O   UNL     1       1.166  14.114   9.934  0.00  0.00    -0.240 OA
ENDBRANCH  12  21
BRANCH  14  24
ATOM     24  O   UNL     1      -1.673  18.714  10.074  0.00  0.00    -0.390 OA
ATOM     25  H   UNL     1      -1.125  19.200   9.453  0.00  0.00    +0.210 HD
ENDBRANCH  14  24
BRANCH  12  26
ATOM     26  O   UNL     1       1.909  16.223  12.180  0.00  0.00    -0.343 OA
ATOM     27  C   UNL     1       2.462  17.562  12.235  0.00  0.00    +0.198 C 
ENDBRANCH  12  26
ENDBRANCH   9  10
BRANCH   9  28
ATOM     28  O   UNL     1      -2.832  14.892  13.376  0.00  0.00    -0.387 OA
ATOM     29  H   UNL     1      -2.055  15.170  13.867  0.00  0.00    +0.210 HD
ENDBRANCH   9  28
ENDBRANCH   6   9
ENDBRANCH   5   6
ENDBRANCH   3   5
BRANCH   1  30
ATOM     30  O   UNL     1      -5.335  12.288  15.188  0.00  0.00    -0.444 OA
BRANCH  30  31
ATOM     31  C   UNL     1      -5.900  11.227  15.962  0.00  0.00    +0.292 C 
BRANCH  31  33
ATOM     32  N   UNL     1      -6.937  12.178  18.003  0.00  0.00    -0.131 NA
ATOM     33  C   UNL     1      -5.877  11.568  17.397  0.00  0.00    +0.121 A 
ATOM     34  C   UNL     1      -4.889  11.356  18.330  0.00  0.00    +0.143 A 
ATOM     35  N   UNL     1      -5.407  11.831  19.513  0.00  0.00    -0.220 N 
ATOM     36  N   UNL     1      -6.642  12.340  19.287  0.00  0.00    -0.060 NA
BRANCH  35  37
ATOM     37  C   UNL     1      -4.826  11.795  20.805  0.00  0.00    +0.067 A 
ATOM     38  C   UNL     1      -3.581  11.179  21.007  0.00  0.00    +0.030 A 
ATOM     39  C   UNL     1      -3.040  11.094  22.289  0.00  0.00    +0.031 A 
ATOM     40  C   UNL     1      -3.734  11.634  23.373  0.00  0.00    +0.109 A 
ATOM     41  C   UNL     1      -4.969  12.260  23.188  0.00  0.00    +0.031 A 
ATOM     42  C   UNL     1      -5.511  12.349  21.900  0.00  0.00    +0.030 A 
BRANCH  40  43
ATOM     43  S   UNL     1      -3.089  11.372  25.004  0.00  0.00    +0.074 S 
ATOM     44  O   UNL     1      -2.712   9.976  25.106  0.00  0.00    -0.150 OA
ATOM     45  O   UNL     1      -2.122  12.406  25.290  0.00  0.00    -0.150 OA
BRANCH  43  46
ATOM     46  N   UNL     1      -4.447  11.533  25.995  0.00  0.00    -0.194 N 
ATOM     47  H   UNL     1      -5.203  11.045  25.521  0.00  0.00    +0.176 HD
ATOM     48  C   UNL     1      -4.208  11.065  27.304  0.00  0.00    +0.177 A 
ATOM     49  S   UNL     1      -4.668   9.503  27.823  0.00  0.00    -0.059 S 
ATOM     50  C   UNL     1      -4.141   9.901  29.407  0.00  0.00    +0.068 A 
ATOM     51  C   UNL     1      -3.729  11.217  29.438  0.00  0.00    +0.120 A 
ATOM     52  N   UNL     1      -3.738  11.873  28.221  0.00  0.00    -0.232 NA
ENDBRANCH  43  46
ENDBRANCH  40  43
ENDBRANCH  35  37
ENDBRANCH  31  33
ENDBRANCH  30  31
ENDBRANCH   1  30
TORSDOF 16
