REMARK VINA RESULT:    -4.878      3.132      5.628
REMARK INTER + INTRA:         -11.483
REMARK INTER:                  -8.839
REMARK INTRA:                  -2.644
REMARK UNBOUND:                -2.756
REMARK  Name = lig_assembled_41.pdb
REMARK  18 active torsions:
REMARK  status: ('A' for Active; 'I' for Inactive)
REMARK    1  A    between atoms: _2  and  _9
REMARK    2  A    between atoms: _4  and  _21
REMARK    3  A    between atoms: _6  and  _7
REMARK    4  A    between atoms: _6  and  _21
REMARK    5  A    between atoms: _10  and  _11
REMARK    6  A    between atoms: _11  and  _12
REMARK    7  A    between atoms: _17  and  _37
REMARK    8  A    between atoms: _19  and  _25
REMARK    9  A    between atoms: _20  and  _24
REMARK   10  A    between atoms: _24  and  _25
REMARK   11  A    between atoms: _27  and  _28
REMARK   12  A    between atoms: _29  and  _30
REMARK   13  A    between atoms: _31  and  _33
REMARK   14  A    between atoms: _33  and  _34
REMARK   15  A    between atoms: _33  and  _35
REMARK   16  A    between atoms: _35  and  _36
REMARK   17  A    between atoms: _35  and  _37
REMARK   18  A    between atoms: _38  and  _40
REMARK                            x       y       z     vdW  Elec       q    Type
REMARK                         _______ _______ _______ _____ _____    ______ ____
ROOT
ATOM      1  C   UNL     1      -4.300   9.052  23.939  0.00  0.00    +0.163 C 
ENDROOT
BRANCH   1   2
ATOM      2  O   UNL     1      -3.740   8.293  22.855  0.00  0.00    -0.388 OA
ATOM      3  H   UNL     1      -4.174   7.438  22.804  0.00  0.00    +0.210 HD
ENDBRANCH   1   2
BRANCH   1   4
ATOM      4  C   UNL     1      -4.423   8.175  25.180  0.00  0.00    +0.141 C 
BRANCH   4   7
ATOM      5  C   UNL     1      -2.705   8.871  26.815  0.00  0.00    +0.401 C 
ATOM      6  O   UNL     1      -1.787   8.276  26.245  0.00  0.00    -0.226 OA
ATOM      7  N   UNL     1      -3.969   8.872  26.390  0.00  0.00    -0.279 N 
ATOM      8  H   UNL     1      -4.654   9.382  26.931  0.00  0.00    +0.152 HD
BRANCH   5   9
ATOM      9  O   UNL     1      -2.421   9.606  28.008  0.00  0.00    -0.444 OA
BRANCH   9  10
ATOM     10  C   UNL     1      -3.395   9.291  29.007  0.00  0.00    +0.292 C 
BRANCH  10  12
ATOM     11  N   UNL     1      -4.554  10.454  30.846  0.00  0.00    -0.131 NA
ATOM     12  C   UNL     1      -3.859  10.519  29.677  0.00  0.00    +0.121 A 
ATOM     13  C   UNL     1      -3.694  11.841  29.325  0.00  0.00    +0.143 A 
ATOM     14  N   UNL     1      -4.406  12.554  30.262  0.00  0.00    -0.219 N 
ATOM     15  N   UNL     1      -4.836  11.692  31.225  0.00  0.00    -0.060 NA
BRANCH  14  16
ATOM     16  C   UNL     1      -4.624  13.955  30.397  0.00  0.00    +0.077 A 
ATOM     17  C   UNL     1      -3.939  14.792  31.303  0.00  0.00    +0.043 A 
ATOM     18  C   UNL     1      -4.292  16.156  31.366  0.00  0.00    +0.013 A 
ATOM     19  C   UNL     1      -5.304  16.682  30.560  0.00  0.00    +0.001 A 
ATOM     20  C   UNL     1      -5.960  15.865  29.652  0.00  0.00    +0.002 A 
ATOM     21  C   UNL     1      -5.616  14.517  29.562  0.00  0.00    +0.028 A 
BRANCH  17  22
ATOM     22  C   UNL     1      -2.716  14.379  32.057  0.00  0.00    +0.162 C 
ATOM     23  O   UNL     1      -1.670  14.180  31.444  0.00  0.00    -0.292 OA
ATOM     24  C   UNL     1      -2.767  14.212  33.557  0.00  0.00    +0.091 C 
ENDBRANCH  17  22
ENDBRANCH  14  16
ENDBRANCH  10  12
ENDBRANCH   9  10
ENDBRANCH   5   9
ENDBRANCH   4   7
ENDBRANCH   1   4
BRANCH   1  25
ATOM     25  C   UNL     1      -5.684   9.608  23.564  0.00  0.00    +0.175 C 
BRANCH  25  26
ATOM     26  C   UNL     1      -5.589  10.764  22.556  0.00  0.00    +0.176 C 
ATOM     27  O   UNL     1      -5.188  10.207  21.274  0.00  0.00    -0.332 OA
ATOM     28  C   UNL     1      -5.148  11.155  20.157  0.00  0.00    +0.277 C 
ATOM     29  C   UNL     1      -4.247  12.366  20.506  0.00  0.00    +0.110 C 
ATOM     30  C   UNL     1      -4.616  12.972  21.877  0.00  0.00    +0.143 C 
ATOM     31  C   UNL     1      -4.631  11.898  22.965  0.00  0.00    +0.133 C 
BRANCH  31  32
ATOM     32  N   UNL     1      -5.068  12.471  24.249  0.00  0.00    -0.308 N 
ATOM     33  H   UNL     1      -6.038  12.737  24.341  0.00  0.00    +0.149 HD
ATOM     34  C   UNL     1      -4.265  12.662  25.299  0.00  0.00    +0.210 C 
ATOM     35  C   UNL     1      -2.787  12.271  25.118  0.00  0.00    +0.109 C 
ATOM     36  O   UNL     1      -4.662  13.131  26.367  0.00  0.00    -0.276 OA
ENDBRANCH  31  32
BRANCH  28  37
ATOM     37  C   UNL     1      -6.566  11.651  19.808  0.00  0.00    +0.414 C 
ATOM     38  O   UNL     1      -7.489  10.848  19.678  0.00  0.00    -0.240 OA
ATOM     39  O   UNL     1      -6.788  12.854  19.658  0.00  0.00    -0.240 OA
ENDBRANCH  28  37
BRANCH  30  40
ATOM     40  O   UNL     1      -3.669  13.983  22.227  0.00  0.00    -0.390 OA
ATOM     41  H   UNL     1      -2.921  13.943  21.626  0.00  0.00    +0.210 HD
ENDBRANCH  30  40
BRANCH  28  42
ATOM     42  O   UNL     1      -4.573  10.474  19.011  0.00  0.00    -0.343 OA
ATOM     43  C   UNL     1      -4.510  11.265  17.797  0.00  0.00    +0.198 C 
ENDBRANCH  28  42
ENDBRANCH  25  26
BRANCH  25  44
ATOM     44  O   UNL     1      -6.385  10.038  24.748  0.00  0.00    -0.387 OA
ATOM     45  H   UNL     1      -7.203  10.474  24.496  0.00  0.00    +0.210 HD
ENDBRANCH  25  44
ENDBRANCH   1  25
TORSDOF 15
