REMARK VINA RESULT:    -5.107      7.046     10.384
REMARK INTER + INTRA:         -10.676
REMARK INTER:                  -8.091
REMARK INTRA:                  -2.586
REMARK UNBOUND:                -1.837
REMARK  Name = lig_assembled_2.pdb
REMARK  16 active torsions:
REMARK  status: ('A' for Active; 'I' for Inactive)
REMARK    1  A    between atoms: _2  and  _9
REMARK    2  A    between atoms: _4  and  _18
REMARK    3  A    between atoms: _6  and  _7
REMARK    4  A    between atoms: _6  and  _18
REMARK    5  A    between atoms: _14  and  _34
REMARK    6  A    between atoms: _16  and  _22
REMARK    7  A    between atoms: _17  and  _21
REMARK    8  A    between atoms: _21  and  _22
REMARK    9  A    between atoms: _24  and  _25
REMARK   10  A    between atoms: _26  and  _27
REMARK   11  A    between atoms: _28  and  _30
REMARK   12  A    between atoms: _30  and  _31
REMARK   13  A    between atoms: _30  and  _32
REMARK   14  A    between atoms: _32  and  _33
REMARK   15  A    between atoms: _32  and  _34
REMARK   16  A    between atoms: _35  and  _37
REMARK                            x       y       z     vdW  Elec       q    Type
REMARK                         _______ _______ _______ _____ _____    ______ ____
ROOT
ATOM      1  C   UNL     1      -6.192   8.680  21.924  0.00  0.00    +0.163 C 
ENDROOT
BRANCH   1   2
ATOM      2  O   UNL     1      -7.307   7.828  22.235  0.00  0.00    -0.388 OA
ATOM      3  H   UNL     1      -7.971   8.331  22.712  0.00  0.00    +0.210 HD
ENDBRANCH   1   2
BRANCH   1   4
ATOM      4  C   UNL     1      -4.911   8.100  22.515  0.00  0.00    +0.141 C 
BRANCH   4   7
ATOM      5  C   UNL     1      -4.362   6.574  24.379  0.00  0.00    +0.401 C 
ATOM      6  O   UNL     1      -3.385   6.081  23.811  0.00  0.00    -0.226 OA
ATOM      7  N   UNL     1      -5.136   7.519  23.844  0.00  0.00    -0.279 N 
ATOM      8  H   UNL     1      -5.921   7.855  24.384  0.00  0.00    +0.152 HD
BRANCH   5   9
ATOM      9  O   UNL     1      -4.707   6.118  25.689  0.00  0.00    -0.444 OA
BRANCH   9  10
ATOM     10  C   UNL     1      -3.516   5.786  26.409  0.00  0.00    +0.292 C 
BRANCH  10  12
ATOM     11  N   UNL     1      -1.761   7.389  27.093  0.00  0.00    -0.131 NA
ATOM     12  C   UNL     1      -3.048   6.948  27.188  0.00  0.00    +0.121 A 
ATOM     13  C   UNL     1      -3.736   7.750  28.070  0.00  0.00    +0.143 A 
ATOM     14  N   UNL     1      -2.823   8.698  28.472  0.00  0.00    -0.220 N 
ATOM     15  N   UNL     1      -1.630   8.448  27.881  0.00  0.00    -0.060 NA
BRANCH  14  16
ATOM     16  C   UNL     1      -3.018   9.809  29.334  0.00  0.00    +0.067 A 
ATOM     17  C   UNL     1      -2.642   9.749  30.684  0.00  0.00    +0.029 A 
ATOM     18  C   UNL     1      -2.877  10.842  31.525  0.00  0.00    +0.022 A 
ATOM     19  C   UNL     1      -3.483  11.992  31.024  0.00  0.00    +0.041 A 
ATOM     20 CL   UNL     1      -3.789  13.321  32.072  0.00  0.00    -0.084 Cl
ATOM     21  C   UNL     1      -3.848  12.067  29.682  0.00  0.00    +0.022 A 
ATOM     22  C   UNL     1      -3.615  10.979  28.835  0.00  0.00    +0.029 A 
ENDBRANCH  14  16
ENDBRANCH  10  12
ENDBRANCH   9  10
ENDBRANCH   5   9
ENDBRANCH   4   7
ENDBRANCH   1   4
BRANCH   1  23
ATOM     23  C   UNL     1      -6.415  10.100  22.473  0.00  0.00    +0.175 C 
BRANCH  23  24
ATOM     24  C   UNL     1      -5.096  10.778  22.873  0.00  0.00    +0.176 C 
ATOM     25  O   UNL     1      -5.318  11.484  24.125  0.00  0.00    -0.332 OA
ATOM     26  C   UNL     1      -4.132  12.110  24.718  0.00  0.00    +0.277 C 
ATOM     27  C   UNL     1      -3.450  13.054  23.698  0.00  0.00    +0.110 C 
ATOM     28  C   UNL     1      -3.223  12.357  22.341  0.00  0.00    +0.143 C 
ATOM     29  C   UNL     1      -4.519  11.739  21.817  0.00  0.00    +0.133 C 
BRANCH  29  30
ATOM     30  N   UNL     1      -4.271  11.004  20.567  0.00  0.00    -0.308 N 
ATOM     31  H   UNL     1      -3.520  10.329  20.558  0.00  0.00    +0.149 HD
ATOM     32  C   UNL     1      -4.975  11.170  19.443  0.00  0.00    +0.210 C 
ATOM     33  C   UNL     1      -6.097  12.224  19.482  0.00  0.00    +0.109 C 
ATOM     34  O   UNL     1      -4.754  10.529  18.415  0.00  0.00    -0.276 OA
ENDBRANCH  29  30
BRANCH  26  35
ATOM     35  C   UNL     1      -3.124  11.039  25.184  0.00  0.00    +0.414 C 
ATOM     36  O   UNL     1      -3.452   9.853  25.220  0.00  0.00    -0.240 OA
ATOM     37  O   UNL     1      -1.984  11.359  25.522  0.00  0.00    -0.240 OA
ENDBRANCH  26  35
BRANCH  28  38
ATOM     38  O   UNL     1      -2.734  13.303  21.389  0.00  0.00    -0.390 OA
ATOM     39  H   UNL     1      -1.964  13.751  21.748  0.00  0.00    +0.210 HD
ENDBRANCH  28  38
BRANCH  26  40
ATOM     40  O   UNL     1      -4.564  12.900  25.856  0.00  0.00    -0.343 OA
ATOM     41  C   UNL     1      -5.998  13.090  25.960  0.00  0.00    +0.198 C 
ENDBRANCH  26  40
ENDBRANCH  23  24
BRANCH  23  42
ATOM     42  O   UNL     1      -7.315  10.062  23.598  0.00  0.00    -0.387 OA
ATOM     43  H   UNL     1      -7.106   9.304  24.150  0.00  0.00    +0.210 HD
ENDBRANCH  23  42
ENDBRANCH   1  23
TORSDOF 14
