REMARK VINA RESULT:    -5.829      3.641      6.018
REMARK INTER + INTRA:         -13.781
REMARK INTER:                 -10.652
REMARK INTRA:                  -3.129
REMARK UNBOUND:                -2.840
REMARK  Name = lig_assembled_77.pdb
REMARK  19 active torsions:
REMARK  status: ('A' for Active; 'I' for Inactive)
REMARK    1  A    between atoms: _2  and  _10
REMARK    2  A    between atoms: _3  and  _17
REMARK    3  A    between atoms: _5  and  _27
REMARK    4  A    between atoms: _7  and  _8
REMARK    5  A    between atoms: _7  and  _27
REMARK    6  A    between atoms: _13  and  _47
REMARK    7  A    between atoms: _14  and  _47
REMARK    8  A    between atoms: _23  and  _43
REMARK    9  A    between atoms: _25  and  _31
REMARK   10  A    between atoms: _26  and  _30
REMARK   11  A    between atoms: _30  and  _31
REMARK   12  A    between atoms: _33  and  _34
REMARK   13  A    between atoms: _35  and  _36
REMARK   14  A    between atoms: _37  and  _39
REMARK   15  A    between atoms: _39  and  _40
REMARK   16  A    between atoms: _39  and  _41
REMARK   17  A    between atoms: _41  and  _42
REMARK   18  A    between atoms: _41  and  _43
REMARK   19  A    between atoms: _44  and  _46
REMARK                            x       y       z     vdW  Elec       q    Type
REMARK                         _______ _______ _______ _____ _____    ______ ____
ROOT
ATOM      1  C   UNL     1      -1.867   9.287  27.381  0.00  0.00    +0.401 C 
ATOM      2  O   UNL     1      -0.982   8.788  28.080  0.00  0.00    -0.226 OA
ATOM      3  N   UNL     1      -3.171   9.081  27.570  0.00  0.00    -0.279 N 
ATOM      4  H   UNL     1      -3.822   9.542  26.950  0.00  0.00    +0.152 HD
ENDROOT
BRANCH   3   5
ATOM      5  C   UNL     1      -3.714   8.221  28.630  0.00  0.00    +0.141 C 
BRANCH   5   6
ATOM      6  C   UNL     1      -4.049   9.013  29.889  0.00  0.00    +0.163 C 
BRANCH   6   7
ATOM      7  O   UNL     1      -2.842   9.363  30.586  0.00  0.00    -0.388 OA
ATOM      8  H   UNL     1      -3.013  10.106  31.170  0.00  0.00    +0.210 HD
ENDBRANCH   6   7
BRANCH   6   9
ATOM      9  C   UNL     1      -4.848  10.271  29.507  0.00  0.00    +0.175 C 
BRANCH   9  10
ATOM     10  C   UNL     1      -4.308  11.531  30.199  0.00  0.00    +0.176 C 
ATOM     11  O   UNL     1      -4.474  11.360  31.634  0.00  0.00    -0.332 OA
ATOM     12  C   UNL     1      -3.914  12.427  32.469  0.00  0.00    +0.277 C 
ATOM     13  C   UNL     1      -4.477  13.803  32.038  0.00  0.00    +0.110 C 
ATOM     14  C   UNL     1      -4.351  14.018  30.515  0.00  0.00    +0.143 C 
ATOM     15  C   UNL     1      -4.963  12.848  29.743  0.00  0.00    +0.133 C 
BRANCH  15  16
ATOM     16  N   UNL     1      -4.760  13.023  28.296  0.00  0.00    -0.308 N 
ATOM     17  H   UNL     1      -3.810  13.041  27.952  0.00  0.00    +0.149 HD
ATOM     18  C   UNL     1      -5.749  13.160  27.409  0.00  0.00    +0.210 C 
ATOM     19  C   UNL     1      -7.184  13.155  27.968  0.00  0.00    +0.109 C 
ATOM     20  O   UNL     1      -5.549  13.290  26.200  0.00  0.00    -0.276 OA
ENDBRANCH  15  16
BRANCH  12  21
ATOM     21  C   UNL     1      -2.374  12.446  32.372  0.00  0.00    +0.414 C 
ATOM     22  O   UNL     1      -1.765  13.515  32.392  0.00  0.00    -0.240 OA
ATOM     23  O   UNL     1      -1.742  11.393  32.273  0.00  0.00    -0.240 OA
ENDBRANCH  12  21
BRANCH  14  24
ATOM     24  O   UNL     1      -5.015  15.226  30.143  0.00  0.00    -0.390 OA
ATOM     25  H   UNL     1      -5.825  15.015  29.672  0.00  0.00    +0.210 HD
ENDBRANCH  14  24
BRANCH  12  26
ATOM     26  O   UNL     1      -4.313  12.179  33.841  0.00  0.00    -0.343 OA
ATOM     27  C   UNL     1      -4.857  10.858  34.092  0.00  0.00    +0.198 C 
ENDBRANCH  12  26
ENDBRANCH   9  10
BRANCH   9  28
ATOM     28  O   UNL     1      -6.243  10.090  29.825  0.00  0.00    -0.387 OA
ATOM     29  H   UNL     1      -6.469   9.159  29.753  0.00  0.00    +0.210 HD
ENDBRANCH   9  28
ENDBRANCH   6   9
ENDBRANCH   5   6
ENDBRANCH   3   5
BRANCH   1  30
ATOM     30  O   UNL     1      -1.498  10.145  26.298  0.00  0.00    -0.444 OA
BRANCH  30  31
ATOM     31  C   UNL     1      -2.327  11.310  26.308  0.00  0.00    +0.292 C 
BRANCH  31  33
ATOM     32  N   UNL     1      -2.735  12.918  24.474  0.00  0.00    -0.131 NA
ATOM     33  C   UNL     1      -2.774  11.636  24.940  0.00  0.00    +0.121 A 
ATOM     34  C   UNL     1      -3.265  10.813  23.952  0.00  0.00    +0.143 A 
ATOM     35  N   UNL     1      -3.507  11.646  22.883  0.00  0.00    -0.220 N 
ATOM     36  N   UNL     1      -3.191  12.918  23.229  0.00  0.00    -0.060 NA
BRANCH  35  37
ATOM     37  C   UNL     1      -3.947  11.312  21.575  0.00  0.00    +0.067 A 
ATOM     38  C   UNL     1      -3.840  12.234  20.522  0.00  0.00    +0.030 A 
ATOM     39  C   UNL     1      -4.388  11.934  19.271  0.00  0.00    +0.029 A 
ATOM     40  C   UNL     1      -5.037  10.713  19.073  0.00  0.00    +0.094 A 
ATOM     41  C   UNL     1      -5.068   9.752  20.087  0.00  0.00    +0.029 A 
ATOM     42  C   UNL     1      -4.534  10.057  21.342  0.00  0.00    +0.030 A 
BRANCH  40  43
ATOM     43  S   UNL     1      -5.795  10.362  17.500  0.00  0.00    +0.025 S 
ATOM     44  O   UNL     1      -6.730   9.275  17.735  0.00  0.00    -0.164 OA
ATOM     45  O   UNL     1      -6.251  11.624  16.948  0.00  0.00    -0.164 OA
BRANCH  43  46
ATOM     46  C   UNL     1      -4.550   9.748  16.384  0.00  0.00    +0.094 A 
ATOM     47  C   UNL     1      -4.303   8.380  16.266  0.00  0.00    +0.029 A 
ATOM     48  C   UNL     1      -3.275   7.935  15.426  0.00  0.00    +0.024 A 
ATOM     49  C   UNL     1      -2.521   8.839  14.666  0.00  0.00    +0.025 A 
ATOM     50  C   UNL     1      -2.763  10.208  14.820  0.00  0.00    +0.024 A 
ATOM     51  C   UNL     1      -3.785  10.665  15.657  0.00  0.00    +0.029 A 
BRANCH  49  52
ATOM     52  N   UNL     1      -1.392   8.401  13.967  0.00  0.00    -0.358 N 
ATOM     53  H   UNL     1      -0.850   9.140  13.531  0.00  0.00    +0.142 HD
ATOM     54  H   UNL     1      -0.813   7.743  14.477  0.00  0.00    +0.142 HD
ENDBRANCH  49  52
ENDBRANCH  43  46
ENDBRANCH  40  43
ENDBRANCH  35  37
ENDBRANCH  31  33
ENDBRANCH  30  31
ENDBRANCH   1  30
TORSDOF 17
