REMARK VINA RESULT:    -5.818      3.118      6.087
REMARK INTER + INTRA:         -14.317
REMARK INTER:                 -10.752
REMARK INTRA:                  -3.565
REMARK UNBOUND:                -3.396
REMARK  Name = lig_assembled_34.pdb
REMARK  19 active torsions:
REMARK  status: ('A' for Active; 'I' for Inactive)
REMARK    1  A    between atoms: _2  and  _9
REMARK    2  A    between atoms: _4  and  _37
REMARK    3  A    between atoms: _6  and  _7
REMARK    4  A    between atoms: _6  and  _37
REMARK    5  A    between atoms: _11  and  _12
REMARK    6  A    between atoms: _13  and  _14
REMARK    7  A    between atoms: _18  and  _31
REMARK    8  A    between atoms: _33  and  _53
REMARK    9  A    between atoms: _35  and  _41
REMARK   10  A    between atoms: _36  and  _40
REMARK   11  A    between atoms: _40  and  _41
REMARK   12  A    between atoms: _43  and  _44
REMARK   13  A    between atoms: _45  and  _46
REMARK   14  A    between atoms: _47  and  _49
REMARK   15  A    between atoms: _49  and  _50
REMARK   16  A    between atoms: _49  and  _51
REMARK   17  A    between atoms: _51  and  _52
REMARK   18  A    between atoms: _51  and  _53
REMARK   19  A    between atoms: _54  and  _56
REMARK                            x       y       z     vdW  Elec       q    Type
REMARK                         _______ _______ _______ _____ _____    ______ ____
ROOT
ATOM      1  N   UNL     1      -4.127   7.477  17.072  0.00  0.00    -0.131 NA
ATOM      2  C   UNL     1      -5.325   7.821  17.633  0.00  0.00    +0.121 A 
ATOM      3  C   UNL     1      -5.676   9.074  17.197  0.00  0.00    +0.143 A 
ATOM      4  N   UNL     1      -4.672   9.461  16.336  0.00  0.00    -0.220 N 
ATOM      5  N   UNL     1      -3.728   8.482  16.296  0.00  0.00    -0.060 NA
ENDROOT
BRANCH   4   6
ATOM      6  C   UNL     1      -4.598  10.644  15.553  0.00  0.00    +0.068 A 
ATOM      7  C   UNL     1      -5.072  10.633  14.237  0.00  0.00    +0.038 A 
ATOM      8  C   UNL     1      -4.916  11.734  13.359  0.00  0.00    +0.007 A 
ATOM      9  C   UNL     1      -4.325  12.913  13.857  0.00  0.00    -0.008 A 
ATOM     10  C   UNL     1      -3.892  12.932  15.206  0.00  0.00    +0.011 A 
ATOM     11  C   UNL     1      -4.009  11.810  16.043  0.00  0.00    +0.028 A 
BRANCH   9  12
ATOM     12  C   UNL     1      -4.042  14.137  13.038  0.00  0.00    +0.004 A 
ATOM     13  C   UNL     1      -4.940  15.156  12.915  0.00  0.00    +0.026 A 
ATOM     14  C   UNL     1      -6.276  15.113  13.521  0.00  0.00    +0.016 A 
ATOM     15  C   UNL     1      -7.207  16.035  13.233  0.00  0.00    +0.051 A 
ATOM     16  C   UNL     1      -6.900  17.156  12.312  0.00  0.00    +0.183 A 
ATOM     17  O   UNL     1      -7.761  17.970  11.989  0.00  0.00    -0.288 OA
ATOM     18  C   UNL     1      -5.502  17.301  11.858  0.00  0.00    +0.097 A 
ATOM     19  C   UNL     1      -4.584  16.379  12.172  0.00  0.00    +0.140 A 
ATOM     20  O   UNL     1      -3.260  16.631  11.842  0.00  0.00    -0.455 OA
ATOM     21  C   UNL     1      -2.358  15.603  11.926  0.00  0.00    +0.140 A 
ATOM     22  C   UNL     1      -1.061  15.883  11.494  0.00  0.00    +0.092 A 
ATOM     23  C   UNL     1      -0.112  14.873  11.496  0.00  0.00    +0.120 A 
ATOM     24  C   UNL     1      -0.464  13.574  11.847  0.00  0.00    +0.046 A 
ATOM     25  C   UNL     1      -1.765  13.312  12.289  0.00  0.00    +0.016 A 
ATOM     26  C   UNL     1      -2.713  14.341  12.394  0.00  0.00    +0.026 A 
BRANCH  23  27
ATOM     27  O   UNL     1       1.170  15.191  11.157  0.00  0.00    -0.507 OA
ATOM     28  H   UNL     1       1.154  15.552  10.256  0.00  0.00    +0.292 HD
ENDBRANCH  23  27
ENDBRANCH   9  12
BRANCH   8  29
ATOM     29  C   UNL     1      -5.334  11.515  11.919  0.00  0.00    +0.072 C 
ATOM     30  O   UNL     1      -4.408  11.180  11.112  0.00  0.00    -0.545 OA
ATOM     31  O   UNL     1      -6.537  11.749  11.601  0.00  0.00    -0.545 OA
ENDBRANCH   8  29
ENDBRANCH   4   6
BRANCH   2  32
ATOM     32  C   UNL     1      -6.055   6.925  18.550  0.00  0.00    +0.292 C 
BRANCH  32  33
ATOM     33  O   UNL     1      -6.433   7.618  19.743  0.00  0.00    -0.444 OA
BRANCH  33  34
ATOM     34  C   UNL     1      -5.936   6.913  20.883  0.00  0.00    +0.401 C 
ATOM     35  O   UNL     1      -5.020   6.102  20.733  0.00  0.00    -0.226 OA
ATOM     36  N   UNL     1      -6.505   7.187  22.058  0.00  0.00    -0.279 N 
ATOM     37  H   UNL     1      -7.244   7.876  22.081  0.00  0.00    +0.152 HD
BRANCH  36  38
ATOM     38  C   UNL     1      -6.117   6.544  23.320  0.00  0.00    +0.141 C 
BRANCH  38  39
ATOM     39  C   UNL     1      -5.575   7.552  24.328  0.00  0.00    +0.163 C 
BRANCH  39  40
ATOM     40  O   UNL     1      -4.427   7.008  24.999  0.00  0.00    -0.388 OA
ATOM     41  H   UNL     1      -4.674   6.728  25.883  0.00  0.00    +0.210 HD
ENDBRANCH  39  40
BRANCH  39  42
ATOM     42  C   UNL     1      -5.221   8.863  23.605  0.00  0.00    +0.175 C 
BRANCH  42  43
ATOM     43  C   UNL     1      -4.049   9.595  24.277  0.00  0.00    +0.176 C 
ATOM     44  O   UNL     1      -4.318   9.655  25.704  0.00  0.00    -0.332 OA
ATOM     45  C   UNL     1      -3.250  10.230  26.527  0.00  0.00    +0.277 C 
ATOM     46  C   UNL     1      -2.865  11.637  26.007  0.00  0.00    +0.110 C 
ATOM     47  C   UNL     1      -2.600  11.629  24.487  0.00  0.00    +0.143 C 
ATOM     48  C   UNL     1      -3.773  11.007  23.729  0.00  0.00    +0.133 C 
BRANCH  48  49
ATOM     49  N   UNL     1      -3.472  10.926  22.291  0.00  0.00    -0.308 N 
ATOM     50  H   UNL     1      -2.714  10.325  22.001  0.00  0.00    +0.149 HD
ATOM     51  C   UNL     1      -4.135  11.596  21.344  0.00  0.00    +0.210 C 
ATOM     52  C   UNL     1      -5.268  12.524  21.821  0.00  0.00    +0.109 C 
ATOM     53  O   UNL     1      -3.870  11.497  20.146  0.00  0.00    -0.276 OA
ENDBRANCH  48  49
BRANCH  45  54
ATOM     54  C   UNL     1      -2.005   9.319  26.522  0.00  0.00    +0.414 C 
ATOM     55  O   UNL     1      -0.880   9.806  26.629  0.00  0.00    -0.240 OA
ATOM     56  O   UNL     1      -2.125   8.098  26.410  0.00  0.00    -0.240 OA
ENDBRANCH  45  54
BRANCH  47  57
ATOM     57  O   UNL     1      -2.397  12.966  24.027  0.00  0.00    -0.390 OA
ATOM     58  H   UNL     1      -2.105  12.949  23.113  0.00  0.00    +0.210 HD
ENDBRANCH  47  57
BRANCH  45  59
ATOM     59  O   UNL     1      -3.750  10.364  27.882  0.00  0.00    -0.343 OA
ATOM     60  C   UNL     1      -4.135  11.710  28.262  0.00  0.00    +0.198 C 
ENDBRANCH  45  59
ENDBRANCH  42  43
BRANCH  42  61
ATOM     61  O   UNL     1      -6.375   9.725  23.545  0.00  0.00    -0.387 OA
ATOM     62  H   UNL     1      -7.035   9.421  24.173  0.00  0.00    +0.210 HD
ENDBRANCH  42  61
ENDBRANCH  39  42
ENDBRANCH  38  39
ENDBRANCH  36  38
ENDBRANCH  33  34
ENDBRANCH  32  33
ENDBRANCH   2  32
TORSDOF 17
