REMARK VINA RESULT:    -3.831      5.497     10.439
REMARK INTER + INTRA:         -12.387
REMARK INTER:                  -9.406
REMARK INTRA:                  -2.981
REMARK UNBOUND:                -4.638
REMARK  Name = lig_assembled_11.pdb
REMARK  22 active torsions:
REMARK  status: ('A' for Active; 'I' for Inactive)
REMARK    1  A    between atoms: _2  and  _9
REMARK    2  A    between atoms: _4  and  _21
REMARK    3  A    between atoms: _5  and  _9
REMARK    4  A    between atoms: _5  and  _13
REMARK    5  A    between atoms: _6  and  _7
REMARK    6  A    between atoms: _6  and  _21
REMARK    7  A    between atoms: _9  and  _10
REMARK    8  A    between atoms: _10  and  _11
REMARK    9  A    between atoms: _11  and  _12
REMARK   10  A    between atoms: _12  and  _15
REMARK   11  A    between atoms: _17  and  _37
REMARK   12  A    between atoms: _19  and  _25
REMARK   13  A    between atoms: _20  and  _24
REMARK   14  A    between atoms: _24  and  _25
REMARK   15  A    between atoms: _27  and  _28
REMARK   16  A    between atoms: _29  and  _30
REMARK   17  A    between atoms: _31  and  _33
REMARK   18  A    between atoms: _33  and  _34
REMARK   19  A    between atoms: _33  and  _35
REMARK   20  A    between atoms: _35  and  _36
REMARK   21  A    between atoms: _35  and  _37
REMARK   22  A    between atoms: _38  and  _40
REMARK                            x       y       z     vdW  Elec       q    Type
REMARK                         _______ _______ _______ _____ _____    ______ ____
ROOT
ATOM      1  C   UNL     1      -5.167   7.577  23.832  0.00  0.00    +0.163 C 
ENDROOT
BRANCH   1   2
ATOM      2  O   UNL     1      -3.933   7.066  24.362  0.00  0.00    -0.388 OA
ATOM      3  H   UNL     1      -3.471   7.765  24.831  0.00  0.00    +0.210 HD
ENDBRANCH   1   2
BRANCH   1   4
ATOM      4  C   UNL     1      -5.022   9.054  23.426  0.00  0.00    +0.175 C 
BRANCH   4   5
ATOM      5  C   UNL     1      -3.886   9.754  24.187  0.00  0.00    +0.176 C 
ATOM      6  O   UNL     1      -4.228   9.752  25.601  0.00  0.00    -0.332 OA
ATOM      7  C   UNL     1      -3.203  10.289  26.501  0.00  0.00    +0.277 C 
ATOM      8  C   UNL     1      -2.793  11.716  26.064  0.00  0.00    +0.110 C 
ATOM      9  C   UNL     1      -2.451  11.775  24.560  0.00  0.00    +0.143 C 
ATOM     10  C   UNL     1      -3.583  11.188  23.717  0.00  0.00    +0.133 C 
BRANCH  10  11
ATOM     11  N   UNL     1      -3.210  11.170  22.294  0.00  0.00    -0.308 N 
ATOM     12  H   UNL     1      -2.429  10.591  22.018  0.00  0.00    +0.149 HD
ATOM     13  C   UNL     1      -3.834  11.870  21.342  0.00  0.00    +0.210 C 
ATOM     14  C   UNL     1      -5.003  12.764  21.799  0.00  0.00    +0.109 C 
ATOM     15  O   UNL     1      -3.509  11.824  20.156  0.00  0.00    -0.276 OA
ENDBRANCH  10  11
BRANCH   7  16
ATOM     16  C   UNL     1      -1.958   9.377  26.519  0.00  0.00    +0.414 C 
ATOM     17  O   UNL     1      -0.835   9.864  26.638  0.00  0.00    -0.240 OA
ATOM     18  O   UNL     1      -2.078   8.156  26.414  0.00  0.00    -0.240 OA
ENDBRANCH   7  16
BRANCH   7  19
ATOM     19  O   UNL     1      -3.772  10.364  27.834  0.00  0.00    -0.343 OA
ATOM     20  C   UNL     1      -4.574  11.544  28.091  0.00  0.00    +0.198 C 
ENDBRANCH   7  19
BRANCH   9  21
ATOM     21  O   UNL     1      -2.226  13.130  24.170  0.00  0.00    -0.390 OA
ATOM     22  H   UNL     1      -1.291  13.333  24.239  0.00  0.00    +0.210 HD
ENDBRANCH   9  21
ENDBRANCH   4   5
BRANCH   4  23
ATOM     23  O   UNL     1      -6.265   9.752  23.638  0.00  0.00    -0.387 OA
ATOM     24  H   UNL     1      -6.747   9.807  22.809  0.00  0.00    +0.210 HD
ENDBRANCH   4  23
ENDBRANCH   1   4
BRANCH   1  25
ATOM     25  C   UNL     1      -5.595   6.755  22.621  0.00  0.00    +0.141 C 
BRANCH  25  28
ATOM     26  C   UNL     1      -6.040   7.382  20.272  0.00  0.00    +0.401 C 
ATOM     27  O   UNL     1      -5.353   6.473  19.801  0.00  0.00    -0.226 OA
ATOM     28  N   UNL     1      -6.204   7.592  21.579  0.00  0.00    -0.279 N 
ATOM     29  H   UNL     1      -6.779   8.370  21.869  0.00  0.00    +0.152 HD
BRANCH  26  30
ATOM     30  O   UNL     1      -6.708   8.281  19.383  0.00  0.00    -0.444 OA
BRANCH  30  31
ATOM     31  C   UNL     1      -6.387   9.629  19.736  0.00  0.00    +0.292 C 
BRANCH  31  33
ATOM     32  N   UNL     1      -6.501  11.643  18.301  0.00  0.00    -0.131 NA
ATOM     33  C   UNL     1      -5.994  10.395  18.539  0.00  0.00    +0.120 A 
ATOM     34  C   UNL     1      -5.125  10.065  17.525  0.00  0.00    +0.138 A 
ATOM     35  N   UNL     1      -5.177  11.132  16.674  0.00  0.00    -0.238 N 
ATOM     36  N   UNL     1      -5.985  12.091  17.164  0.00  0.00    -0.065 NA
BRANCH  35  37
ATOM     37  C   UNL     1      -4.413  11.413  15.463  0.00  0.00    +0.217 C 
BRANCH  37  38
ATOM     38  C   UNL     1      -3.515  10.268  15.023  0.00  0.00    +0.330 C 
ATOM     39  O   UNL     1      -2.327  10.149  15.283  0.00  0.00    -0.249 OA
BRANCH  38  40
ATOM     40  O   UNL     1      -4.145   9.329  14.272  0.00  0.00    -0.479 OA
ATOM     41  H   UNL     1      -5.079   9.140  14.486  0.00  0.00    +0.295 HD
ENDBRANCH  38  40
ENDBRANCH  37  38
BRANCH  37  42
ATOM     42  C   UNL     1      -3.662  12.753  15.558  0.00  0.00    +0.049 C 
BRANCH  42  43
ATOM     43  C   UNL     1      -3.857  13.690  14.358  0.00  0.00    +0.123 C 
BRANCH  43  44
ATOM     44  C   UNL     1      -3.050  13.221  13.169  0.00  0.00    +0.305 C 
ATOM     45  O   UNL     1      -3.490  13.084  12.040  0.00  0.00    -0.251 OA
BRANCH  44  46
ATOM     46  O   UNL     1      -1.768  12.938  13.489  0.00  0.00    -0.481 OA
ATOM     47  H   UNL     1      -1.253  12.524  12.771  0.00  0.00    +0.295 HD
ENDBRANCH  44  46
ENDBRANCH  43  44
ENDBRANCH  42  43
ENDBRANCH  37  42
ENDBRANCH  35  37
ENDBRANCH  31  33
ENDBRANCH  30  31
ENDBRANCH  26  30
ENDBRANCH  25  28
ENDBRANCH   1  25
TORSDOF 20
