REMARK VINA RESULT:    -4.465      2.988      7.277
REMARK INTER + INTRA:         -10.768
REMARK INTER:                  -7.988
REMARK INTRA:                  -2.779
REMARK UNBOUND:                -2.779
REMARK  Name = lig_assembled_39.pdb
REMARK  17 active torsions:
REMARK  status: ('A' for Active; 'I' for Inactive)
REMARK    1  A    between atoms: _2  and  _9
REMARK    2  A    between atoms: _4  and  _19
REMARK    3  A    between atoms: _6  and  _7
REMARK    4  A    between atoms: _6  and  _19
REMARK    5  A    between atoms: _9  and  _10
REMARK    6  A    between atoms: _15  and  _35
REMARK    7  A    between atoms: _17  and  _23
REMARK    8  A    between atoms: _18  and  _22
REMARK    9  A    between atoms: _22  and  _23
REMARK   10  A    between atoms: _25  and  _26
REMARK   11  A    between atoms: _27  and  _28
REMARK   12  A    between atoms: _29  and  _31
REMARK   13  A    between atoms: _31  and  _32
REMARK   14  A    between atoms: _31  and  _33
REMARK   15  A    between atoms: _33  and  _34
REMARK   16  A    between atoms: _33  and  _35
REMARK   17  A    between atoms: _36  and  _38
REMARK                            x       y       z     vdW  Elec       q    Type
REMARK                         _______ _______ _______ _____ _____    ______ ____
ROOT
ATOM      1  C   UNL     1      -4.241  10.277  28.703  0.00  0.00    +0.163 C 
ENDROOT
BRANCH   1   2
ATOM      2  O   UNL     1      -5.256  11.291  28.787  0.00  0.00    -0.388 OA
ATOM      3  H   UNL     1      -5.164  11.898  28.049  0.00  0.00    +0.210 HD
ENDBRANCH   1   2
BRANCH   1   4
ATOM      4  C   UNL     1      -3.752   9.911  30.101  0.00  0.00    +0.141 C 
BRANCH   4   7
ATOM      5  C   UNL     1      -2.717  11.171  31.957  0.00  0.00    +0.401 C 
ATOM      6  O   UNL     1      -3.335  10.566  32.837  0.00  0.00    -0.226 OA
ATOM      7  N   UNL     1      -2.855  10.934  30.652  0.00  0.00    -0.279 N 
ATOM      8  H   UNL     1      -2.312  11.490  30.006  0.00  0.00    +0.152 HD
BRANCH   5   9
ATOM      9  O   UNL     1      -1.795  12.196  32.336  0.00  0.00    -0.444 OA
BRANCH   9  10
ATOM     10  C   UNL     1      -2.406  13.056  33.301  0.00  0.00    +0.292 C 
BRANCH  10  12
ATOM     11  N   UNL     1      -2.622  14.860  31.619  0.00  0.00    -0.131 NA
ATOM     12  C   UNL     1      -3.178  14.117  32.628  0.00  0.00    +0.120 A 
ATOM     13  C   UNL     1      -4.478  14.527  32.827  0.00  0.00    +0.137 A 
ATOM     14  N   UNL     1      -4.676  15.462  31.855  0.00  0.00    -0.247 N 
ATOM     15  N   UNL     1      -3.542  15.704  31.172  0.00  0.00    -0.065 NA
BRANCH  14  16
ATOM     16  C   UNL     1      -5.924  16.110  31.477  0.00  0.00    +0.181 C 
BRANCH  16  17
ATOM     17  C   UNL     1      -6.428  15.687  30.108  0.00  0.00    -0.012 A 
ATOM     18  C   UNL     1      -6.933  14.390  29.888  0.00  0.00    +0.006 A 
ATOM     19  C   UNL     1      -7.395  13.986  28.633  0.00  0.00    +0.000 A 
ATOM     20  C   UNL     1      -7.340  14.863  27.558  0.00  0.00    +0.001 A 
ATOM     21  C   UNL     1      -6.805  16.137  27.734  0.00  0.00    +0.015 A 
ATOM     22  C   UNL     1      -6.342  16.544  28.994  0.00  0.00    +0.023 A 
ATOM     23 BR   UNL     1      -5.580  18.283  29.100  0.00  0.00    -0.050 Br
ENDBRANCH  16  17
ENDBRANCH  14  16
ENDBRANCH  10  12
ENDBRANCH   9  10
ENDBRANCH   5   9
ENDBRANCH   4   7
ENDBRANCH   1   4
BRANCH   1  24
ATOM     24  C   UNL     1      -3.053  10.758  27.852  0.00  0.00    +0.175 C 
BRANCH  24  25
ATOM     25  C   UNL     1      -3.345  10.667  26.347  0.00  0.00    +0.176 C 
ATOM     26  O   UNL     1      -4.357  11.661  26.027  0.00  0.00    -0.332 OA
ATOM     27  C   UNL     1      -4.688  11.793  24.606  0.00  0.00    +0.277 C 
ATOM     28  C   UNL     1      -5.097  10.421  24.016  0.00  0.00    +0.110 C 
ATOM     29  C   UNL     1      -4.067   9.324  24.357  0.00  0.00    +0.143 C 
ATOM     30  C   UNL     1      -3.794   9.277  25.861  0.00  0.00    +0.133 C 
BRANCH  30  31
ATOM     31  N   UNL     1      -2.748   8.288  26.164  0.00  0.00    -0.308 N 
ATOM     32  H   UNL     1      -1.807   8.487  25.855  0.00  0.00    +0.149 HD
ATOM     33  C   UNL     1      -2.960   7.144  26.821  0.00  0.00    +0.210 C 
ATOM     34  C   UNL     1      -4.410   6.857  27.255  0.00  0.00    +0.109 C 
ATOM     35  O   UNL     1      -2.061   6.341  27.073  0.00  0.00    -0.276 OA
ENDBRANCH  30  31
BRANCH  27  36
ATOM     36  C   UNL     1      -3.490  12.358  23.815  0.00  0.00    +0.414 C 
ATOM     37  O   UNL     1      -2.851  13.313  24.254  0.00  0.00    -0.240 OA
ATOM     38  O   UNL     1      -3.162  11.858  22.738  0.00  0.00    -0.240 OA
ENDBRANCH  27  36
BRANCH  27  39
ATOM     39  O   UNL     1      -5.818  12.696  24.490  0.00  0.00    -0.343 OA
ATOM     40  C   UNL     1      -6.867  12.252  23.593  0.00  0.00    +0.198 C 
ENDBRANCH  27  39
BRANCH  29  41
ATOM     41  O   UNL     1      -4.556   8.053  23.927  0.00  0.00    -0.390 OA
ATOM     42  H   UNL     1      -4.281   7.894  23.022  0.00  0.00    +0.210 HD
ENDBRANCH  29  41
ENDBRANCH  24  25
BRANCH  24  43
ATOM     43  O   UNL     1      -1.871   9.998  28.176  0.00  0.00    -0.387 OA
ATOM     44  H   UNL     1      -1.939   9.121  27.791  0.00  0.00    +0.210 HD
ENDBRANCH  24  43
ENDBRANCH   1  24
TORSDOF 15
