REMARK VINA RESULT:    -4.392     11.742     15.589
REMARK INTER + INTRA:         -10.668
REMARK INTER:                  -6.808
REMARK INTRA:                  -3.860
REMARK UNBOUND:                -3.067
REMARK  Name = lig_assembled_8.pdb
REMARK  16 active torsions:
REMARK  status: ('A' for Active; 'I' for Inactive)
REMARK    1  A    between atoms: _2  and  _9
REMARK    2  A    between atoms: _4  and  _18
REMARK    3  A    between atoms: _6  and  _7
REMARK    4  A    between atoms: _6  and  _18
REMARK    5  A    between atoms: _14  and  _34
REMARK    6  A    between atoms: _16  and  _22
REMARK    7  A    between atoms: _17  and  _21
REMARK    8  A    between atoms: _21  and  _22
REMARK    9  A    between atoms: _24  and  _25
REMARK   10  A    between atoms: _26  and  _27
REMARK   11  A    between atoms: _28  and  _30
REMARK   12  A    between atoms: _30  and  _31
REMARK   13  A    between atoms: _30  and  _32
REMARK   14  A    between atoms: _32  and  _33
REMARK   15  A    between atoms: _32  and  _34
REMARK   16  A    between atoms: _35  and  _37
REMARK                            x       y       z     vdW  Elec       q    Type
REMARK                         _______ _______ _______ _____ _____    ______ ____
ROOT
ATOM      1  C   UNL     1      -7.395  10.291  12.099  0.00  0.00    +0.163 C 
ENDROOT
BRANCH   1   2
ATOM      2  O   UNL     1      -6.498   9.282  12.591  0.00  0.00    -0.388 OA
ATOM      3  H   UNL     1      -6.884   8.856  13.360  0.00  0.00    +0.210 HD
ENDBRANCH   1   2
BRANCH   1   4
ATOM      4  C   UNL     1      -7.434  10.257  10.575  0.00  0.00    +0.141 C 
BRANCH   4   7
ATOM      5  C   UNL     1      -5.144  10.660   9.739  0.00  0.00    +0.401 C 
ATOM      6  O   UNL     1      -4.748   9.521   9.998  0.00  0.00    -0.226 OA
ATOM      7  N   UNL     1      -6.383  11.091   9.981  0.00  0.00    -0.279 N 
ATOM      8  H   UNL     1      -6.610  12.046   9.742  0.00  0.00    +0.152 HD
BRANCH   5   9
ATOM      9  O   UNL     1      -4.237  11.594   9.148  0.00  0.00    -0.444 OA
BRANCH   9  10
ATOM     10  C   UNL     1      -2.908  11.068   9.203  0.00  0.00    +0.292 C 
BRANCH  10  12
ATOM     11  N   UNL     1      -1.993  11.818  11.369  0.00  0.00    -0.131 NA
ATOM     12  C   UNL     1      -2.045  11.944  10.017  0.00  0.00    +0.121 A 
ATOM     13  C   UNL     1      -1.198  12.957   9.632  0.00  0.00    +0.143 A 
ATOM     14  N   UNL     1      -0.617  13.419  10.801  0.00  0.00    -0.219 N 
ATOM     15  N   UNL     1      -1.134  12.714  11.832  0.00  0.00    -0.060 NA
BRANCH  14  16
ATOM     16  C   UNL     1       0.370  14.442  10.951  0.00  0.00    +0.081 A 
ATOM     17  C   UNL     1       1.655  14.209  10.411  0.00  0.00    +0.029 A 
ATOM     18  C   UNL     1       2.682  15.149  10.535  0.00  0.00    +0.002 A 
ATOM     19  C   UNL     1       2.452  16.344  11.198  0.00  0.00    +0.001 A 
ATOM     20  C   UNL     1       1.192  16.600  11.731  0.00  0.00    +0.017 A 
ATOM     21  C   UNL     1       0.145  15.665  11.614  0.00  0.00    +0.043 A 
ATOM     22 BR   UNL     1      -1.484  16.242  12.417  0.00  0.00    -0.048 Br
ENDBRANCH  14  16
ENDBRANCH  10  12
ENDBRANCH   9  10
ENDBRANCH   5   9
ENDBRANCH   4   7
ENDBRANCH   1   4
BRANCH   1  23
ATOM     23  C   UNL     1      -6.962  11.690  12.570  0.00  0.00    +0.175 C 
BRANCH  23  24
ATOM     24  C   UNL     1      -5.703  11.639  13.448  0.00  0.00    +0.176 C 
ATOM     25  O   UNL     1      -6.113  11.293  14.799  0.00  0.00    -0.332 OA
ATOM     26  C   UNL     1      -5.024  11.095  15.761  0.00  0.00    +0.277 C 
ATOM     27  C   UNL     1      -4.100  12.337  15.796  0.00  0.00    +0.110 C 
ATOM     28  C   UNL     1      -3.664  12.763  14.379  0.00  0.00    +0.143 C 
ATOM     29  C   UNL     1      -4.874  12.938  13.461  0.00  0.00    +0.133 C 
BRANCH  29  30
ATOM     30  N   UNL     1      -4.441  13.258  12.092  0.00  0.00    -0.308 N 
ATOM     31  H   UNL     1      -3.940  12.547  11.577  0.00  0.00    +0.149 HD
ATOM     32  C   UNL     1      -4.666  14.426  11.485  0.00  0.00    +0.210 C 
ATOM     33  C   UNL     1      -5.408  15.498  12.305  0.00  0.00    +0.109 C 
ATOM     34  O   UNL     1      -4.304  14.661  10.332  0.00  0.00    -0.276 OA
ENDBRANCH  29  30
BRANCH  26  35
ATOM     35  C   UNL     1      -4.194   9.846  15.398  0.00  0.00    +0.414 C 
ATOM     36  O   UNL     1      -2.975   9.841  15.564  0.00  0.00    -0.240 OA
ATOM     37  O   UNL     1      -4.744   8.843  14.939  0.00  0.00    -0.240 OA
ENDBRANCH  26  35
BRANCH  28  38
ATOM     38  O   UNL     1      -2.942  13.993  14.446  0.00  0.00    -0.390 OA
ATOM     39  H   UNL     1      -2.190  13.957  13.850  0.00  0.00    +0.210 HD
ENDBRANCH  28  38
BRANCH  26  40
ATOM     40  O   UNL     1      -5.612  10.925  17.076  0.00  0.00    -0.343 OA
ATOM     41  C   UNL     1      -7.028  11.228  17.157  0.00  0.00    +0.198 C 
ENDBRANCH  26  40
ENDBRANCH  23  24
BRANCH  23  42
ATOM     42  O   UNL     1      -8.039  12.329  13.284  0.00  0.00    -0.387 OA
ATOM     43  H   UNL     1      -8.871  12.143  12.842  0.00  0.00    +0.210 HD
ENDBRANCH  23  42
ENDBRANCH   1  23
TORSDOF 14
