REMARK VINA RESULT:    -4.221      4.568      9.176
REMARK INTER + INTRA:         -11.571
REMARK INTER:                  -9.183
REMARK INTRA:                  -2.387
REMARK UNBOUND:                -2.785
REMARK  Name = lig_assembled_54.pdb
REMARK  24 active torsions:
REMARK  status: ('A' for Active; 'I' for Inactive)
REMARK    1  A    between atoms: _2  and  _9
REMARK    2  A    between atoms: _4  and  _21
REMARK    3  A    between atoms: _5  and  _14
REMARK    4  A    between atoms: _6  and  _7
REMARK    5  A    between atoms: _6  and  _21
REMARK    6  A    between atoms: _9  and  _10
REMARK    7  A    between atoms: _10  and  _11
REMARK    8  A    between atoms: _11  and  _15
REMARK    9  A    between atoms: _11  and  _16
REMARK   10  A    between atoms: _12  and  _13
REMARK   11  A    between atoms: _12  and  _16
REMARK   12  A    between atoms: _14  and  _15
REMARK   13  A    between atoms: _17  and  _37
REMARK   14  A    between atoms: _19  and  _25
REMARK   15  A    between atoms: _20  and  _24
REMARK   16  A    between atoms: _24  and  _25
REMARK   17  A    between atoms: _27  and  _28
REMARK   18  A    between atoms: _29  and  _30
REMARK   19  A    between atoms: _31  and  _33
REMARK   20  A    between atoms: _33  and  _34
REMARK   21  A    between atoms: _33  and  _35
REMARK   22  A    between atoms: _35  and  _36
REMARK   23  A    between atoms: _35  and  _37
REMARK   24  A    between atoms: _38  and  _40
REMARK                            x       y       z     vdW  Elec       q    Type
REMARK                         _______ _______ _______ _____ _____    ______ ____
ROOT
ATOM      1  C   UNL     1      -3.082  12.174  22.760  0.00  0.00    +0.163 C 
ENDROOT
BRANCH   1   2
ATOM      2  O   UNL     1      -2.946  12.915  23.983  0.00  0.00    -0.388 OA
ATOM      3  H   UNL     1      -3.739  13.435  24.133  0.00  0.00    +0.210 HD
ENDBRANCH   1   2
BRANCH   1   4
ATOM      4  C   UNL     1      -3.754  10.814  23.012  0.00  0.00    +0.175 C 
BRANCH   4   5
ATOM      5  C   UNL     1      -3.827  10.474  24.508  0.00  0.00    +0.176 C 
ATOM      6  O   UNL     1      -3.280   9.139  24.690  0.00  0.00    -0.332 OA
ATOM      7  C   UNL     1      -3.171   8.683  26.079  0.00  0.00    +0.277 C 
ATOM      8  C   UNL     1      -4.541   8.790  26.793  0.00  0.00    +0.110 C 
ATOM      9  C   UNL     1      -5.177  10.183  26.600  0.00  0.00    +0.143 C 
ATOM     10  C   UNL     1      -5.238  10.558  25.119  0.00  0.00    +0.133 C 
BRANCH  10  11
ATOM     11  N   UNL     1      -5.765  11.922  24.954  0.00  0.00    -0.308 N 
ATOM     12  H   UNL     1      -5.307  12.668  25.458  0.00  0.00    +0.149 HD
ATOM     13  C   UNL     1      -6.808  12.237  24.183  0.00  0.00    +0.210 C 
ATOM     14  C   UNL     1      -7.501  11.073  23.449  0.00  0.00    +0.109 C 
ATOM     15  O   UNL     1      -7.219  13.391  24.052  0.00  0.00    -0.276 OA
ENDBRANCH  10  11
BRANCH   7  16
ATOM     16  C   UNL     1      -2.123   9.515  26.847  0.00  0.00    +0.414 C 
ATOM     17  O   UNL     1      -1.091   9.882  26.287  0.00  0.00    -0.240 OA
ATOM     18  O   UNL     1      -2.310   9.819  28.026  0.00  0.00    -0.240 OA
ENDBRANCH   7  16
BRANCH   9  19
ATOM     19  O   UNL     1      -6.498  10.189  27.142  0.00  0.00    -0.390 OA
ATOM     20  H   UNL     1      -6.485   9.806  28.022  0.00  0.00    +0.210 HD
ENDBRANCH   9  19
BRANCH   7  21
ATOM     21  O   UNL     1      -2.771   7.288  26.064  0.00  0.00    -0.343 OA
ATOM     22  C   UNL     1      -3.668   6.386  26.760  0.00  0.00    +0.198 C 
ENDBRANCH   7  21
ENDBRANCH   4   5
BRANCH   4  23
ATOM     23  O   UNL     1      -3.053   9.774  22.300  0.00  0.00    -0.387 OA
ATOM     24  H   UNL     1      -3.520   8.942  22.407  0.00  0.00    +0.210 HD
ENDBRANCH   4  23
ENDBRANCH   1   4
BRANCH   1  25
ATOM     25  C   UNL     1      -3.908  12.972  21.756  0.00  0.00    +0.141 C 
BRANCH  25  28
ATOM     26  C   UNL     1      -5.784  12.295  20.298  0.00  0.00    +0.401 C 
ATOM     27  O   UNL     1      -6.523  13.212  20.664  0.00  0.00    -0.226 OA
ATOM     28  N   UNL     1      -4.548  12.103  20.761  0.00  0.00    -0.279 N 
ATOM     29  H   UNL     1      -4.023  11.316  20.407  0.00  0.00    +0.152 HD
BRANCH  26  30
ATOM     30  O   UNL     1      -6.262  11.365  19.322  0.00  0.00    -0.444 OA
BRANCH  30  31
ATOM     31  C   UNL     1      -5.153  10.705  18.707  0.00  0.00    +0.292 C 
BRANCH  31  33
ATOM     32  N   UNL     1      -6.296  11.412  16.627  0.00  0.00    -0.131 NA
ATOM     33  C   UNL     1      -5.353  10.636  17.247  0.00  0.00    +0.120 A 
ATOM     34  C   UNL     1      -4.696   9.882  16.299  0.00  0.00    +0.137 A 
ATOM     35  N   UNL     1      -5.258  10.273  15.121  0.00  0.00    -0.251 N 
ATOM     36  N   UNL     1      -6.224  11.187  15.322  0.00  0.00    -0.065 NA
BRANCH  35  37
ATOM     37  C   UNL     1      -4.897   9.874  13.776  0.00  0.00    +0.150 C 
BRANCH  37  38
ATOM     38  C   UNL     1      -3.940  10.865  13.131  0.00  0.00    +0.084 C 
BRANCH  38  39
ATOM     39  C   UNL     1      -2.606  10.239  12.708  0.00  0.00    +0.252 C 
BRANCH  39  40
ATOM     40  O   UNL     1      -2.056   9.476  13.785  0.00  0.00    -0.352 OA
BRANCH  40  41
ATOM     41  C   UNL     1      -1.864   8.096  13.482  0.00  0.00    +0.159 C 
ATOM     42  C   UNL     1      -1.917   7.301  14.772  0.00  0.00    +0.034 C 
ENDBRANCH  40  41
ENDBRANCH  39  40
BRANCH  39  43
ATOM     43  O   UNL     1      -1.716  11.308  12.365  0.00  0.00    -0.352 OA
BRANCH  43  44
ATOM     44  C   UNL     1      -2.410  12.490  11.960  0.00  0.00    +0.159 C 
ATOM     45  C   UNL     1      -1.658  13.705  12.464  0.00  0.00    +0.034 C 
ENDBRANCH  43  44
ENDBRANCH  39  43
ENDBRANCH  38  39
ENDBRANCH  37  38
ENDBRANCH  35  37
ENDBRANCH  31  33
ENDBRANCH  30  31
ENDBRANCH  26  30
ENDBRANCH  25  28
ENDBRANCH   1  25
TORSDOF 20
