REMARK VINA RESULT:    -6.035      2.654     13.506
REMARK INTER + INTRA:         -14.724
REMARK INTER:                 -11.485
REMARK INTRA:                  -3.238
REMARK UNBOUND:                -3.396
REMARK  Name = lig_assembled_34.pdb
REMARK  19 active torsions:
REMARK  status: ('A' for Active; 'I' for Inactive)
REMARK    1  A    between atoms: _2  and  _9
REMARK    2  A    between atoms: _4  and  _37
REMARK    3  A    between atoms: _6  and  _7
REMARK    4  A    between atoms: _6  and  _37
REMARK    5  A    between atoms: _11  and  _12
REMARK    6  A    between atoms: _13  and  _14
REMARK    7  A    between atoms: _18  and  _31
REMARK    8  A    between atoms: _33  and  _53
REMARK    9  A    between atoms: _35  and  _41
REMARK   10  A    between atoms: _36  and  _40
REMARK   11  A    between atoms: _40  and  _41
REMARK   12  A    between atoms: _43  and  _44
REMARK   13  A    between atoms: _45  and  _46
REMARK   14  A    between atoms: _47  and  _49
REMARK   15  A    between atoms: _49  and  _50
REMARK   16  A    between atoms: _49  and  _51
REMARK   17  A    between atoms: _51  and  _52
REMARK   18  A    between atoms: _51  and  _53
REMARK   19  A    between atoms: _54  and  _56
REMARK                            x       y       z     vdW  Elec       q    Type
REMARK                         _______ _______ _______ _____ _____    ______ ____
ROOT
ATOM      1  N   UNL     1      -5.083  13.730  22.349  0.00  0.00    -0.131 NA
ATOM      2  C   UNL     1      -5.104  12.427  21.937  0.00  0.00    +0.121 A 
ATOM      3  C   UNL     1      -4.818  11.618  23.009  0.00  0.00    +0.143 A 
ATOM      4  N   UNL     1      -4.654  12.469  24.081  0.00  0.00    -0.220 N 
ATOM      5  N   UNL     1      -4.795  13.751  23.648  0.00  0.00    -0.060 NA
ENDROOT
BRANCH   4   6
ATOM      6  C   UNL     1      -4.426  12.128  25.441  0.00  0.00    +0.068 A 
ATOM      7  C   UNL     1      -5.512  11.842  26.274  0.00  0.00    +0.038 A 
ATOM      8  C   UNL     1      -5.370  11.621  27.666  0.00  0.00    +0.007 A 
ATOM      9  C   UNL     1      -4.073  11.615  28.218  0.00  0.00    -0.008 A 
ATOM     10  C   UNL     1      -2.974  11.857  27.357  0.00  0.00    +0.011 A 
ATOM     11  C   UNL     1      -3.143  12.127  25.989  0.00  0.00    +0.028 A 
BRANCH   9  12
ATOM     12  C   UNL     1      -3.767  11.450  29.676  0.00  0.00    +0.004 A 
ATOM     13  C   UNL     1      -3.474  10.238  30.228  0.00  0.00    +0.026 A 
ATOM     14  C   UNL     1      -3.494   8.989  29.457  0.00  0.00    +0.016 A 
ATOM     15  C   UNL     1      -3.389   7.793  30.055  0.00  0.00    +0.051 A 
ATOM     16  C   UNL     1      -3.213   7.696  31.524  0.00  0.00    +0.183 A 
ATOM     17  O   UNL     1      -3.181   6.608  32.091  0.00  0.00    -0.288 OA
ATOM     18  C   UNL     1      -3.003   8.954  32.268  0.00  0.00    +0.097 A 
ATOM     19  C   UNL     1      -3.092  10.137  31.649  0.00  0.00    +0.140 A 
ATOM     20  O   UNL     1      -2.749  11.279  32.359  0.00  0.00    -0.455 OA
ATOM     21  C   UNL     1      -3.074  12.500  31.831  0.00  0.00    +0.140 A 
ATOM     22  C   UNL     1      -2.792  13.611  32.625  0.00  0.00    +0.092 A 
ATOM     23  C   UNL     1      -3.147  14.874  32.178  0.00  0.00    +0.120 A 
ATOM     24  C   UNL     1      -3.849  15.029  30.988  0.00  0.00    +0.046 A 
ATOM     25  C   UNL     1      -4.114  13.907  30.197  0.00  0.00    +0.016 A 
ATOM     26  C   UNL     1      -3.672  12.632  30.580  0.00  0.00    +0.026 A 
BRANCH  23  27
ATOM     27  O   UNL     1      -2.781  15.952  32.928  0.00  0.00    -0.507 OA
ATOM     28  H   UNL     1      -3.042  16.751  32.441  0.00  0.00    +0.292 HD
ENDBRANCH  23  27
ENDBRANCH   9  12
BRANCH   8  29
ATOM     29  C   UNL     1      -6.652  11.484  28.463  0.00  0.00    +0.072 C 
ATOM     30  O   UNL     1      -7.231  12.572  28.782  0.00  0.00    -0.545 OA
ATOM     31  O   UNL     1      -7.017  10.325  28.820  0.00  0.00    -0.545 OA
ENDBRANCH   8  29
ENDBRANCH   4   6
BRANCH   2  32
ATOM     32  C   UNL     1      -5.398  12.042  20.543  0.00  0.00    +0.292 C 
BRANCH  32  33
ATOM     33  O   UNL     1      -6.491  11.121  20.491  0.00  0.00    -0.444 OA
BRANCH  33  34
ATOM     34  C   UNL     1      -6.049   9.888  19.917  0.00  0.00    +0.401 C 
ATOM     35  O   UNL     1      -5.084   9.306  20.417  0.00  0.00    -0.226 OA
ATOM     36  N   UNL     1      -6.726   9.438  18.859  0.00  0.00    -0.279 N 
ATOM     37  H   UNL     1      -7.510   9.982  18.528  0.00  0.00    +0.152 HD
BRANCH  36  38
ATOM     38  C   UNL     1      -6.396   8.196  18.150  0.00  0.00    +0.141 C 
BRANCH  38  39
ATOM     39  C   UNL     1      -5.211   8.377  17.207  0.00  0.00    +0.163 C 
BRANCH  39  40
ATOM     40  O   UNL     1      -4.192   7.409  17.506  0.00  0.00    -0.388 OA
ATOM     41  H   UNL     1      -3.688   7.218  16.711  0.00  0.00    +0.210 HD
ENDBRANCH  39  40
BRANCH  39  42
ATOM     42  C   UNL     1      -5.687   8.242  15.751  0.00  0.00    +0.175 C 
BRANCH  42  43
ATOM     43  C   UNL     1      -4.641   8.754  14.750  0.00  0.00    +0.176 C 
ATOM     44  O   UNL     1      -3.517   7.832  14.768  0.00  0.00    -0.332 OA
ATOM     45  C   UNL     1      -2.458   8.104  13.791  0.00  0.00    +0.277 C 
ATOM     46  C   UNL     1      -1.945   9.558  13.940  0.00  0.00    +0.110 C 
ATOM     47  C   UNL     1      -3.107  10.573  13.958  0.00  0.00    +0.143 C 
ATOM     48  C   UNL     1      -4.152  10.192  15.008  0.00  0.00    +0.133 C 
BRANCH  48  49
ATOM     49  N   UNL     1      -5.295  11.116  14.956  0.00  0.00    -0.308 N 
ATOM     50  H   UNL     1      -5.895  11.080  14.144  0.00  0.00    +0.149 HD
ATOM     51  C   UNL     1      -5.592  12.001  15.912  0.00  0.00    +0.210 C 
ATOM     52  C   UNL     1      -4.643  12.050  17.125  0.00  0.00    +0.109 C 
ATOM     53  O   UNL     1      -6.565  12.753  15.849  0.00  0.00    -0.276 OA
ENDBRANCH  48  49
BRANCH  45  54
ATOM     54  C   UNL     1      -2.971   7.883  12.353  0.00  0.00    +0.414 C 
ATOM     55  O   UNL     1      -2.726   8.709  11.473  0.00  0.00    -0.240 OA
ATOM     56  O   UNL     1      -3.628   6.881  12.072  0.00  0.00    -0.240 OA
ENDBRANCH  45  54
BRANCH  47  57
ATOM     57  O   UNL     1      -2.603  11.877  14.248  0.00  0.00    -0.390 OA
ATOM     58  H   UNL     1      -2.076  11.846  15.049  0.00  0.00    +0.210 HD
ENDBRANCH  47  57
BRANCH  45  59
ATOM     59  O   UNL     1      -1.355   7.201  14.060  0.00  0.00    -0.343 OA
ATOM     60  C   UNL     1      -0.980   7.092  15.457  0.00  0.00    +0.198 C 
ENDBRANCH  45  59
ENDBRANCH  42  43
BRANCH  42  61
ATOM     61  O   UNL     1      -6.934   8.944  15.569  0.00  0.00    -0.387 OA
ATOM     62  H   UNL     1      -7.037   9.598  16.264  0.00  0.00    +0.210 HD
ENDBRANCH  42  61
ENDBRANCH  39  42
ENDBRANCH  38  39
ENDBRANCH  36  38
ENDBRANCH  33  34
ENDBRANCH  32  33
ENDBRANCH   2  32
TORSDOF 17
