REMARK VINA RESULT:    -4.299      3.279      6.147
REMARK INTER + INTRA:         -11.371
REMARK INTER:                  -7.692
REMARK INTRA:                  -3.679
REMARK UNBOUND:                -3.679
REMARK  Name = lig_assembled_0.pdb
REMARK  17 active torsions:
REMARK  status: ('A' for Active; 'I' for Inactive)
REMARK    1  A    between atoms: _2  and  _10
REMARK    2  A    between atoms: _5  and  _21
REMARK    3  A    between atoms: _7  and  _8
REMARK    4  A    between atoms: _7  and  _21
REMARK    5  A    between atoms: _11  and  _12
REMARK    6  A    between atoms: _17  and  _37
REMARK    7  A    between atoms: _19  and  _25
REMARK    8  A    between atoms: _20  and  _24
REMARK    9  A    between atoms: _24  and  _25
REMARK   10  A    between atoms: _27  and  _28
REMARK   11  A    between atoms: _29  and  _30
REMARK   12  A    between atoms: _31  and  _33
REMARK   13  A    between atoms: _33  and  _34
REMARK   14  A    between atoms: _33  and  _35
REMARK   15  A    between atoms: _35  and  _36
REMARK   16  A    between atoms: _35  and  _37
REMARK   17  A    between atoms: _38  and  _40
REMARK                            x       y       z     vdW  Elec       q    Type
REMARK                         _______ _______ _______ _____ _____    ______ ____
ROOT
ATOM      1  C   UNL     1      -2.104  10.088  27.150  0.00  0.00    +0.163 C 
ENDROOT
BRANCH   1   2
ATOM      2  O   UNL     1      -2.346   9.438  25.891  0.00  0.00    -0.388 OA
ATOM      3  H   UNL     1      -2.847  10.025  25.319  0.00  0.00    +0.210 HD
ENDBRANCH   1   2
BRANCH   1   4
ATOM      4  C   UNL     1      -1.769   9.051  28.217  0.00  0.00    +0.141 C 
BRANCH   4   7
ATOM      5  C   UNL     1      -2.922   7.936  30.097  0.00  0.00    +0.401 C 
ATOM      6  O   UNL     1      -2.137   6.986  30.138  0.00  0.00    -0.226 OA
ATOM      7  N   UNL     1      -2.829   8.943  29.227  0.00  0.00    -0.279 N 
ATOM      8  H   UNL     1      -3.527   9.672  29.265  0.00  0.00    +0.152 HD
BRANCH   5   9
ATOM      9  O   UNL     1      -4.008   7.980  31.026  0.00  0.00    -0.444 OA
BRANCH   9  10
ATOM     10  C   UNL     1      -3.499   8.186  32.346  0.00  0.00    +0.292 C 
BRANCH  10  12
ATOM     11  N   UNL     1      -3.414   9.980  34.038  0.00  0.00    -0.131 NA
ATOM     12  C   UNL     1      -3.740   9.576  32.778  0.00  0.00    +0.121 A 
ATOM     13  C   UNL     1      -4.259  10.644  32.082  0.00  0.00    +0.143 A 
ATOM     14  N   UNL     1      -4.321  11.672  32.995  0.00  0.00    -0.219 N 
ATOM     15  N   UNL     1      -3.721  11.263  34.146  0.00  0.00    -0.060 NA
BRANCH  14  16
ATOM     16  C   UNL     1      -4.777  13.014  32.856  0.00  0.00    +0.079 A 
ATOM     17  C   UNL     1      -3.962  14.107  32.500  0.00  0.00    +0.062 A 
ATOM     18  C   UNL     1      -4.539  15.394  32.440  0.00  0.00    +0.015 A 
ATOM     19  C   UNL     1      -5.886  15.602  32.739  0.00  0.00    +0.001 A 
ATOM     20  C   UNL     1      -6.691  14.524  33.075  0.00  0.00    +0.002 A 
ATOM     21  C   UNL     1      -6.147  13.240  33.122  0.00  0.00    +0.028 A 
BRANCH  17  22
ATOM     22  C   UNL     1      -2.566  13.979  31.997  0.00  0.00    +0.244 C 
ATOM     23  O   UNL     1      -1.598  14.005  32.742  0.00  0.00    -0.270 OA
ATOM     24  N   UNL     1      -2.391  13.788  30.652  0.00  0.00    -0.325 N 
ATOM     25  H   UNL     1      -1.442  13.650  30.326  0.00  0.00    +0.145 HD
ATOM     26  H   UNL     1      -3.137  13.740  29.974  0.00  0.00    +0.145 HD
ENDBRANCH  17  22
ENDBRANCH  14  16
ENDBRANCH  10  12
ENDBRANCH   9  10
ENDBRANCH   5   9
ENDBRANCH   4   7
ENDBRANCH   1   4
BRANCH   1  27
ATOM     27  C   UNL     1      -3.331  10.903  27.593  0.00  0.00    +0.175 C 
BRANCH  27  28
ATOM     28  C   UNL     1      -4.155  11.403  26.398  0.00  0.00    +0.176 C 
ATOM     29  O   UNL     1      -3.260  12.126  25.509  0.00  0.00    -0.332 OA
ATOM     30  C   UNL     1      -3.854  12.590  24.251  0.00  0.00    +0.277 C 
ATOM     31  C   UNL     1      -5.115  13.444  24.531  0.00  0.00    +0.110 C 
ATOM     32  C   UNL     1      -6.083  12.730  25.497  0.00  0.00    +0.143 C 
ATOM     33  C   UNL     1      -5.360  12.287  26.770  0.00  0.00    +0.133 C 
BRANCH  33  34
ATOM     34  N   UNL     1      -6.272  11.532  27.644  0.00  0.00    -0.308 N 
ATOM     35  H   UNL     1      -6.655  10.667  27.291  0.00  0.00    +0.149 HD
ATOM     36  C   UNL     1      -6.626  11.916  28.874  0.00  0.00    +0.210 C 
ATOM     37  C   UNL     1      -6.046  13.253  29.373  0.00  0.00    +0.109 C 
ATOM     38  O   UNL     1      -7.380  11.256  29.589  0.00  0.00    -0.276 OA
ENDBRANCH  33  34
BRANCH  30  39
ATOM     39  C   UNL     1      -4.229  11.396  23.350  0.00  0.00    +0.414 C 
ATOM     40  O   UNL     1      -3.509  10.399  23.309  0.00  0.00    -0.240 OA
ATOM     41  O   UNL     1      -5.252  11.429  22.664  0.00  0.00    -0.240 OA
ENDBRANCH  30  39
BRANCH  32  42
ATOM     42  O   UNL     1      -7.152  13.610  25.845  0.00  0.00    -0.390 OA
ATOM     43  H   UNL     1      -7.990  13.208  25.604  0.00  0.00    +0.210 HD
ENDBRANCH  32  42
BRANCH  30  44
ATOM     44  O   UNL     1      -2.878  13.424  23.575  0.00  0.00    -0.343 OA
ATOM     45  C   UNL     1      -3.432  14.364  22.619  0.00  0.00    +0.198 C 
ENDBRANCH  30  44
ENDBRANCH  27  28
BRANCH  27  46
ATOM     46  O   UNL     1      -2.919  12.015  28.413  0.00  0.00    -0.387 OA
ATOM     47  H   UNL     1      -2.972  11.768  29.339  0.00  0.00    +0.210 HD
ENDBRANCH  27  46
ENDBRANCH   1  27
TORSDOF 15
