REMARK VINA RESULT:    -4.917      5.422      7.550
REMARK INTER + INTRA:         -11.304
REMARK INTER:                  -9.402
REMARK INTRA:                  -1.901
REMARK UNBOUND:                -2.363
REMARK  Name = lig_assembled_59.pdb
REMARK  18 active torsions:
REMARK  status: ('A' for Active; 'I' for Inactive)
REMARK    1  A    between atoms: _2  and  _10
REMARK    2  A    between atoms: _5  and  _20
REMARK    3  A    between atoms: _7  and  _8
REMARK    4  A    between atoms: _7  and  _20
REMARK    5  A    between atoms: _13  and  _14
REMARK    6  A    between atoms: _14  and  _15
REMARK    7  A    between atoms: _16  and  _36
REMARK    8  A    between atoms: _18  and  _24
REMARK    9  A    between atoms: _19  and  _23
REMARK   10  A    between atoms: _23  and  _24
REMARK   11  A    between atoms: _26  and  _27
REMARK   12  A    between atoms: _28  and  _29
REMARK   13  A    between atoms: _30  and  _32
REMARK   14  A    between atoms: _32  and  _33
REMARK   15  A    between atoms: _32  and  _34
REMARK   16  A    between atoms: _34  and  _35
REMARK   17  A    between atoms: _34  and  _36
REMARK   18  A    between atoms: _37  and  _39
REMARK                            x       y       z     vdW  Elec       q    Type
REMARK                         _______ _______ _______ _____ _____    ______ ____
ROOT
ATOM      1  C   UNL     1      -5.250  10.049  18.644  0.00  0.00    +0.163 C 
ENDROOT
BRANCH   1   2
ATOM      2  O   UNL     1      -4.799   9.230  19.735  0.00  0.00    -0.388 OA
ATOM      3  H   UNL     1      -4.484   9.792  20.447  0.00  0.00    +0.210 HD
ENDBRANCH   1   2
BRANCH   1   4
ATOM      4  C   UNL     1      -5.952   9.198  17.571  0.00  0.00    +0.175 C 
BRANCH   4   5
ATOM      5  C   UNL     1      -4.972   8.687  16.505  0.00  0.00    +0.176 C 
ATOM      6  O   UNL     1      -4.110   7.696  17.129  0.00  0.00    -0.332 OA
ATOM      7  C   UNL     1      -3.172   7.017  16.230  0.00  0.00    +0.277 C 
ATOM      8  C   UNL     1      -2.310   8.051  15.465  0.00  0.00    +0.110 C 
ATOM      9  C   UNL     1      -3.181   9.145  14.811  0.00  0.00    +0.143 C 
ATOM     10  C   UNL     1      -4.121   9.782  15.835  0.00  0.00    +0.133 C 
BRANCH  10  11
ATOM     11  N   UNL     1      -5.006  10.761  15.183  0.00  0.00    -0.308 N 
ATOM     12  H   UNL     1      -5.715  10.410  14.554  0.00  0.00    +0.149 HD
ATOM     13  C   UNL     1      -4.932  12.082  15.367  0.00  0.00    +0.210 C 
ATOM     14  C   UNL     1      -3.824  12.586  16.310  0.00  0.00    +0.109 C 
ATOM     15  O   UNL     1      -5.696  12.877  14.818  0.00  0.00    -0.276 OA
ENDBRANCH  10  11
BRANCH   7  16
ATOM     16  C   UNL     1      -3.927   6.127  15.221  0.00  0.00    +0.414 C 
ATOM     17  O   UNL     1      -4.922   5.496  15.574  0.00  0.00    -0.240 OA
ATOM     18  O   UNL     1      -3.542   6.041  14.054  0.00  0.00    -0.240 OA
ENDBRANCH   7  16
BRANCH   7  19
ATOM     19  O   UNL     1      -2.290   6.196  17.039  0.00  0.00    -0.343 OA
ATOM     20  C   UNL     1      -0.904   6.184  16.614  0.00  0.00    +0.198 C 
ENDBRANCH   7  19
BRANCH   9  21
ATOM     21  O   UNL     1      -2.343  10.155  14.249  0.00  0.00    -0.390 OA
ATOM     22  H   UNL     1      -2.644  10.364  13.362  0.00  0.00    +0.210 HD
ENDBRANCH   9  21
ENDBRANCH   4   5
BRANCH   4  23
ATOM     23  O   UNL     1      -7.011   9.955  16.951  0.00  0.00    -0.387 OA
ATOM     24  H   UNL     1      -6.646  10.749  16.553  0.00  0.00    +0.210 HD
ENDBRANCH   4  23
ENDBRANCH   1   4
BRANCH   1  25
ATOM     25  C   UNL     1      -6.211  11.117  19.155  0.00  0.00    +0.141 C 
BRANCH  25  28
ATOM     26  C   UNL     1      -5.691  11.707  21.498  0.00  0.00    +0.401 C 
ATOM     27  O   UNL     1      -6.314  10.755  21.974  0.00  0.00    -0.226 OA
ATOM     28  N   UNL     1      -5.595  11.956  20.191  0.00  0.00    -0.279 N 
ATOM     29  H   UNL     1      -5.070  12.767  19.897  0.00  0.00    +0.152 HD
BRANCH  26  30
ATOM     30  O   UNL     1      -5.026  12.614  22.381  0.00  0.00    -0.444 OA
BRANCH  30  31
ATOM     31  C   UNL     1      -3.662  12.216  22.536  0.00  0.00    +0.292 C 
BRANCH  31  33
ATOM     32  N   UNL     1      -3.006  10.299  23.952  0.00  0.00    -0.131 NA
ATOM     33  C   UNL     1      -3.459  11.585  23.854  0.00  0.00    +0.121 A 
ATOM     34  C   UNL     1      -3.662  12.088  25.118  0.00  0.00    +0.145 A 
ATOM     35  N   UNL     1      -3.313  11.062  25.966  0.00  0.00    -0.202 N 
ATOM     36  N   UNL     1      -2.915   9.988  25.238  0.00  0.00    -0.059 NA
BRANCH  35  37
ATOM     37  C   UNL     1      -3.357  11.063  27.386  0.00  0.00    +0.156 A 
ATOM     38  C   UNL     1      -3.890  12.169  28.047  0.00  0.00    +0.048 A 
ATOM     39  C   UNL     1      -3.892  12.180  29.441  0.00  0.00    +0.011 A 
ATOM     40  C   UNL     1      -3.372  11.095  30.149  0.00  0.00    -0.004 A 
ATOM     41  C   UNL     1      -2.862  10.035  29.404  0.00  0.00    +0.119 A 
ATOM     42  N   UNL     1      -2.851   9.988  28.050  0.00  0.00    -0.236 NA
BRANCH  40  43
ATOM     43  C   UNL     1      -3.280  11.128  31.646  0.00  0.00    +0.192 C 
BRANCH  43  44
ATOM     44  O   UNL     1      -1.935  11.007  32.084  0.00  0.00    -0.390 OA
ATOM     45  H   UNL     1      -1.944  11.100  33.054  0.00  0.00    +0.210 HD
ENDBRANCH  43  44
ENDBRANCH  40  43
ENDBRANCH  35  37
ENDBRANCH  31  33
ENDBRANCH  30  31
ENDBRANCH  26  30
ENDBRANCH  25  28
ENDBRANCH   1  25
TORSDOF 16
