REMARK VINA RESULT:    -4.723      7.615     12.415
REMARK INTER + INTRA:         -10.233
REMARK INTER:                  -7.120
REMARK INTRA:                  -3.113
REMARK UNBOUND:                -2.334
REMARK  Name = lig_assembled_65.pdb
REMARK  16 active torsions:
REMARK  status: ('A' for Active; 'I' for Inactive)
REMARK    1  A    between atoms: _8  and  _20
REMARK    2  A    between atoms: _9  and  _15
REMARK    3  A    between atoms: _10  and  _11
REMARK    4  A    between atoms: _10  and  _20
REMARK    5  A    between atoms: _16  and  _36
REMARK    6  A    between atoms: _18  and  _24
REMARK    7  A    between atoms: _19  and  _23
REMARK    8  A    between atoms: _23  and  _24
REMARK    9  A    between atoms: _26  and  _27
REMARK   10  A    between atoms: _28  and  _29
REMARK   11  A    between atoms: _30  and  _32
REMARK   12  A    between atoms: _32  and  _33
REMARK   13  A    between atoms: _32  and  _34
REMARK   14  A    between atoms: _34  and  _35
REMARK   15  A    between atoms: _34  and  _36
REMARK   16  A    between atoms: _37  and  _39
REMARK                            x       y       z     vdW  Elec       q    Type
REMARK                         _______ _______ _______ _____ _____    ______ ____
ROOT
ATOM      1  C   UNL     1      -3.286  11.809  25.035  0.00  0.00    +0.163 C 
ENDROOT
BRANCH   1   2
ATOM      2  O   UNL     1      -2.015  11.234  25.379  0.00  0.00    -0.388 OA
ATOM      3  H   UNL     1      -2.141  10.326  25.664  0.00  0.00    +0.210 HD
ENDBRANCH   1   2
BRANCH   1   4
ATOM      4  C   UNL     1      -3.082  13.163  24.364  0.00  0.00    +0.141 C 
BRANCH   4   7
ATOM      5  C   UNL     1      -4.955  13.677  22.837  0.00  0.00    +0.401 C 
ATOM      6  O   UNL     1      -5.697  14.087  23.733  0.00  0.00    -0.226 OA
ATOM      7  N   UNL     1      -3.719  13.221  23.042  0.00  0.00    -0.279 N 
ATOM      8  H   UNL     1      -3.191  12.897  22.244  0.00  0.00    +0.152 HD
BRANCH   5   9
ATOM      9  O   UNL     1      -5.430  13.677  21.488  0.00  0.00    -0.444 OA
BRANCH   9  10
ATOM     10  C   UNL     1      -6.293  12.555  21.285  0.00  0.00    +0.292 C 
BRANCH  10  12
ATOM     11  N   UNL     1      -4.353  11.051  20.954  0.00  0.00    -0.131 NA
ATOM     12  C   UNL     1      -5.567  11.296  21.536  0.00  0.00    +0.121 A 
ATOM     13  C   UNL     1      -5.914  10.219  22.317  0.00  0.00    +0.149 A 
ATOM     14  N   UNL     1      -4.874   9.326  22.174  0.00  0.00    -0.155 N 
ATOM     15  C   UNL     1      -4.759   8.036  22.771  0.00  0.00    +0.416 C 
ATOM     16  N   UNL     1      -3.666   7.307  22.517  0.00  0.00    +0.041 NA
ATOM     17  C   UNL     1      -3.639   6.109  23.096  0.00  0.00    +0.339 C 
ATOM     18  C   UNL     1      -2.447   5.241  22.838  0.00  0.00    +0.149 C 
ATOM     19  N   UNL     1      -4.604   5.626  23.878  0.00  0.00    +0.007 NA
ATOM     20  C   UNL     1      -5.647   6.421  24.055  0.00  0.00    +0.386 C 
ATOM     21  N   UNL     1      -6.674   5.954  24.849  0.00  0.00    -0.296 N 
ATOM     22  H   UNL     1      -6.343   5.230  25.472  0.00  0.00    +0.148 HD
ATOM     23  H   UNL     1      -7.199   6.715  25.255  0.00  0.00    +0.148 HD
ATOM     24  N   UNL     1      -5.774   7.635  23.551  0.00  0.00    -0.290 NA
ATOM     25  N   UNL     1      -3.935   9.854  21.349  0.00  0.00    -0.055 NA
ENDBRANCH  10  12
ENDBRANCH   9  10
ENDBRANCH   5   9
ENDBRANCH   4   7
ENDBRANCH   1   4
BRANCH   1  26
ATOM     26  C   UNL     1      -4.167  11.983  26.284  0.00  0.00    +0.175 C 
BRANCH  26  27
ATOM     27  C   UNL     1      -3.878  10.913  27.348  0.00  0.00    +0.176 C 
ATOM     28  O   UNL     1      -3.817   9.623  26.680  0.00  0.00    -0.332 OA
ATOM     29  C   UNL     1      -3.443   8.487  27.528  0.00  0.00    +0.277 C 
ATOM     30  C   UNL     1      -4.383   8.396  28.755  0.00  0.00    +0.110 C 
ATOM     31  C   UNL     1      -4.505   9.753  29.480  0.00  0.00    +0.143 C 
ATOM     32  C   UNL     1      -4.895  10.864  28.504  0.00  0.00    +0.133 C 
BRANCH  32  33
ATOM     33  N   UNL     1      -4.923  12.166  29.189  0.00  0.00    -0.308 N 
ATOM     34  H   UNL     1      -4.047  12.543  29.522  0.00  0.00    +0.149 HD
ATOM     35  C   UNL     1      -6.031  12.881  29.401  0.00  0.00    +0.210 C 
ATOM     36  C   UNL     1      -7.354  12.267  28.905  0.00  0.00    +0.109 C 
ATOM     37  O   UNL     1      -6.023  13.976  29.965  0.00  0.00    -0.276 OA
ENDBRANCH  32  33
BRANCH  29  38
ATOM     38  C   UNL     1      -1.982   8.618  28.005  0.00  0.00    +0.414 C 
ATOM     39  O   UNL     1      -1.620   8.078  29.050  0.00  0.00    -0.240 OA
ATOM     40  O   UNL     1      -1.166   9.264  27.347  0.00  0.00    -0.240 OA
ENDBRANCH  29  38
BRANCH  29  41
ATOM     41  O   UNL     1      -3.594   7.275  26.745  0.00  0.00    -0.343 OA
ATOM     42  C   UNL     1      -4.083   6.127  27.484  0.00  0.00    +0.198 C 
ENDBRANCH  29  41
BRANCH  31  43
ATOM     43  O   UNL     1      -5.493   9.663  30.508  0.00  0.00    -0.390 OA
ATOM     44  H   UNL     1      -6.360   9.836  30.136  0.00  0.00    +0.210 HD
ENDBRANCH  31  43
ENDBRANCH  26  27
BRANCH  26  45
ATOM     45  O   UNL     1      -5.560  11.955  25.917  0.00  0.00    -0.387 OA
ATOM     46  H   UNL     1      -6.000  12.734  26.268  0.00  0.00    +0.210 HD
ENDBRANCH  26  45
ENDBRANCH   1  26
TORSDOF 13
