REMARK VINA RESULT:    -5.175      3.118      7.544
REMARK INTER + INTRA:         -11.848
REMARK INTER:                  -8.181
REMARK INTRA:                  -3.667
REMARK UNBOUND:                -2.589
REMARK  Name = lig_assembled_82.pdb
REMARK  19 active torsions:
REMARK  status: ('A' for Active; 'I' for Inactive)
REMARK    1  A    between atoms: _2  and  _9
REMARK    2  A    between atoms: _4  and  _22
REMARK    3  A    between atoms: _5  and  _16
REMARK    4  A    between atoms: _6  and  _7
REMARK    5  A    between atoms: _6  and  _22
REMARK    6  A    between atoms: _9  and  _10
REMARK    7  A    between atoms: _16  and  _17
REMARK    8  A    between atoms: _18  and  _38
REMARK    9  A    between atoms: _20  and  _26
REMARK   10  A    between atoms: _21  and  _25
REMARK   11  A    between atoms: _25  and  _26
REMARK   12  A    between atoms: _28  and  _29
REMARK   13  A    between atoms: _30  and  _31
REMARK   14  A    between atoms: _32  and  _34
REMARK   15  A    between atoms: _34  and  _35
REMARK   16  A    between atoms: _34  and  _36
REMARK   17  A    between atoms: _36  and  _37
REMARK   18  A    between atoms: _36  and  _38
REMARK   19  A    between atoms: _39  and  _41
REMARK                            x       y       z     vdW  Elec       q    Type
REMARK                         _______ _______ _______ _____ _____    ______ ____
ROOT
ATOM      1  C   UNL     1      -2.989  11.211  22.709  0.00  0.00    +0.163 C 
ENDROOT
BRANCH   1   2
ATOM      2  O   UNL     1      -2.473  11.929  23.843  0.00  0.00    -0.388 OA
ATOM      3  H   UNL     1      -2.242  12.823  23.578  0.00  0.00    +0.210 HD
ENDBRANCH   1   2
BRANCH   1   4
ATOM      4  C   UNL     1      -3.513  12.192  21.665  0.00  0.00    +0.141 C 
BRANCH   4   7
ATOM      5  C   UNL     1      -4.105  14.409  22.581  0.00  0.00    +0.401 C 
ATOM      6  O   UNL     1      -2.969  14.872  22.448  0.00  0.00    -0.226 OA
ATOM      7  N   UNL     1      -4.446  13.164  22.247  0.00  0.00    -0.279 N 
ATOM      8  H   UNL     1      -5.401  12.873  22.403  0.00  0.00    +0.152 HD
BRANCH   5   9
ATOM      9  O   UNL     1      -5.133  15.238  23.129  0.00  0.00    -0.444 OA
BRANCH   9  10
ATOM     10  C   UNL     1      -6.219  14.422  23.574  0.00  0.00    +0.292 C 
BRANCH  10  12
ATOM     11  N   UNL     1      -4.968  13.287  25.382  0.00  0.00    -0.131 NA
ATOM     12  C   UNL     1      -6.046  14.039  24.978  0.00  0.00    +0.120 A 
ATOM     13  C   UNL     1      -6.834  14.302  26.084  0.00  0.00    +0.137 A 
ATOM     14  N   UNL     1      -6.253  13.579  27.088  0.00  0.00    -0.247 N 
ATOM     15  N   UNL     1      -5.086  13.047  26.680  0.00  0.00    -0.065 NA
BRANCH  14  16
ATOM     16  C   UNL     1      -6.786  13.274  28.418  0.00  0.00    +0.176 C 
BRANCH  16  17
ATOM     17  C   UNL     1      -6.034  13.980  29.520  0.00  0.00    -0.049 C 
ATOM     18  C   UNL     1      -5.455  13.142  30.615  0.00  0.00    +0.023 C 
ATOM     19  C   UNL     1      -4.054  13.575  31.242  0.00  0.00    -0.025 C 
ATOM     20  C   UNL     1      -2.832  14.255  30.611  0.00  0.00    +0.012 C 
ATOM     21  C   UNL     1      -4.965  14.680  31.955  0.00  0.00    -0.000 C 
ATOM     22  C   UNL     1      -5.408  15.856  31.029  0.00  0.00    +0.031 C 
ATOM     23  C   UNL     1      -3.525  12.277  31.902  0.00  0.00    +0.012 C 
ATOM     24  C   UNL     1      -6.073  13.595  31.999  0.00  0.00    +0.012 C 
ATOM     25  C   UNL     1      -5.972  15.310  29.727  0.00  0.00    -0.025 C 
ENDBRANCH  16  17
ENDBRANCH  14  16
ENDBRANCH  10  12
ENDBRANCH   9  10
ENDBRANCH   5   9
ENDBRANCH   4   7
ENDBRANCH   1   4
BRANCH   1  26
ATOM     26  C   UNL     1      -4.119  10.256  23.131  0.00  0.00    +0.175 C 
BRANCH  26  27
ATOM     27  C   UNL     1      -4.091   9.957  24.637  0.00  0.00    +0.176 C 
ATOM     28  O   UNL     1      -3.104   8.914  24.867  0.00  0.00    -0.332 OA
ATOM     29  C   UNL     1      -2.863   8.569  26.271  0.00  0.00    +0.277 C 
ATOM     30  C   UNL     1      -4.192   8.196  26.973  0.00  0.00    +0.110 C 
ATOM     31  C   UNL     1      -5.282   9.261  26.730  0.00  0.00    +0.143 C 
ATOM     32  C   UNL     1      -5.448   9.546  25.237  0.00  0.00    +0.133 C 
BRANCH  32  33
ATOM     33  N   UNL     1      -6.427  10.623  25.024  0.00  0.00    -0.308 N 
ATOM     34  H   UNL     1      -6.242  11.520  25.451  0.00  0.00    +0.149 HD
ATOM     35  C   UNL     1      -7.544  10.494  24.302  0.00  0.00    +0.210 C 
ATOM     36  C   UNL     1      -7.810   9.107  23.686  0.00  0.00    +0.109 C 
ATOM     37  O   UNL     1      -8.338  11.418  24.128  0.00  0.00    -0.276 OA
ENDBRANCH  32  33
BRANCH  29  38
ATOM     38  C   UNL     1      -2.197   9.744  27.017  0.00  0.00    +0.414 C 
ATOM     39  O   UNL     1      -2.239   9.803  28.245  0.00  0.00    -0.240 OA
ATOM     40  O   UNL     1      -1.619  10.633  26.391  0.00  0.00    -0.240 OA
ENDBRANCH  29  38
BRANCH  29  41
ATOM     41  O   UNL     1      -1.988   7.411  26.305  0.00  0.00    -0.343 OA
ATOM     42  C   UNL     1      -2.417   6.346  27.190  0.00  0.00    +0.198 C 
ENDBRANCH  29  41
BRANCH  31  43
ATOM     43  O   UNL     1      -6.526   8.808  27.265  0.00  0.00    -0.390 OA
ATOM     44  H   UNL     1      -7.175   9.513  27.211  0.00  0.00    +0.210 HD
ENDBRANCH  31  43
ENDBRANCH  26  27
BRANCH  26  45
ATOM     45  O   UNL     1      -4.038   9.029  22.379  0.00  0.00    -0.387 OA
ATOM     46  H   UNL     1      -4.557   9.111  21.575  0.00  0.00    +0.210 HD
ENDBRANCH  26  45
ENDBRANCH   1  26
TORSDOF 15
