REMARK VINA RESULT:    -5.080      8.188     11.719
REMARK INTER + INTRA:         -11.780
REMARK INTER:                  -9.133
REMARK INTRA:                  -2.647
REMARK UNBOUND:                -2.989
REMARK  Name = lig_assembled_51.pdb
REMARK  16 active torsions:
REMARK  status: ('A' for Active; 'I' for Inactive)
REMARK    1  A    between atoms: _2  and  _9
REMARK    2  A    between atoms: _4  and  _22
REMARK    3  A    between atoms: _6  and  _7
REMARK    4  A    between atoms: _6  and  _22
REMARK    5  A    between atoms: _18  and  _38
REMARK    6  A    between atoms: _20  and  _26
REMARK    7  A    between atoms: _21  and  _25
REMARK    8  A    between atoms: _25  and  _26
REMARK    9  A    between atoms: _28  and  _29
REMARK   10  A    between atoms: _30  and  _31
REMARK   11  A    between atoms: _32  and  _34
REMARK   12  A    between atoms: _34  and  _35
REMARK   13  A    between atoms: _34  and  _36
REMARK   14  A    between atoms: _36  and  _37
REMARK   15  A    between atoms: _36  and  _38
REMARK   16  A    between atoms: _39  and  _41
REMARK                            x       y       z     vdW  Elec       q    Type
REMARK                         _______ _______ _______ _____ _____    ______ ____
ROOT
ATOM      1  C   UNL     1      -2.683   9.145  14.088  0.00  0.00    +0.163 C 
ENDROOT
BRANCH   1   2
ATOM      2  O   UNL     1      -1.312   9.072  13.663  0.00  0.00    -0.388 OA
ATOM      3  H   UNL     1      -1.056   9.904  13.259  0.00  0.00    +0.210 HD
ENDBRANCH   1   2
BRANCH   1   4
ATOM      4  C   UNL     1      -3.144   7.785  14.599  0.00  0.00    +0.141 C 
BRANCH   4   7
ATOM      5  C   UNL     1      -4.539   7.986  16.629  0.00  0.00    +0.401 C 
ATOM      6  O   UNL     1      -5.581   8.198  16.006  0.00  0.00    -0.226 OA
ATOM      7  N   UNL     1      -3.353   7.787  16.052  0.00  0.00    -0.279 N 
ATOM      8  H   UNL     1      -2.552   7.630  16.649  0.00  0.00    +0.152 HD
BRANCH   5   9
ATOM      9  O   UNL     1      -4.579   7.949  18.058  0.00  0.00    -0.444 OA
BRANCH   9  10
ATOM     10  C   UNL     1      -5.747   8.631  18.521  0.00  0.00    +0.292 C 
BRANCH  10  12
ATOM     11  N   UNL     1      -5.532   8.535  20.985  0.00  0.00    -0.131 NA
ATOM     12  C   UNL     1      -5.490   9.263  19.829  0.00  0.00    +0.120 A 
ATOM     13  C   UNL     1      -5.188  10.570  20.133  0.00  0.00    +0.137 A 
ATOM     14  N   UNL     1      -5.062  10.581  21.495  0.00  0.00    -0.245 N 
ATOM     15  N   UNL     1      -5.269   9.350  21.997  0.00  0.00    -0.065 NA
BRANCH  14  16
ATOM     16  C   UNL     1      -4.758  11.724  22.358  0.00  0.00    +0.066 C 
ATOM     17  C   UNL     1      -5.575  12.966  21.906  0.00  0.00    +0.034 C 
ATOM     18  C   UNL     1      -5.305  14.166  22.829  0.00  0.00    -0.008 C 
ATOM     19  C   UNL     1      -5.693  13.794  24.270  0.00  0.00    +0.007 C 
ATOM     20  C   UNL     1      -4.859  12.595  24.749  0.00  0.00    -0.008 C 
ATOM     21  C   UNL     1      -3.367  12.956  24.688  0.00  0.00    +0.007 C 
ATOM     22  C   UNL     1      -2.974  13.318  23.248  0.00  0.00    -0.008 C 
ATOM     23  C   UNL     1      -3.811  14.519  22.780  0.00  0.00    +0.007 C 
ATOM     24  C   UNL     1      -5.128  11.391  23.830  0.00  0.00    +0.034 C 
ATOM     25  C   UNL     1      -3.249  12.117  22.328  0.00  0.00    +0.034 C 
ENDBRANCH  14  16
ENDBRANCH  10  12
ENDBRANCH   9  10
ENDBRANCH   5   9
ENDBRANCH   4   7
ENDBRANCH   1   4
BRANCH   1  26
ATOM     26  C   UNL     1      -3.593   9.597  12.933  0.00  0.00    +0.175 C 
BRANCH  26  27
ATOM     27  C   UNL     1      -3.415  11.087  12.605  0.00  0.00    +0.176 C 
ATOM     28  O   UNL     1      -2.127  11.250  11.952  0.00  0.00    -0.332 OA
ATOM     29  C   UNL     1      -1.828  12.601  11.468  0.00  0.00    +0.277 C 
ATOM     30  C   UNL     1      -1.966  13.630  12.616  0.00  0.00    +0.110 C 
ATOM     31  C   UNL     1      -3.308  13.474  13.362  0.00  0.00    +0.143 C 
ATOM     32  C   UNL     1      -3.518  12.030  13.818  0.00  0.00    +0.133 C 
BRANCH  32  33
ATOM     33  N   UNL     1      -4.838  11.876  14.450  0.00  0.00    -0.308 N 
ATOM     34  H   UNL     1      -5.655  11.966  13.863  0.00  0.00    +0.149 HD
ATOM     35  C   UNL     1      -5.026  11.625  15.748  0.00  0.00    +0.210 C 
ATOM     36  C   UNL     1      -3.761  11.520  16.621  0.00  0.00    +0.109 C 
ATOM     37  O   UNL     1      -6.143  11.487  16.248  0.00  0.00    -0.276 OA
ENDBRANCH  32  33
BRANCH  29  38
ATOM     38  C   UNL     1      -2.772  12.989  10.311  0.00  0.00    +0.414 C 
ATOM     39  O   UNL     1      -3.161  12.135   9.515  0.00  0.00    -0.240 OA
ATOM     40  O   UNL     1      -3.146  14.155  10.175  0.00  0.00    -0.240 OA
ENDBRANCH  29  38
BRANCH  31  41
ATOM     41  O   UNL     1      -3.329  14.336  14.501  0.00  0.00    -0.390 OA
ATOM     42  H   UNL     1      -2.430  14.500  14.795  0.00  0.00    +0.210 HD
ENDBRANCH  31  41
BRANCH  29  43
ATOM     43  O   UNL     1      -0.454  12.617  11.002  0.00  0.00    -0.343 OA
ATOM     44  C   UNL     1       0.251  13.866  11.217  0.00  0.00    +0.198 C 
ENDBRANCH  29  43
ENDBRANCH  26  27
BRANCH  26  45
ATOM     45  O   UNL     1      -4.972   9.319  13.250  0.00  0.00    -0.387 OA
ATOM     46  H   UNL     1      -5.227   9.815  14.032  0.00  0.00    +0.210 HD
ENDBRANCH  26  45
ENDBRANCH   1  26
TORSDOF 14
