REMARK VINA RESULT:    -5.251      6.387     10.225
REMARK INTER + INTRA:         -12.263
REMARK INTER:                  -8.836
REMARK INTRA:                  -3.428
REMARK UNBOUND:                -2.869
REMARK  Name = lig_assembled_71.pdb
REMARK  17 active torsions:
REMARK  status: ('A' for Active; 'I' for Inactive)
REMARK    1  A    between atoms: _2  and  _12
REMARK    2  A    between atoms: _7  and  _22
REMARK    3  A    between atoms: _9  and  _10
REMARK    4  A    between atoms: _9  and  _22
REMARK    5  A    between atoms: _12  and  _13
REMARK    6  A    between atoms: _18  and  _38
REMARK    7  A    between atoms: _20  and  _26
REMARK    8  A    between atoms: _21  and  _25
REMARK    9  A    between atoms: _25  and  _26
REMARK   10  A    between atoms: _28  and  _29
REMARK   11  A    between atoms: _30  and  _31
REMARK   12  A    between atoms: _32  and  _34
REMARK   13  A    between atoms: _34  and  _35
REMARK   14  A    between atoms: _34  and  _36
REMARK   15  A    between atoms: _36  and  _37
REMARK   16  A    between atoms: _36  and  _38
REMARK   17  A    between atoms: _39  and  _41
REMARK                            x       y       z     vdW  Elec       q    Type
REMARK                         _______ _______ _______ _____ _____    ______ ____
ROOT
ATOM      1  C   UNL     1      -1.899   8.434  13.797  0.00  0.00    +0.163 C 
ENDROOT
BRANCH   1   2
ATOM      2  O   UNL     1      -1.950   8.145  12.390  0.00  0.00    -0.388 OA
ATOM      3  H   UNL     1      -2.168   7.219  12.261  0.00  0.00    +0.210 HD
ENDBRANCH   1   2
BRANCH   1   4
ATOM      4  C   UNL     1      -1.863   7.136  14.595  0.00  0.00    +0.141 C 
BRANCH   4   7
ATOM      5  C   UNL     1      -3.390   6.313  16.356  0.00  0.00    +0.401 C 
ATOM      6  O   UNL     1      -2.490   6.117  17.176  0.00  0.00    -0.226 OA
ATOM      7  N   UNL     1      -3.186   6.781  15.124  0.00  0.00    -0.279 N 
ATOM      8  H   UNL     1      -3.988   6.899  14.520  0.00  0.00    +0.152 HD
BRANCH   5   9
ATOM      9  O   UNL     1      -4.741   6.023  16.724  0.00  0.00    -0.444 OA
BRANCH   9  10
ATOM     10  C   UNL     1      -5.535   7.206  16.597  0.00  0.00    +0.292 C 
BRANCH  10  12
ATOM     11  N   UNL     1      -4.665   9.118  17.921  0.00  0.00    -0.131 NA
ATOM     12  C   UNL     1      -5.464   8.007  17.833  0.00  0.00    +0.120 A 
ATOM     13  C   UNL     1      -6.118   7.832  19.030  0.00  0.00    +0.137 A 
ATOM     14  N   UNL     1      -5.666   8.855  19.811  0.00  0.00    -0.242 N 
ATOM     15  N   UNL     1      -4.803   9.635  19.135  0.00  0.00    -0.065 NA
BRANCH  14  16
ATOM     16  C   UNL     1      -6.083   9.226  21.149  0.00  0.00    +0.241 C 
BRANCH  16  17
ATOM     17  C   UNL     1      -6.170  10.721  21.313  0.00  0.00    +0.241 C 
ATOM     18  O   UNL     1      -7.208  11.313  21.022  0.00  0.00    -0.273 OA
ATOM     19  N   UNL     1      -4.999  11.320  21.724  0.00  0.00    -0.253 N 
ATOM     20  H   UNL     1      -4.122  10.824  21.755  0.00  0.00    +0.158 HD
ATOM     21  C   UNL     1      -4.868  12.685  21.960  0.00  0.00    +0.221 A 
ATOM     22  N   UNL     1      -3.608  13.131  22.067  0.00  0.00    -0.223 NA
ATOM     23  C   UNL     1      -3.460  14.464  22.221  0.00  0.00    +0.116 A 
ATOM     24  C   UNL     1      -4.510  15.346  22.299  0.00  0.00    +0.039 A 
ATOM     25  C   UNL     1      -5.755  14.780  22.225  0.00  0.00    +0.116 A 
ATOM     26  N   UNL     1      -5.950  13.463  22.057  0.00  0.00    -0.223 NA
ENDBRANCH  16  17
ENDBRANCH  14  16
ENDBRANCH  10  12
ENDBRANCH   9  10
ENDBRANCH   5   9
ENDBRANCH   4   7
ENDBRANCH   1   4
BRANCH   1  27
ATOM     27  C   UNL     1      -3.115   9.271  14.231  0.00  0.00    +0.175 C 
BRANCH  27  28
ATOM     28  C   UNL     1      -3.395  10.429  13.261  0.00  0.00    +0.176 C 
ATOM     29  O   UNL     1      -2.117  10.960  12.816  0.00  0.00    -0.332 OA
ATOM     30  C   UNL     1      -2.187  12.011  11.797  0.00  0.00    +0.277 C 
ATOM     31  C   UNL     1      -3.097  13.169  12.275  0.00  0.00    +0.110 C 
ATOM     32  C   UNL     1      -4.457  12.650  12.787  0.00  0.00    +0.143 C 
ATOM     33  C   UNL     1      -4.266  11.559  13.841  0.00  0.00    +0.133 C 
BRANCH  33  34
ATOM     34  N   UNL     1      -5.567  11.012  14.258  0.00  0.00    -0.308 N 
ATOM     35  H   UNL     1      -6.069  10.433  13.598  0.00  0.00    +0.149 HD
ATOM     36  C   UNL     1      -6.129  11.230  15.450  0.00  0.00    +0.210 C 
ATOM     37  C   UNL     1      -5.351  12.137  16.422  0.00  0.00    +0.109 C 
ATOM     38  O   UNL     1      -7.213  10.747  15.777  0.00  0.00    -0.276 OA
ENDBRANCH  33  34
BRANCH  30  39
ATOM     39  C   UNL     1      -2.726  11.447  10.466  0.00  0.00    +0.414 C 
ATOM     40  O   UNL     1      -2.670  10.239  10.236  0.00  0.00    -0.240 OA
ATOM     41  O   UNL     1      -3.218  12.199   9.623  0.00  0.00    -0.240 OA
ENDBRANCH  30  39
BRANCH  30  42
ATOM     42  O   UNL     1      -0.848  12.533  11.598  0.00  0.00    -0.343 OA
ATOM     43  C   UNL     1      -0.732  13.975  11.699  0.00  0.00    +0.198 C 
ENDBRANCH  30  42
BRANCH  32  44
ATOM     44  O   UNL     1      -5.201  13.728  13.356  0.00  0.00    -0.390 OA
ATOM     45  H   UNL     1      -4.745  14.058  14.134  0.00  0.00    +0.210 HD
ENDBRANCH  32  44
ENDBRANCH  27  28
BRANCH  27  46
ATOM     46  O   UNL     1      -2.917   9.779  15.566  0.00  0.00    -0.387 OA
ATOM     47  H   UNL     1      -3.731   9.685  16.067  0.00  0.00    +0.210 HD
ENDBRANCH  27  46
ENDBRANCH   1  27
TORSDOF 15
