REMARK VINA RESULT:    -5.549      4.179      7.944
REMARK INTER + INTRA:         -13.811
REMARK INTER:                  -8.317
REMARK INTRA:                  -5.494
REMARK UNBOUND:                -3.396
REMARK  Name = lig_assembled_34.pdb
REMARK  19 active torsions:
REMARK  status: ('A' for Active; 'I' for Inactive)
REMARK    1  A    between atoms: _2  and  _9
REMARK    2  A    between atoms: _4  and  _37
REMARK    3  A    between atoms: _6  and  _7
REMARK    4  A    between atoms: _6  and  _37
REMARK    5  A    between atoms: _11  and  _12
REMARK    6  A    between atoms: _13  and  _14
REMARK    7  A    between atoms: _18  and  _31
REMARK    8  A    between atoms: _33  and  _53
REMARK    9  A    between atoms: _35  and  _41
REMARK   10  A    between atoms: _36  and  _40
REMARK   11  A    between atoms: _40  and  _41
REMARK   12  A    between atoms: _43  and  _44
REMARK   13  A    between atoms: _45  and  _46
REMARK   14  A    between atoms: _47  and  _49
REMARK   15  A    between atoms: _49  and  _50
REMARK   16  A    between atoms: _49  and  _51
REMARK   17  A    between atoms: _51  and  _52
REMARK   18  A    between atoms: _51  and  _53
REMARK   19  A    between atoms: _54  and  _56
REMARK                            x       y       z     vdW  Elec       q    Type
REMARK                         _______ _______ _______ _____ _____    ______ ____
ROOT
ATOM      1  N   UNL     1      -7.177  16.392  28.077  0.00  0.00    -0.131 NA
ATOM      2  C   UNL     1      -7.112  15.609  29.195  0.00  0.00    +0.121 A 
ATOM      3  C   UNL     1      -6.769  14.333  28.823  0.00  0.00    +0.143 A 
ATOM      4  N   UNL     1      -6.602  14.378  27.456  0.00  0.00    -0.220 N 
ATOM      5  N   UNL     1      -6.882  15.637  27.022  0.00  0.00    -0.060 NA
ENDROOT
BRANCH   4   6
ATOM      6  C   UNL     1      -6.166  13.337  26.593  0.00  0.00    +0.068 A 
ATOM      7  C   UNL     1      -4.797  13.083  26.453  0.00  0.00    +0.038 A 
ATOM      8  C   UNL     1      -4.285  12.151  25.518  0.00  0.00    +0.007 A 
ATOM      9  C   UNL     1      -5.197  11.396  24.752  0.00  0.00    -0.008 A 
ATOM     10  C   UNL     1      -6.583  11.624  24.936  0.00  0.00    +0.011 A 
ATOM     11  C   UNL     1      -7.067  12.593  25.831  0.00  0.00    +0.028 A 
BRANCH   9  12
ATOM     12  C   UNL     1      -4.808  10.414  23.687  0.00  0.00    +0.004 A 
ATOM     13  C   UNL     1      -4.621   9.090  23.949  0.00  0.00    +0.026 A 
ATOM     14  C   UNL     1      -4.724   8.525  25.300  0.00  0.00    +0.016 A 
ATOM     15  C   UNL     1      -4.353   7.264  25.564  0.00  0.00    +0.051 A 
ATOM     16  C   UNL     1      -3.858   6.380  24.482  0.00  0.00    +0.183 A 
ATOM     17  O   UNL     1      -3.454   5.245  24.720  0.00  0.00    -0.288 OA
ATOM     18  C   UNL     1      -3.936   6.889  23.098  0.00  0.00    +0.097 A 
ATOM     19  C   UNL     1      -4.327   8.146  22.854  0.00  0.00    +0.140 A 
ATOM     20  O   UNL     1      -4.519   8.531  21.535  0.00  0.00    -0.455 OA
ATOM     21  C   UNL     1      -4.669   9.863  21.258  0.00  0.00    +0.140 A 
ATOM     22  C   UNL     1      -4.765  10.207  19.909  0.00  0.00    +0.092 A 
ATOM     23  C   UNL     1      -4.860  11.543  19.553  0.00  0.00    +0.120 A 
ATOM     24  C   UNL     1      -4.780  12.538  20.521  0.00  0.00    +0.046 A 
ATOM     25  C   UNL     1      -4.696  12.178  21.869  0.00  0.00    +0.016 A 
ATOM     26  C   UNL     1      -4.703  10.831  22.259  0.00  0.00    +0.026 A 
BRANCH  23  27
ATOM     27  O   UNL     1      -5.044  11.850  18.237  0.00  0.00    -0.507 OA
ATOM     28  H   UNL     1      -5.971  12.118  18.125  0.00  0.00    +0.292 HD
ENDBRANCH  23  27
ENDBRANCH   9  12
BRANCH   8  29
ATOM     29  C   UNL     1      -2.778  12.103  25.367  0.00  0.00    +0.072 C 
ATOM     30  O   UNL     1      -2.282  12.846  24.460  0.00  0.00    -0.545 OA
ATOM     31  O   UNL     1      -2.128  11.287  26.085  0.00  0.00    -0.545 OA
ENDBRANCH   8  29
ENDBRANCH   4   6
BRANCH   2  32
ATOM     32  C   UNL     1      -7.381  16.136  30.547  0.00  0.00    +0.292 C 
BRANCH  32  33
ATOM     33  O   UNL     1      -8.228  15.246  31.278  0.00  0.00    -0.444 OA
BRANCH  33  34
ATOM     34  C   UNL     1      -7.481  14.633  32.332  0.00  0.00    +0.401 C 
ATOM     35  O   UNL     1      -6.335  15.026  32.561  0.00  0.00    -0.226 OA
ATOM     36  N   UNL     1      -8.086  13.659  33.014  0.00  0.00    -0.279 N 
ATOM     37  H   UNL     1      -9.032  13.413  32.758  0.00  0.00    +0.152 HD
BRANCH  36  38
ATOM     38  C   UNL     1      -7.454  12.924  34.117  0.00  0.00    +0.141 C 
BRANCH  38  39
ATOM     39  C   UNL     1      -6.972  11.545  33.679  0.00  0.00    +0.163 C 
BRANCH  39  40
ATOM     40  O   UNL     1      -7.858  11.009  32.682  0.00  0.00    -0.388 OA
ATOM     41  H   UNL     1      -7.999  10.074  32.848  0.00  0.00    +0.210 HD
ENDBRANCH  39  40
BRANCH  39  42
ATOM     42  C   UNL     1      -5.536  11.650  33.139  0.00  0.00    +0.175 C 
BRANCH  42  43
ATOM     43  C   UNL     1      -5.457  11.330  31.639  0.00  0.00    +0.176 C 
ATOM     44  O   UNL     1      -5.574   9.889  31.483  0.00  0.00    -0.332 OA
ATOM     45  C   UNL     1      -5.626   9.403  30.101  0.00  0.00    +0.277 C 
ATOM     46  C   UNL     1      -4.405   9.918  29.300  0.00  0.00    +0.110 C 
ATOM     47  C   UNL     1      -4.220  11.442  29.461  0.00  0.00    +0.143 C 
ATOM     48  C   UNL     1      -4.183  11.837  30.938  0.00  0.00    +0.133 C 
BRANCH  48  49
ATOM     49  N   UNL     1      -4.094  13.299  31.078  0.00  0.00    -0.308 N 
ATOM     50  H   UNL     1      -4.815  13.859  30.645  0.00  0.00    +0.149 HD
ATOM     51  C   UNL     1      -3.123  13.934  31.740  0.00  0.00    +0.210 C 
ATOM     52  C   UNL     1      -2.026  13.054  32.367  0.00  0.00    +0.109 C 
ATOM     53  O   UNL     1      -3.083  15.160  31.854  0.00  0.00    -0.276 OA
ENDBRANCH  48  49
BRANCH  45  54
ATOM     54  C   UNL     1      -6.927   9.861  29.408  0.00  0.00    +0.414 C 
ATOM     55  O   UNL     1      -6.964   9.997  28.186  0.00  0.00    -0.240 OA
ATOM     56  O   UNL     1      -7.938  10.093  30.071  0.00  0.00    -0.240 OA
ENDBRANCH  45  54
BRANCH  47  57
ATOM     57  O   UNL     1      -3.003  11.849  28.835  0.00  0.00    -0.390 OA
ATOM     58  H   UNL     1      -2.965  12.807  28.799  0.00  0.00    +0.210 HD
ENDBRANCH  47  57
BRANCH  45  59
ATOM     59  O   UNL     1      -5.573   7.953  30.132  0.00  0.00    -0.343 OA
ATOM     60  C   UNL     1      -4.705   7.394  31.150  0.00  0.00    +0.198 C 
ENDBRANCH  45  59
ENDBRANCH  42  43
BRANCH  42  61
ATOM     61  O   UNL     1      -4.661  10.776  33.880  0.00  0.00    -0.387 OA
ATOM     62  H   UNL     1      -4.843   9.864  33.642  0.00  0.00    +0.210 HD
ENDBRANCH  42  61
ENDBRANCH  39  42
ENDBRANCH  38  39
ENDBRANCH  36  38
ENDBRANCH  33  34
ENDBRANCH  32  33
ENDBRANCH   2  32
TORSDOF 17
