REMARK VINA RESULT:    -5.506      2.941      5.487
REMARK INTER + INTRA:         -12.005
REMARK INTER:                  -9.335
REMARK INTRA:                  -2.670
REMARK UNBOUND:                -2.475
REMARK  Name = lig_assembled_25.pdb
REMARK  16 active torsions:
REMARK  status: ('A' for Active; 'I' for Inactive)
REMARK    1  A    between atoms: _2  and  _9
REMARK    2  A    between atoms: _4  and  _25
REMARK    3  A    between atoms: _6  and  _7
REMARK    4  A    between atoms: _6  and  _25
REMARK    5  A    between atoms: _21  and  _41
REMARK    6  A    between atoms: _23  and  _29
REMARK    7  A    between atoms: _24  and  _28
REMARK    8  A    between atoms: _28  and  _29
REMARK    9  A    between atoms: _31  and  _32
REMARK   10  A    between atoms: _33  and  _34
REMARK   11  A    between atoms: _35  and  _37
REMARK   12  A    between atoms: _37  and  _38
REMARK   13  A    between atoms: _37  and  _39
REMARK   14  A    between atoms: _39  and  _40
REMARK   15  A    between atoms: _39  and  _41
REMARK   16  A    between atoms: _42  and  _44
REMARK                            x       y       z     vdW  Elec       q    Type
REMARK                         _______ _______ _______ _____ _____    ______ ____
ROOT
ATOM      1  C   UNL     1      -5.824   6.378  23.123  0.00  0.00    +0.141 C 
ENDROOT
BRANCH   1   4
ATOM      2  C   UNL     1      -5.912   6.456  20.654  0.00  0.00    +0.401 C 
ATOM      3  O   UNL     1      -5.369   5.359  20.506  0.00  0.00    -0.226 OA
ATOM      4  N   UNL     1      -6.159   7.012  21.842  0.00  0.00    -0.279 N 
ATOM      5  H   UNL     1      -6.600   7.920  21.861  0.00  0.00    +0.152 HD
BRANCH   2   6
ATOM      6  O   UNL     1      -6.307   7.198  19.497  0.00  0.00    -0.444 OA
BRANCH   6   7
ATOM      7  C   UNL     1      -6.151   6.384  18.332  0.00  0.00    +0.292 C 
BRANCH   7   9
ATOM      8  N   UNL     1      -3.820   6.326  17.516  0.00  0.00    -0.131 NA
ATOM      9  C   UNL     1      -5.061   6.903  17.483  0.00  0.00    +0.120 A 
ATOM     10  C   UNL     1      -5.044   7.959  16.600  0.00  0.00    +0.138 A 
ATOM     11  N   UNL     1      -3.759   7.990  16.139  0.00  0.00    -0.240 N 
ATOM     12  N   UNL     1      -3.030   6.994  16.688  0.00  0.00    -0.064 NA
BRANCH  11  13
ATOM     13  C   UNL     1      -3.104   8.946  15.261  0.00  0.00    +0.170 C 
ATOM     14  C   UNL     1      -3.696  10.344  15.378  0.00  0.00    -0.011 A 
ATOM     15  C   UNL     1      -4.117  10.798  14.109  0.00  0.00    -0.012 A 
ATOM     16  C   UNL     1      -3.857   9.762  13.129  0.00  0.00    -0.012 A 
ATOM     17  C   UNL     1      -4.061   9.754  11.758  0.00  0.00    +0.009 A 
ATOM     18  C   UNL     1      -3.684   8.617  11.038  0.00  0.00    +0.001 A 
ATOM     19  C   UNL     1      -3.117   7.507  11.687  0.00  0.00    +0.000 A 
ATOM     20  C   UNL     1      -2.911   7.513  13.069  0.00  0.00    +0.006 A 
ATOM     21  C   UNL     1      -4.670  12.059  13.962  0.00  0.00    +0.009 A 
ATOM     22  C   UNL     1      -4.798  12.865  15.097  0.00  0.00    +0.001 A 
ATOM     23  C   UNL     1      -4.374  12.411  16.357  0.00  0.00    +0.000 A 
ATOM     24  C   UNL     1      -3.814  11.142  16.508  0.00  0.00    +0.006 A 
ATOM     25  C   UNL     1      -3.286   8.644  13.779  0.00  0.00    -0.011 A 
ENDBRANCH  11  13
ENDBRANCH   7   9
ENDBRANCH   6   7
ENDBRANCH   2   6
ENDBRANCH   1   4
BRANCH   1  26
ATOM     26  C   UNL     1      -5.364   7.398  24.159  0.00  0.00    +0.163 C 
BRANCH  26  27
ATOM     27  O   UNL     1      -4.206   6.905  24.853  0.00  0.00    -0.388 OA
ATOM     28  H   UNL     1      -4.401   6.045  25.232  0.00  0.00    +0.210 HD
ENDBRANCH  26  27
BRANCH  26  29
ATOM     29  C   UNL     1      -5.061   8.736  23.464  0.00  0.00    +0.175 C 
BRANCH  29  30
ATOM     30  C   UNL     1      -3.974   9.535  24.197  0.00  0.00    +0.176 C 
ATOM     31  O   UNL     1      -4.308   9.550  25.612  0.00  0.00    -0.332 OA
ATOM     32  C   UNL     1      -3.319  10.183  26.490  0.00  0.00    +0.277 C 
ATOM     33  C   UNL     1      -3.013  11.623  26.010  0.00  0.00    +0.110 C 
ATOM     34  C   UNL     1      -2.683  11.663  24.503  0.00  0.00    +0.143 C 
ATOM     35  C   UNL     1      -3.775  10.974  23.684  0.00  0.00    +0.133 C 
BRANCH  35  36
ATOM     36  N   UNL     1      -3.408  10.941  22.260  0.00  0.00    -0.308 N 
ATOM     37  H   UNL     1      -2.616  10.376  21.990  0.00  0.00    +0.149 HD
ATOM     38  C   UNL     1      -4.054  11.610  21.301  0.00  0.00    +0.210 C 
ATOM     39  C   UNL     1      -5.241  12.484  21.748  0.00  0.00    +0.109 C 
ATOM     40  O   UNL     1      -3.733  11.553  20.113  0.00  0.00    -0.276 OA
ENDBRANCH  35  36
BRANCH  32  41
ATOM     41  C   UNL     1      -2.013   9.362  26.525  0.00  0.00    +0.414 C 
ATOM     42  O   UNL     1      -0.925   9.932  26.598  0.00  0.00    -0.240 OA
ATOM     43  O   UNL     1      -2.048   8.132  26.481  0.00  0.00    -0.240 OA
ENDBRANCH  32  41
BRANCH  34  44
ATOM     44  O   UNL     1      -2.557  13.019  24.073  0.00  0.00    -0.390 OA
ATOM     45  H   UNL     1      -3.398  13.324  23.725  0.00  0.00    +0.210 HD
ENDBRANCH  34  44
BRANCH  32  46
ATOM     46  O   UNL     1      -3.886  10.257  27.824  0.00  0.00    -0.343 OA
ATOM     47  C   UNL     1      -3.767  11.550  28.469  0.00  0.00    +0.198 C 
ENDBRANCH  32  46
ENDBRANCH  29  30
BRANCH  29  48
ATOM     48  O   UNL     1      -6.265   9.521  23.352  0.00  0.00    -0.387 OA
ATOM     49  H   UNL     1      -7.030   8.947  23.432  0.00  0.00    +0.210 HD
ENDBRANCH  29  48
ENDBRANCH  26  29
ENDBRANCH   1  26
TORSDOF 14
