REMARK VINA RESULT:    -4.707      2.726      7.610
REMARK INTER + INTRA:         -11.178
REMARK INTER:                  -8.012
REMARK INTRA:                  -3.166
REMARK UNBOUND:                -2.756
REMARK  Name = lig_assembled_41.pdb
REMARK  18 active torsions:
REMARK  status: ('A' for Active; 'I' for Inactive)
REMARK    1  A    between atoms: _2  and  _9
REMARK    2  A    between atoms: _4  and  _21
REMARK    3  A    between atoms: _6  and  _7
REMARK    4  A    between atoms: _6  and  _21
REMARK    5  A    between atoms: _10  and  _11
REMARK    6  A    between atoms: _11  and  _12
REMARK    7  A    between atoms: _17  and  _37
REMARK    8  A    between atoms: _19  and  _25
REMARK    9  A    between atoms: _20  and  _24
REMARK   10  A    between atoms: _24  and  _25
REMARK   11  A    between atoms: _27  and  _28
REMARK   12  A    between atoms: _29  and  _30
REMARK   13  A    between atoms: _31  and  _33
REMARK   14  A    between atoms: _33  and  _34
REMARK   15  A    between atoms: _33  and  _35
REMARK   16  A    between atoms: _35  and  _36
REMARK   17  A    between atoms: _35  and  _37
REMARK   18  A    between atoms: _38  and  _40
REMARK                            x       y       z     vdW  Elec       q    Type
REMARK                         _______ _______ _______ _____ _____    ______ ____
ROOT
ATOM      1  C   UNL     1      -3.960   8.987  29.240  0.00  0.00    +0.163 C 
ENDROOT
BRANCH   1   2
ATOM      2  O   UNL     1      -4.657   8.777  30.479  0.00  0.00    -0.388 OA
ATOM      3  H   UNL     1      -4.026   8.552  31.167  0.00  0.00    +0.210 HD
ENDBRANCH   1   2
BRANCH   1   4
ATOM      4  C   UNL     1      -3.472   7.654  28.684  0.00  0.00    +0.141 C 
BRANCH   4   7
ATOM      5  C   UNL     1      -2.979   7.510  26.267  0.00  0.00    +0.401 C 
ATOM      6  O   UNL     1      -1.770   7.705  26.405  0.00  0.00    -0.226 OA
ATOM      7  N   UNL     1      -3.850   7.476  27.276  0.00  0.00    -0.279 N 
ATOM      8  H   UNL     1      -4.824   7.319  27.061  0.00  0.00    +0.152 HD
BRANCH   5   9
ATOM      9  O   UNL     1      -3.504   7.310  24.952  0.00  0.00    -0.444 OA
BRANCH   9  10
ATOM     10  C   UNL     1      -4.892   7.652  24.934  0.00  0.00    +0.292 C 
BRANCH  10  12
ATOM     11  N   UNL     1      -6.397   9.151  23.681  0.00  0.00    -0.131 NA
ATOM     12  C   UNL     1      -5.190   8.530  23.788  0.00  0.00    +0.121 A 
ATOM     13  C   UNL     1      -4.403   8.890  22.716  0.00  0.00    +0.143 A 
ATOM     14  N   UNL     1      -5.218   9.657  21.914  0.00  0.00    -0.219 N 
ATOM     15  N   UNL     1      -6.390   9.875  22.572  0.00  0.00    -0.060 NA
BRANCH  14  16
ATOM     16  C   UNL     1      -4.965  10.283  20.660  0.00  0.00    +0.077 A 
ATOM     17  C   UNL     1      -4.476  11.596  20.501  0.00  0.00    +0.043 A 
ATOM     18  C   UNL     1      -4.320  12.109  19.196  0.00  0.00    +0.013 A 
ATOM     19  C   UNL     1      -4.647  11.347  18.072  0.00  0.00    +0.001 A 
ATOM     20  C   UNL     1      -5.105  10.047  18.228  0.00  0.00    +0.002 A 
ATOM     21  C   UNL     1      -5.252   9.515  19.507  0.00  0.00    +0.028 A 
BRANCH  17  22
ATOM     22  C   UNL     1      -3.910  12.415  21.616  0.00  0.00    +0.162 C 
ATOM     23  O   UNL     1      -2.834  12.092  22.113  0.00  0.00    -0.292 OA
ATOM     24  C   UNL     1      -4.653  13.628  22.123  0.00  0.00    +0.091 C 
ENDBRANCH  17  22
ENDBRANCH  14  16
ENDBRANCH  10  12
ENDBRANCH   9  10
ENDBRANCH   5   9
ENDBRANCH   4   7
ENDBRANCH   1   4
BRANCH   1  25
ATOM     25  C   UNL     1      -2.763   9.933  29.435  0.00  0.00    +0.175 C 
BRANCH  25  26
ATOM     26  C   UNL     1      -3.205  11.360  29.788  0.00  0.00    +0.176 C 
ATOM     27  O   UNL     1      -3.644  11.362  31.175  0.00  0.00    -0.332 OA
ATOM     28  C   UNL     1      -4.006  12.673  31.723  0.00  0.00    +0.277 C 
ATOM     29  C   UNL     1      -5.076  13.354  30.834  0.00  0.00    +0.110 C 
ATOM     30  C   UNL     1      -4.668  13.347  29.346  0.00  0.00    +0.143 C 
ATOM     31  C   UNL     1      -4.309  11.936  28.882  0.00  0.00    +0.133 C 
BRANCH  31  32
ATOM     32  N   UNL     1      -3.839  11.955  27.487  0.00  0.00    -0.308 N 
ATOM     33  H   UNL     1      -2.950  12.396  27.295  0.00  0.00    +0.149 HD
ATOM     34  C   UNL     1      -4.510  11.429  26.459  0.00  0.00    +0.210 C 
ATOM     35  C   UNL     1      -5.873  10.788  26.781  0.00  0.00    +0.109 C 
ATOM     36  O   UNL     1      -4.085  11.448  25.304  0.00  0.00    -0.276 OA
ENDBRANCH  31  32
BRANCH  28  37
ATOM     37  C   UNL     1      -2.766  13.584  31.827  0.00  0.00    +0.414 C 
ATOM     38  O   UNL     1      -1.707  13.143  32.273  0.00  0.00    -0.240 OA
ATOM     39  O   UNL     1      -2.823  14.760  31.464  0.00  0.00    -0.240 OA
ENDBRANCH  28  37
BRANCH  30  40
ATOM     40  O   UNL     1      -5.744  13.845  28.549  0.00  0.00    -0.390 OA
ATOM     41  H   UNL     1      -6.473  14.101  29.119  0.00  0.00    +0.210 HD
ENDBRANCH  30  40
BRANCH  28  42
ATOM     42  O   UNL     1      -4.572  12.466  33.043  0.00  0.00    -0.343 OA
ATOM     43  C   UNL     1      -5.570  13.440  33.440  0.00  0.00    +0.198 C 
ENDBRANCH  28  42
ENDBRANCH  25  26
BRANCH  25  44
ATOM     44  O   UNL     1      -1.942   9.946  28.250  0.00  0.00    -0.387 OA
ATOM     45  H   UNL     1      -2.488  10.138  27.484  0.00  0.00    +0.210 HD
ENDBRANCH  25  44
ENDBRANCH   1  25
TORSDOF 15
