REMARK VINA RESULT:    -4.597      6.910      9.385
REMARK INTER + INTRA:         -11.073
REMARK INTER:                  -8.606
REMARK INTRA:                  -2.467
REMARK UNBOUND:                -2.848
REMARK  Name = lig_assembled_63.pdb
REMARK  17 active torsions:
REMARK  status: ('A' for Active; 'I' for Inactive)
REMARK    1  A    between atoms: _2  and  _11
REMARK    2  A    between atoms: _6  and  _20
REMARK    3  A    between atoms: _7  and  _15
REMARK    4  A    between atoms: _8  and  _9
REMARK    5  A    between atoms: _8  and  _20
REMARK    6  A    between atoms: _16  and  _36
REMARK    7  A    between atoms: _18  and  _24
REMARK    8  A    between atoms: _19  and  _23
REMARK    9  A    between atoms: _23  and  _24
REMARK   10  A    between atoms: _26  and  _27
REMARK   11  A    between atoms: _28  and  _29
REMARK   12  A    between atoms: _30  and  _32
REMARK   13  A    between atoms: _32  and  _33
REMARK   14  A    between atoms: _32  and  _34
REMARK   15  A    between atoms: _34  and  _35
REMARK   16  A    between atoms: _34  and  _36
REMARK   17  A    between atoms: _37  and  _39
REMARK                            x       y       z     vdW  Elec       q    Type
REMARK                         _______ _______ _______ _____ _____    ______ ____
ROOT
ATOM      1  C   UNL     1      -5.740  10.805  16.835  0.00  0.00    +0.163 C 
ENDROOT
BRANCH   1   2
ATOM      2  O   UNL     1      -4.832  11.892  16.594  0.00  0.00    -0.388 OA
ATOM      3  H   UNL     1      -4.548  12.265  17.432  0.00  0.00    +0.210 HD
ENDBRANCH   1   2
BRANCH   1   4
ATOM      4  C   UNL     1      -6.354  10.936  18.225  0.00  0.00    +0.141 C 
BRANCH   4   7
ATOM      5  C   UNL     1      -4.570  10.878  19.934  0.00  0.00    +0.401 C 
ATOM      6  O   UNL     1      -4.247  12.057  19.774  0.00  0.00    -0.226 OA
ATOM      7  N   UNL     1      -5.539  10.270  19.249  0.00  0.00    -0.279 N 
ATOM      8  H   UNL     1      -5.724   9.296  19.445  0.00  0.00    +0.152 HD
BRANCH   5   9
ATOM      9  O   UNL     1      -3.872  10.093  20.905  0.00  0.00    -0.444 OA
BRANCH   9  10
ATOM     10  C   UNL     1      -4.728   9.848  22.024  0.00  0.00    +0.292 C 
BRANCH  10  12
ATOM     11  N   UNL     1      -3.002  11.150  23.221  0.00  0.00    -0.131 NA
ATOM     12  C   UNL     1      -4.114  10.358  23.264  0.00  0.00    +0.121 A 
ATOM     13  C   UNL     1      -4.469  10.160  24.577  0.00  0.00    +0.145 A 
ATOM     14  N   UNL     1      -3.511  10.828  25.312  0.00  0.00    -0.200 N 
ATOM     15  N   UNL     1      -2.650  11.436  24.468  0.00  0.00    -0.059 NA
BRANCH  14  16
ATOM     16  C   UNL     1      -3.389  10.841  26.733  0.00  0.00    +0.173 A 
ATOM     17  C   UNL     1      -2.912   9.742  27.453  0.00  0.00    +0.096 A 
ATOM     18  C   UNL     1      -2.925   9.827  28.855  0.00  0.00    +0.024 A 
ATOM     19  C   UNL     1      -3.375  10.982  29.490  0.00  0.00    +0.021 A 
ATOM     20  C   UNL     1      -3.792  12.034  28.701  0.00  0.00    +0.113 A 
ATOM     21  N   UNL     1      -3.813  11.989  27.353  0.00  0.00    -0.235 NA
BRANCH  17  22
ATOM     22  C   UNL     1      -2.389   8.536  26.882  0.00  0.00    +0.103 C 
ATOM     23  N   UNL     1      -2.062   7.543  26.377  0.00  0.00    -0.191 NA
ENDBRANCH  17  22
ENDBRANCH  14  16
ENDBRANCH  10  12
ENDBRANCH   9  10
ENDBRANCH   5   9
ENDBRANCH   4   7
ENDBRANCH   1   4
BRANCH   1  24
ATOM     24  C   UNL     1      -5.020   9.450  16.718  0.00  0.00    +0.175 C 
BRANCH  24  25
ATOM     25  C   UNL     1      -4.119   9.381  15.476  0.00  0.00    +0.176 C 
ATOM     26  O   UNL     1      -4.826  10.015  14.375  0.00  0.00    -0.332 OA
ATOM     27  C   UNL     1      -4.072  10.137  13.123  0.00  0.00    +0.277 C 
ATOM     28  C   UNL     1      -3.540   8.753  12.675  0.00  0.00    +0.110 C 
ATOM     29  C   UNL     1      -2.808   8.026  13.823  0.00  0.00    +0.143 C 
ATOM     30  C   UNL     1      -3.682   7.959  15.076  0.00  0.00    +0.133 C 
BRANCH  30  31
ATOM     31  N   UNL     1      -2.941   7.342  16.188  0.00  0.00    -0.308 N 
ATOM     32  H   UNL     1      -2.179   7.865  16.595  0.00  0.00    +0.149 HD
ATOM     33  C   UNL     1      -3.211   6.136  16.694  0.00  0.00    +0.210 C 
ATOM     34  C   UNL     1      -4.363   5.353  16.035  0.00  0.00    +0.109 C 
ATOM     35  O   UNL     1      -2.584   5.650  17.636  0.00  0.00    -0.276 OA
ENDBRANCH  30  31
BRANCH  27  36
ATOM     36  C   UNL     1      -2.891  11.115  13.289  0.00  0.00    +0.414 C 
ATOM     37  O   UNL     1      -2.912  11.969  14.175  0.00  0.00    -0.240 OA
ATOM     38  O   UNL     1      -1.916  11.049  12.539  0.00  0.00    -0.240 OA
ENDBRANCH  27  36
BRANCH  27  39
ATOM     39  O   UNL     1      -4.976  10.632  12.101  0.00  0.00    -0.343 OA
ATOM     40  C   UNL     1      -6.098  11.405  12.598  0.00  0.00    +0.198 C 
ENDBRANCH  27  39
BRANCH  29  41
ATOM     41  O   UNL     1      -2.469   6.701  13.414  0.00  0.00    -0.390 OA
ATOM     42  H   UNL     1      -1.595   6.477  13.744  0.00  0.00    +0.210 HD
ENDBRANCH  29  41
ENDBRANCH  24  25
BRANCH  24  43
ATOM     43  O   UNL     1      -5.981   8.377  16.695  0.00  0.00    -0.387 OA
ATOM     44  H   UNL     1      -6.330   8.277  15.806  0.00  0.00    +0.210 HD
ENDBRANCH  24  43
ENDBRANCH   1  24
TORSDOF 15
