REMARK VINA RESULT:    -3.864      2.902      6.534
REMARK INTER + INTRA:         -11.049
REMARK INTER:                  -7.353
REMARK INTRA:                  -3.696
REMARK UNBOUND:                -3.458
REMARK  Name = lig_assembled_43.pdb
REMARK  20 active torsions:
REMARK  status: ('A' for Active; 'I' for Inactive)
REMARK    1  A    between atoms: _2  and  _9
REMARK    2  A    between atoms: _4  and  _18
REMARK    3  A    between atoms: _6  and  _7
REMARK    4  A    between atoms: _6  and  _18
REMARK    5  A    between atoms: _9  and  _10
REMARK    6  A    between atoms: _10  and  _11
REMARK    7  A    between atoms: _11  and  _12
REMARK    8  A    between atoms: _12  and  _13
REMARK    9  A    between atoms: _14  and  _34
REMARK   10  A    between atoms: _16  and  _22
REMARK   11  A    between atoms: _17  and  _21
REMARK   12  A    between atoms: _21  and  _22
REMARK   13  A    between atoms: _24  and  _25
REMARK   14  A    between atoms: _26  and  _27
REMARK   15  A    between atoms: _28  and  _30
REMARK   16  A    between atoms: _30  and  _31
REMARK   17  A    between atoms: _30  and  _32
REMARK   18  A    between atoms: _32  and  _33
REMARK   19  A    between atoms: _32  and  _34
REMARK   20  A    between atoms: _35  and  _37
REMARK                            x       y       z     vdW  Elec       q    Type
REMARK                         _______ _______ _______ _____ _____    ______ ____
ROOT
ATOM      1  C   UNL     1      -4.205  13.202  25.157  0.00  0.00    +0.163 C 
ENDROOT
BRANCH   1   2
ATOM      2  O   UNL     1      -4.954  13.858  24.121  0.00  0.00    -0.388 OA
ATOM      3  H   UNL     1      -5.477  13.209  23.644  0.00  0.00    +0.210 HD
ENDBRANCH   1   2
BRANCH   1   4
ATOM      4  C   UNL     1      -5.006  12.038  25.763  0.00  0.00    +0.175 C 
BRANCH   4   5
ATOM      5  C   UNL     1      -4.195  11.262  26.811  0.00  0.00    +0.176 C 
ATOM      6  O   UNL     1      -4.184   9.861  26.420  0.00  0.00    -0.332 OA
ATOM      7  C   UNL     1      -3.362   8.977  27.253  0.00  0.00    +0.277 C 
ATOM      8  C   UNL     1      -3.770   9.102  28.741  0.00  0.00    +0.110 C 
ATOM      9  C   UNL     1      -3.827  10.576  29.194  0.00  0.00    +0.143 C 
ATOM     10  C   UNL     1      -4.706  11.405  28.257  0.00  0.00    +0.133 C 
BRANCH  10  11
ATOM     11  N   UNL     1      -4.683  12.823  28.648  0.00  0.00    -0.308 N 
ATOM     12  H   UNL     1      -3.792  13.300  28.639  0.00  0.00    +0.149 HD
ATOM     13  C   UNL     1      -5.761  13.521  29.014  0.00  0.00    +0.210 C 
ATOM     14  C   UNL     1      -7.099  12.758  29.042  0.00  0.00    +0.109 C 
ATOM     15  O   UNL     1      -5.714  14.712  29.323  0.00  0.00    -0.276 OA
ENDBRANCH  10  11
BRANCH   7  16
ATOM     16  C   UNL     1      -1.865   9.317  27.098  0.00  0.00    +0.414 C 
ATOM     17  O   UNL     1      -1.069   9.033  27.993  0.00  0.00    -0.240 OA
ATOM     18  O   UNL     1      -1.453   9.874  26.080  0.00  0.00    -0.240 OA
ENDBRANCH   7  16
BRANCH   9  19
ATOM     19  O   UNL     1      -4.351  10.652  30.521  0.00  0.00    -0.390 OA
ATOM     20  H   UNL     1      -5.200  10.204  30.556  0.00  0.00    +0.210 HD
ENDBRANCH   9  19
BRANCH   7  21
ATOM     21  O   UNL     1      -3.599   7.611  26.826  0.00  0.00    -0.343 OA
ATOM     22  C   UNL     1      -3.971   7.460  25.433  0.00  0.00    +0.198 C 
ENDBRANCH   7  21
ENDBRANCH   4   5
BRANCH   4  23
ATOM     23  O   UNL     1      -5.453  11.147  24.721  0.00  0.00    -0.387 OA
ATOM     24  H   UNL     1      -5.088  10.271  24.870  0.00  0.00    +0.210 HD
ENDBRANCH   4  23
ENDBRANCH   1   4
BRANCH   1  25
ATOM     25  C   UNL     1      -2.888  12.676  24.595  0.00  0.00    +0.141 C 
BRANCH  25  28
ATOM     26  C   UNL     1      -3.098  11.249  22.588  0.00  0.00    +0.401 C 
ATOM     27  O   UNL     1      -3.165  10.197  23.228  0.00  0.00    -0.226 OA
ATOM     28  N   UNL     1      -2.962  12.453  23.145  0.00  0.00    -0.279 N 
ATOM     29  H   UNL     1      -2.906  13.257  22.536  0.00  0.00    +0.152 HD
BRANCH  26  30
ATOM     30  O   UNL     1      -3.164  11.199  21.161  0.00  0.00    -0.444 OA
BRANCH  30  31
ATOM     31  C   UNL     1      -4.231  12.033  20.702  0.00  0.00    +0.292 C 
BRANCH  31  33
ATOM     32  N   UNL     1      -6.266  12.235  22.099  0.00  0.00    -0.131 NA
ATOM     33  C   UNL     1      -5.526  11.524  21.190  0.00  0.00    +0.120 A 
ATOM     34  C   UNL     1      -6.193  10.361  20.879  0.00  0.00    +0.137 A 
ATOM     35  N   UNL     1      -7.325  10.422  21.636  0.00  0.00    -0.251 N 
ATOM     36  N   UNL     1      -7.368  11.547  22.366  0.00  0.00    -0.065 NA
BRANCH  35  37
ATOM     37  C   UNL     1      -8.383   9.439  21.739  0.00  0.00    +0.145 C 
BRANCH  37  38
ATOM     38  C   UNL     1      -8.072   8.194  20.915  0.00  0.00    +0.024 C 
BRANCH  38  39
ATOM     39  C   UNL     1      -8.016   6.932  21.779  0.00  0.00    +0.006 C 
BRANCH  39  40
ATOM     40  C   UNL     1      -6.867   7.022  22.787  0.00  0.00    +0.026 C 
BRANCH  40  41
ATOM     41  C   UNL     1      -5.527   6.912  22.122  0.00  0.00    -0.034 C 
ATOM     42  C   UNL     1      -4.823   5.775  22.046  0.00  0.00    +0.004 C 
ENDBRANCH  40  41
ENDBRANCH  39  40
ENDBRANCH  38  39
ENDBRANCH  37  38
ENDBRANCH  35  37
ENDBRANCH  31  33
ENDBRANCH  30  31
ENDBRANCH  26  30
ENDBRANCH  25  28
ENDBRANCH   1  25
TORSDOF 18
