REMARK VINA RESULT:    -5.380      4.729      8.055
REMARK INTER + INTRA:         -12.324
REMARK INTER:                  -9.201
REMARK INTRA:                  -3.123
REMARK UNBOUND:                -2.541
REMARK  Name = lig_assembled_23.pdb
REMARK  18 active torsions:
REMARK  status: ('A' for Active; 'I' for Inactive)
REMARK    1  A    between atoms: _2  and  _10
REMARK    2  A    between atoms: _3  and  _41
REMARK    3  A    between atoms: _5  and  _21
REMARK    4  A    between atoms: _7  and  _8
REMARK    5  A    between atoms: _7  and  _21
REMARK    6  A    between atoms: _12  and  _41
REMARK    7  A    between atoms: _17  and  _37
REMARK    8  A    between atoms: _19  and  _25
REMARK    9  A    between atoms: _20  and  _24
REMARK   10  A    between atoms: _24  and  _25
REMARK   11  A    between atoms: _27  and  _28
REMARK   12  A    between atoms: _29  and  _30
REMARK   13  A    between atoms: _31  and  _33
REMARK   14  A    between atoms: _33  and  _34
REMARK   15  A    between atoms: _33  and  _35
REMARK   16  A    between atoms: _35  and  _36
REMARK   17  A    between atoms: _35  and  _37
REMARK   18  A    between atoms: _38  and  _40
REMARK                            x       y       z     vdW  Elec       q    Type
REMARK                         _______ _______ _______ _____ _____    ______ ____
ROOT
ATOM      1  C   UNL     1      -3.551   8.607  31.552  0.00  0.00    +0.141 C 
ENDROOT
BRANCH   1   4
ATOM      2  C   UNL     1      -2.806   6.859  29.972  0.00  0.00    +0.401 C 
ATOM      3  O   UNL     1      -3.721   6.082  30.253  0.00  0.00    -0.226 OA
ATOM      4  N   UNL     1      -2.645   8.057  30.535  0.00  0.00    -0.279 N 
ATOM      5  H   UNL     1      -1.857   8.618  30.245  0.00  0.00    +0.152 HD
BRANCH   2   6
ATOM      6  O   UNL     1      -1.842   6.470  28.990  0.00  0.00    -0.444 OA
BRANCH   6   7
ATOM      7  C   UNL     1      -2.443   6.505  27.692  0.00  0.00    +0.292 C 
BRANCH   7   9
ATOM      8  N   UNL     1      -1.330   8.705  27.500  0.00  0.00    -0.131 NA
ATOM      9  C   UNL     1      -2.323   7.853  27.109  0.00  0.00    +0.121 A 
ATOM     10  C   UNL     1      -3.095   8.474  26.152  0.00  0.00    +0.143 A 
ATOM     11  N   UNL     1      -2.523   9.713  25.983  0.00  0.00    -0.220 N 
ATOM     12  N   UNL     1      -1.460   9.832  26.816  0.00  0.00    -0.060 NA
BRANCH  11  13
ATOM     13  C   UNL     1      -2.915  10.765  25.115  0.00  0.00    +0.069 A 
ATOM     14  C   UNL     1      -3.510  10.457  23.883  0.00  0.00    +0.056 A 
ATOM     15  C   UNL     1      -3.865  11.491  23.010  0.00  0.00    +0.107 A 
ATOM     16  C   UNL     1      -3.661  12.827  23.359  0.00  0.00    +0.028 A 
ATOM     17  C   UNL     1      -3.084  13.132  24.591  0.00  0.00    +0.004 A 
ATOM     18  C   UNL     1      -2.707  12.107  25.467  0.00  0.00    +0.028 A 
BRANCH  15  19
ATOM     19  S   UNL     1      -4.559  11.082  21.437  0.00  0.00    +0.056 S 
ATOM     20  O   UNL     1      -4.137   9.750  21.074  0.00  0.00    -0.153 OA
ATOM     21  O   UNL     1      -5.942  11.500  21.403  0.00  0.00    -0.153 OA
BRANCH  19  22
ATOM     22  N   UNL     1      -3.751  12.139  20.413  0.00  0.00    -0.204 NA
ATOM     23  H   UNL     1      -3.234  12.828  20.960  0.00  0.00    +0.144 HD
ATOM     24  H   UNL     1      -4.405  12.546  19.743  0.00  0.00    +0.144 HD
ENDBRANCH  19  22
ENDBRANCH  15  19
ENDBRANCH  11  13
ENDBRANCH   7   9
ENDBRANCH   6   7
ENDBRANCH   2   6
ENDBRANCH   1   4
BRANCH   1  25
ATOM     25  C   UNL     1      -4.357   9.786  31.017  0.00  0.00    +0.163 C 
BRANCH  25  26
ATOM     26  O   UNL     1      -5.270  10.253  32.023  0.00  0.00    -0.388 OA
ATOM     27  H   UNL     1      -4.837  10.915  32.567  0.00  0.00    +0.210 HD
ENDBRANCH  25  26
BRANCH  25  28
ATOM     28  C   UNL     1      -3.400  10.907  30.579  0.00  0.00    +0.175 C 
BRANCH  28  29
ATOM     29  C   UNL     1      -4.097  12.275  30.529  0.00  0.00    +0.176 C 
ATOM     30  O   UNL     1      -4.244  12.752  31.895  0.00  0.00    -0.332 OA
ATOM     31  C   UNL     1      -4.798  14.101  32.039  0.00  0.00    +0.277 C 
ATOM     32  C   UNL     1      -6.153  14.212  31.297  0.00  0.00    +0.110 C 
ATOM     33  C   UNL     1      -6.053  13.687  29.849  0.00  0.00    +0.143 C 
ATOM     34  C   UNL     1      -5.462  12.278  29.816  0.00  0.00    +0.133 C 
BRANCH  34  35
ATOM     35  N   UNL     1      -5.291  11.823  28.427  0.00  0.00    -0.308 N 
ATOM     36  H   UNL     1      -4.561  12.252  27.877  0.00  0.00    +0.149 HD
ATOM     37  C   UNL     1      -6.039  10.881  27.846  0.00  0.00    +0.210 C 
ATOM     38  C   UNL     1      -7.161  10.265  28.704  0.00  0.00    +0.109 C 
ATOM     39  O   UNL     1      -5.864  10.509  26.685  0.00  0.00    -0.276 OA
ENDBRANCH  34  35
BRANCH  31  40
ATOM     40  C   UNL     1      -3.819  15.157  31.485  0.00  0.00    +0.414 C 
ATOM     41  O   UNL     1      -2.628  15.118  31.791  0.00  0.00    -0.240 OA
ATOM     42  O   UNL     1      -4.220  16.046  30.733  0.00  0.00    -0.240 OA
ENDBRANCH  31  40
BRANCH  33  43
ATOM     43  O   UNL     1      -7.352  13.667  29.254  0.00  0.00    -0.390 OA
ATOM     44  H   UNL     1      -8.020  13.741  29.940  0.00  0.00    +0.210 HD
ENDBRANCH  33  43
BRANCH  31  45
ATOM     45  O   UNL     1      -5.029  14.343  33.451  0.00  0.00    -0.343 OA
ATOM     46  C   UNL     1      -5.638  15.621  33.762  0.00  0.00    +0.198 C 
ENDBRANCH  31  45
ENDBRANCH  28  29
BRANCH  28  47
ATOM     47  O   UNL     1      -2.825  10.596  29.294  0.00  0.00    -0.387 OA
ATOM     48  H   UNL     1      -2.848  11.376  28.735  0.00  0.00    +0.210 HD
ENDBRANCH  28  47
ENDBRANCH  25  28
ENDBRANCH   1  25
TORSDOF 16
