REMARK VINA RESULT:    -5.194      4.245      5.657
REMARK INTER + INTRA:         -10.803
REMARK INTER:                  -7.861
REMARK INTRA:                  -2.942
REMARK UNBOUND:                -1.813
REMARK  Name = lig_assembled_40.pdb
REMARK  17 active torsions:
REMARK  status: ('A' for Active; 'I' for Inactive)
REMARK    1  A    between atoms: _2  and  _9
REMARK    2  A    between atoms: _4  and  _19
REMARK    3  A    between atoms: _6  and  _7
REMARK    4  A    between atoms: _6  and  _19
REMARK    5  A    between atoms: _12  and  _13
REMARK    6  A    between atoms: _15  and  _35
REMARK    7  A    between atoms: _17  and  _23
REMARK    8  A    between atoms: _18  and  _22
REMARK    9  A    between atoms: _22  and  _23
REMARK   10  A    between atoms: _25  and  _26
REMARK   11  A    between atoms: _27  and  _28
REMARK   12  A    between atoms: _29  and  _31
REMARK   13  A    between atoms: _31  and  _32
REMARK   14  A    between atoms: _31  and  _33
REMARK   15  A    between atoms: _33  and  _34
REMARK   16  A    between atoms: _33  and  _35
REMARK   17  A    between atoms: _36  and  _38
REMARK                            x       y       z     vdW  Elec       q    Type
REMARK                         _______ _______ _______ _____ _____    ______ ____
ROOT
ATOM      1  C   UNL     1      -2.675  11.123  28.269  0.00  0.00    +0.163 C 
ENDROOT
BRANCH   1   2
ATOM      2  O   UNL     1      -3.075  11.543  26.954  0.00  0.00    -0.388 OA
ATOM      3  H   UNL     1      -2.356  12.025  26.539  0.00  0.00    +0.210 HD
ENDBRANCH   1   2
BRANCH   1   4
ATOM      4  C   UNL     1      -2.272   9.652  28.247  0.00  0.00    +0.141 C 
BRANCH   4   7
ATOM      5  C   UNL     1      -3.015   7.915  26.654  0.00  0.00    +0.401 C 
ATOM      6  O   UNL     1      -1.883   7.700  26.216  0.00  0.00    -0.226 OA
ATOM      7  N   UNL     1      -3.289   8.815  27.600  0.00  0.00    -0.279 N 
ATOM      8  H   UNL     1      -4.251   8.926  27.887  0.00  0.00    +0.152 HD
BRANCH   5   9
ATOM      9  O   UNL     1      -4.117   7.171  26.129  0.00  0.00    -0.444 OA
BRANCH   9  10
ATOM     10  C   UNL     1      -4.383   7.593  24.789  0.00  0.00    +0.292 C 
BRANCH  10  12
ATOM     11  N   UNL     1      -5.495   9.597  25.723  0.00  0.00    -0.131 NA
ATOM     12  C   UNL     1      -4.714   9.030  24.759  0.00  0.00    +0.121 A 
ATOM     13  C   UNL     1      -4.335   9.999  23.860  0.00  0.00    +0.143 A 
ATOM     14  N   UNL     1      -4.888  11.166  24.338  0.00  0.00    -0.220 N 
ATOM     15  N   UNL     1      -5.604  10.892  25.458  0.00  0.00    -0.060 NA
BRANCH  14  16
ATOM     16  C   UNL     1      -4.745  12.484  23.833  0.00  0.00    +0.067 A 
ATOM     17  C   UNL     1      -5.587  13.513  24.267  0.00  0.00    +0.028 A 
ATOM     18  C   UNL     1      -5.480  14.791  23.710  0.00  0.00    +0.005 A 
ATOM     19  C   UNL     1      -4.534  15.056  22.715  0.00  0.00    -0.050 A 
ATOM     20  C   UNL     1      -3.668  14.035  22.308  0.00  0.00    +0.005 A 
ATOM     21  C   UNL     1      -4.447  16.414  22.081  0.00  0.00    +0.044 C 
ATOM     22  C   UNL     1      -3.770  12.755  22.862  0.00  0.00    +0.028 A 
ENDBRANCH  14  16
ENDBRANCH  10  12
ENDBRANCH   9  10
ENDBRANCH   5   9
ENDBRANCH   4   7
ENDBRANCH   1   4
BRANCH   1  23
ATOM     23  C   UNL     1      -3.815  11.328  29.282  0.00  0.00    +0.175 C 
BRANCH  23  24
ATOM     24  C   UNL     1      -3.676  10.406  30.502  0.00  0.00    +0.176 C 
ATOM     25  O   UNL     1      -4.844   9.541  30.544  0.00  0.00    -0.332 OA
ATOM     26  C   UNL     1      -4.835   8.514  31.591  0.00  0.00    +0.277 C 
ATOM     27  C   UNL     1      -4.611   9.159  32.980  0.00  0.00    +0.110 C 
ATOM     28  C   UNL     1      -3.398  10.113  32.976  0.00  0.00    +0.143 C 
ATOM     29  C   UNL     1      -3.509  11.137  31.847  0.00  0.00    +0.133 C 
BRANCH  29  30
ATOM     30  N   UNL     1      -2.306  11.984  31.800  0.00  0.00    -0.308 N 
ATOM     31  H   UNL     1      -1.431  11.547  31.545  0.00  0.00    +0.149 HD
ATOM     32  C   UNL     1      -2.295  13.292  32.071  0.00  0.00    +0.210 C 
ATOM     33  C   UNL     1      -3.640  13.922  32.481  0.00  0.00    +0.109 C 
ATOM     34  O   UNL     1      -1.275  13.979  32.009  0.00  0.00    -0.276 OA
ENDBRANCH  29  30
BRANCH  26  35
ATOM     35  C   UNL     1      -3.731   7.470  31.323  0.00  0.00    +0.414 C 
ATOM     36  O   UNL     1      -3.086   6.995  32.257  0.00  0.00    -0.240 OA
ATOM     37  O   UNL     1      -3.484   7.103  30.173  0.00  0.00    -0.240 OA
ENDBRANCH  26  35
BRANCH  28  38
ATOM     38  O   UNL     1      -3.319  10.797  34.227  0.00  0.00    -0.390 OA
ATOM     39  H   UNL     1      -3.789  10.296  34.897  0.00  0.00    +0.210 HD
ENDBRANCH  28  38
BRANCH  26  40
ATOM     40  O   UNL     1      -6.132   7.863  31.592  0.00  0.00    -0.343 OA
ATOM     41  C   UNL     1      -7.146   8.518  30.788  0.00  0.00    +0.198 C 
ENDBRANCH  26  40
ENDBRANCH  23  24
BRANCH  23  42
ATOM     42  O   UNL     1      -5.090  11.119  28.644  0.00  0.00    -0.387 OA
ATOM     43  H   UNL     1      -5.063  10.307  28.132  0.00  0.00    +0.210 HD
ENDBRANCH  23  42
ENDBRANCH   1  23
TORSDOF 14
