REMARK VINA RESULT:    -4.724      4.784     12.106
REMARK INTER + INTRA:         -13.345
REMARK INTER:                  -9.685
REMARK INTRA:                  -3.660
REMARK UNBOUND:                -3.788
REMARK  Name = lig_assembled_81.pdb
REMARK  22 active torsions:
REMARK  status: ('A' for Active; 'I' for Inactive)
REMARK    1  A    between atoms: _2  and  _12
REMARK    2  A    between atoms: _7  and  _30
REMARK    3  A    between atoms: _8  and  _24
REMARK    4  A    between atoms: _9  and  _10
REMARK    5  A    between atoms: _9  and  _30
REMARK    6  A    between atoms: _14  and  _15
REMARK    7  A    between atoms: _21  and  _22
REMARK    8  A    between atoms: _22  and  _23
REMARK    9  A    between atoms: _23  and  _25
REMARK   10  A    between atoms: _24  and  _25
REMARK   11  A    between atoms: _26  and  _46
REMARK   12  A    between atoms: _28  and  _34
REMARK   13  A    between atoms: _29  and  _33
REMARK   14  A    between atoms: _33  and  _34
REMARK   15  A    between atoms: _36  and  _37
REMARK   16  A    between atoms: _38  and  _39
REMARK   17  A    between atoms: _40  and  _42
REMARK   18  A    between atoms: _42  and  _43
REMARK   19  A    between atoms: _42  and  _44
REMARK   20  A    between atoms: _44  and  _45
REMARK   21  A    between atoms: _44  and  _46
REMARK   22  A    between atoms: _47  and  _49
REMARK                            x       y       z     vdW  Elec       q    Type
REMARK                         _______ _______ _______ _____ _____    ______ ____
ROOT
ATOM      1  C   UNL     1      -7.362   8.285  20.301  0.00  0.00    +0.401 C 
ATOM      2  O   UNL     1      -6.440   7.480  20.149  0.00  0.00    -0.226 OA
ATOM      3  N   UNL     1      -7.858   8.635  21.488  0.00  0.00    -0.279 N 
ATOM      4  H   UNL     1      -8.609   9.311  21.510  0.00  0.00    +0.152 HD
ENDROOT
BRANCH   1   5
ATOM      5  O   UNL     1      -7.946   8.896  19.148  0.00  0.00    -0.444 OA
BRANCH   5   6
ATOM      6  C   UNL     1      -7.804  10.317  19.236  0.00  0.00    +0.289 C 
BRANCH   6   8
ATOM      7  N   UNL     1      -6.547  12.129  18.163  0.00  0.00    -0.130 NA
ATOM      8  C   UNL     1      -6.828  10.798  18.237  0.00  0.00    +0.100 C 
ATOM      9  C   UNL     1      -6.102  10.138  17.263  0.00  0.00    +0.124 C 
ATOM     10  N   UNL     1      -5.281  11.114  16.715  0.00  0.00    -0.187 N 
ATOM     11  N   UNL     1      -5.718  12.313  17.150  0.00  0.00    -0.010 NA
BRANCH  10  12
ATOM     12  C   UNL     1      -4.284  10.961  15.693  0.00  0.00    +0.150 A 
ATOM     13  C   UNL     1      -4.053  11.860  14.623  0.00  0.00    +0.022 A 
ATOM     14  C   UNL     1      -3.056  11.411  13.719  0.00  0.00    +0.081 A 
ATOM     15  N   UNL     1      -2.459  10.196  13.859  0.00  0.00    -0.214 NA
ATOM     16  C   UNL     1      -2.780   9.429  14.887  0.00  0.00    +0.215 A 
ATOM     17  N   UNL     1      -2.233   8.171  14.960  0.00  0.00    -0.327 N 
ATOM     18  H   UNL     1      -1.383   8.109  14.421  0.00  0.00    +0.145 HD
ATOM     19  H   UNL     1      -2.242   7.812  15.902  0.00  0.00    +0.145 HD
ATOM     20  N   UNL     1      -3.593   9.800  15.857  0.00  0.00    -0.198 NA
BRANCH  14  21
ATOM     21  C   UNL     1      -2.516  12.122  12.498  0.00  0.00    +0.001 A 
ATOM     22  C   UNL     1      -2.762  11.742  11.166  0.00  0.00    +0.010 A 
ATOM     23  C   UNL     1      -2.242  12.452  10.071  0.00  0.00    +0.001 A 
ATOM     24  C   UNL     1      -1.506  13.606  10.265  0.00  0.00    +0.000 A 
ATOM     25  C   UNL     1      -1.283  14.055  11.565  0.00  0.00    +0.001 A 
ATOM     26  C   UNL     1      -1.770  13.316  12.652  0.00  0.00    +0.010 A 
ENDBRANCH  14  21
BRANCH  13  27
ATOM     27  C   UNL     1      -4.649  13.254  14.400  0.00  0.00    +0.069 C 
BRANCH  27  28
ATOM     28  C   UNL     1      -5.847  13.460  13.493  0.00  0.00    +0.164 C 
BRANCH  28  29
ATOM     29  O   UNL     1      -6.592  12.286  13.148  0.00  0.00    -0.380 OA
BRANCH  29  30
ATOM     30  C   UNL     1      -6.452  12.123  11.723  0.00  0.00    +0.156 C 
ATOM     31  C   UNL     1      -6.080  13.422  11.046  0.00  0.00    +0.034 C 
ENDBRANCH  29  30
ENDBRANCH  28  29
ENDBRANCH  27  28
ENDBRANCH  13  27
ENDBRANCH  10  12
ENDBRANCH   6   8
ENDBRANCH   5   6
ENDBRANCH   1   5
BRANCH   3  32
ATOM     32  C   UNL     1      -7.376   8.093  22.764  0.00  0.00    +0.141 C 
BRANCH  32  33
ATOM     33  C   UNL     1      -6.388   9.035  23.445  0.00  0.00    +0.163 C 
BRANCH  33  34
ATOM     34  O   UNL     1      -6.859   9.376  24.758  0.00  0.00    -0.388 OA
ATOM     35  H   UNL     1      -6.573  10.266  24.981  0.00  0.00    +0.210 HD
ENDBRANCH  33  34
BRANCH  33  36
ATOM     36  C   UNL     1      -5.004   8.366  23.513  0.00  0.00    +0.175 C 
BRANCH  36  37
ATOM     37  C   UNL     1      -3.962   9.262  24.199  0.00  0.00    +0.176 C 
ATOM     38  O   UNL     1      -4.295   9.334  25.612  0.00  0.00    -0.332 OA
ATOM     39  C   UNL     1      -3.342  10.067  26.451  0.00  0.00    +0.277 C 
ATOM     40  C   UNL     1      -3.116  11.494  25.893  0.00  0.00    +0.110 C 
ATOM     41  C   UNL     1      -2.790  11.470  24.385  0.00  0.00    +0.143 C 
ATOM     42  C   UNL     1      -3.844  10.679  23.608  0.00  0.00    +0.133 C 
BRANCH  42  43
ATOM     43  N   UNL     1      -3.477  10.591  22.186  0.00  0.00    -0.308 N 
ATOM     44  H   UNL     1      -2.651  10.060  21.944  0.00  0.00    +0.149 HD
ATOM     45  C   UNL     1      -4.163  11.165  21.194  0.00  0.00    +0.210 C 
ATOM     46  C   UNL     1      -5.401  11.987  21.598  0.00  0.00    +0.109 C 
ATOM     47  O   UNL     1      -3.840  11.061  20.011  0.00  0.00    -0.276 OA
ENDBRANCH  42  43
BRANCH  39  48
ATOM     48  C   UNL     1      -1.993   9.323  26.525  0.00  0.00    +0.414 C 
ATOM     49  O   UNL     1      -1.960   8.093  26.489  0.00  0.00    -0.240 OA
ATOM     50  O   UNL     1      -0.937   9.951  26.620  0.00  0.00    -0.240 OA
ENDBRANCH  39  48
BRANCH  39  51
ATOM     51  O   UNL     1      -3.910  10.181  27.781  0.00  0.00    -0.343 OA
ATOM     52  C   UNL     1      -3.864  11.512  28.355  0.00  0.00    +0.198 C 
ENDBRANCH  39  51
BRANCH  41  53
ATOM     53  O   UNL     1      -2.739  12.806  23.882  0.00  0.00    -0.390 OA
ATOM     54  H   UNL     1      -2.030  12.880  23.240  0.00  0.00    +0.210 HD
ENDBRANCH  41  53
ENDBRANCH  36  37
BRANCH  36  55
ATOM     55  O   UNL     1      -4.559   8.009  22.190  0.00  0.00    -0.387 OA
ATOM     56  H   UNL     1      -4.698   8.749  21.594  0.00  0.00    +0.210 HD
ENDBRANCH  36  55
ENDBRANCH  33  36
ENDBRANCH  32  33
ENDBRANCH   3  32
TORSDOF 19
