REMARK VINA RESULT:    -5.043      2.647      5.896
REMARK INTER + INTRA:         -12.061
REMARK INTER:                  -9.291
REMARK INTRA:                  -2.770
REMARK UNBOUND:                -2.890
REMARK  Name = lig_assembled_73.pdb
REMARK  18 active torsions:
REMARK  status: ('A' for Active; 'I' for Inactive)
REMARK    1  A    between atoms: _2  and  _10
REMARK    2  A    between atoms: _3  and  _14
REMARK    3  A    between atoms: _5  and  _22
REMARK    4  A    between atoms: _7  and  _8
REMARK    5  A    between atoms: _7  and  _22
REMARK    6  A    between atoms: _13  and  _16
REMARK    7  A    between atoms: _18  and  _38
REMARK    8  A    between atoms: _20  and  _26
REMARK    9  A    between atoms: _21  and  _25
REMARK   10  A    between atoms: _25  and  _26
REMARK   11  A    between atoms: _28  and  _29
REMARK   12  A    between atoms: _30  and  _31
REMARK   13  A    between atoms: _32  and  _34
REMARK   14  A    between atoms: _34  and  _35
REMARK   15  A    between atoms: _34  and  _36
REMARK   16  A    between atoms: _36  and  _37
REMARK   17  A    between atoms: _36  and  _38
REMARK   18  A    between atoms: _39  and  _41
REMARK                            x       y       z     vdW  Elec       q    Type
REMARK                         _______ _______ _______ _____ _____    ______ ____
ROOT
ATOM      1  C   UNL     1      -4.202   8.178  24.215  0.00  0.00    +0.163 C 
ENDROOT
BRANCH   1   2
ATOM      2  O   UNL     1      -4.098   7.641  22.886  0.00  0.00    -0.388 OA
ATOM      3  H   UNL     1      -3.350   8.041  22.436  0.00  0.00    +0.210 HD
ENDBRANCH   1   2
BRANCH   1   4
ATOM      4  C   UNL     1      -5.338   9.212  24.303  0.00  0.00    +0.175 C 
BRANCH   4   5
ATOM      5  C   UNL     1      -4.909  10.588  23.773  0.00  0.00    +0.176 C 
ATOM      6  O   UNL     1      -4.659  10.460  22.346  0.00  0.00    -0.332 OA
ATOM      7  C   UNL     1      -4.338  11.707  21.645  0.00  0.00    +0.277 C 
ATOM      8  C   UNL     1      -3.142  12.418  22.324  0.00  0.00    +0.110 C 
ATOM      9  C   UNL     1      -3.348  12.548  23.848  0.00  0.00    +0.143 C 
ATOM     10  C   UNL     1      -3.679  11.194  24.475  0.00  0.00    +0.133 C 
BRANCH  10  11
ATOM     11  N   UNL     1      -3.958  11.346  25.911  0.00  0.00    -0.308 N 
ATOM     12  H   UNL     1      -4.823  11.794  26.179  0.00  0.00    +0.149 HD
ATOM     13  C   UNL     1      -3.143  10.930  26.885  0.00  0.00    +0.210 C 
ATOM     14  C   UNL     1      -1.821  10.274  26.444  0.00  0.00    +0.109 C 
ATOM     15  O   UNL     1      -3.409  11.057  28.080  0.00  0.00    -0.276 OA
ENDBRANCH  10  11
BRANCH   7  16
ATOM     16  C   UNL     1      -5.557  12.653  21.626  0.00  0.00    +0.414 C 
ATOM     17  O   UNL     1      -6.693  12.204  21.777  0.00  0.00    -0.240 OA
ATOM     18  O   UNL     1      -5.405  13.863  21.459  0.00  0.00    -0.240 OA
ENDBRANCH   7  16
BRANCH   9  19
ATOM     19  O   UNL     1      -2.163  13.069  24.451  0.00  0.00    -0.390 OA
ATOM     20  H   UNL     1      -1.407  12.543  24.179  0.00  0.00    +0.210 HD
ENDBRANCH   9  19
BRANCH   7  21
ATOM     21  O   UNL     1      -3.959  11.371  20.285  0.00  0.00    -0.343 OA
ATOM     22  C   UNL     1      -4.790  10.368  19.647  0.00  0.00    +0.198 C 
ENDBRANCH   7  21
ENDBRANCH   4   5
BRANCH   4  23
ATOM     23  O   UNL     1      -5.801   9.325  25.663  0.00  0.00    -0.387 OA
ATOM     24  H   UNL     1      -5.587  10.198  26.003  0.00  0.00    +0.210 HD
ENDBRANCH   4  23
ENDBRANCH   1   4
BRANCH   1  25
ATOM     25  C   UNL     1      -4.457   7.054  25.213  0.00  0.00    +0.141 C 
BRANCH  25  28
ATOM     26  C   UNL     1      -2.339   6.757  26.450  0.00  0.00    +0.401 C 
ATOM     27  O   UNL     1      -1.754   6.218  25.507  0.00  0.00    -0.226 OA
ATOM     28  N   UNL     1      -3.605   7.174  26.402  0.00  0.00    -0.279 N 
ATOM     29  H   UNL     1      -4.000   7.596  27.231  0.00  0.00    +0.152 HD
BRANCH  26  30
ATOM     30  O   UNL     1      -1.638   6.954  27.681  0.00  0.00    -0.444 OA
BRANCH  30  31
ATOM     31  C   UNL     1      -2.189   6.100  28.687  0.00  0.00    +0.292 C 
BRANCH  31  33
ATOM     32  N   UNL     1      -2.901   6.268  31.051  0.00  0.00    -0.131 NA
ATOM     33  C   UNL     1      -2.543   6.882  29.886  0.00  0.00    +0.121 A 
ATOM     34  C   UNL     1      -2.582   8.245  30.067  0.00  0.00    +0.143 A 
ATOM     35  N   UNL     1      -2.966   8.419  31.377  0.00  0.00    -0.220 N 
ATOM     36  N   UNL     1      -3.155   7.207  31.951  0.00  0.00    -0.060 NA
BRANCH  35  37
ATOM     37  C   UNL     1      -3.164   9.627  32.093  0.00  0.00    +0.074 A 
ATOM     38  C   UNL     1      -3.836   9.604  33.328  0.00  0.00    +0.032 A 
ATOM     39  C   UNL     1      -4.052  10.787  34.049  0.00  0.00    +0.054 A 
ATOM     40  C   UNL     1      -3.601  12.004  33.542  0.00  0.00    +0.195 A 
ATOM     41  C   UNL     1      -2.934  12.020  32.318  0.00  0.00    +0.316 A 
ATOM     42  C   UNL     1      -2.702  10.848  31.585  0.00  0.00    +0.116 A 
BRANCH  41  43
ATOM     43  N   UNL     1      -2.462  13.271  31.759  0.00  0.00    +0.083 N 
ATOM     44  O   UNL     1      -3.017  13.686  30.732  0.00  0.00    +0.042 OA
ATOM     45  O   UNL     1      -1.474  13.785  32.303  0.00  0.00    -0.576 OA
ENDBRANCH  41  43
BRANCH  40  46
ATOM     46  O   UNL     1      -3.792  13.150  34.253  0.00  0.00    -0.501 OA
ATOM     47  H   UNL     1      -2.940  13.595  34.405  0.00  0.00    +0.292 HD
ENDBRANCH  40  46
ENDBRANCH  35  37
ENDBRANCH  31  33
ENDBRANCH  30  31
ENDBRANCH  26  30
ENDBRANCH  25  28
ENDBRANCH   1  25
TORSDOF 16
