REMARK VINA RESULT:    -5.130      5.625     11.344
REMARK INTER + INTRA:         -13.409
REMARK INTER:                 -10.997
REMARK INTRA:                  -2.412
REMARK UNBOUND:                -3.181
REMARK  Name = lig_assembled_76.pdb
REMARK  21 active torsions:
REMARK  status: ('A' for Active; 'I' for Inactive)
REMARK    1  A    between atoms: _2  and  _9
REMARK    2  A    between atoms: _4  and  _23
REMARK    3  A    between atoms: _6  and  _7
REMARK    4  A    between atoms: _6  and  _23
REMARK    5  A    between atoms: _9  and  _10
REMARK    6  A    between atoms: _10  and  _11
REMARK    7  A    between atoms: _10  and  _18
REMARK    8  A    between atoms: _11  and  _12
REMARK    9  A    between atoms: _12  and  _13
REMARK   10  A    between atoms: _19  and  _39
REMARK   11  A    between atoms: _21  and  _27
REMARK   12  A    between atoms: _22  and  _26
REMARK   13  A    between atoms: _26  and  _27
REMARK   14  A    between atoms: _29  and  _30
REMARK   15  A    between atoms: _31  and  _32
REMARK   16  A    between atoms: _33  and  _35
REMARK   17  A    between atoms: _35  and  _36
REMARK   18  A    between atoms: _35  and  _37
REMARK   19  A    between atoms: _37  and  _38
REMARK   20  A    between atoms: _37  and  _39
REMARK   21  A    between atoms: _40  and  _42
REMARK                            x       y       z     vdW  Elec       q    Type
REMARK                         _______ _______ _______ _____ _____    ______ ____
ROOT
ATOM      1  C   UNL     1      -4.255  12.176  20.386  0.00  0.00    +0.141 C 
ENDROOT
BRANCH   1   4
ATOM      2  C   UNL     1      -5.671  11.320  18.551  0.00  0.00    +0.401 C 
ATOM      3  O   UNL     1      -6.612  12.079  18.797  0.00  0.00    -0.226 OA
ATOM      4  N   UNL     1      -4.534  11.294  19.246  0.00  0.00    -0.279 N 
ATOM      5  H   UNL     1      -3.823  10.629  18.974  0.00  0.00    +0.152 HD
BRANCH   2   6
ATOM      6  O   UNL     1      -5.786  10.402  17.461  0.00  0.00    -0.444 OA
BRANCH   6   7
ATOM      7  C   UNL     1      -4.491   9.900  17.121  0.00  0.00    +0.292 C 
BRANCH   7   9
ATOM      8  N   UNL     1      -2.714  10.408  15.468  0.00  0.00    -0.131 NA
ATOM      9  C   UNL     1      -4.028  10.487  15.853  0.00  0.00    +0.120 A 
ATOM     10  C   UNL     1      -4.738  11.178  14.895  0.00  0.00    +0.137 A 
ATOM     11  N   UNL     1      -3.802  11.485  13.957  0.00  0.00    -0.249 N 
ATOM     12  N   UNL     1      -2.587  11.033  14.304  0.00  0.00    -0.065 NA
BRANCH  11  13
ATOM     13  C   UNL     1      -3.966  12.313  12.783  0.00  0.00    +0.176 C 
BRANCH  13  14
ATOM     14  C   UNL     1      -3.535  13.766  13.012  0.00  0.00    +0.136 C 
BRANCH  14  15
ATOM     15  O   UNL     1      -2.802  13.876  14.241  0.00  0.00    -0.390 OA
ATOM     16  H   UNL     1      -2.369  13.025  14.431  0.00  0.00    +0.210 HD
ENDBRANCH  14  15
BRANCH  14  17
ATOM     17  C   UNL     1      -2.630  14.294  11.888  0.00  0.00    +0.038 C 
BRANCH  17  18
ATOM     18  C   UNL     1      -1.396  13.427  11.642  0.00  0.00    +0.038 C 
BRANCH  18  19
ATOM     19  C   UNL     1      -0.140  14.251  11.513  0.00  0.00    -0.047 A 
ATOM     20  C   UNL     1       0.835  13.910  10.565  0.00  0.00    +0.003 A 
ATOM     21  C   UNL     1       1.991  14.681  10.431  0.00  0.00    +0.000 A 
ATOM     22  C   UNL     1       2.183  15.795  11.245  0.00  0.00    +0.000 A 
ATOM     23  C   UNL     1       1.224  16.135  12.198  0.00  0.00    +0.000 A 
ATOM     24  C   UNL     1       0.068  15.364  12.335  0.00  0.00    +0.003 A 
ENDBRANCH  18  19
ENDBRANCH  17  18
ENDBRANCH  14  17
ENDBRANCH  13  14
ENDBRANCH  11  13
ENDBRANCH   7   9
ENDBRANCH   6   7
ENDBRANCH   2   6
ENDBRANCH   1   4
BRANCH   1  25
ATOM     25  C   UNL     1      -3.410  11.482  21.449  0.00  0.00    +0.163 C 
BRANCH  25  26
ATOM     26  O   UNL     1      -2.946  12.443  22.412  0.00  0.00    -0.388 OA
ATOM     27  H   UNL     1      -2.486  11.988  23.122  0.00  0.00    +0.210 HD
ENDBRANCH  25  26
BRANCH  25  28
ATOM     28  C   UNL     1      -4.241  10.381  22.129  0.00  0.00    +0.175 C 
BRANCH  28  29
ATOM     29  C   UNL     1      -4.333  10.580  23.649  0.00  0.00    +0.176 C 
ATOM     30  O   UNL     1      -3.150   9.983  24.249  0.00  0.00    -0.332 OA
ATOM     31  C   UNL     1      -3.012  10.170  25.697  0.00  0.00    +0.277 C 
ATOM     32  C   UNL     1      -4.280   9.670  26.431  0.00  0.00    +0.110 C 
ATOM     33  C   UNL     1      -5.566  10.253  25.807  0.00  0.00    +0.143 C 
ATOM     34  C   UNL     1      -5.605  10.005  24.299  0.00  0.00    +0.133 C 
BRANCH  34  35
ATOM     35  N   UNL     1      -6.791  10.640  23.703  0.00  0.00    -0.308 N 
ATOM     36  H   UNL     1      -6.906  11.636  23.828  0.00  0.00    +0.149 HD
ATOM     37  C   UNL     1      -7.725   9.987  23.007  0.00  0.00    +0.210 C 
ATOM     38  C   UNL     1      -7.535   8.466  22.855  0.00  0.00    +0.109 C 
ATOM     39  O   UNL     1      -8.701  10.548  22.506  0.00  0.00    -0.276 OA
ENDBRANCH  34  35
BRANCH  31  40
ATOM     40  C   UNL     1      -2.771  11.655  26.036  0.00  0.00    +0.414 C 
ATOM     41  O   UNL     1      -2.073  12.354  25.302  0.00  0.00    -0.240 OA
ATOM     42  O   UNL     1      -3.275  12.155  27.043  0.00  0.00    -0.240 OA
ENDBRANCH  31  40
BRANCH  33  43
ATOM     43  O   UNL     1      -6.711   9.652  26.413  0.00  0.00    -0.390 OA
ATOM     44  H   UNL     1      -7.363  10.329  26.607  0.00  0.00    +0.210 HD
ENDBRANCH  33  43
BRANCH  31  45
ATOM     45  O   UNL     1      -1.882   9.377  26.145  0.00  0.00    -0.343 OA
ATOM     46  C   UNL     1      -1.929   8.978  27.539  0.00  0.00    +0.198 C 
ENDBRANCH  31  45
ENDBRANCH  28  29
BRANCH  28  47
ATOM     47  O   UNL     1      -3.686   9.084  21.830  0.00  0.00    -0.387 OA
ATOM     48  H   UNL     1      -3.923   8.466  22.526  0.00  0.00    +0.210 HD
ENDBRANCH  28  47
ENDBRANCH  25  28
ENDBRANCH   1  25
TORSDOF 19
