REMARK VINA RESULT:    -4.145      6.136      9.765
REMARK INTER + INTRA:         -11.776
REMARK INTER:                  -8.661
REMARK INTRA:                  -3.115
REMARK UNBOUND:                -3.997
REMARK  Name = lig_assembled_68.pdb
REMARK  19 active torsions:
REMARK  status: ('A' for Active; 'I' for Inactive)
REMARK    1  A    between atoms: _2  and  _9
REMARK    2  A    between atoms: _4  and  _21
REMARK    3  A    between atoms: _6  and  _7
REMARK    4  A    between atoms: _6  and  _21
REMARK    5  A    between atoms: _9  and  _10
REMARK    6  A    between atoms: _10  and  _11
REMARK    7  A    between atoms: _10  and  _16
REMARK    8  A    between atoms: _17  and  _37
REMARK    9  A    between atoms: _19  and  _25
REMARK   10  A    between atoms: _20  and  _24
REMARK   11  A    between atoms: _24  and  _25
REMARK   12  A    between atoms: _27  and  _28
REMARK   13  A    between atoms: _29  and  _30
REMARK   14  A    between atoms: _31  and  _33
REMARK   15  A    between atoms: _33  and  _34
REMARK   16  A    between atoms: _33  and  _35
REMARK   17  A    between atoms: _35  and  _36
REMARK   18  A    between atoms: _35  and  _37
REMARK   19  A    between atoms: _38  and  _40
REMARK                            x       y       z     vdW  Elec       q    Type
REMARK                         _______ _______ _______ _____ _____    ______ ____
ROOT
ATOM      1  C   UNL     1      -6.507   9.139  23.411  0.00  0.00    +0.163 C 
ENDROOT
BRANCH   1   2
ATOM      2  O   UNL     1      -7.164   9.086  24.688  0.00  0.00    -0.388 OA
ATOM      3  H   UNL     1      -7.915   9.684  24.687  0.00  0.00    +0.210 HD
ENDBRANCH   1   2
BRANCH   1   4
ATOM      4  C   UNL     1      -5.140   8.434  23.466  0.00  0.00    +0.175 C 
BRANCH   4   5
ATOM      5  C   UNL     1      -4.071   9.299  24.149  0.00  0.00    +0.176 C 
ATOM      6  O   UNL     1      -4.381   9.354  25.569  0.00  0.00    -0.332 OA
ATOM      7  C   UNL     1      -3.401  10.054  26.405  0.00  0.00    +0.277 C 
ATOM      8  C   UNL     1      -3.155  11.485  25.866  0.00  0.00    +0.110 C 
ATOM      9  C   UNL     1      -2.853  11.481  24.353  0.00  0.00    +0.143 C 
ATOM     10  C   UNL     1      -3.934  10.723  23.580  0.00  0.00    +0.133 C 
BRANCH  10  11
ATOM     11  N   UNL     1      -3.590  10.651  22.151  0.00  0.00    -0.308 N 
ATOM     12  H   UNL     1      -2.820  10.055  21.881  0.00  0.00    +0.149 HD
ATOM     13  C   UNL     1      -4.229  11.320  21.189  0.00  0.00    +0.210 C 
ATOM     14  C   UNL     1      -5.382  12.239  21.636  0.00  0.00    +0.109 C 
ATOM     15  O   UNL     1      -3.929  11.229  19.998  0.00  0.00    -0.276 OA
ENDBRANCH  10  11
BRANCH   7  16
ATOM     16  C   UNL     1      -2.065   9.283  26.445  0.00  0.00    +0.414 C 
ATOM     17  O   UNL     1      -2.060   8.052  26.443  0.00  0.00    -0.240 OA
ATOM     18  O   UNL     1      -0.995   9.890  26.481  0.00  0.00    -0.240 OA
ENDBRANCH   7  16
BRANCH   7  19
ATOM     19  O   UNL     1      -3.947  10.157  27.745  0.00  0.00    -0.343 OA
ATOM     20  C   UNL     1      -5.317   9.704  27.885  0.00  0.00    +0.198 C 
ENDBRANCH   7  19
BRANCH   9  21
ATOM     21  O   UNL     1      -2.784  12.823  23.871  0.00  0.00    -0.390 OA
ATOM     22  H   UNL     1      -3.402  12.936  23.145  0.00  0.00    +0.210 HD
ENDBRANCH   9  21
ENDBRANCH   4   5
BRANCH   4  23
ATOM     23  O   UNL     1      -4.714   8.074  22.136  0.00  0.00    -0.387 OA
ATOM     24  H   UNL     1      -4.162   7.290  22.178  0.00  0.00    +0.210 HD
ENDBRANCH   4  23
ENDBRANCH   1   4
BRANCH   1  25
ATOM     25  C   UNL     1      -7.378   8.479  22.348  0.00  0.00    +0.141 C 
BRANCH  25  28
ATOM     26  C   UNL     1      -7.113   9.445  20.089  0.00  0.00    +0.401 C 
ATOM     27  O   UNL     1      -6.178   8.703  19.779  0.00  0.00    -0.226 OA
ATOM     28  N   UNL     1      -7.730   9.414  21.271  0.00  0.00    -0.279 N 
ATOM     29  H   UNL     1      -8.481  10.069  21.435  0.00  0.00    +0.152 HD
BRANCH  26  30
ATOM     30  O   UNL     1      -7.579  10.409  19.140  0.00  0.00    -0.444 OA
BRANCH  30  31
ATOM     31  C   UNL     1      -7.539   9.845  17.827  0.00  0.00    +0.292 C 
BRANCH  31  33
ATOM     32  N   UNL     1      -6.112  11.823  17.382  0.00  0.00    -0.131 NA
ATOM     33  C   UNL     1      -6.682  10.654  16.943  0.00  0.00    +0.120 A 
ATOM     34  C   UNL     1      -6.319  10.442  15.634  0.00  0.00    +0.137 A 
ATOM     35  N   UNL     1      -5.521  11.508  15.336  0.00  0.00    -0.249 N 
ATOM     36  N   UNL     1      -5.408  12.342  16.384  0.00  0.00    -0.065 NA
BRANCH  35  37
ATOM     37  C   UNL     1      -4.928  11.841  14.058  0.00  0.00    +0.181 C 
BRANCH  37  38
ATOM     38  C   UNL     1      -3.419  11.564  14.031  0.00  0.00    +0.166 C 
BRANCH  38  39
ATOM     39  C   UNL     1      -3.053  10.087  14.032  0.00  0.00    -0.017 A 
ATOM     40  C   UNL     1      -3.034   9.390  12.809  0.00  0.00    +0.006 A 
ATOM     41  C   UNL     1      -2.678   8.041  12.761  0.00  0.00    +0.000 A 
ATOM     42  C   UNL     1      -2.331   7.368  13.928  0.00  0.00    +0.000 A 
ATOM     43  C   UNL     1      -2.326   8.044  15.143  0.00  0.00    +0.000 A 
ATOM     44  C   UNL     1      -2.681   9.395  15.195  0.00  0.00    +0.006 A 
ENDBRANCH  38  39
BRANCH  38  45
ATOM     45  O   UNL     1      -2.813  12.169  15.179  0.00  0.00    -0.385 OA
ATOM     46  H   UNL     1      -3.121  13.088  15.236  0.00  0.00    +0.210 HD
ENDBRANCH  38  45
ENDBRANCH  37  38
ENDBRANCH  35  37
ENDBRANCH  31  33
ENDBRANCH  30  31
ENDBRANCH  26  30
ENDBRANCH  25  28
ENDBRANCH   1  25
TORSDOF 17
