REMARK VINA RESULT:    -5.067      2.555      4.003
REMARK INTER + INTRA:         -12.336
REMARK INTER:                  -9.658
REMARK INTRA:                  -2.678
REMARK UNBOUND:                -2.678
REMARK  Name = lig_assembled_26.pdb
REMARK  20 active torsions:
REMARK  status: ('A' for Active; 'I' for Inactive)
REMARK    1  A    between atoms: _2  and  _9
REMARK    2  A    between atoms: _4  and  _23
REMARK    3  A    between atoms: _6  and  _7
REMARK    4  A    between atoms: _6  and  _23
REMARK    5  A    between atoms: _9  and  _10
REMARK    6  A    between atoms: _9  and  _11
REMARK    7  A    between atoms: _11  and  _12
REMARK    8  A    between atoms: _12  and  _13
REMARK    9  A    between atoms: _19  and  _39
REMARK   10  A    between atoms: _21  and  _27
REMARK   11  A    between atoms: _22  and  _26
REMARK   12  A    between atoms: _26  and  _27
REMARK   13  A    between atoms: _29  and  _30
REMARK   14  A    between atoms: _31  and  _32
REMARK   15  A    between atoms: _33  and  _35
REMARK   16  A    between atoms: _35  and  _36
REMARK   17  A    between atoms: _35  and  _37
REMARK   18  A    between atoms: _37  and  _38
REMARK   19  A    between atoms: _37  and  _39
REMARK   20  A    between atoms: _40  and  _42
REMARK                            x       y       z     vdW  Elec       q    Type
REMARK                         _______ _______ _______ _____ _____    ______ ____
ROOT
ATOM      1  C   UNL     1      -3.170  11.769  25.080  0.00  0.00    +0.163 C 
ENDROOT
BRANCH   1   2
ATOM      2  O   UNL     1      -2.016  10.913  25.057  0.00  0.00    -0.388 OA
ATOM      3  H   UNL     1      -1.535  11.002  25.884  0.00  0.00    +0.210 HD
ENDBRANCH   1   2
BRANCH   1   4
ATOM      4  C   UNL     1      -3.588  12.090  26.525  0.00  0.00    +0.175 C 
BRANCH   4   5
ATOM      5  C   UNL     1      -3.374  10.897  27.467  0.00  0.00    +0.176 C 
ATOM      6  O   UNL     1      -4.008   9.734  26.868  0.00  0.00    -0.332 OA
ATOM      7  C   UNL     1      -3.815   8.468  27.581  0.00  0.00    +0.277 C 
ATOM      8  C   UNL     1      -4.263   8.605  29.057  0.00  0.00    +0.110 C 
ATOM      9  C   UNL     1      -3.639   9.847  29.728  0.00  0.00    +0.143 C 
ATOM     10  C   UNL     1      -3.897  11.106  28.901  0.00  0.00    +0.133 C 
BRANCH  10  11
ATOM     11  N   UNL     1      -3.225  12.267  29.505  0.00  0.00    -0.308 N 
ATOM     12  H   UNL     1      -2.215  12.266  29.532  0.00  0.00    +0.149 HD
ATOM     13  C   UNL     1      -3.862  13.322  30.020  0.00  0.00    +0.210 C 
ATOM     14  C   UNL     1      -5.401  13.282  29.987  0.00  0.00    +0.109 C 
ATOM     15  O   UNL     1      -3.272  14.287  30.506  0.00  0.00    -0.276 OA
ENDBRANCH  10  11
BRANCH   7  16
ATOM     16  C   UNL     1      -2.336   8.031  27.530  0.00  0.00    +0.414 C 
ATOM     17  O   UNL     1      -1.832   7.434  28.480  0.00  0.00    -0.240 OA
ATOM     18  O   UNL     1      -1.647   8.276  26.538  0.00  0.00    -0.240 OA
ENDBRANCH   7  16
BRANCH   7  19
ATOM     19  O   UNL     1      -4.643   7.462  26.943  0.00  0.00    -0.343 OA
ATOM     20  C   UNL     1      -5.414   6.637  27.853  0.00  0.00    +0.198 C 
ENDBRANCH   7  19
BRANCH   9  21
ATOM     21  O   UNL     1      -4.194  10.019  31.033  0.00  0.00    -0.390 OA
ATOM     22  H   UNL     1      -3.485  10.107  31.674  0.00  0.00    +0.210 HD
ENDBRANCH   9  21
ENDBRANCH   4   5
BRANCH   4  23
ATOM     23  O   UNL     1      -4.967  12.511  26.561  0.00  0.00    -0.387 OA
ATOM     24  H   UNL     1      -5.495  11.841  27.002  0.00  0.00    +0.210 HD
ENDBRANCH   4  23
ENDBRANCH   1   4
BRANCH   1  25
ATOM     25  C   UNL     1      -2.873  13.066  24.335  0.00  0.00    +0.141 C 
BRANCH  25  28
ATOM     26  C   UNL     1      -4.644  13.290  22.626  0.00  0.00    +0.401 C 
ATOM     27  O   UNL     1      -5.526  13.570  23.442  0.00  0.00    -0.226 OA
ATOM     28  N   UNL     1      -3.378  13.034  22.956  0.00  0.00    -0.279 N 
ATOM     29  H   UNL     1      -2.729  12.804  22.217  0.00  0.00    +0.152 HD
BRANCH  26  30
ATOM     30  O   UNL     1      -4.978  13.227  21.237  0.00  0.00    -0.444 OA
BRANCH  30  31
ATOM     31  C   UNL     1      -4.040  12.388  20.558  0.00  0.00    +0.292 C 
BRANCH  31  33
ATOM     32  N   UNL     1      -4.195  10.041  21.347  0.00  0.00    -0.131 NA
ATOM     33  C   UNL     1      -4.560  11.013  20.455  0.00  0.00    +0.120 A 
ATOM     34  C   UNL     1      -5.436  10.479  19.539  0.00  0.00    +0.137 A 
ATOM     35  N   UNL     1      -5.547   9.171  19.904  0.00  0.00    -0.248 N 
ATOM     36  N   UNL     1      -4.820   8.918  21.011  0.00  0.00    -0.065 NA
BRANCH  35  37
ATOM     37  C   UNL     1      -6.362   8.114  19.325  0.00  0.00    +0.113 C 
ATOM     38  C   UNL     1      -7.857   8.213  19.656  0.00  0.00    +0.033 C 
BRANCH  37  39
ATOM     39  C   UNL     1      -6.123   7.941  17.814  0.00  0.00    +0.106 C 
BRANCH  39  40
ATOM     40  C   UNL     1      -4.847   7.195  17.472  0.00  0.00    +0.165 C 
ATOM     41  O   UNL     1      -4.533   6.142  18.024  0.00  0.00    -0.292 OA
BRANCH  40  42
ATOM     42  C   UNL     1      -3.920   7.781  16.457  0.00  0.00    +0.017 A 
ATOM     43  C   UNL     1      -3.091   6.990  15.651  0.00  0.00    +0.011 A 
ATOM     44  C   UNL     1      -2.274   7.589  14.689  0.00  0.00    +0.001 A 
ATOM     45  C   UNL     1      -2.274   8.975  14.531  0.00  0.00    +0.000 A 
ATOM     46  C   UNL     1      -3.087   9.768  15.336  0.00  0.00    +0.001 A 
ATOM     47  C   UNL     1      -3.908   9.173  16.296  0.00  0.00    +0.011 A 
ENDBRANCH  40  42
ENDBRANCH  39  40
ENDBRANCH  37  39
ENDBRANCH  35  37
ENDBRANCH  31  33
ENDBRANCH  30  31
ENDBRANCH  26  30
ENDBRANCH  25  28
ENDBRANCH   1  25
TORSDOF 17
