REMARK VINA RESULT:    -4.621      1.810      2.393
REMARK INTER + INTRA:         -12.545
REMARK INTER:                  -8.794
REMARK INTRA:                  -3.752
REMARK UNBOUND:                -3.062
REMARK  Name = lig_assembled_74.pdb
REMARK  24 active torsions:
REMARK  status: ('A' for Active; 'I' for Inactive)
REMARK    1  A    between atoms: _2  and  _9
REMARK    2  A    between atoms: _4  and  _22
REMARK    3  A    between atoms: _5  and  _14
REMARK    4  A    between atoms: _6  and  _7
REMARK    5  A    between atoms: _6  and  _22
REMARK    6  A    between atoms: _9  and  _10
REMARK    7  A    between atoms: _10  and  _11
REMARK    8  A    between atoms: _10  and  _13
REMARK    9  A    between atoms: _11  and  _12
REMARK   10  A    between atoms: _12  and  _16
REMARK   11  A    between atoms: _13  and  _14
REMARK   12  A    between atoms: _14  and  _15
REMARK   13  A    between atoms: _18  and  _38
REMARK   14  A    between atoms: _20  and  _26
REMARK   15  A    between atoms: _21  and  _25
REMARK   16  A    between atoms: _25  and  _26
REMARK   17  A    between atoms: _28  and  _29
REMARK   18  A    between atoms: _30  and  _31
REMARK   19  A    between atoms: _32  and  _34
REMARK   20  A    between atoms: _34  and  _35
REMARK   21  A    between atoms: _34  and  _36
REMARK   22  A    between atoms: _36  and  _37
REMARK   23  A    between atoms: _36  and  _38
REMARK   24  A    between atoms: _39  and  _41
REMARK                            x       y       z     vdW  Elec       q    Type
REMARK                         _______ _______ _______ _____ _____    ______ ____
ROOT
ATOM      1  C   UNL     1      -3.629  11.580  28.185  0.00  0.00    +0.163 C 
ENDROOT
BRANCH   1   2
ATOM      2  O   UNL     1      -4.289  12.055  27.000  0.00  0.00    -0.388 OA
ATOM      3  H   UNL     1      -3.962  12.931  26.780  0.00  0.00    +0.210 HD
ENDBRANCH   1   2
BRANCH   1   4
ATOM      4  C   UNL     1      -4.648  11.271  29.295  0.00  0.00    +0.175 C 
BRANCH   4   5
ATOM      5  C   UNL     1      -4.066  10.343  30.372  0.00  0.00    +0.176 C 
ATOM      6  O   UNL     1      -5.019   9.270  30.601  0.00  0.00    -0.332 OA
ATOM      7  C   UNL     1      -4.584   8.222  31.528  0.00  0.00    +0.277 C 
ATOM      8  C   UNL     1      -4.158   8.841  32.882  0.00  0.00    +0.110 C 
ATOM      9  C   UNL     1      -3.168  10.008  32.688  0.00  0.00    +0.143 C 
ATOM     10  C   UNL     1      -3.720  11.038  31.702  0.00  0.00    +0.133 C 
BRANCH  10  11
ATOM     11  N   UNL     1      -2.731  12.100  31.459  0.00  0.00    -0.308 N 
ATOM     12  H   UNL     1      -1.839  11.834  31.066  0.00  0.00    +0.149 HD
ATOM     13  C   UNL     1      -2.936  13.394  31.724  0.00  0.00    +0.210 C 
ATOM     14  C   UNL     1      -4.295  13.764  32.347  0.00  0.00    +0.109 C 
ATOM     15  O   UNL     1      -2.095  14.264  31.497  0.00  0.00    -0.276 OA
ENDBRANCH  10  11
BRANCH   7  16
ATOM     16  C   UNL     1      -3.407   7.420  30.935  0.00  0.00    +0.414 C 
ATOM     17  O   UNL     1      -3.041   7.621  29.777  0.00  0.00    -0.240 OA
ATOM     18  O   UNL     1      -2.823   6.574  31.613  0.00  0.00    -0.240 OA
ENDBRANCH   7  16
BRANCH   9  19
ATOM     19  O   UNL     1      -2.920  10.644  33.943  0.00  0.00    -0.390 OA
ATOM     20  H   UNL     1      -1.982  10.604  34.144  0.00  0.00    +0.210 HD
ENDBRANCH   9  19
BRANCH   7  21
ATOM     21  O   UNL     1      -5.708   7.335  31.764  0.00  0.00    -0.343 OA
ATOM     22  C   UNL     1      -6.495   7.019  30.588  0.00  0.00    +0.198 C 
ENDBRANCH   7  21
ENDBRANCH   4   5
BRANCH   4  23
ATOM     23  O   UNL     1      -5.839  10.688  28.729  0.00  0.00    -0.387 OA
ATOM     24  H   UNL     1      -5.674  10.450  27.813  0.00  0.00    +0.210 HD
ENDBRANCH   4  23
ENDBRANCH   1   4
BRANCH   1  25
ATOM     25  C   UNL     1      -2.826  10.323  27.866  0.00  0.00    +0.141 C 
BRANCH  25  28
ATOM     26  C   UNL     1      -2.817   8.514  26.183  0.00  0.00    +0.401 C 
ATOM     27  O   UNL     1      -1.734   8.052  26.547  0.00  0.00    -0.226 OA
ATOM     28  N   UNL     1      -3.399   9.578  26.739  0.00  0.00    -0.279 N 
ATOM     29  H   UNL     1      -4.284   9.888  26.364  0.00  0.00    +0.152 HD
BRANCH  26  30
ATOM     30  O   UNL     1      -3.508   7.892  25.097  0.00  0.00    -0.444 OA
BRANCH  30  31
ATOM     31  C   UNL     1      -4.884   7.715  25.444  0.00  0.00    +0.292 C 
BRANCH  31  33
ATOM     32  N   UNL     1      -6.292   9.625  26.176  0.00  0.00    -0.131 NA
ATOM     33  C   UNL     1      -5.653   8.946  25.172  0.00  0.00    +0.120 A 
ATOM     34  C   UNL     1      -5.797   9.645  23.994  0.00  0.00    +0.137 A 
ATOM     35  N   UNL     1      -6.371  10.821  24.387  0.00  0.00    -0.251 N 
ATOM     36  N   UNL     1      -6.752  10.764  25.677  0.00  0.00    -0.065 NA
BRANCH  35  37
ATOM     37  C   UNL     1      -6.288  12.099  23.709  0.00  0.00    +0.149 C 
BRANCH  37  38
ATOM     38  C   UNL     1      -5.031  12.313  22.840  0.00  0.00    +0.021 C 
BRANCH  38  39
ATOM     39  C   UNL     1      -3.869  12.990  23.596  0.00  0.00    +0.125 C 
BRANCH  39  40
ATOM     40  C   UNL     1      -2.825  12.038  24.141  0.00  0.00    +0.305 C 
ATOM     41  O   UNL     1      -2.712  10.866  23.819  0.00  0.00    -0.251 OA
BRANCH  40  42
ATOM     42  O   UNL     1      -1.966  12.630  24.991  0.00  0.00    -0.481 OA
ATOM     43  H   UNL     1      -1.149  12.132  25.177  0.00  0.00    +0.295 HD
ENDBRANCH  40  42
ENDBRANCH  39  40
ENDBRANCH  38  39
BRANCH  38  44
ATOM     44  C   UNL     1      -5.432  13.068  21.538  0.00  0.00    +0.009 C 
BRANCH  44  45
ATOM     45  C   UNL     1      -5.287  12.271  20.225  0.00  0.00    -0.017 C 
ATOM     46  C   UNL     1      -4.016  11.420  20.201  0.00  0.00    +0.007 C 
ATOM     47  C   UNL     1      -6.501  11.360  20.010  0.00  0.00    +0.007 C 
ENDBRANCH  44  45
ENDBRANCH  38  44
ENDBRANCH  37  38
ENDBRANCH  35  37
ENDBRANCH  31  33
ENDBRANCH  30  31
ENDBRANCH  26  30
ENDBRANCH  25  28
ENDBRANCH   1  25
TORSDOF 20
