REMARK VINA RESULT:    -4.921      2.849      7.671
REMARK INTER + INTRA:         -10.514
REMARK INTER:                  -7.831
REMARK INTRA:                  -2.683
REMARK UNBOUND:                -1.997
REMARK  Name = lig_assembled_57.pdb
REMARK  17 active torsions:
REMARK  status: ('A' for Active; 'I' for Inactive)
REMARK    1  A    between atoms: _2  and  _10
REMARK    2  A    between atoms: _3  and  _13
REMARK    3  A    between atoms: _5  and  _19
REMARK    4  A    between atoms: _7  and  _8
REMARK    5  A    between atoms: _7  and  _19
REMARK    6  A    between atoms: _15  and  _35
REMARK    7  A    between atoms: _17  and  _23
REMARK    8  A    between atoms: _18  and  _22
REMARK    9  A    between atoms: _22  and  _23
REMARK   10  A    between atoms: _25  and  _26
REMARK   11  A    between atoms: _27  and  _28
REMARK   12  A    between atoms: _29  and  _31
REMARK   13  A    between atoms: _31  and  _32
REMARK   14  A    between atoms: _31  and  _33
REMARK   15  A    between atoms: _33  and  _34
REMARK   16  A    between atoms: _33  and  _35
REMARK   17  A    between atoms: _36  and  _38
REMARK                            x       y       z     vdW  Elec       q    Type
REMARK                         _______ _______ _______ _____ _____    ______ ____
ROOT
ATOM      1  C   UNL     1      -2.758  11.230  25.993  0.00  0.00    +0.163 C 
ENDROOT
BRANCH   1   2
ATOM      2  O   UNL     1      -1.990  12.199  25.261  0.00  0.00    -0.388 OA
ATOM      3  H   UNL     1      -1.792  12.947  25.830  0.00  0.00    +0.210 HD
ENDBRANCH   1   2
BRANCH   1   4
ATOM      4  C   UNL     1      -1.856  10.090  26.455  0.00  0.00    +0.141 C 
BRANCH   4   7
ATOM      5  C   UNL     1      -1.951   8.553  28.387  0.00  0.00    +0.401 C 
ATOM      6  O   UNL     1      -1.698   7.547  27.720  0.00  0.00    -0.226 OA
ATOM      7  N   UNL     1      -2.050   9.781  27.877  0.00  0.00    -0.279 N 
ATOM      8  H   UNL     1      -2.270  10.542  28.505  0.00  0.00    +0.152 HD
BRANCH   5   9
ATOM      9  O   UNL     1      -2.158   8.417  29.796  0.00  0.00    -0.444 OA
BRANCH   9  10
ATOM     10  C   UNL     1      -3.536   8.650  30.100  0.00  0.00    +0.292 C 
BRANCH  10  12
ATOM     11  N   UNL     1      -4.717   9.856  31.903  0.00  0.00    -0.131 NA
ATOM     12  C   UNL     1      -3.661   9.779  31.041  0.00  0.00    +0.120 A 
ATOM     13  C   UNL     1      -2.828  10.857  31.250  0.00  0.00    +0.137 A 
ATOM     14  N   UNL     1      -3.383  11.505  32.313  0.00  0.00    -0.248 N 
ATOM     15  N   UNL     1      -4.559  10.936  32.651  0.00  0.00    -0.065 NA
BRANCH  14  16
ATOM     16  C   UNL     1      -2.888  12.611  33.125  0.00  0.00    +0.111 C 
ATOM     17  C   UNL     1      -2.152  13.640  32.254  0.00  0.00    +0.042 C 
ATOM     18  C   UNL     1      -3.148  14.458  31.434  0.00  0.00    +0.086 C 
ATOM     19  N   UNL     1      -4.118  15.178  32.267  0.00  0.00    -0.305 NA
ATOM     20  C   UNL     1      -4.828  14.295  33.193  0.00  0.00    +0.086 C 
ATOM     21  C   UNL     1      -3.527  16.338  32.929  0.00  0.00    +0.104 C 
ATOM     22  C   UNL     1      -3.932  13.337  33.991  0.00  0.00    +0.042 C 
ENDBRANCH  14  16
ENDBRANCH  10  12
ENDBRANCH   9  10
ENDBRANCH   5   9
ENDBRANCH   4   7
ENDBRANCH   1   4
BRANCH   1  23
ATOM     23  C   UNL     1      -3.898  10.664  25.128  0.00  0.00    +0.175 C 
BRANCH  23  24
ATOM     24  C   UNL     1      -4.944  11.733  24.780  0.00  0.00    +0.176 C 
ATOM     25  O   UNL     1      -4.356  12.633  23.801  0.00  0.00    -0.332 OA
ATOM     26  C   UNL     1      -5.252  13.664  23.268  0.00  0.00    +0.277 C 
ATOM     27  C   UNL     1      -5.880  14.483  24.422  0.00  0.00    +0.110 C 
ATOM     28  C   UNL     1      -6.491  13.568  25.504  0.00  0.00    +0.143 C 
ATOM     29  C   UNL     1      -5.474  12.532  25.985  0.00  0.00    +0.133 C 
BRANCH  29  30
ATOM     30  N   UNL     1      -6.094  11.611  26.951  0.00  0.00    -0.308 N 
ATOM     31  H   UNL     1      -6.791  10.966  26.607  0.00  0.00    +0.149 HD
ATOM     32  C   UNL     1      -5.795  11.573  28.252  0.00  0.00    +0.210 C 
ATOM     33  C   UNL     1      -4.747  12.587  28.749  0.00  0.00    +0.109 C 
ATOM     34  O   UNL     1      -6.319  10.781  29.036  0.00  0.00    -0.276 OA
ENDBRANCH  29  30
BRANCH  26  35
ATOM     35  C   UNL     1      -6.372  13.028  22.418  0.00  0.00    +0.414 C 
ATOM     36  O   UNL     1      -6.124  12.078  21.677  0.00  0.00    -0.240 OA
ATOM     37  O   UNL     1      -7.521  13.466  22.473  0.00  0.00    -0.240 OA
ENDBRANCH  26  35
BRANCH  28  38
ATOM     38  O   UNL     1      -6.921  14.356  26.615  0.00  0.00    -0.390 OA
ATOM     39  H   UNL     1      -7.543  13.851  27.144  0.00  0.00    +0.210 HD
ENDBRANCH  28  38
BRANCH  26  40
ATOM     40  O   UNL     1      -4.464  14.562  22.446  0.00  0.00    -0.343 OA
ATOM     41  C   UNL     1      -4.979  15.914  22.348  0.00  0.00    +0.198 C 
ENDBRANCH  26  40
ENDBRANCH  23  24
BRANCH  23  42
ATOM     42  O   UNL     1      -4.526   9.553  25.798  0.00  0.00    -0.387 OA
ATOM     43  H   UNL     1      -5.419   9.441  25.465  0.00  0.00    +0.210 HD
ENDBRANCH  23  42
ENDBRANCH   1  23
TORSDOF 14
