REMARK VINA RESULT:    -4.393      2.023      2.687
REMARK INTER + INTRA:         -11.173
REMARK INTER:                  -7.062
REMARK INTRA:                  -4.111
REMARK UNBOUND:                -2.799
REMARK  Name = lig_assembled_55.pdb
REMARK  20 active torsions:
REMARK  status: ('A' for Active; 'I' for Inactive)
REMARK    1  A    between atoms: _2  and  _10
REMARK    2  A    between atoms: _3  and  _11
REMARK    3  A    between atoms: _3  and  _38
REMARK    4  A    between atoms: _5  and  _18
REMARK    5  A    between atoms: _6  and  _38
REMARK    6  A    between atoms: _7  and  _8
REMARK    7  A    between atoms: _7  and  _18
REMARK    8  A    between atoms: _10  and  _11
REMARK    9  A    between atoms: _14  and  _34
REMARK   10  A    between atoms: _16  and  _22
REMARK   11  A    between atoms: _17  and  _21
REMARK   12  A    between atoms: _21  and  _22
REMARK   13  A    between atoms: _24  and  _25
REMARK   14  A    between atoms: _26  and  _27
REMARK   15  A    between atoms: _28  and  _30
REMARK   16  A    between atoms: _30  and  _31
REMARK   17  A    between atoms: _30  and  _32
REMARK   18  A    between atoms: _32  and  _33
REMARK   19  A    between atoms: _32  and  _34
REMARK   20  A    between atoms: _35  and  _37
REMARK                            x       y       z     vdW  Elec       q    Type
REMARK                         _______ _______ _______ _____ _____    ______ ____
ROOT
ATOM      1  C   UNL     1      -5.739  11.451  25.888  0.00  0.00    +0.163 C 
ENDROOT
BRANCH   1   2
ATOM      2  O   UNL     1      -4.752  10.565  25.334  0.00  0.00    -0.388 OA
ATOM      3  H   UNL     1      -3.894  10.994  25.344  0.00  0.00    +0.210 HD
ENDBRANCH   1   2
BRANCH   1   4
ATOM      4  C   UNL     1      -5.816  11.300  27.417  0.00  0.00    +0.175 C 
BRANCH   4   5
ATOM      5  C   UNL     1      -4.508  10.756  28.011  0.00  0.00    +0.176 C 
ATOM      6  O   UNL     1      -4.574   9.304  27.983  0.00  0.00    -0.332 OA
ATOM      7  C   UNL     1      -3.360   8.606  28.417  0.00  0.00    +0.277 C 
ATOM      8  C   UNL     1      -2.937   9.083  29.828  0.00  0.00    +0.110 C 
ATOM      9  C   UNL     1      -2.884  10.623  29.917  0.00  0.00    +0.143 C 
ATOM     10  C   UNL     1      -4.196  11.245  29.438  0.00  0.00    +0.133 C 
BRANCH  10  11
ATOM     11  N   UNL     1      -4.103  12.714  29.445  0.00  0.00    -0.308 N 
ATOM     12  H   UNL     1      -3.442  13.147  28.816  0.00  0.00    +0.149 HD
ATOM     13  C   UNL     1      -4.834  13.511  30.228  0.00  0.00    +0.210 C 
ATOM     14  C   UNL     1      -5.813  12.818  31.195  0.00  0.00    +0.109 C 
ATOM     15  O   UNL     1      -4.745  14.739  30.202  0.00  0.00    -0.276 OA
ENDBRANCH  10  11
BRANCH   7  16
ATOM     16  C   UNL     1      -2.205   8.848  27.424  0.00  0.00    +0.414 C 
ATOM     17  O   UNL     1      -2.429   8.913  26.216  0.00  0.00    -0.240 OA
ATOM     18  O   UNL     1      -1.049   8.977  27.829  0.00  0.00    -0.240 OA
ENDBRANCH   7  16
BRANCH   7  19
ATOM     19  O   UNL     1      -3.658   7.187  28.484  0.00  0.00    -0.343 OA
ATOM     20  C   UNL     1      -4.432   6.778  29.640  0.00  0.00    +0.198 C 
ENDBRANCH   7  19
BRANCH   9  21
ATOM     21  O   UNL     1      -2.640  11.020  31.267  0.00  0.00    -0.390 OA
ATOM     22  H   UNL     1      -2.335  10.263  31.773  0.00  0.00    +0.210 HD
ENDBRANCH   9  21
ENDBRANCH   4   5
BRANCH   4  23
ATOM     23  O   UNL     1      -6.918  10.443  27.777  0.00  0.00    -0.387 OA
ATOM     24  H   UNL     1      -7.743  10.846  27.493  0.00  0.00    +0.210 HD
ENDBRANCH   4  23
ENDBRANCH   1   4
BRANCH   1  25
ATOM     25  C   UNL     1      -5.400  12.895  25.536  0.00  0.00    +0.141 C 
BRANCH  25  28
ATOM     26  C   UNL     1      -3.897  13.131  23.588  0.00  0.00    +0.401 C 
ATOM     27  O   UNL     1      -2.864  13.080  24.260  0.00  0.00    -0.226 OA
ATOM     28  N   UNL     1      -5.125  13.059  24.103  0.00  0.00    -0.279 N 
ATOM     29  H   UNL     1      -5.912  13.120  23.471  0.00  0.00    +0.152 HD
BRANCH  26  30
ATOM     30  O   UNL     1      -3.796  13.281  22.170  0.00  0.00    -0.444 OA
BRANCH  30  31
ATOM     31  C   UNL     1      -2.972  12.241  21.637  0.00  0.00    +0.292 C 
BRANCH  31  33
ATOM     32  N   UNL     1      -3.072   9.980  22.632  0.00  0.00    -0.131 NA
ATOM     33  C   UNL     1      -3.621  10.929  21.810  0.00  0.00    +0.120 A 
ATOM     34  C   UNL     1      -4.777  10.427  21.253  0.00  0.00    +0.137 A 
ATOM     35  N   UNL     1      -4.866   9.165  21.758  0.00  0.00    -0.250 N 
ATOM     36  N   UNL     1      -3.840   8.901  22.589  0.00  0.00    -0.065 NA
BRANCH  35  37
ATOM     37  C   UNL     1      -5.896   8.177  21.523  0.00  0.00    +0.162 C 
BRANCH  37  38
ATOM     38  C   UNL     1      -7.051   8.235  22.529  0.00  0.00    +0.129 C 
BRANCH  38  39
ATOM     39  N   UNL     1      -6.623   8.590  23.914  0.00  0.00    -0.193 NA
ATOM     40  H   UNL     1      -7.037   9.486  24.200  0.00  0.00    +0.148 HD
BRANCH  39  41
ATOM     41  S   UNL     1      -6.795   7.385  25.078  0.00  0.00    +0.027 S 
ATOM     42  O   UNL     1      -7.199   8.043  26.301  0.00  0.00    -0.158 OA
ATOM     43  O   UNL     1      -7.588   6.326  24.496  0.00  0.00    -0.158 OA
ATOM     44  C   UNL     1      -5.116   6.832  25.270  0.00  0.00    +0.214 C 
ENDBRANCH  39  41
ENDBRANCH  38  39
ENDBRANCH  37  38
ENDBRANCH  35  37
ENDBRANCH  31  33
ENDBRANCH  30  31
ENDBRANCH  26  30
ENDBRANCH  25  28
ENDBRANCH   1  25
TORSDOF 17
