REMARK VINA RESULT:    -5.055      8.757     12.581
REMARK INTER + INTRA:         -11.590
REMARK INTER:                  -7.913
REMARK INTRA:                  -3.678
REMARK UNBOUND:                -2.841
REMARK  Name = lig_assembled_86.pdb
REMARK  17 active torsions:
REMARK  status: ('A' for Active; 'I' for Inactive)
REMARK    1  A    between atoms: _2  and  _10
REMARK    2  A    between atoms: _3  and  _13
REMARK    3  A    between atoms: _5  and  _21
REMARK    4  A    between atoms: _7  and  _8
REMARK    5  A    between atoms: _7  and  _21
REMARK    6  A    between atoms: _17  and  _37
REMARK    7  A    between atoms: _19  and  _25
REMARK    8  A    between atoms: _20  and  _24
REMARK    9  A    between atoms: _24  and  _25
REMARK   10  A    between atoms: _27  and  _28
REMARK   11  A    between atoms: _29  and  _30
REMARK   12  A    between atoms: _31  and  _33
REMARK   13  A    between atoms: _33  and  _34
REMARK   14  A    between atoms: _33  and  _35
REMARK   15  A    between atoms: _35  and  _36
REMARK   16  A    between atoms: _35  and  _37
REMARK   17  A    between atoms: _38  and  _40
REMARK                            x       y       z     vdW  Elec       q    Type
REMARK                         _______ _______ _______ _____ _____    ______ ____
ROOT
ATOM      1  C   UNL     1      -2.917  11.228  23.735  0.00  0.00    +0.163 C 
ENDROOT
BRANCH   1   2
ATOM      2  O   UNL     1      -2.220  11.545  24.951  0.00  0.00    -0.388 OA
ATOM      3  H   UNL     1      -2.820  11.459  25.696  0.00  0.00    +0.210 HD
ENDBRANCH   1   2
BRANCH   1   4
ATOM      4  C   UNL     1      -3.644  12.462  23.213  0.00  0.00    +0.141 C 
BRANCH   4   7
ATOM      5  C   UNL     1      -5.515  13.516  24.435  0.00  0.00    +0.401 C 
ATOM      6  O   UNL     1      -6.378  13.113  23.652  0.00  0.00    -0.226 OA
ATOM      7  N   UNL     1      -4.212  13.265  24.303  0.00  0.00    -0.279 N 
ATOM      8  H   UNL     1      -3.580  13.648  24.992  0.00  0.00    +0.152 HD
BRANCH   5   9
ATOM      9  O   UNL     1      -5.912  14.308  25.558  0.00  0.00    -0.444 OA
BRANCH   9  10
ATOM     10  C   UNL     1      -6.560  13.476  26.524  0.00  0.00    +0.292 C 
BRANCH  10  12
ATOM     11  N   UNL     1      -4.537  12.301  27.345  0.00  0.00    -0.131 NA
ATOM     12  C   UNL     1      -5.616  13.107  27.595  0.00  0.00    +0.120 A 
ATOM     13  C   UNL     1      -5.607  13.465  28.923  0.00  0.00    +0.137 A 
ATOM     14  N   UNL     1      -4.482  12.878  29.416  0.00  0.00    -0.248 N 
ATOM     15  N   UNL     1      -3.856  12.152  28.474  0.00  0.00    -0.065 NA
BRANCH  14  16
ATOM     16  C   UNL     1      -3.954  12.980  30.768  0.00  0.00    +0.112 C 
ATOM     17  C   UNL     1      -5.078  13.123  31.815  0.00  0.00    +0.045 C 
ATOM     18  C   UNL     1      -4.924  12.222  33.044  0.00  0.00    +0.059 C 
ATOM     19  C   UNL     1      -5.308  10.775  32.720  0.00  0.00    +0.020 C 
ATOM     20  C   UNL     1      -3.990  10.100  32.350  0.00  0.00    +0.020 C 
ATOM     21  C   UNL     1      -2.954  11.226  32.407  0.00  0.00    +0.059 C 
ATOM     22  N   UNL     1      -3.531  12.063  33.459  0.00  0.00    -0.299 NA
ATOM     23  C   UNL     1      -2.804  13.275  33.790  0.00  0.00    +0.105 C 
ATOM     24  C   UNL     1      -2.840  11.948  31.058  0.00  0.00    +0.045 C 
ENDBRANCH  14  16
ENDBRANCH  10  12
ENDBRANCH   9  10
ENDBRANCH   5   9
ENDBRANCH   4   7
ENDBRANCH   1   4
BRANCH   1  25
ATOM     25  C   UNL     1      -3.929  10.092  23.962  0.00  0.00    +0.175 C 
BRANCH  25  26
ATOM     26  C   UNL     1      -3.859   9.531  25.389  0.00  0.00    +0.176 C 
ATOM     27  O   UNL     1      -2.780   8.557  25.434  0.00  0.00    -0.332 OA
ATOM     28  C   UNL     1      -2.493   7.988  26.754  0.00  0.00    +0.277 C 
ATOM     29  C   UNL     1      -3.775   7.377  27.371  0.00  0.00    +0.110 C 
ATOM     30  C   UNL     1      -4.959   8.366  27.317  0.00  0.00    +0.143 C 
ATOM     31  C   UNL     1      -5.167   8.897  25.898  0.00  0.00    +0.133 C 
BRANCH  31  32
ATOM     32  N   UNL     1      -6.241   9.903  25.877  0.00  0.00    -0.308 N 
ATOM     33  H   UNL     1      -6.119  10.735  26.437  0.00  0.00    +0.149 HD
ATOM     34  C   UNL     1      -7.366   9.787  25.166  0.00  0.00    +0.210 C 
ATOM     35  C   UNL     1      -7.532   8.495  24.343  0.00  0.00    +0.109 C 
ATOM     36  O   UNL     1      -8.242  10.652  25.155  0.00  0.00    -0.276 OA
ENDBRANCH  31  32
BRANCH  28  37
ATOM     37  C   UNL     1      -1.928   9.066  27.703  0.00  0.00    +0.414 C 
ATOM     38  O   UNL     1      -1.178   9.940  27.271  0.00  0.00    -0.240 OA
ATOM     39  O   UNL     1      -2.222   9.062  28.899  0.00  0.00    -0.240 OA
ENDBRANCH  28  37
BRANCH  30  40
ATOM     40  O   UNL     1      -6.152   7.713  27.754  0.00  0.00    -0.390 OA
ATOM     41  H   UNL     1      -6.340   6.969  27.176  0.00  0.00    +0.210 HD
ENDBRANCH  30  40
BRANCH  28  42
ATOM     42  O   UNL     1      -1.517   6.928  26.584  0.00  0.00    -0.343 OA
ATOM     43  C   UNL     1      -2.032   5.713  25.983  0.00  0.00    +0.198 C 
ENDBRANCH  28  42
ENDBRANCH  25  26
BRANCH  25  44
ATOM     44  O   UNL     1      -3.716   9.037  23.002  0.00  0.00    -0.387 OA
ATOM     45  H   UNL     1      -3.407   9.415  22.175  0.00  0.00    +0.210 HD
ENDBRANCH  25  44
ENDBRANCH   1  25
TORSDOF 14
