REMARK VINA RESULT:    -4.461      3.538     10.021
REMARK INTER + INTRA:         -11.635
REMARK INTER:                  -9.450
REMARK INTRA:                  -2.185
REMARK UNBOUND:                -3.914
REMARK  Name = lig_assembled_20.pdb
REMARK  16 active torsions:
REMARK  status: ('A' for Active; 'I' for Inactive)
REMARK    1  A    between atoms: _2  and  _11
REMARK    2  A    between atoms: _6  and  _21
REMARK    3  A    between atoms: _8  and  _9
REMARK    4  A    between atoms: _8  and  _21
REMARK    5  A    between atoms: _17  and  _37
REMARK    6  A    between atoms: _19  and  _25
REMARK    7  A    between atoms: _20  and  _24
REMARK    8  A    between atoms: _24  and  _25
REMARK    9  A    between atoms: _27  and  _28
REMARK   10  A    between atoms: _29  and  _30
REMARK   11  A    between atoms: _31  and  _33
REMARK   12  A    between atoms: _33  and  _34
REMARK   13  A    between atoms: _33  and  _35
REMARK   14  A    between atoms: _35  and  _36
REMARK   15  A    between atoms: _35  and  _37
REMARK   16  A    between atoms: _38  and  _40
REMARK                            x       y       z     vdW  Elec       q    Type
REMARK                         _______ _______ _______ _____ _____    ______ ____
ROOT
ATOM      1  C   UNL     1      -3.352  12.698  24.150  0.00  0.00    +0.163 C 
ENDROOT
BRANCH   1   2
ATOM      2  O   UNL     1      -1.963  12.952  24.413  0.00  0.00    -0.388 OA
ATOM      3  H   UNL     1      -1.768  13.877  24.243  0.00  0.00    +0.210 HD
ENDBRANCH   1   2
BRANCH   1   4
ATOM      4  C   UNL     1      -3.881  13.697  23.126  0.00  0.00    +0.141 C 
BRANCH   4   7
ATOM      5  C   UNL     1      -5.902  13.222  21.786  0.00  0.00    +0.401 C 
ATOM      6  O   UNL     1      -6.631  13.964  22.449  0.00  0.00    -0.226 OA
ATOM      7  N   UNL     1      -4.606  13.033  22.036  0.00  0.00    -0.279 N 
ATOM      8  H   UNL     1      -4.093  12.397  21.441  0.00  0.00    +0.152 HD
BRANCH   5   9
ATOM      9  O   UNL     1      -6.460  12.508  20.680  0.00  0.00    -0.444 OA
BRANCH   9  10
ATOM     10  C   UNL     1      -6.080  11.132  20.760  0.00  0.00    +0.292 C 
BRANCH  10  12
ATOM     11  N   UNL     1      -5.175   9.376  19.261  0.00  0.00    -0.131 NA
ATOM     12  C   UNL     1      -5.473  10.688  19.491  0.00  0.00    +0.121 A 
ATOM     13  C   UNL     1      -5.118  11.428  18.389  0.00  0.00    +0.143 A 
ATOM     14  N   UNL     1      -4.600  10.520  17.496  0.00  0.00    -0.220 N 
ATOM     15  N   UNL     1      -4.645   9.281  18.047  0.00  0.00    -0.060 NA
BRANCH  14  16
ATOM     16  C   UNL     1      -4.085  10.756  16.195  0.00  0.00    +0.068 A 
ATOM     17  C   UNL     1      -3.887  12.073  15.750  0.00  0.00    +0.030 A 
ATOM     18  C   UNL     1      -3.375  12.342  14.473  0.00  0.00    +0.030 A 
ATOM     19  C   UNL     1      -3.072  11.243  13.663  0.00  0.00    +0.066 A 
ATOM     20  C   UNL     1      -3.258   9.929  14.072  0.00  0.00    +0.021 A 
ATOM     21  C   UNL     1      -2.836   9.150  12.974  0.00  0.00    +0.142 A 
ATOM     22  N   UNL     1      -2.413   9.893  11.948  0.00  0.00    -0.181 NA
ATOM     23  N   UNL     1      -2.565  11.153  12.392  0.00  0.00    -0.277 N 
ATOM     24  H   UNL     1      -2.306  11.915  11.777  0.00  0.00    +0.189 HD
ATOM     25  C   UNL     1      -3.772   9.670  15.355  0.00  0.00    +0.039 A 
ENDBRANCH  14  16
ENDBRANCH  10  12
ENDBRANCH   9  10
ENDBRANCH   5   9
ENDBRANCH   4   7
ENDBRANCH   1   4
BRANCH   1  26
ATOM     26  C   UNL     1      -4.184  12.795  25.440  0.00  0.00    +0.175 C 
BRANCH  26  27
ATOM     27  C   UNL     1      -3.897  11.632  26.401  0.00  0.00    +0.176 C 
ATOM     28  O   UNL     1      -3.820  10.411  25.615  0.00  0.00    -0.332 OA
ATOM     29  C   UNL     1      -3.446   9.203  26.356  0.00  0.00    +0.277 C 
ATOM     30  C   UNL     1      -4.397   8.991  27.560  0.00  0.00    +0.110 C 
ATOM     31  C   UNL     1      -4.535  10.272  28.409  0.00  0.00    +0.143 C 
ATOM     32  C   UNL     1      -4.924  11.468  27.538  0.00  0.00    +0.133 C 
BRANCH  32  33
ATOM     33  N   UNL     1      -4.968  12.699  28.342  0.00  0.00    -0.308 N 
ATOM     34  H   UNL     1      -4.094  13.063  28.695  0.00  0.00    +0.149 HD
ATOM     35  C   UNL     1      -6.087  13.366  28.637  0.00  0.00    +0.210 C 
ATOM     36  C   UNL     1      -7.405  12.770  28.107  0.00  0.00    +0.109 C 
ATOM     37  O   UNL     1      -6.092  14.403  29.301  0.00  0.00    -0.276 OA
ENDBRANCH  32  33
BRANCH  29  38
ATOM     38  C   UNL     1      -1.991   9.297  26.859  0.00  0.00    +0.414 C 
ATOM     39  O   UNL     1      -1.121   9.802  26.149  0.00  0.00    -0.240 OA
ATOM     40  O   UNL     1      -1.686   8.870  27.973  0.00  0.00    -0.240 OA
ENDBRANCH  29  38
BRANCH  31  41
ATOM     41  O   UNL     1      -5.531  10.079  29.414  0.00  0.00    -0.390 OA
ATOM     42  H   UNL     1      -6.013   9.268  29.237  0.00  0.00    +0.210 HD
ENDBRANCH  31  41
BRANCH  29  43
ATOM     43  O   UNL     1      -3.582   8.068  25.462  0.00  0.00    -0.343 OA
ATOM     44  C   UNL     1      -4.270   8.349  24.217  0.00  0.00    +0.198 C 
ENDBRANCH  29  43
ENDBRANCH  26  27
BRANCH  26  45
ATOM     45  O   UNL     1      -5.589  12.843  25.123  0.00  0.00    -0.387 OA
ATOM     46  H   UNL     1      -5.714  12.657  24.190  0.00  0.00    +0.210 HD
ENDBRANCH  26  45
ENDBRANCH   1  26
TORSDOF 14
