REMARK VINA RESULT:    -4.384      1.887      2.882
REMARK INTER + INTRA:         -11.628
REMARK INTER:                  -9.068
REMARK INTRA:                  -2.560
REMARK UNBOUND:                -3.657
REMARK  Name = lig_assembled_88.pdb
REMARK  18 active torsions:
REMARK  status: ('A' for Active; 'I' for Inactive)
REMARK    1  A    between atoms: _2  and  _9
REMARK    2  A    between atoms: _4  and  _20
REMARK    3  A    between atoms: _5  and  _15
REMARK    4  A    between atoms: _6  and  _7
REMARK    5  A    between atoms: _6  and  _20
REMARK    6  A    between atoms: _9  and  _10
REMARK    7  A    between atoms: _16  and  _36
REMARK    8  A    between atoms: _18  and  _24
REMARK    9  A    between atoms: _19  and  _23
REMARK   10  A    between atoms: _23  and  _24
REMARK   11  A    between atoms: _26  and  _27
REMARK   12  A    between atoms: _28  and  _29
REMARK   13  A    between atoms: _30  and  _32
REMARK   14  A    between atoms: _32  and  _33
REMARK   15  A    between atoms: _32  and  _34
REMARK   16  A    between atoms: _34  and  _35
REMARK   17  A    between atoms: _34  and  _36
REMARK   18  A    between atoms: _37  and  _39
REMARK                            x       y       z     vdW  Elec       q    Type
REMARK                         _______ _______ _______ _____ _____    ______ ____
ROOT
ATOM      1  C   UNL     1      -3.053   9.277  27.851  0.00  0.00    +0.163 C 
ENDROOT
BRANCH   1   2
ATOM      2  O   UNL     1      -2.386   8.204  28.536  0.00  0.00    -0.388 OA
ATOM      3  H   UNL     1      -1.535   8.040  28.122  0.00  0.00    +0.210 HD
ENDBRANCH   1   2
BRANCH   1   4
ATOM      4  C   UNL     1      -3.190  10.509  28.762  0.00  0.00    +0.175 C 
BRANCH   4   5
ATOM      5  C   UNL     1      -3.486  10.121  30.218  0.00  0.00    +0.176 C 
ATOM      6  O   UNL     1      -4.463   9.045  30.205  0.00  0.00    -0.332 OA
ATOM      7  C   UNL     1      -4.791   8.469  31.513  0.00  0.00    +0.277 C 
ATOM      8  C   UNL     1      -5.246   9.578  32.493  0.00  0.00    +0.110 C 
ATOM      9  C   UNL     1      -4.254  10.759  32.518  0.00  0.00    +0.143 C 
ATOM     10  C   UNL     1      -3.983  11.278  31.105  0.00  0.00    +0.133 C 
BRANCH  10  11
ATOM     11  N   UNL     1      -2.970  12.345  31.134  0.00  0.00    -0.308 N 
ATOM     12  H   UNL     1      -2.022  12.090  31.372  0.00  0.00    +0.149 HD
ATOM     13  C   UNL     1      -3.222  13.629  30.865  0.00  0.00    +0.210 C 
ATOM     14  C   UNL     1      -4.682  13.990  30.531  0.00  0.00    +0.109 C 
ATOM     15  O   UNL     1      -2.351  14.499  30.882  0.00  0.00    -0.276 OA
ENDBRANCH  10  11
BRANCH   7  16
ATOM     16  C   UNL     1      -3.574   7.727  32.104  0.00  0.00    +0.414 C 
ATOM     17  O   UNL     1      -2.705   7.272  31.361  0.00  0.00    -0.240 OA
ATOM     18  O   UNL     1      -3.461   7.583  33.322  0.00  0.00    -0.240 OA
ENDBRANCH   7  16
BRANCH   7  19
ATOM     19  O   UNL     1      -5.889   7.539  31.332  0.00  0.00    -0.343 OA
ATOM     20  C   UNL     1      -5.912   6.861  30.051  0.00  0.00    +0.198 C 
ENDBRANCH   7  19
BRANCH   9  21
ATOM     21  O   UNL     1      -4.786  11.819  33.314  0.00  0.00    -0.390 OA
ATOM     22  H   UNL     1      -5.696  11.986  33.058  0.00  0.00    +0.210 HD
ENDBRANCH   9  21
ENDBRANCH   4   5
BRANCH   4  23
ATOM     23  O   UNL     1      -4.222  11.384  28.262  0.00  0.00    -0.387 OA
ATOM     24  H   UNL     1      -4.991  11.330  28.833  0.00  0.00    +0.210 HD
ENDBRANCH   4  23
ENDBRANCH   1   4
BRANCH   1  25
ATOM     25  C   UNL     1      -2.277   9.656  26.594  0.00  0.00    +0.141 C 
BRANCH  25  28
ATOM     26  C   UNL     1      -2.955  11.394  24.973  0.00  0.00    +0.401 C 
ATOM     27  O   UNL     1      -2.023  12.151  25.252  0.00  0.00    -0.226 OA
ATOM     28  N   UNL     1      -3.154  10.211  25.556  0.00  0.00    -0.279 N 
ATOM     29  H   UNL     1      -3.954   9.665  25.266  0.00  0.00    +0.152 HD
BRANCH  26  30
ATOM     30  O   UNL     1      -3.895  11.789  23.971  0.00  0.00    -0.444 OA
BRANCH  30  31
ATOM     31  C   UNL     1      -3.244  11.841  22.699  0.00  0.00    +0.292 C 
BRANCH  31  33
ATOM     32  N   UNL     1      -3.936   9.728  21.609  0.00  0.00    -0.131 NA
ATOM     33  C   UNL     1      -4.018  11.093  21.691  0.00  0.00    +0.120 A 
ATOM     34  C   UNL     1      -4.875  11.552  20.714  0.00  0.00    +0.137 A 
ATOM     35  N   UNL     1      -5.219  10.425  20.027  0.00  0.00    -0.247 N 
ATOM     36  N   UNL     1      -4.694   9.325  20.599  0.00  0.00    -0.065 NA
BRANCH  35  37
ATOM     37  C   UNL     1      -5.977  10.325  18.789  0.00  0.00    +0.184 C 
BRANCH  37  38
ATOM     38  C   UNL     1      -5.112  10.434  17.549  0.00  0.00    +0.017 A 
ATOM     39  C   UNL     1      -4.865  11.663  16.906  0.00  0.00    +0.024 A 
ATOM     40  C   UNL     1      -4.063  11.726  15.763  0.00  0.00    +0.019 A 
ATOM     41 BR   UNL     1      -3.795  13.387  14.899  0.00  0.00    -0.050 Br
ATOM     42  C   UNL     1      -3.460  10.581  15.252  0.00  0.00    +0.034 A 
ATOM     43  C   UNL     1      -3.657   9.367  15.903  0.00  0.00    +0.061 A 
ATOM     44 BR   UNL     1      -2.805   7.816  15.224  0.00  0.00    -0.046 Br
ATOM     45  C   UNL     1      -4.470   9.295  17.043  0.00  0.00    +0.136 A 
BRANCH  45  46
ATOM     46  O   UNL     1      -4.658   8.108  17.701  0.00  0.00    -0.505 OA
ATOM     47  H   UNL     1      -5.433   7.669  17.301  0.00  0.00    +0.292 HD
ENDBRANCH  45  46
ENDBRANCH  37  38
ENDBRANCH  35  37
ENDBRANCH  31  33
ENDBRANCH  30  31
ENDBRANCH  26  30
ENDBRANCH  25  28
ENDBRANCH   1  25
TORSDOF 16
