REMARK VINA RESULT:    -4.251     11.722     15.073
REMARK INTER + INTRA:         -11.933
REMARK INTER:                  -5.803
REMARK INTRA:                  -6.130
REMARK UNBOUND:                -3.581
REMARK  Name = lig_assembled_31.pdb
REMARK  20 active torsions:
REMARK  status: ('A' for Active; 'I' for Inactive)
REMARK    1  A    between atoms: _2  and  _11
REMARK    2  A    between atoms: _3  and  _12
REMARK    3  A    between atoms: _4  and  _14
REMARK    4  A    between atoms: _6  and  _24
REMARK    5  A    between atoms: _8  and  _9
REMARK    6  A    between atoms: _8  and  _24
REMARK    7  A    between atoms: _11  and  _12
REMARK    8  A    between atoms: _14  and  _15
REMARK    9  A    between atoms: _20  and  _40
REMARK   10  A    between atoms: _22  and  _28
REMARK   11  A    between atoms: _23  and  _27
REMARK   12  A    between atoms: _27  and  _28
REMARK   13  A    between atoms: _30  and  _31
REMARK   14  A    between atoms: _32  and  _33
REMARK   15  A    between atoms: _34  and  _36
REMARK   16  A    between atoms: _36  and  _37
REMARK   17  A    between atoms: _36  and  _38
REMARK   18  A    between atoms: _38  and  _39
REMARK   19  A    between atoms: _38  and  _40
REMARK   20  A    between atoms: _41  and  _43
REMARK                            x       y       z     vdW  Elec       q    Type
REMARK                         _______ _______ _______ _____ _____    ______ ____
ROOT
ATOM      1  C   UNL     1      -3.083   9.295  15.544  0.00  0.00    +0.401 C 
ATOM      2  O   UNL     1      -4.093   8.843  16.088  0.00  0.00    -0.226 OA
ATOM      3  N   UNL     1      -2.879  10.592  15.309  0.00  0.00    -0.279 N 
ATOM      4  H   UNL     1      -2.014  10.866  14.865  0.00  0.00    +0.152 HD
ENDROOT
BRANCH   1   5
ATOM      5  O   UNL     1      -2.052   8.393  15.134  0.00  0.00    -0.444 OA
BRANCH   5   6
ATOM      6  C   UNL     1      -2.614   7.368  14.309  0.00  0.00    +0.292 C 
BRANCH   6   8
ATOM      7  N   UNL     1      -2.248   8.902  12.401  0.00  0.00    -0.131 NA
ATOM      8  C   UNL     1      -2.993   7.918  12.992  0.00  0.00    +0.120 A 
ATOM      9  C   UNL     1      -4.051   7.600  12.170  0.00  0.00    +0.137 A 
ATOM     10  N   UNL     1      -3.897   8.432  11.101  0.00  0.00    -0.250 N 
ATOM     11  N   UNL     1      -2.811   9.210  11.239  0.00  0.00    -0.065 NA
BRANCH  10  12
ATOM     12  C   UNL     1      -4.737   8.546   9.927  0.00  0.00    +0.164 C 
BRANCH  12  13
ATOM     13  C   UNL     1      -5.082   9.997   9.630  0.00  0.00    +0.129 C 
BRANCH  13  14
ATOM     14  N   UNL     1      -5.397  10.801  10.805  0.00  0.00    -0.298 N 
ATOM     15  H   UNL     1      -4.686  11.015  11.489  0.00  0.00    +0.150 HD
ATOM     16  C   UNL     1      -6.707  10.896  11.193  0.00  0.00    +0.300 C 
ATOM     17  O   UNL     1      -7.631  10.418  10.540  0.00  0.00    -0.253 OA
ATOM     18  N   UNL     1      -6.902  11.588  12.349  0.00  0.00    -0.292 N 
ATOM     19  H   UNL     1      -6.139  11.945  12.907  0.00  0.00    +0.151 HD
BRANCH  18  20
ATOM     20  C   UNL     1      -8.250  11.750  12.839  0.00  0.00    +0.180 C 
BRANCH  20  21
ATOM     21  C   UNL     1      -8.439  11.244  14.222  0.00  0.00    +0.122 A 
ATOM     22  O   UNL     1      -8.080  12.040  15.275  0.00  0.00    -0.466 OA
ATOM     23  C   UNL     1      -8.358  11.338  16.409  0.00  0.00    +0.195 A 
ATOM     24  C   UNL     1      -8.885  10.105  16.102  0.00  0.00    +0.041 A 
ATOM     25  C   UNL     1      -8.937  10.042  14.691  0.00  0.00    +0.046 A 
ENDBRANCH  20  21
ENDBRANCH  18  20
ENDBRANCH  13  14
ENDBRANCH  12  13
ENDBRANCH  10  12
ENDBRANCH   6   8
ENDBRANCH   5   6
ENDBRANCH   1   5
BRANCH   3  26
ATOM     26  C   UNL     1      -3.842  11.644  15.659  0.00  0.00    +0.141 C 
BRANCH  26  27
ATOM     27  C   UNL     1      -4.519  12.229  14.424  0.00  0.00    +0.163 C 
BRANCH  27  28
ATOM     28  O   UNL     1      -5.475  13.228  14.815  0.00  0.00    -0.388 OA
ATOM     29  H   UNL     1      -5.177  14.091  14.517  0.00  0.00    +0.210 HD
ENDBRANCH  27  28
BRANCH  27  30
ATOM     30  C   UNL     1      -3.454  12.823  13.487  0.00  0.00    +0.175 C 
BRANCH  30  31
ATOM     31  C   UNL     1      -3.957  14.082  12.765  0.00  0.00    +0.176 C 
ATOM     32  O   UNL     1      -5.123  13.712  11.980  0.00  0.00    -0.332 OA
ATOM     33  C   UNL     1      -5.806  14.817  11.300  0.00  0.00    +0.277 C 
ATOM     34  C   UNL     1      -4.810  15.607  10.417  0.00  0.00    +0.110 C 
ATOM     35  C   UNL     1      -3.539  15.996  11.200  0.00  0.00    +0.143 C 
ATOM     36  C   UNL     1      -2.911  14.772  11.869  0.00  0.00    +0.133 C 
BRANCH  36  37
ATOM     37  N   UNL     1      -1.751  15.168  12.683  0.00  0.00    -0.308 N 
ATOM     38  H   UNL     1      -1.915  15.777  13.472  0.00  0.00    +0.149 HD
ATOM     39  C   UNL     1      -0.496  14.775  12.447  0.00  0.00    +0.210 C 
ATOM     40  C   UNL     1      -0.277  13.868  11.221  0.00  0.00    +0.109 C 
ATOM     41  O   UNL     1       0.454  15.111  13.155  0.00  0.00    -0.276 OA
ENDBRANCH  36  37
BRANCH  33  42
ATOM     42  C   UNL     1      -6.457  15.770  12.324  0.00  0.00    +0.414 C 
ATOM     43  O   UNL     1      -6.499  16.980  12.105  0.00  0.00    -0.240 OA
ATOM     44  O   UNL     1      -6.939  15.330  13.368  0.00  0.00    -0.240 OA
ENDBRANCH  33  42
BRANCH  35  45
ATOM     45  O   UNL     1      -2.588  16.586  10.313  0.00  0.00    -0.390 OA
ATOM     46  H   UNL     1      -2.165  17.331  10.746  0.00  0.00    +0.210 HD
ENDBRANCH  35  45
BRANCH  33  47
ATOM     47  O   UNL     1      -6.830  14.251  10.441  0.00  0.00    -0.343 OA
ATOM     48  C   UNL     1      -6.381  13.889   9.111  0.00  0.00    +0.198 C 
ENDBRANCH  33  47
ENDBRANCH  30  31
BRANCH  30  49
ATOM     49  O   UNL     1      -3.031  11.835  12.526  0.00  0.00    -0.387 OA
ATOM     50  H   UNL     1      -2.669  11.074  12.986  0.00  0.00    +0.210 HD
ENDBRANCH  30  49
ENDBRANCH  27  30
ENDBRANCH  26  27
ENDBRANCH   3  26
TORSDOF 18
