REMARK VINA RESULT:    -3.711      2.110      6.868
REMARK INTER + INTRA:         -11.784
REMARK INTER:                  -7.681
REMARK INTRA:                  -4.103
REMARK UNBOUND:                -4.711
REMARK  Name = lig_assembled_62.pdb
REMARK  20 active torsions:
REMARK  status: ('A' for Active; 'I' for Inactive)
REMARK    1  A    between atoms: _2  and  _10
REMARK    2  A    between atoms: _5  and  _19
REMARK    3  A    between atoms: _6  and  _10
REMARK    4  A    between atoms: _7  and  _8
REMARK    5  A    between atoms: _7  and  _19
REMARK    6  A    between atoms: _10  and  _11
REMARK    7  A    between atoms: _11  and  _14
REMARK    8  A    between atoms: _12  and  _14
REMARK    9  A    between atoms: _15  and  _35
REMARK   10  A    between atoms: _17  and  _23
REMARK   11  A    between atoms: _18  and  _22
REMARK   12  A    between atoms: _22  and  _23
REMARK   13  A    between atoms: _25  and  _26
REMARK   14  A    between atoms: _27  and  _28
REMARK   15  A    between atoms: _29  and  _31
REMARK   16  A    between atoms: _31  and  _32
REMARK   17  A    between atoms: _31  and  _33
REMARK   18  A    between atoms: _33  and  _34
REMARK   19  A    between atoms: _33  and  _35
REMARK   20  A    between atoms: _36  and  _38
REMARK                            x       y       z     vdW  Elec       q    Type
REMARK                         _______ _______ _______ _____ _____    ______ ____
ROOT
ATOM      1  C   UNL     1      -3.202  10.013  30.787  0.00  0.00    +0.163 C 
ENDROOT
BRANCH   1   2
ATOM      2  O   UNL     1      -2.169  10.866  31.308  0.00  0.00    -0.388 OA
ATOM      3  H   UNL     1      -1.310  10.527  31.043  0.00  0.00    +0.210 HD
ENDBRANCH   1   2
BRANCH   1   4
ATOM      4  C   UNL     1      -4.064  10.761  29.755  0.00  0.00    +0.175 C 
BRANCH   4   5
ATOM      5  C   UNL     1      -4.245  12.242  30.118  0.00  0.00    +0.176 C 
ATOM      6  O   UNL     1      -4.362  12.337  31.564  0.00  0.00    -0.332 OA
ATOM      7  C   UNL     1      -4.437  13.697  32.106  0.00  0.00    +0.277 C 
ATOM      8  C   UNL     1      -5.589  14.484  31.435  0.00  0.00    +0.110 C 
ATOM      9  C   UNL     1      -5.526  14.386  29.896  0.00  0.00    +0.143 C 
ATOM     10  C   UNL     1      -5.447  12.928  29.442  0.00  0.00    +0.133 C 
BRANCH  10  11
ATOM     11  N   UNL     1      -5.299  12.851  27.980  0.00  0.00    -0.308 N 
ATOM     12  H   UNL     1      -4.416  13.136  27.580  0.00  0.00    +0.149 HD
ATOM     13  C   UNL     1      -6.255  12.430  27.148  0.00  0.00    +0.210 C 
ATOM     14  C   UNL     1      -7.598  12.028  27.787  0.00  0.00    +0.109 C 
ATOM     15  O   UNL     1      -6.098  12.362  25.929  0.00  0.00    -0.276 OA
ENDBRANCH  10  11
BRANCH   7  16
ATOM     16  C   UNL     1      -3.106  14.446  31.889  0.00  0.00    +0.414 C 
ATOM     17  O   UNL     1      -3.102  15.662  31.701  0.00  0.00    -0.240 OA
ATOM     18  O   UNL     1      -2.037  13.835  31.903  0.00  0.00    -0.240 OA
ENDBRANCH   7  16
BRANCH   7  19
ATOM     19  O   UNL     1      -4.717  13.599  33.527  0.00  0.00    -0.343 OA
ATOM     20  C   UNL     1      -4.535  12.278  34.097  0.00  0.00    +0.198 C 
ENDBRANCH   7  19
BRANCH   9  21
ATOM     21  O   UNL     1      -6.685  14.995  29.326  0.00  0.00    -0.390 OA
ATOM     22  H   UNL     1      -6.433  15.803  28.873  0.00  0.00    +0.210 HD
ENDBRANCH   9  21
ENDBRANCH   4   5
BRANCH   4  23
ATOM     23  O   UNL     1      -5.349  10.121  29.623  0.00  0.00    -0.387 OA
ATOM     24  H   UNL     1      -5.582   9.697  30.453  0.00  0.00    +0.210 HD
ENDBRANCH   4  23
ENDBRANCH   1   4
BRANCH   1  25
ATOM     25  C   UNL     1      -2.583   8.781  30.136  0.00  0.00    +0.141 C 
BRANCH  25  28
ATOM     26  C   UNL     1      -2.716   7.718  27.910  0.00  0.00    +0.401 C 
ATOM     27  O   UNL     1      -2.602   6.571  28.346  0.00  0.00    -0.226 OA
ATOM     28  N   UNL     1      -2.711   8.811  28.674  0.00  0.00    -0.279 N 
ATOM     29  H   UNL     1      -2.800   9.710  28.222  0.00  0.00    +0.152 HD
BRANCH  26  30
ATOM     30  O   UNL     1      -2.858   7.914  26.500  0.00  0.00    -0.444 OA
BRANCH  30  31
ATOM     31  C   UNL     1      -3.964   8.784  26.248  0.00  0.00    +0.292 C 
BRANCH  31  33
ATOM     32  N   UNL     1      -2.910  11.024  26.192  0.00  0.00    -0.131 NA
ATOM     33  C   UNL     1      -3.515   9.991  25.529  0.00  0.00    +0.120 A 
ATOM     34  C   UNL     1      -3.594  10.303  24.190  0.00  0.00    +0.138 A 
ATOM     35  N   UNL     1      -3.035  11.545  24.103  0.00  0.00    -0.237 N 
ATOM     36  N   UNL     1      -2.618  11.970  25.311  0.00  0.00    -0.065 NA
BRANCH  35  37
ATOM     37  C   UNL     1      -2.821  12.384  22.936  0.00  0.00    +0.219 C 
BRANCH  37  38
ATOM     38  C   UNL     1      -3.633  13.664  23.051  0.00  0.00    +0.237 C 
ATOM     39  O   UNL     1      -3.321  14.731  22.527  0.00  0.00    -0.274 OA
ATOM     40  N   UNL     1      -4.813  13.568  23.738  0.00  0.00    -0.328 N 
ATOM     41  H   UNL     1      -5.175  12.702  24.116  0.00  0.00    +0.145 HD
ATOM     42  H   UNL     1      -5.378  14.404  23.822  0.00  0.00    +0.145 HD
ENDBRANCH  37  38
BRANCH  37  43
ATOM     43  C   UNL     1      -3.168  11.629  21.656  0.00  0.00    +0.195 C 
BRANCH  43  44
ATOM     44  O   UNL     1      -4.487  11.999  21.229  0.00  0.00    -0.380 OA
ATOM     45  C   UNL     1      -4.627  11.911  19.816  0.00  0.00    +0.194 C 
ENDBRANCH  43  44
ENDBRANCH  37  43
ENDBRANCH  35  37
ENDBRANCH  31  33
ENDBRANCH  30  31
ENDBRANCH  26  30
ENDBRANCH  25  28
ENDBRANCH   1  25
TORSDOF 17
