REMARK VINA RESULT:    -5.393      2.625     13.323
REMARK INTER + INTRA:         -13.518
REMARK INTER:                  -9.940
REMARK INTRA:                  -3.577
REMARK UNBOUND:                -3.396
REMARK  Name = lig_assembled_34.pdb
REMARK  19 active torsions:
REMARK  status: ('A' for Active; 'I' for Inactive)
REMARK    1  A    between atoms: _2  and  _9
REMARK    2  A    between atoms: _4  and  _37
REMARK    3  A    between atoms: _6  and  _7
REMARK    4  A    between atoms: _6  and  _37
REMARK    5  A    between atoms: _11  and  _12
REMARK    6  A    between atoms: _13  and  _14
REMARK    7  A    between atoms: _18  and  _31
REMARK    8  A    between atoms: _33  and  _53
REMARK    9  A    between atoms: _35  and  _41
REMARK   10  A    between atoms: _36  and  _40
REMARK   11  A    between atoms: _40  and  _41
REMARK   12  A    between atoms: _43  and  _44
REMARK   13  A    between atoms: _45  and  _46
REMARK   14  A    between atoms: _47  and  _49
REMARK   15  A    between atoms: _49  and  _50
REMARK   16  A    between atoms: _49  and  _51
REMARK   17  A    between atoms: _51  and  _52
REMARK   18  A    between atoms: _51  and  _53
REMARK   19  A    between atoms: _54  and  _56
REMARK                            x       y       z     vdW  Elec       q    Type
REMARK                         _______ _______ _______ _____ _____    ______ ____
ROOT
ATOM      1  N   UNL     1      -4.819  13.110  21.621  0.00  0.00    -0.131 NA
ATOM      2  C   UNL     1      -5.832  12.196  21.552  0.00  0.00    +0.121 A 
ATOM      3  C   UNL     1      -5.839  11.453  22.707  0.00  0.00    +0.143 A 
ATOM      4  N   UNL     1      -4.822  11.966  23.482  0.00  0.00    -0.220 N 
ATOM      5  N   UNL     1      -4.199  12.957  22.788  0.00  0.00    -0.060 NA
ENDROOT
BRANCH   4   6
ATOM      6  C   UNL     1      -4.463  11.602  24.808  0.00  0.00    +0.068 A 
ATOM      7  C   UNL     1      -5.405  10.977  25.632  0.00  0.00    +0.038 A 
ATOM      8  C   UNL     1      -5.160  10.702  27.000  0.00  0.00    +0.007 A 
ATOM      9  C   UNL     1      -3.889  11.003  27.530  0.00  0.00    -0.008 A 
ATOM     10  C   UNL     1      -2.924  11.590  26.675  0.00  0.00    +0.011 A 
ATOM     11  C   UNL     1      -3.207  11.904  25.334  0.00  0.00    +0.028 A 
BRANCH   9  12
ATOM     12  C   UNL     1      -3.499  10.821  28.966  0.00  0.00    +0.004 A 
ATOM     13  C   UNL     1      -3.612  11.822  29.886  0.00  0.00    +0.026 A 
ATOM     14  C   UNL     1      -4.066  13.173  29.536  0.00  0.00    +0.016 A 
ATOM     15  C   UNL     1      -3.990  14.187  30.411  0.00  0.00    +0.051 A 
ATOM     16  C   UNL     1      -3.475  13.964  31.783  0.00  0.00    +0.183 A 
ATOM     17  O   UNL     1      -3.340  14.895  32.573  0.00  0.00    -0.288 OA
ATOM     18  C   UNL     1      -3.201  12.571  32.189  0.00  0.00    +0.097 A 
ATOM     19  C   UNL     1      -3.300  11.570  31.306  0.00  0.00    +0.140 A 
ATOM     20  O   UNL     1      -3.170  10.269  31.768  0.00  0.00    -0.455 OA
ATOM     21  C   UNL     1      -3.017   9.261  30.853  0.00  0.00    +0.140 A 
ATOM     22  C   UNL     1      -2.797   7.985  31.371  0.00  0.00    +0.092 A 
ATOM     23  C   UNL     1      -2.575   6.928  30.501  0.00  0.00    +0.120 A 
ATOM     24  C   UNL     1      -2.492   7.148  29.130  0.00  0.00    +0.046 A 
ATOM     25  C   UNL     1      -2.728   8.430  28.626  0.00  0.00    +0.016 A 
ATOM     26  C   UNL     1      -3.056   9.494  29.480  0.00  0.00    +0.026 A 
BRANCH  23  27
ATOM     27  O   UNL     1      -2.453   5.675  31.025  0.00  0.00    -0.507 OA
ATOM     28  H   UNL     1      -2.089   5.101  30.331  0.00  0.00    +0.292 HD
ENDBRANCH  23  27
ENDBRANCH   9  12
BRANCH   8  29
ATOM     29  C   UNL     1      -6.331  10.172  27.803  0.00  0.00    +0.072 C 
ATOM     30  O   UNL     1      -7.069  11.047  28.360  0.00  0.00    -0.545 OA
ATOM     31  O   UNL     1      -6.454   8.918  27.930  0.00  0.00    -0.545 OA
ENDBRANCH   8  29
ENDBRANCH   4   6
BRANCH   2  32
ATOM     32  C   UNL     1      -6.730  12.095  20.385  0.00  0.00    +0.292 C 
BRANCH  32  33
ATOM     33  O   UNL     1      -6.665  10.788  19.808  0.00  0.00    -0.444 OA
BRANCH  33  34
ATOM     34  C   UNL     1      -5.520  10.698  18.956  0.00  0.00    +0.401 C 
ATOM     35  O   UNL     1      -5.017   9.592  18.744  0.00  0.00    -0.226 OA
ATOM     36  N   UNL     1      -5.063  11.837  18.435  0.00  0.00    -0.279 N 
ATOM     37  H   UNL     1      -5.550  12.694  18.660  0.00  0.00    +0.152 HD
BRANCH  36  38
ATOM     38  C   UNL     1      -3.894  11.918  17.551  0.00  0.00    +0.141 C 
BRANCH  38  39
ATOM     39  C   UNL     1      -4.285  11.815  16.080  0.00  0.00    +0.163 C 
BRANCH  39  40
ATOM     40  O   UNL     1      -3.796  12.959  15.360  0.00  0.00    -0.388 OA
ATOM     41  H   UNL     1      -3.340  12.667  14.567  0.00  0.00    +0.210 HD
ENDBRANCH  39  40
BRANCH  39  42
ATOM     42  C   UNL     1      -3.723  10.511  15.488  0.00  0.00    +0.175 C 
BRANCH  42  43
ATOM     43  C   UNL     1      -3.473  10.623  13.977  0.00  0.00    +0.176 C 
ATOM     44  O   UNL     1      -4.609  11.311  13.385  0.00  0.00    -0.332 OA
ATOM     45  C   UNL     1      -4.497  11.603  11.953  0.00  0.00    +0.277 C 
ATOM     46  C   UNL     1      -4.197  10.309  11.158  0.00  0.00    +0.110 C 
ATOM     47  C   UNL     1      -3.015   9.526  11.770  0.00  0.00    +0.143 C 
ATOM     48  C   UNL     1      -3.235   9.279  13.263  0.00  0.00    +0.133 C 
BRANCH  48  49
ATOM     49  N   UNL     1      -2.064   8.610  13.852  0.00  0.00    -0.308 N 
ATOM     50  H   UNL     1      -1.203   9.135  13.916  0.00  0.00    +0.149 HD
ATOM     51  C   UNL     1      -2.065   7.354  14.306  0.00  0.00    +0.210 C 
ATOM     52  C   UNL     1      -3.386   6.572  14.170  0.00  0.00    +0.109 C 
ATOM     53  O   UNL     1      -1.074   6.823  14.808  0.00  0.00    -0.276 OA
ENDBRANCH  48  49
BRANCH  45  54
ATOM     54  C   UNL     1      -3.383  12.639  11.692  0.00  0.00    +0.414 C 
ATOM     55  O   UNL     1      -2.869  12.728  10.578  0.00  0.00    -0.240 OA
ATOM     56  O   UNL     1      -2.999  13.383  12.595  0.00  0.00    -0.240 OA
ENDBRANCH  45  54
BRANCH  47  57
ATOM     57  O   UNL     1      -2.871   8.272  11.101  0.00  0.00    -0.390 OA
ATOM     58  H   UNL     1      -3.595   7.692  11.349  0.00  0.00    +0.210 HD
ENDBRANCH  47  57
BRANCH  45  59
ATOM     59  O   UNL     1      -5.770  12.132  11.502  0.00  0.00    -0.343 OA
ATOM     60  C   UNL     1      -6.490  12.918  12.486  0.00  0.00    +0.198 C 
ENDBRANCH  45  59
ENDBRANCH  42  43
BRANCH  42  61
ATOM     61  O   UNL     1      -4.617   9.415  15.764  0.00  0.00    -0.387 OA
ATOM     62  H   UNL     1      -5.264   9.343  15.058  0.00  0.00    +0.210 HD
ENDBRANCH  42  61
ENDBRANCH  39  42
ENDBRANCH  38  39
ENDBRANCH  36  38
ENDBRANCH  33  34
ENDBRANCH  32  33
ENDBRANCH   2  32
TORSDOF 17
