REMARK VINA RESULT:    -5.401      3.489      5.451
REMARK INTER + INTRA:         -12.977
REMARK INTER:                  -9.578
REMARK INTRA:                  -3.398
REMARK UNBOUND:                -2.840
REMARK  Name = lig_assembled_77.pdb
REMARK  19 active torsions:
REMARK  status: ('A' for Active; 'I' for Inactive)
REMARK    1  A    between atoms: _2  and  _10
REMARK    2  A    between atoms: _3  and  _17
REMARK    3  A    between atoms: _5  and  _27
REMARK    4  A    between atoms: _7  and  _8
REMARK    5  A    between atoms: _7  and  _27
REMARK    6  A    between atoms: _13  and  _47
REMARK    7  A    between atoms: _14  and  _47
REMARK    8  A    between atoms: _23  and  _43
REMARK    9  A    between atoms: _25  and  _31
REMARK   10  A    between atoms: _26  and  _30
REMARK   11  A    between atoms: _30  and  _31
REMARK   12  A    between atoms: _33  and  _34
REMARK   13  A    between atoms: _35  and  _36
REMARK   14  A    between atoms: _37  and  _39
REMARK   15  A    between atoms: _39  and  _40
REMARK   16  A    between atoms: _39  and  _41
REMARK   17  A    between atoms: _41  and  _42
REMARK   18  A    between atoms: _41  and  _43
REMARK   19  A    between atoms: _44  and  _46
REMARK                            x       y       z     vdW  Elec       q    Type
REMARK                         _______ _______ _______ _____ _____    ______ ____
ROOT
ATOM      1  C   UNL     1      -4.122  13.860  22.099  0.00  0.00    +0.401 C 
ATOM      2  O   UNL     1      -3.097  14.280  21.557  0.00  0.00    -0.226 OA
ATOM      3  N   UNL     1      -4.148  13.284  23.301  0.00  0.00    -0.279 N 
ATOM      4  H   UNL     1      -5.040  12.981  23.666  0.00  0.00    +0.152 HD
ENDROOT
BRANCH   3   5
ATOM      5  C   UNL     1      -2.953  13.067  24.126  0.00  0.00    +0.141 C 
BRANCH   5   6
ATOM      6  C   UNL     1      -2.813  11.608  24.549  0.00  0.00    +0.163 C 
BRANCH   6   7
ATOM      7  O   UNL     1      -2.961  11.494  25.974  0.00  0.00    -0.388 OA
ATOM      8  H   UNL     1      -2.831  10.580  26.238  0.00  0.00    +0.210 HD
ENDBRANCH   6   7
BRANCH   6   9
ATOM      9  C   UNL     1      -3.864  10.757  23.817  0.00  0.00    +0.175 C 
BRANCH   9  10
ATOM     10  C   UNL     1      -4.236   9.493  24.606  0.00  0.00    +0.176 C 
ATOM     11  O   UNL     1      -3.008   8.908  25.120  0.00  0.00    -0.332 OA
ATOM     12  C   UNL     1      -3.178   7.744  25.994  0.00  0.00    +0.277 C 
ATOM     13  C   UNL     1      -4.021   6.654  25.287  0.00  0.00    +0.110 C 
ATOM     14  C   UNL     1      -5.323   7.236  24.696  0.00  0.00    +0.143 C 
ATOM     15  C   UNL     1      -5.030   8.444  23.806  0.00  0.00    +0.133 C 
BRANCH  15  16
ATOM     16  N   UNL     1      -6.283   9.041  23.320  0.00  0.00    -0.308 N 
ATOM     17  H   UNL     1      -6.867   9.523  23.989  0.00  0.00    +0.149 HD
ATOM     18  C   UNL     1      -6.700   8.988  22.052  0.00  0.00    +0.210 C 
ATOM     19  C   UNL     1      -5.801   8.224  21.061  0.00  0.00    +0.109 C 
ATOM     20  O   UNL     1      -7.748   9.511  21.670  0.00  0.00    -0.276 OA
ENDBRANCH  15  16
BRANCH  12  21
ATOM     21  C   UNL     1      -3.862   8.147  27.316  0.00  0.00    +0.414 C 
ATOM     22  O   UNL     1      -3.558   9.200  27.876  0.00  0.00    -0.240 OA
ATOM     23  O   UNL     1      -4.718   7.421  27.823  0.00  0.00    -0.240 OA
ENDBRANCH  12  21
BRANCH  14  24
ATOM     24  O   UNL     1      -5.991   6.235  23.927  0.00  0.00    -0.390 OA
ATOM     25  H   UNL     1      -6.087   6.538  23.021  0.00  0.00    +0.210 HD
ENDBRANCH  14  24
BRANCH  12  26
ATOM     26  O   UNL     1      -1.863   7.196  26.272  0.00  0.00    -0.343 OA
ATOM     27  C   UNL     1      -1.860   5.834  26.771  0.00  0.00    +0.198 C 
ENDBRANCH  12  26
ENDBRANCH   9  10
BRANCH   9  28
ATOM     28  O   UNL     1      -3.386  10.399  22.504  0.00  0.00    -0.387 OA
ATOM     29  H   UNL     1      -3.109  11.191  22.038  0.00  0.00    +0.210 HD
ENDBRANCH   9  28
ENDBRANCH   6   9
ENDBRANCH   5   6
ENDBRANCH   3   5
BRANCH   1  30
ATOM     30  O   UNL     1      -5.372  13.992  21.416  0.00  0.00    -0.444 OA
BRANCH  30  31
ATOM     31  C   UNL     1      -6.031  12.723  21.377  0.00  0.00    +0.292 C 
BRANCH  31  33
ATOM     32  N   UNL     1      -6.886  12.303  19.095  0.00  0.00    -0.131 NA
ATOM     33  C   UNL     1      -5.913  12.122  20.035  0.00  0.00    +0.121 A 
ATOM     34  C   UNL     1      -4.912  11.342  19.501  0.00  0.00    +0.143 A 
ATOM     35  N   UNL     1      -5.318  11.076  18.213  0.00  0.00    -0.220 N 
ATOM     36  N   UNL     1      -6.523  11.658  17.996  0.00  0.00    -0.060 NA
BRANCH  35  37
ATOM     37  C   UNL     1      -4.626  10.378  17.188  0.00  0.00    +0.067 A 
ATOM     38  C   UNL     1      -4.691   8.979  17.099  0.00  0.00    +0.030 A 
ATOM     39  C   UNL     1      -3.909   8.299  16.160  0.00  0.00    +0.029 A 
ATOM     40  C   UNL     1      -3.068   9.019  15.309  0.00  0.00    +0.094 A 
ATOM     41  C   UNL     1      -3.065  10.417  15.326  0.00  0.00    +0.029 A 
ATOM     42  C   UNL     1      -3.835  11.095  16.274  0.00  0.00    +0.030 A 
BRANCH  40  43
ATOM     43  S   UNL     1      -2.020   8.148  14.161  0.00  0.00    +0.025 S 
ATOM     44  O   UNL     1      -1.319   9.168  13.400  0.00  0.00    -0.164 OA
ATOM     45  O   UNL     1      -1.285   7.152  14.916  0.00  0.00    -0.164 OA
BRANCH  43  46
ATOM     46  C   UNL     1      -3.044   7.252  13.012  0.00  0.00    +0.094 A 
ATOM     47  C   UNL     1      -3.401   7.807  11.783  0.00  0.00    +0.029 A 
ATOM     48  C   UNL     1      -4.258   7.100  10.930  0.00  0.00    +0.024 A 
ATOM     49  C   UNL     1      -4.726   5.824  11.271  0.00  0.00    +0.025 A 
ATOM     50  C   UNL     1      -4.382   5.297  12.520  0.00  0.00    +0.024 A 
ATOM     51  C   UNL     1      -3.529   5.993  13.381  0.00  0.00    +0.029 A 
BRANCH  49  52
ATOM     52  N   UNL     1      -5.711   5.205  10.497  0.00  0.00    -0.358 N 
ATOM     53  H   UNL     1      -6.633   5.622  10.570  0.00  0.00    +0.142 HD
ATOM     54  H   UNL     1      -5.439   5.029   9.535  0.00  0.00    +0.142 HD
ENDBRANCH  49  52
ENDBRANCH  43  46
ENDBRANCH  40  43
ENDBRANCH  35  37
ENDBRANCH  31  33
ENDBRANCH  30  31
ENDBRANCH   1  30
TORSDOF 17
