REMARK VINA RESULT:    -5.716      1.480      1.768
REMARK INTER + INTRA:         -15.217
REMARK INTER:                  -9.850
REMARK INTRA:                  -5.367
REMARK UNBOUND:                -3.487
REMARK  Name = lig_assembled_90.pdb
REMARK  22 active torsions:
REMARK  status: ('A' for Active; 'I' for Inactive)
REMARK    1  A    between atoms: _2  and  _13
REMARK    2  A    between atoms: _3  and  _15
REMARK    3  A    between atoms: _4  and  _17
REMARK    4  A    between atoms: _8  and  _28
REMARK    5  A    between atoms: _10  and  _11
REMARK    6  A    between atoms: _10  and  _28
REMARK    7  A    between atoms: _13  and  _14
REMARK    8  A    between atoms: _15  and  _16
REMARK    9  A    between atoms: _16  and  _17
REMARK   10  A    between atoms: _16  and  _22
REMARK   11  A    between atoms: _24  and  _44
REMARK   12  A    between atoms: _26  and  _32
REMARK   13  A    between atoms: _27  and  _31
REMARK   14  A    between atoms: _31  and  _32
REMARK   15  A    between atoms: _34  and  _35
REMARK   16  A    between atoms: _36  and  _37
REMARK   17  A    between atoms: _38  and  _40
REMARK   18  A    between atoms: _40  and  _41
REMARK   19  A    between atoms: _40  and  _42
REMARK   20  A    between atoms: _42  and  _43
REMARK   21  A    between atoms: _42  and  _44
REMARK   22  A    between atoms: _45  and  _47
REMARK                            x       y       z     vdW  Elec       q    Type
REMARK                         _______ _______ _______ _____ _____    ______ ____
ROOT
ATOM      1  C   UNL     1      -4.110   7.245  23.371  0.00  0.00    +0.401 C 
ATOM      2  O   UNL     1      -3.815   8.019  22.457  0.00  0.00    -0.226 OA
ATOM      3  N   UNL     1      -5.334   7.138  23.891  0.00  0.00    -0.279 N 
ATOM      4  H   UNL     1      -5.480   6.467  24.632  0.00  0.00    +0.152 HD
ENDROOT
BRANCH   3   5
ATOM      5  C   UNL     1      -6.480   7.941  23.448  0.00  0.00    +0.141 C 
BRANCH   5   6
ATOM      6  C   UNL     1      -6.991   8.861  24.553  0.00  0.00    +0.163 C 
BRANCH   6   7
ATOM      7  O   UNL     1      -6.575   8.366  25.836  0.00  0.00    -0.388 OA
ATOM      8  H   UNL     1      -6.937   8.925  26.528  0.00  0.00    +0.210 HD
ENDBRANCH   6   7
BRANCH   6   9
ATOM      9  C   UNL     1      -6.467  10.288  24.317  0.00  0.00    +0.175 C 
BRANCH   9  10
ATOM     10  C   UNL     1      -5.113  10.527  25.002  0.00  0.00    +0.176 C 
ATOM     11  O   UNL     1      -5.372  11.056  26.331  0.00  0.00    -0.332 OA
ATOM     12  C   UNL     1      -4.191  11.248  27.178  0.00  0.00    +0.277 C 
ATOM     13  C   UNL     1      -3.146  12.134  26.456  0.00  0.00    +0.110 C 
ATOM     14  C   UNL     1      -2.862  11.629  25.026  0.00  0.00    +0.143 C 
ATOM     15  C   UNL     1      -4.160  11.462  24.235  0.00  0.00    +0.133 C 
BRANCH  15  16
ATOM     16  N   UNL     1      -3.883  10.899  22.904  0.00  0.00    -0.308 N 
ATOM     17  H   UNL     1      -3.413  10.006  22.859  0.00  0.00    +0.149 HD
ATOM     18  C   UNL     1      -4.214  11.490  21.753  0.00  0.00    +0.210 C 
ATOM     19  C   UNL     1      -4.906  12.862  21.856  0.00  0.00    +0.109 C 
ATOM     20  O   UNL     1      -3.982  10.988  20.653  0.00  0.00    -0.276 OA
ENDBRANCH  15  16
BRANCH  12  21
ATOM     21  C   UNL     1      -3.552   9.891  27.542  0.00  0.00    +0.414 C 
ATOM     22  O   UNL     1      -2.344   9.813  27.762  0.00  0.00    -0.240 OA
ATOM     23  O   UNL     1      -4.245   8.875  27.616  0.00  0.00    -0.240 OA
ENDBRANCH  12  21
BRANCH  14  24
ATOM     24  O   UNL     1      -2.014  12.557  24.348  0.00  0.00    -0.390 OA
ATOM     25  H   UNL     1      -1.687  12.159  23.537  0.00  0.00    +0.210 HD
ENDBRANCH  14  24
BRANCH  12  26
ATOM     26  O   UNL     1      -4.612  11.930  28.388  0.00  0.00    -0.343 OA
ATOM     27  C   UNL     1      -5.722  12.846  28.219  0.00  0.00    +0.198 C 
ENDBRANCH  12  26
ENDBRANCH   9  10
BRANCH   9  28
ATOM     28  O   UNL     1      -7.434  11.254  24.776  0.00  0.00    -0.387 OA
ATOM     29  H   UNL     1      -8.189  11.257  24.184  0.00  0.00    +0.210 HD
ENDBRANCH   9  28
ENDBRANCH   6   9
ENDBRANCH   5   6
ENDBRANCH   3   5
BRANCH   1  30
ATOM     30  O   UNL     1      -3.097   6.398  23.918  0.00  0.00    -0.444 OA
BRANCH  30  31
ATOM     31  C   UNL     1      -3.668   5.559  24.925  0.00  0.00    +0.292 C 
BRANCH  31  33
ATOM     32  N   UNL     1      -1.922   6.618  26.333  0.00  0.00    -0.131 NA
ATOM     33  C   UNL     1      -3.017   5.799  26.227  0.00  0.00    +0.120 A 
ATOM     34  C   UNL     1      -3.331   5.309  27.475  0.00  0.00    +0.137 A 
ATOM     35  N   UNL     1      -2.407   5.881  28.297  0.00  0.00    -0.242 N 
ATOM     36  N   UNL     1      -1.549   6.652  27.606  0.00  0.00    -0.065 NA
BRANCH  35  37
ATOM     37  C   UNL     1      -2.211   5.662  29.709  0.00  0.00    +0.240 C 
BRANCH  37  38
ATOM     38  C   UNL     1      -3.053   6.608  30.535  0.00  0.00    +0.235 C 
ATOM     39  O   UNL     1      -3.922   6.216  31.312  0.00  0.00    -0.274 OA
ATOM     40  N   UNL     1      -2.739   7.947  30.399  0.00  0.00    -0.311 N 
ATOM     41  H   UNL     1      -2.227   8.246  29.572  0.00  0.00    +0.149 HD
BRANCH  40  42
ATOM     42  C   UNL     1      -3.531   8.964  31.076  0.00  0.00    +0.137 C 
BRANCH  42  43
ATOM     43  C   UNL     1      -2.663  10.162  31.488  0.00  0.00    +0.151 C 
BRANCH  43  44
ATOM     44  O   UNL     1      -2.608  11.086  30.393  0.00  0.00    -0.388 OA
ATOM     45  H   UNL     1      -1.678  11.360  30.257  0.00  0.00    +0.210 HD
ENDBRANCH  43  44
BRANCH  43  46
ATOM     46  C   UNL     1      -3.193  10.836  32.760  0.00  0.00    +0.162 C 
BRANCH  46  47
ATOM     47  N   UNL     1      -4.185  11.864  32.473  0.00  0.00    -0.269 N 
ATOM     48  C   UNL     1      -5.538  11.609  32.430  0.00  0.00    +0.113 A 
ATOM     49  C   UNL     1      -6.132  12.801  32.091  0.00  0.00    +0.137 A 
ATOM     50  N   UNL     1      -5.188  13.780  31.922  0.00  0.00    -0.172 NA
ATOM     51  C   UNL     1      -4.027  13.193  32.169  0.00  0.00    +0.450 A 
ATOM     52  N   UNL     1      -2.774  13.905  32.104  0.00  0.00    +0.120 N 
ATOM     53  O   UNL     1      -1.751  13.302  32.456  0.00  0.00    +0.045 OA
ATOM     54  O   UNL     1      -2.804  15.070  31.688  0.00  0.00    -0.573 OA
ENDBRANCH  46  47
ENDBRANCH  43  46
ENDBRANCH  42  43
ENDBRANCH  40  42
ENDBRANCH  37  38
ENDBRANCH  35  37
ENDBRANCH  31  33
ENDBRANCH  30  31
ENDBRANCH   1  30
TORSDOF 20
