REMARK VINA RESULT:    -4.718      2.403      4.796
REMARK INTER + INTRA:         -11.234
REMARK INTER:                  -8.884
REMARK INTRA:                  -2.350
REMARK UNBOUND:                -2.792
REMARK  Name = lig_assembled_5.pdb
REMARK  18 active torsions:
REMARK  status: ('A' for Active; 'I' for Inactive)
REMARK    1  A    between atoms: _2  and  _9
REMARK    2  A    between atoms: _4  and  _20
REMARK    3  A    between atoms: _6  and  _7
REMARK    4  A    between atoms: _6  and  _20
REMARK    5  A    between atoms: _12  and  _15
REMARK    6  A    between atoms: _13  and  _15
REMARK    7  A    between atoms: _16  and  _36
REMARK    8  A    between atoms: _18  and  _24
REMARK    9  A    between atoms: _19  and  _23
REMARK   10  A    between atoms: _23  and  _24
REMARK   11  A    between atoms: _26  and  _27
REMARK   12  A    between atoms: _28  and  _29
REMARK   13  A    between atoms: _30  and  _32
REMARK   14  A    between atoms: _32  and  _33
REMARK   15  A    between atoms: _32  and  _34
REMARK   16  A    between atoms: _34  and  _35
REMARK   17  A    between atoms: _34  and  _36
REMARK   18  A    between atoms: _37  and  _39
REMARK                            x       y       z     vdW  Elec       q    Type
REMARK                         _______ _______ _______ _____ _____    ______ ____
ROOT
ATOM      1  C   UNL     1      -4.265   9.030  23.831  0.00  0.00    +0.163 C 
ENDROOT
BRANCH   1   2
ATOM      2  O   UNL     1      -3.797   8.314  22.677  0.00  0.00    -0.388 OA
ATOM      3  H   UNL     1      -3.524   7.431  22.937  0.00  0.00    +0.210 HD
ENDBRANCH   1   2
BRANCH   1   4
ATOM      4  C   UNL     1      -4.309   8.101  25.040  0.00  0.00    +0.141 C 
BRANCH   4   7
ATOM      5  C   UNL     1      -2.635   8.568  26.796  0.00  0.00    +0.401 C 
ATOM      6  O   UNL     1      -1.793   7.797  26.330  0.00  0.00    -0.226 OA
ATOM      7  N   UNL     1      -3.840   8.768  26.261  0.00  0.00    -0.279 N 
ATOM      8  H   UNL     1      -4.465   9.414  26.721  0.00  0.00    +0.152 HD
BRANCH   5   9
ATOM      9  O   UNL     1      -2.323   9.301  27.983  0.00  0.00    -0.444 OA
BRANCH   9  10
ATOM     10  C   UNL     1      -3.506   9.457  28.772  0.00  0.00    +0.292 C 
BRANCH  10  12
ATOM     11  N   UNL     1      -2.569   9.991  30.999  0.00  0.00    -0.131 NA
ATOM     12  C   UNL     1      -3.257  10.387  29.890  0.00  0.00    +0.121 A 
ATOM     13  C   UNL     1      -3.618  11.707  30.033  0.00  0.00    +0.143 A 
ATOM     14  N   UNL     1      -3.098  12.089  31.249  0.00  0.00    -0.220 N 
ATOM     15  N   UNL     1      -2.482  11.026  31.824  0.00  0.00    -0.060 NA
BRANCH  14  16
ATOM     16  C   UNL     1      -3.124  13.368  31.864  0.00  0.00    +0.067 A 
ATOM     17  C   UNL     1      -2.626  13.550  33.160  0.00  0.00    +0.031 A 
ATOM     18  C   UNL     1      -2.717  14.803  33.771  0.00  0.00    +0.048 A 
ATOM     19  C   UNL     1      -3.281  15.889  33.098  0.00  0.00    +0.120 A 
ATOM     20  C   UNL     1      -3.762  15.715  31.802  0.00  0.00    +0.048 A 
ATOM     21  C   UNL     1      -3.686  14.459  31.185  0.00  0.00    +0.031 A 
BRANCH  19  22
ATOM     22  O   UNL     1      -3.363  17.040  33.833  0.00  0.00    -0.495 OA
ATOM     23  C   UNL     1      -3.507  18.248  33.098  0.00  0.00    +0.277 C 
ENDBRANCH  19  22
ENDBRANCH  14  16
ENDBRANCH  10  12
ENDBRANCH   9  10
ENDBRANCH   5   9
ENDBRANCH   4   7
ENDBRANCH   1   4
BRANCH   1  24
ATOM     24  C   UNL     1      -5.665   9.619  23.584  0.00  0.00    +0.175 C 
BRANCH  24  25
ATOM     25  C   UNL     1      -5.606  10.941  22.804  0.00  0.00    +0.176 C 
ATOM     26  O   UNL     1      -5.274  10.631  21.423  0.00  0.00    -0.332 OA
ATOM     27  C   UNL     1      -5.278  11.769  20.499  0.00  0.00    +0.277 C 
ATOM     28  C   UNL     1      -4.349  12.893  21.022  0.00  0.00    +0.110 C 
ATOM     29  C   UNL     1      -4.643  13.235  22.497  0.00  0.00    +0.143 C 
ATOM     30  C   UNL     1      -4.617  11.978  23.368  0.00  0.00    +0.133 C 
BRANCH  30  31
ATOM     31  N   UNL     1      -4.985  12.304  24.755  0.00  0.00    -0.308 N 
ATOM     32  H   UNL     1      -5.954  12.510  24.950  0.00  0.00    +0.149 HD
ATOM     33  C   UNL     1      -4.120  12.347  25.772  0.00  0.00    +0.210 C 
ATOM     34  C   UNL     1      -2.646  12.054  25.437  0.00  0.00    +0.109 C 
ATOM     35  O   UNL     1      -4.459  12.608  26.927  0.00  0.00    -0.276 OA
ENDBRANCH  30  31
BRANCH  27  36
ATOM     36  C   UNL     1      -6.706  12.324  20.320  0.00  0.00    +0.414 C 
ATOM     37  O   UNL     1      -6.888  13.530  20.157  0.00  0.00    -0.240 OA
ATOM     38  O   UNL     1      -7.677  11.565  20.337  0.00  0.00    -0.240 OA
ENDBRANCH  27  36
BRANCH  27  39
ATOM     39  O   UNL     1      -4.767  11.312  19.221  0.00  0.00    -0.343 OA
ATOM     40  C   UNL     1      -4.923   9.892  18.972  0.00  0.00    +0.198 C 
ENDBRANCH  27  39
BRANCH  29  41
ATOM     41  O   UNL     1      -3.670  14.162  22.980  0.00  0.00    -0.390 OA
ATOM     42  H   UNL     1      -2.980  13.687  23.450  0.00  0.00    +0.210 HD
ENDBRANCH  29  41
ENDBRANCH  24  25
BRANCH  24  43
ATOM     43  O   UNL     1      -6.351   9.811  24.837  0.00  0.00    -0.387 OA
ATOM     44  H   UNL     1      -6.961   9.084  24.983  0.00  0.00    +0.210 HD
ENDBRANCH  24  43
ENDBRANCH   1  24
TORSDOF 15
