REMARK VINA RESULT:    -4.287      2.064      2.670
REMARK INTER + INTRA:         -11.880
REMARK INTER:                  -9.831
REMARK INTRA:                  -2.049
REMARK UNBOUND:                -3.458
REMARK  Name = lig_assembled_43.pdb
REMARK  20 active torsions:
REMARK  status: ('A' for Active; 'I' for Inactive)
REMARK    1  A    between atoms: _2  and  _9
REMARK    2  A    between atoms: _4  and  _18
REMARK    3  A    between atoms: _6  and  _7
REMARK    4  A    between atoms: _6  and  _18
REMARK    5  A    between atoms: _9  and  _10
REMARK    6  A    between atoms: _10  and  _11
REMARK    7  A    between atoms: _11  and  _12
REMARK    8  A    between atoms: _12  and  _13
REMARK    9  A    between atoms: _14  and  _34
REMARK   10  A    between atoms: _16  and  _22
REMARK   11  A    between atoms: _17  and  _21
REMARK   12  A    between atoms: _21  and  _22
REMARK   13  A    between atoms: _24  and  _25
REMARK   14  A    between atoms: _26  and  _27
REMARK   15  A    between atoms: _28  and  _30
REMARK   16  A    between atoms: _30  and  _31
REMARK   17  A    between atoms: _30  and  _32
REMARK   18  A    between atoms: _32  and  _33
REMARK   19  A    between atoms: _32  and  _34
REMARK   20  A    between atoms: _35  and  _37
REMARK                            x       y       z     vdW  Elec       q    Type
REMARK                         _______ _______ _______ _____ _____    ______ ____
ROOT
ATOM      1  C   UNL     1      -3.081   9.897  30.142  0.00  0.00    +0.163 C 
ENDROOT
BRANCH   1   2
ATOM      2  O   UNL     1      -2.219  10.664  30.999  0.00  0.00    -0.388 OA
ATOM      3  H   UNL     1      -2.659  11.480  31.249  0.00  0.00    +0.210 HD
ENDBRANCH   1   2
BRANCH   1   4
ATOM      4  C   UNL     1      -4.153  10.792  29.496  0.00  0.00    +0.175 C 
BRANCH   4   5
ATOM      5  C   UNL     1      -4.178  12.199  30.111  0.00  0.00    +0.176 C 
ATOM      6  O   UNL     1      -4.258  12.054  31.556  0.00  0.00    -0.332 OA
ATOM      7  C   UNL     1      -4.186  13.302  32.323  0.00  0.00    +0.277 C 
ATOM      8  C   UNL     1      -5.265  14.300  31.836  0.00  0.00    +0.110 C 
ATOM      9  C   UNL     1      -5.239  14.462  30.302  0.00  0.00    +0.143 C 
ATOM     10  C   UNL     1      -5.317  13.104  29.605  0.00  0.00    +0.133 C 
BRANCH  10  11
ATOM     11  N   UNL     1      -5.204  13.265  28.147  0.00  0.00    -0.308 N 
ATOM     12  H   UNL     1      -4.325  13.597  27.775  0.00  0.00    +0.149 HD
ATOM     13  C   UNL     1      -6.188  13.003  27.282  0.00  0.00    +0.210 C 
ATOM     14  C   UNL     1      -7.523  12.524  27.881  0.00  0.00    +0.109 C 
ATOM     15  O   UNL     1      -6.060  13.134  26.064  0.00  0.00    -0.276 OA
ENDBRANCH  10  11
BRANCH   7  16
ATOM     16  C   UNL     1      -2.790  13.946  32.189  0.00  0.00    +0.414 C 
ATOM     17  O   UNL     1      -2.680  15.163  32.047  0.00  0.00    -0.240 OA
ATOM     18  O   UNL     1      -1.775  13.249  32.224  0.00  0.00    -0.240 OA
ENDBRANCH   7  16
BRANCH   9  19
ATOM     19  O   UNL     1      -6.342  15.269  29.884  0.00  0.00    -0.390 OA
ATOM     20  H   UNL     1      -6.258  15.468  28.949  0.00  0.00    +0.210 HD
ENDBRANCH   9  19
BRANCH   7  21
ATOM     21  O   UNL     1      -4.447  12.988  33.715  0.00  0.00    -0.343 OA
ATOM     22  C   UNL     1      -5.334  11.862  33.933  0.00  0.00    +0.198 C 
ENDBRANCH   7  21
ENDBRANCH   4   5
BRANCH   4  23
ATOM     23  O   UNL     1      -5.451  10.176  29.614  0.00  0.00    -0.387 OA
ATOM     24  H   UNL     1      -5.715  10.159  30.536  0.00  0.00    +0.210 HD
ENDBRANCH   4  23
ENDBRANCH   1   4
BRANCH   1  25
ATOM     25  C   UNL     1      -2.261   9.217  29.051  0.00  0.00    +0.141 C 
BRANCH  25  28
ATOM     26  C   UNL     1      -1.914   9.638  26.641  0.00  0.00    +0.401 C 
ATOM     27  O   UNL     1      -1.906   8.443  26.337  0.00  0.00    -0.226 OA
ATOM     28  N   UNL     1      -2.068  10.089  27.886  0.00  0.00    -0.279 N 
ATOM     29  H   UNL     1      -2.051  11.088  28.037  0.00  0.00    +0.152 HD
BRANCH  26  30
ATOM     30  O   UNL     1      -1.746  10.617  25.613  0.00  0.00    -0.444 OA
BRANCH  30  31
ATOM     31  C   UNL     1      -2.989  11.283  25.379  0.00  0.00    +0.292 C 
BRANCH  31  33
ATOM     32  N   UNL     1      -2.964  10.230  23.138  0.00  0.00    -0.131 NA
ATOM     33  C   UNL     1      -3.306  11.289  23.939  0.00  0.00    +0.120 A 
ATOM     34  C   UNL     1      -3.934  12.246  23.175  0.00  0.00    +0.137 A 
ATOM     35  N   UNL     1      -3.937  11.712  21.921  0.00  0.00    -0.251 N 
ATOM     36  N   UNL     1      -3.357  10.502  21.901  0.00  0.00    -0.065 NA
BRANCH  35  37
ATOM     37  C   UNL     1      -4.441  12.305  20.700  0.00  0.00    +0.145 C 
BRANCH  37  38
ATOM     38  C   UNL     1      -4.568  11.270  19.587  0.00  0.00    +0.024 C 
BRANCH  38  39
ATOM     39  C   UNL     1      -5.350  11.808  18.388  0.00  0.00    +0.006 C 
BRANCH  39  40
ATOM     40  C   UNL     1      -4.671  11.402  17.077  0.00  0.00    +0.026 C 
BRANCH  40  41
ATOM     41  C   UNL     1      -3.970  12.557  16.426  0.00  0.00    -0.034 C 
ATOM     42  C   UNL     1      -4.103  12.877  15.132  0.00  0.00    +0.004 C 
ENDBRANCH  40  41
ENDBRANCH  39  40
ENDBRANCH  38  39
ENDBRANCH  37  38
ENDBRANCH  35  37
ENDBRANCH  31  33
ENDBRANCH  30  31
ENDBRANCH  26  30
ENDBRANCH  25  28
ENDBRANCH   1  25
TORSDOF 18
