REMARK VINA RESULT:    -4.169      2.881      7.696
REMARK INTER + INTRA:         -13.520
REMARK INTER:                  -8.494
REMARK INTRA:                  -5.026
REMARK UNBOUND:                -3.746
REMARK  Name = lig_assembled_30.pdb
REMARK  27 active torsions:
REMARK  status: ('A' for Active; 'I' for Inactive)
REMARK    1  A    between atoms: _2  and  _9
REMARK    2  A    between atoms: _4  and  _25
REMARK    3  A    between atoms: _5  and  _18
REMARK    4  A    between atoms: _5  and  _19
REMARK    5  A    between atoms: _6  and  _7
REMARK    6  A    between atoms: _6  and  _25
REMARK    7  A    between atoms: _9  and  _10
REMARK    8  A    between atoms: _10  and  _11
REMARK    9  A    between atoms: _11  and  _12
REMARK   10  A    between atoms: _12  and  _13
REMARK   11  A    between atoms: _13  and  _14
REMARK   12  A    between atoms: _14  and  _15
REMARK   13  A    between atoms: _15  and  _16
REMARK   14  A    between atoms: _16  and  _17
REMARK   15  A    between atoms: _17  and  _18
REMARK   16  A    between atoms: _21  and  _41
REMARK   17  A    between atoms: _23  and  _29
REMARK   18  A    between atoms: _24  and  _28
REMARK   19  A    between atoms: _28  and  _29
REMARK   20  A    between atoms: _31  and  _32
REMARK   21  A    between atoms: _33  and  _34
REMARK   22  A    between atoms: _35  and  _37
REMARK   23  A    between atoms: _37  and  _38
REMARK   24  A    between atoms: _37  and  _39
REMARK   25  A    between atoms: _39  and  _40
REMARK   26  A    between atoms: _39  and  _41
REMARK   27  A    between atoms: _42  and  _44
REMARK                            x       y       z     vdW  Elec       q    Type
REMARK                         _______ _______ _______ _____ _____    ______ ____
ROOT
ATOM      1  C   UNL     1      -2.085   9.391  27.015  0.00  0.00    +0.401 C 
ATOM      2  O   UNL     1      -2.021   8.190  26.741  0.00  0.00    -0.226 OA
ATOM      3  N   UNL     1      -2.262   9.865  28.249  0.00  0.00    -0.279 N 
ATOM      4  H   UNL     1      -2.291  10.867  28.374  0.00  0.00    +0.152 HD
ENDROOT
BRANCH   1   5
ATOM      5  O   UNL     1      -1.959  10.350  25.963  0.00  0.00    -0.444 OA
BRANCH   5   6
ATOM      6  C   UNL     1      -2.918  11.395  26.151  0.00  0.00    +0.292 C 
BRANCH   6   8
ATOM      7  N   UNL     1      -2.936  11.414  23.676  0.00  0.00    -0.131 NA
ATOM      8  C   UNL     1      -3.244  12.029  24.861  0.00  0.00    +0.120 A 
ATOM      9  C   UNL     1      -3.853  13.236  24.599  0.00  0.00    +0.137 A 
ATOM     10  N   UNL     1      -3.884  13.295  23.238  0.00  0.00    -0.251 N 
ATOM     11  N   UNL     1      -3.332  12.203  22.685  0.00  0.00    -0.065 NA
BRANCH  10  12
ATOM     12  C   UNL     1      -4.380  14.369  22.406  0.00  0.00    +0.145 C 
BRANCH  12  13
ATOM     13  C   UNL     1      -5.518  13.893  21.510  0.00  0.00    +0.023 C 
BRANCH  13  14
ATOM     14  C   UNL     1      -6.672  13.301  22.317  0.00  0.00    +0.002 C 
BRANCH  14  15
ATOM     15  C   UNL     1      -7.004  11.898  21.810  0.00  0.00    +0.000 C 
BRANCH  15  16
ATOM     16  C   UNL     1      -6.707  10.831  22.860  0.00  0.00    +0.000 C 
BRANCH  16  17
ATOM     17  C   UNL     1      -5.950   9.656  22.240  0.00  0.00    +0.000 C 
BRANCH  17  18
ATOM     18  C   UNL     1      -5.361   8.755  23.322  0.00  0.00    +0.000 C 
BRANCH  18  19
ATOM     19  C   UNL     1      -5.681   9.274  24.724  0.00  0.00    +0.001 C 
BRANCH  19  20
ATOM     20  C   UNL     1      -5.707   8.121  25.726  0.00  0.00    +0.011 C 
BRANCH  20  21
ATOM     21  C   UNL     1      -5.659   8.620  27.168  0.00  0.00    +0.120 C 
BRANCH  21  22
ATOM     22  C   UNL     1      -5.356   7.495  28.132  0.00  0.00    +0.305 C 
ATOM     23  O   UNL     1      -5.900   7.323  29.213  0.00  0.00    -0.251 OA
BRANCH  22  24
ATOM     24  O   UNL     1      -4.392   6.667  27.671  0.00  0.00    -0.481 OA
ATOM     25  H   UNL     1      -4.700   6.054  26.978  0.00  0.00    +0.295 HD
ENDBRANCH  22  24
ENDBRANCH  21  22
ENDBRANCH  20  21
ENDBRANCH  19  20
ENDBRANCH  18  19
ENDBRANCH  17  18
ENDBRANCH  16  17
ENDBRANCH  15  16
ENDBRANCH  14  15
ENDBRANCH  13  14
ENDBRANCH  12  13
ENDBRANCH  10  12
ENDBRANCH   6   8
ENDBRANCH   5   6
ENDBRANCH   1   5
BRANCH   3  26
ATOM     26  C   UNL     1      -2.418   9.014  29.434  0.00  0.00    +0.141 C 
BRANCH  26  27
ATOM     27  C   UNL     1      -3.050   9.770  30.598  0.00  0.00    +0.163 C 
BRANCH  27  28
ATOM     28  O   UNL     1      -2.106  10.703  31.149  0.00  0.00    -0.388 OA
ATOM     29  H   UNL     1      -1.462  10.941  30.478  0.00  0.00    +0.210 HD
ENDBRANCH  27  28
BRANCH  27  30
ATOM     30  C   UNL     1      -4.318  10.493  30.113  0.00  0.00    +0.175 C 
BRANCH  30  31
ATOM     31  C   UNL     1      -4.302  11.987  30.465  0.00  0.00    +0.176 C 
ATOM     32  O   UNL     1      -4.270  12.105  31.914  0.00  0.00    -0.332 OA
ATOM     33  C   UNL     1      -4.144  13.469  32.437  0.00  0.00    +0.277 C 
ATOM     34  C   UNL     1      -5.263  14.374  31.863  0.00  0.00    +0.110 C 
ATOM     35  C   UNL     1      -5.357  14.258  30.327  0.00  0.00    +0.143 C 
ATOM     36  C   UNL     1      -5.481  12.797  29.894  0.00  0.00    +0.133 C 
BRANCH  36  37
ATOM     37  N   UNL     1      -5.483  12.693  28.426  0.00  0.00    -0.308 N 
ATOM     38  H   UNL     1      -4.669  13.027  27.929  0.00  0.00    +0.149 HD
ATOM     39  C   UNL     1      -6.489  12.187  27.708  0.00  0.00    +0.210 C 
ATOM     40  C   UNL     1      -7.725  11.711  28.493  0.00  0.00    +0.109 C 
ATOM     41  O   UNL     1      -6.456  12.099  26.480  0.00  0.00    -0.276 OA
ENDBRANCH  36  37
BRANCH  33  42
ATOM     42  C   UNL     1      -2.766  14.066  32.082  0.00  0.00    +0.414 C 
ATOM     43  O   UNL     1      -2.687  15.181  31.568  0.00  0.00    -0.240 OA
ATOM     44  O   UNL     1      -1.735  13.433  32.311  0.00  0.00    -0.240 OA
ENDBRANCH  33  42
BRANCH  35  45
ATOM     45  O   UNL     1      -6.492  14.986  29.858  0.00  0.00    -0.390 OA
ATOM     46  H   UNL     1      -7.073  14.396  29.372  0.00  0.00    +0.210 HD
ENDBRANCH  35  45
BRANCH  33  47
ATOM     47  O   UNL     1      -4.296  13.413  33.879  0.00  0.00    -0.343 OA
ATOM     48  C   UNL     1      -5.139  12.338  34.364  0.00  0.00    +0.198 C 
ENDBRANCH  33  47
ENDBRANCH  30  31
BRANCH  30  49
ATOM     49  O   UNL     1      -5.491   9.864  30.668  0.00  0.00    -0.387 OA
ATOM     50  H   UNL     1      -5.980   9.424  29.969  0.00  0.00    +0.210 HD
ENDBRANCH  30  49
ENDBRANCH  27  30
ENDBRANCH  26  27
ENDBRANCH   3  26
TORSDOF 25
