REMARK VINA RESULT:    -5.480      2.975      4.708
REMARK INTER + INTRA:         -12.252
REMARK INTER:                  -9.387
REMARK INTRA:                  -2.865
REMARK UNBOUND:                -2.447
REMARK  Name = lig_assembled_85.pdb
REMARK  19 active torsions:
REMARK  status: ('A' for Active; 'I' for Inactive)
REMARK    1  A    between atoms: _2  and  _10
REMARK    2  A    between atoms: _3  and  _6
REMARK    3  A    between atoms: _3  and  _17
REMARK    4  A    between atoms: _5  and  _23
REMARK    5  A    between atoms: _7  and  _8
REMARK    6  A    between atoms: _7  and  _23
REMARK    7  A    between atoms: _15  and  _16
REMARK    8  A    between atoms: _19  and  _39
REMARK    9  A    between atoms: _21  and  _27
REMARK   10  A    between atoms: _22  and  _26
REMARK   11  A    between atoms: _26  and  _27
REMARK   12  A    between atoms: _29  and  _30
REMARK   13  A    between atoms: _31  and  _32
REMARK   14  A    between atoms: _33  and  _35
REMARK   15  A    between atoms: _35  and  _36
REMARK   16  A    between atoms: _35  and  _37
REMARK   17  A    between atoms: _37  and  _38
REMARK   18  A    between atoms: _37  and  _39
REMARK   19  A    between atoms: _40  and  _42
REMARK                            x       y       z     vdW  Elec       q    Type
REMARK                         _______ _______ _______ _____ _____    ______ ____
ROOT
ATOM      1  C   UNL     1      -3.026  13.121  24.442  0.00  0.00    +0.141 C 
ENDROOT
BRANCH   1   4
ATOM      2  C   UNL     1      -5.129  13.926  23.425  0.00  0.00    +0.401 C 
ATOM      3  O   UNL     1      -5.572  14.388  24.479  0.00  0.00    -0.226 OA
ATOM      4  N   UNL     1      -3.950  13.312  23.318  0.00  0.00    -0.279 N 
ATOM      5  H   UNL     1      -3.677  12.957  22.412  0.00  0.00    +0.152 HD
BRANCH   2   6
ATOM      6  O   UNL     1      -5.911  14.041  22.234  0.00  0.00    -0.444 OA
BRANCH   6   7
ATOM      7  C   UNL     1      -6.403  12.751  21.859  0.00  0.00    +0.292 C 
BRANCH   7   9
ATOM      8  N   UNL     1      -4.471  11.605  20.836  0.00  0.00    -0.131 NA
ATOM      9  C   UNL     1      -5.667  12.246  20.687  0.00  0.00    +0.121 A 
ATOM     10  C   UNL     1      -6.016  12.256  19.356  0.00  0.00    +0.143 A 
ATOM     11  N   UNL     1      -4.991  11.598  18.723  0.00  0.00    -0.219 N 
ATOM     12  N   UNL     1      -4.081  11.190  19.639  0.00  0.00    -0.060 NA
BRANCH  11  13
ATOM     13  C   UNL     1      -4.851  11.247  17.362  0.00  0.00    +0.080 A 
ATOM     14  C   UNL     1      -4.982   9.940  16.868  0.00  0.00    +0.062 A 
ATOM     15  C   UNL     1      -4.570   9.697  15.536  0.00  0.00    +0.016 A 
ATOM     16  C   UNL     1      -4.073  10.717  14.718  0.00  0.00    +0.021 A 
ATOM     17  C   UNL     1      -4.021  12.015  15.203  0.00  0.00    +0.043 A 
ATOM     18 CL   UNL     1      -3.379  13.275  14.224  0.00  0.00    -0.083 Cl
ATOM     19  C   UNL     1      -4.432  12.289  16.504  0.00  0.00    +0.048 A 
BRANCH  14  20
ATOM     20  C   UNL     1      -5.433   8.712  17.588  0.00  0.00    +0.248 C 
ATOM     21  O   UNL     1      -4.531   7.932  17.905  0.00  0.00    -0.270 OA
ATOM     22  N   UNL     1      -6.774   8.404  17.841  0.00  0.00    -0.304 N 
ATOM     23  C   UNL     1      -7.938   9.260  17.652  0.00  0.00    +0.132 C 
ATOM     24  C   UNL     1      -7.030   7.154  18.548  0.00  0.00    +0.132 C 
ENDBRANCH  14  20
ENDBRANCH  11  13
ENDBRANCH   7   9
ENDBRANCH   6   7
ENDBRANCH   2   6
ENDBRANCH   1   4
BRANCH   1  25
ATOM     25  C   UNL     1      -3.294  11.816  25.184  0.00  0.00    +0.163 C 
BRANCH  25  26
ATOM     26  O   UNL     1      -2.151  10.950  25.084  0.00  0.00    -0.388 OA
ATOM     27  H   UNL     1      -2.388  10.162  24.589  0.00  0.00    +0.210 HD
ENDBRANCH  25  26
BRANCH  25  28
ATOM     28  C   UNL     1      -3.627  12.119  26.655  0.00  0.00    +0.175 C 
BRANCH  28  29
ATOM     29  C   UNL     1      -3.378  10.908  27.566  0.00  0.00    +0.176 C 
ATOM     30  O   UNL     1      -4.014   9.752  26.956  0.00  0.00    -0.332 OA
ATOM     31  C   UNL     1      -3.791   8.473  27.637  0.00  0.00    +0.277 C 
ATOM     32  C   UNL     1      -4.204   8.573  29.126  0.00  0.00    +0.110 C 
ATOM     33  C   UNL     1      -3.577   9.806  29.809  0.00  0.00    +0.143 C 
ATOM     34  C   UNL     1      -3.868  11.081  29.015  0.00  0.00    +0.133 C 
BRANCH  34  35
ATOM     35  N   UNL     1      -3.193  12.235  29.629  0.00  0.00    -0.308 N 
ATOM     36  H   UNL     1      -2.183  12.237  29.644  0.00  0.00    +0.149 HD
ATOM     37  C   UNL     1      -3.828  13.280  30.166  0.00  0.00    +0.210 C 
ATOM     38  C   UNL     1      -5.367  13.235  30.150  0.00  0.00    +0.109 C 
ATOM     39  O   UNL     1      -3.236  14.241  30.660  0.00  0.00    -0.276 OA
ENDBRANCH  34  35
BRANCH  31  40
ATOM     40  C   UNL     1      -2.310   8.053  27.540  0.00  0.00    +0.414 C 
ATOM     41  O   UNL     1      -1.614   8.444  26.604  0.00  0.00    -0.240 OA
ATOM     42  O   UNL     1      -1.810   7.323  28.398  0.00  0.00    -0.240 OA
ENDBRANCH  31  40
BRANCH  33  43
ATOM     43  O   UNL     1      -4.102   9.944  31.130  0.00  0.00    -0.390 OA
ATOM     44  H   UNL     1      -3.382   9.922  31.765  0.00  0.00    +0.210 HD
ENDBRANCH  33  43
BRANCH  31  45
ATOM     45  O   UNL     1      -4.625   7.472  26.997  0.00  0.00    -0.343 OA
ATOM     46  C   UNL     1      -4.865   7.688  25.584  0.00  0.00    +0.198 C 
ENDBRANCH  31  45
ENDBRANCH  28  29
BRANCH  28  47
ATOM     47  O   UNL     1      -4.995  12.557  26.774  0.00  0.00    -0.387 OA
ATOM     48  H   UNL     1      -5.401  12.582  25.904  0.00  0.00    +0.210 HD
ENDBRANCH  28  47
ENDBRANCH  25  28
ENDBRANCH   1  25
TORSDOF 15
