REMARK VINA RESULT:    -5.318      5.369     11.363
REMARK INTER + INTRA:         -12.934
REMARK INTER:                 -10.023
REMARK INTRA:                  -2.911
REMARK UNBOUND:                -3.108
REMARK  Name = lig_assembled_58.pdb
REMARK  18 active torsions:
REMARK  status: ('A' for Active; 'I' for Inactive)
REMARK    1  A    between atoms: _2  and  _9
REMARK    2  A    between atoms: _4  and  _25
REMARK    3  A    between atoms: _6  and  _7
REMARK    4  A    between atoms: _6  and  _25
REMARK    5  A    between atoms: _9  and  _10
REMARK    6  A    between atoms: _9  and  _16
REMARK    7  A    between atoms: _21  and  _41
REMARK    8  A    between atoms: _23  and  _29
REMARK    9  A    between atoms: _24  and  _28
REMARK   10  A    between atoms: _28  and  _29
REMARK   11  A    between atoms: _31  and  _32
REMARK   12  A    between atoms: _33  and  _34
REMARK   13  A    between atoms: _35  and  _37
REMARK   14  A    between atoms: _37  and  _38
REMARK   15  A    between atoms: _37  and  _39
REMARK   16  A    between atoms: _39  and  _40
REMARK   17  A    between atoms: _39  and  _41
REMARK   18  A    between atoms: _42  and  _44
REMARK                            x       y       z     vdW  Elec       q    Type
REMARK                         _______ _______ _______ _____ _____    ______ ____
ROOT
ATOM      1  C   UNL     1      -3.780   7.891  28.858  0.00  0.00    +0.141 C 
ENDROOT
BRANCH   1   4
ATOM      2  C   UNL     1      -4.091   7.975  26.408  0.00  0.00    +0.401 C 
ATOM      3  O   UNL     1      -2.902   8.198  26.170  0.00  0.00    -0.226 OA
ATOM      4  N   UNL     1      -4.590   7.824  27.635  0.00  0.00    -0.279 N 
ATOM      5  H   UNL     1      -5.582   7.654  27.729  0.00  0.00    +0.152 HD
BRANCH   2   6
ATOM      6  O   UNL     1      -5.010   7.873  25.317  0.00  0.00    -0.444 OA
BRANCH   6   7
ATOM      7  C   UNL     1      -4.294   7.577  24.115  0.00  0.00    +0.292 C 
BRANCH   7   9
ATOM      8  N   UNL     1      -3.129   9.117  22.551  0.00  0.00    -0.131 NA
ATOM      9  C   UNL     1      -4.259   8.760  23.236  0.00  0.00    +0.120 A 
ATOM     10  C   UNL     1      -5.268   9.640  22.922  0.00  0.00    +0.138 A 
ATOM     11  N   UNL     1      -4.742  10.416  21.925  0.00  0.00    -0.240 N 
ATOM     12  N   UNL     1      -3.427  10.145  21.766  0.00  0.00    -0.064 NA
BRANCH  11  13
ATOM     13  C   UNL     1      -5.410  11.400  21.054  0.00  0.00    +0.169 C 
BRANCH  13  14
ATOM     14  C   UNL     1      -5.083  12.824  21.527  0.00  0.00    -0.019 A 
ATOM     15  C   UNL     1      -6.095  13.798  21.587  0.00  0.00    +0.006 A 
ATOM     16  C   UNL     1      -5.797  15.111  21.960  0.00  0.00    +0.000 A 
ATOM     17  C   UNL     1      -4.492  15.470  22.291  0.00  0.00    +0.000 A 
ATOM     18  C   UNL     1      -3.476  14.522  22.235  0.00  0.00    +0.000 A 
ATOM     19  C   UNL     1      -3.768  13.215  21.846  0.00  0.00    +0.006 A 
ENDBRANCH  13  14
BRANCH  13  20
ATOM     20  C   UNL     1      -5.159  11.140  19.562  0.00  0.00    -0.019 A 
ATOM     21  C   UNL     1      -4.745  12.173  18.702  0.00  0.00    +0.006 A 
ATOM     22  C   UNL     1      -4.520  11.930  17.344  0.00  0.00    +0.000 A 
ATOM     23  C   UNL     1      -4.682  10.649  16.825  0.00  0.00    +0.000 A 
ATOM     24  C   UNL     1      -5.037   9.603  17.666  0.00  0.00    +0.000 A 
ATOM     25  C   UNL     1      -5.254   9.842  19.022  0.00  0.00    +0.006 A 
ENDBRANCH  13  20
ENDBRANCH  11  13
ENDBRANCH   7   9
ENDBRANCH   6   7
ENDBRANCH   2   6
ENDBRANCH   1   4
BRANCH   1  26
ATOM     26  C   UNL     1      -4.119   9.117  29.699  0.00  0.00    +0.163 C 
BRANCH  26  27
ATOM     27  O   UNL     1      -4.495   8.715  31.026  0.00  0.00    -0.388 OA
ATOM     28  H   UNL     1      -3.717   8.415  31.502  0.00  0.00    +0.210 HD
ENDBRANCH  26  27
BRANCH  26  29
ATOM     29  C   UNL     1      -2.910  10.067  29.733  0.00  0.00    +0.175 C 
BRANCH  29  30
ATOM     30  C   UNL     1      -3.313  11.504  30.095  0.00  0.00    +0.176 C 
ATOM     31  O   UNL     1      -3.703  11.520  31.495  0.00  0.00    -0.332 OA
ATOM     32  C   UNL     1      -4.022  12.840  32.049  0.00  0.00    +0.277 C 
ATOM     33  C   UNL     1      -5.110  13.537  31.195  0.00  0.00    +0.110 C 
ATOM     34  C   UNL     1      -4.754  13.516  29.693  0.00  0.00    +0.143 C 
ATOM     35  C   UNL     1      -4.437  12.096  29.224  0.00  0.00    +0.133 C 
BRANCH  35  36
ATOM     36  N   UNL     1      -4.016  12.101  27.814  0.00  0.00    -0.308 N 
ATOM     37  H   UNL     1      -3.120  12.511  27.591  0.00  0.00    +0.149 HD
ATOM     38  C   UNL     1      -4.740  11.600  26.810  0.00  0.00    +0.210 C 
ATOM     39  C   UNL     1      -6.113  11.006  27.179  0.00  0.00    +0.109 C 
ATOM     40  O   UNL     1      -4.356  11.604  25.640  0.00  0.00    -0.276 OA
ENDBRANCH  35  36
BRANCH  32  41
ATOM     41  C   UNL     1      -2.763  13.729  32.105  0.00  0.00    +0.414 C 
ATOM     42  O   UNL     1      -1.653  13.222  32.265  0.00  0.00    -0.240 OA
ATOM     43  O   UNL     1      -2.856  14.951  31.990  0.00  0.00    -0.240 OA
ENDBRANCH  32  41
BRANCH  34  44
ATOM     44  O   UNL     1      -5.848  14.030  28.932  0.00  0.00    -0.390 OA
ATOM     45  H   UNL     1      -5.909  13.557  28.099  0.00  0.00    +0.210 HD
ENDBRANCH  34  44
BRANCH  32  46
ATOM     46  O   UNL     1      -4.546  12.649  33.389  0.00  0.00    -0.343 OA
ATOM     47  C   UNL     1      -3.844  11.662  34.186  0.00  0.00    +0.198 C 
ENDBRANCH  32  46
ENDBRANCH  29  30
BRANCH  29  48
ATOM     48  O   UNL     1      -2.226  10.047  28.465  0.00  0.00    -0.387 OA
ATOM     49  H   UNL     1      -1.715   9.237  28.389  0.00  0.00    +0.210 HD
ENDBRANCH  29  48
ENDBRANCH  26  29
ENDBRANCH   1  26
TORSDOF 16
