REMARK VINA RESULT:    -4.150      3.012      7.426
REMARK INTER + INTRA:         -11.424
REMARK INTER:                  -7.463
REMARK INTRA:                  -3.962
REMARK UNBOUND:                -2.785
REMARK  Name = lig_assembled_54.pdb
REMARK  24 active torsions:
REMARK  status: ('A' for Active; 'I' for Inactive)
REMARK    1  A    between atoms: _2  and  _9
REMARK    2  A    between atoms: _4  and  _21
REMARK    3  A    between atoms: _5  and  _14
REMARK    4  A    between atoms: _6  and  _7
REMARK    5  A    between atoms: _6  and  _21
REMARK    6  A    between atoms: _9  and  _10
REMARK    7  A    between atoms: _10  and  _11
REMARK    8  A    between atoms: _11  and  _15
REMARK    9  A    between atoms: _11  and  _16
REMARK   10  A    between atoms: _12  and  _13
REMARK   11  A    between atoms: _12  and  _16
REMARK   12  A    between atoms: _14  and  _15
REMARK   13  A    between atoms: _17  and  _37
REMARK   14  A    between atoms: _19  and  _25
REMARK   15  A    between atoms: _20  and  _24
REMARK   16  A    between atoms: _24  and  _25
REMARK   17  A    between atoms: _27  and  _28
REMARK   18  A    between atoms: _29  and  _30
REMARK   19  A    between atoms: _31  and  _33
REMARK   20  A    between atoms: _33  and  _34
REMARK   21  A    between atoms: _33  and  _35
REMARK   22  A    between atoms: _35  and  _36
REMARK   23  A    between atoms: _35  and  _37
REMARK   24  A    between atoms: _38  and  _40
REMARK                            x       y       z     vdW  Elec       q    Type
REMARK                         _______ _______ _______ _____ _____    ______ ____
ROOT
ATOM      1  C   UNL     1      -2.914  12.104  24.088  0.00  0.00    +0.163 C 
ENDROOT
BRANCH   1   2
ATOM      2  O   UNL     1      -2.085  11.826  25.228  0.00  0.00    -0.388 OA
ATOM      3  H   UNL     1      -2.567  12.031  26.033  0.00  0.00    +0.210 HD
ENDBRANCH   1   2
BRANCH   1   4
ATOM      4  C   UNL     1      -3.751  10.871  23.704  0.00  0.00    +0.175 C 
BRANCH   4   5
ATOM      5  C   UNL     1      -4.068   9.987  24.918  0.00  0.00    +0.176 C 
ATOM      6  O   UNL     1      -2.871   9.230  25.246  0.00  0.00    -0.332 OA
ATOM      7  C   UNL     1      -2.954   8.402  26.453  0.00  0.00    +0.277 C 
ATOM      8  C   UNL     1      -4.170   7.447  26.372  0.00  0.00    +0.110 C 
ATOM      9  C   UNL     1      -5.462   8.202  25.995  0.00  0.00    +0.143 C 
ATOM     10  C   UNL     1      -5.262   9.033  24.727  0.00  0.00    +0.133 C 
BRANCH  10  11
ATOM     11  N   UNL     1      -6.472   9.815  24.427  0.00  0.00    -0.308 N 
ATOM     12  H   UNL     1      -6.751  10.525  25.090  0.00  0.00    +0.149 HD
ATOM     13  C   UNL     1      -7.226   9.648  23.337  0.00  0.00    +0.210 C 
ATOM     14  C   UNL     1      -6.789   8.540  22.360  0.00  0.00    +0.109 C 
ATOM     15  O   UNL     1      -8.226  10.327  23.105  0.00  0.00    -0.276 OA
ENDBRANCH  10  11
BRANCH   7  16
ATOM     16  C   UNL     1      -3.073   9.284  27.713  0.00  0.00    +0.414 C 
ATOM     17  O   UNL     1      -3.594   8.838  28.735  0.00  0.00    -0.240 OA
ATOM     18  O   UNL     1      -2.649  10.440  27.709  0.00  0.00    -0.240 OA
ENDBRANCH   7  16
BRANCH   9  19
ATOM     19  O   UNL     1      -6.522   7.268  25.783  0.00  0.00    -0.390 OA
ATOM     20  H   UNL     1      -7.213   7.681  25.261  0.00  0.00    +0.210 HD
ENDBRANCH   9  19
BRANCH   7  21
ATOM     21  O   UNL     1      -1.747   7.600  26.531  0.00  0.00    -0.343 OA
ATOM     22  C   UNL     1      -1.960   6.167  26.471  0.00  0.00    +0.198 C 
ENDBRANCH   7  21
ENDBRANCH   4   5
BRANCH   4  23
ATOM     23  O   UNL     1      -3.067  10.102  22.694  0.00  0.00    -0.387 OA
ATOM     24  H   UNL     1      -2.449   9.500  23.114  0.00  0.00    +0.210 HD
ENDBRANCH   4  23
ENDBRANCH   1   4
BRANCH   1  25
ATOM     25  C   UNL     1      -3.842  13.275  24.391  0.00  0.00    +0.141 C 
BRANCH  25  28
ATOM     26  C   UNL     1      -6.127  13.299  23.449  0.00  0.00    +0.401 C 
ATOM     27  O   UNL     1      -6.660  12.901  24.487  0.00  0.00    -0.226 OA
ATOM     28  N   UNL     1      -4.815  13.496  23.313  0.00  0.00    -0.279 N 
ATOM     29  H   UNL     1      -4.470  13.815  22.418  0.00  0.00    +0.152 HD
BRANCH  26  30
ATOM     30  O   UNL     1      -6.944  13.568  22.307  0.00  0.00    -0.444 OA
BRANCH  30  31
ATOM     31  C   UNL     1      -6.112  13.773  21.161  0.00  0.00    +0.292 C 
BRANCH  31  33
ATOM     32  N   UNL     1      -4.577  11.930  20.549  0.00  0.00    -0.131 NA
ATOM     33  C   UNL     1      -5.829  12.482  20.505  0.00  0.00    +0.120 A 
ATOM     34  C   UNL     1      -6.669  11.642  19.807  0.00  0.00    +0.137 A 
ATOM     35  N   UNL     1      -5.879  10.580  19.487  0.00  0.00    -0.251 N 
ATOM     36  N   UNL     1      -4.620  10.758  19.928  0.00  0.00    -0.065 NA
BRANCH  35  37
ATOM     37  C   UNL     1      -6.254   9.346  18.825  0.00  0.00    +0.150 C 
BRANCH  37  38
ATOM     38  C   UNL     1      -6.870   9.604  17.459  0.00  0.00    +0.084 C 
BRANCH  38  39
ATOM     39  C   UNL     1      -5.837   9.700  16.331  0.00  0.00    +0.252 C 
BRANCH  39  40
ATOM     40  O   UNL     1      -6.049  10.889  15.566  0.00  0.00    -0.352 OA
BRANCH  40  41
ATOM     41  C   UNL     1      -5.803  12.096  16.284  0.00  0.00    +0.159 C 
ATOM     42  C   UNL     1      -4.311  12.230  16.516  0.00  0.00    +0.034 C 
ENDBRANCH  40  41
ENDBRANCH  39  40
BRANCH  39  43
ATOM     43  O   UNL     1      -6.000   8.548  15.495  0.00  0.00    -0.352 OA
BRANCH  43  44
ATOM     44  C   UNL     1      -4.862   7.685  15.522  0.00  0.00    +0.159 C 
ATOM     45  C   UNL     1      -3.665   8.459  16.037  0.00  0.00    +0.034 C 
ENDBRANCH  43  44
ENDBRANCH  39  43
ENDBRANCH  38  39
ENDBRANCH  37  38
ENDBRANCH  35  37
ENDBRANCH  31  33
ENDBRANCH  30  31
ENDBRANCH  26  30
ENDBRANCH  25  28
ENDBRANCH   1  25
TORSDOF 20
