REMARK VINA RESULT:    -4.361      4.343     10.641
REMARK INTER + INTRA:         -12.523
REMARK INTER:                  -8.772
REMARK INTRA:                  -3.751
REMARK UNBOUND:                -4.083
REMARK  Name = lig_assembled_83.pdb
REMARK  20 active torsions:
REMARK  status: ('A' for Active; 'I' for Inactive)
REMARK    1  A    between atoms: _2  and  _12
REMARK    2  A    between atoms: _3  and  _14
REMARK    3  A    between atoms: _7  and  _24
REMARK    4  A    between atoms: _9  and  _10
REMARK    5  A    between atoms: _9  and  _24
REMARK    6  A    between atoms: _12  and  _13
REMARK    7  A    between atoms: _13  and  _14
REMARK    8  A    between atoms: _13  and  _18
REMARK    9  A    between atoms: _20  and  _40
REMARK   10  A    between atoms: _22  and  _28
REMARK   11  A    between atoms: _23  and  _27
REMARK   12  A    between atoms: _27  and  _28
REMARK   13  A    between atoms: _30  and  _31
REMARK   14  A    between atoms: _32  and  _33
REMARK   15  A    between atoms: _34  and  _36
REMARK   16  A    between atoms: _36  and  _37
REMARK   17  A    between atoms: _36  and  _38
REMARK   18  A    between atoms: _38  and  _39
REMARK   19  A    between atoms: _38  and  _40
REMARK   20  A    between atoms: _41  and  _43
REMARK                            x       y       z     vdW  Elec       q    Type
REMARK                         _______ _______ _______ _____ _____    ______ ____
ROOT
ATOM      1  C   UNL     1      -4.977   7.826  22.606  0.00  0.00    +0.141 C 
ENDROOT
BRANCH   1   4
ATOM      2  C   UNL     1      -3.363   6.261  23.632  0.00  0.00    +0.401 C 
ATOM      3  O   UNL     1      -3.713   5.300  22.943  0.00  0.00    -0.226 OA
ATOM      4  N   UNL     1      -3.904   7.477  23.545  0.00  0.00    -0.279 N 
ATOM      5  H   UNL     1      -3.555   8.200  24.159  0.00  0.00    +0.152 HD
BRANCH   2   6
ATOM      6  O   UNL     1      -2.318   6.084  24.592  0.00  0.00    -0.444 OA
BRANCH   6   7
ATOM      7  C   UNL     1      -2.876   5.630  25.827  0.00  0.00    +0.292 C 
BRANCH   7   9
ATOM      8  N   UNL     1      -1.821   7.393  27.222  0.00  0.00    -0.131 NA
ATOM      9  C   UNL     1      -2.948   6.736  26.799  0.00  0.00    +0.120 A 
ATOM     10  C   UNL     1      -4.045   7.287  27.421  0.00  0.00    +0.137 A 
ATOM     11  N   UNL     1      -3.522   8.278  28.193  0.00  0.00    -0.249 N 
ATOM     12  N   UNL     1      -2.184   8.334  28.084  0.00  0.00    -0.065 NA
BRANCH  11  13
ATOM     13  C   UNL     1      -4.228   9.176  29.082  0.00  0.00    +0.178 C 
BRANCH  13  14
ATOM     14  C   UNL     1      -3.272  10.126  29.810  0.00  0.00    +0.156 C 
BRANCH  14  15
ATOM     15  O   UNL     1      -2.946  11.233  28.962  0.00  0.00    -0.388 OA
ATOM     16  H   UNL     1      -3.503  11.209  28.157  0.00  0.00    +0.210 HD
ENDBRANCH  14  15
BRANCH  14  17
ATOM     17  C   UNL     1      -3.904  10.625  31.119  0.00  0.00    +0.162 C 
BRANCH  17  18
ATOM     18  N   UNL     1      -4.281  12.029  31.057  0.00  0.00    -0.269 N 
ATOM     19  C   UNL     1      -5.461  12.473  30.505  0.00  0.00    +0.113 A 
ATOM     20  C   UNL     1      -5.454  13.839  30.668  0.00  0.00    +0.137 A 
ATOM     21  N   UNL     1      -4.298  14.249  31.275  0.00  0.00    -0.172 NA
ATOM     22  C   UNL     1      -3.613  13.144  31.504  0.00  0.00    +0.450 A 
ATOM     23  N   UNL     1      -2.322  13.152  32.154  0.00  0.00    +0.120 N 
ATOM     24  O   UNL     1      -1.757  12.059  32.326  0.00  0.00    +0.045 OA
ATOM     25  O   UNL     1      -1.857  14.249  32.485  0.00  0.00    -0.573 OA
ENDBRANCH  17  18
ENDBRANCH  14  17
ENDBRANCH  13  14
ENDBRANCH  11  13
ENDBRANCH   7   9
ENDBRANCH   6   7
ENDBRANCH   2   6
ENDBRANCH   1   4
BRANCH   1  26
ATOM     26  C   UNL     1      -6.213   8.354  23.327  0.00  0.00    +0.163 C 
BRANCH  26  27
ATOM     27  O   UNL     1      -6.024   8.277  24.749  0.00  0.00    -0.388 OA
ATOM     28  H   UNL     1      -6.180   9.139  25.141  0.00  0.00    +0.210 HD
ENDBRANCH  26  27
BRANCH  26  29
ATOM     29  C   UNL     1      -6.485   9.803  22.886  0.00  0.00    +0.175 C 
BRANCH  29  30
ATOM     30  C   UNL     1      -5.352  10.754  23.298  0.00  0.00    +0.176 C 
ATOM     31  O   UNL     1      -5.461  10.986  24.729  0.00  0.00    -0.332 OA
ATOM     32  C   UNL     1      -4.391  11.793  25.324  0.00  0.00    +0.277 C 
ATOM     33  C   UNL     1      -4.260  13.147  24.584  0.00  0.00    +0.110 C 
ATOM     34  C   UNL     1      -4.173  12.953  23.055  0.00  0.00    +0.143 C 
ATOM     35  C   UNL     1      -5.332  12.097  22.544  0.00  0.00    +0.133 C 
BRANCH  35  36
ATOM     36  N   UNL     1      -5.190  11.848  21.100  0.00  0.00    -0.308 N 
ATOM     37  H   UNL     1      -4.375  11.340  20.787  0.00  0.00    +0.149 HD
ATOM     38  C   UNL     1      -6.069  12.248  20.178  0.00  0.00    +0.210 C 
ATOM     39  C   UNL     1      -7.288  13.042  20.685  0.00  0.00    +0.109 C 
ATOM     40  O   UNL     1      -5.932  12.012  18.977  0.00  0.00    -0.276 OA
ENDBRANCH  35  36
BRANCH  32  41
ATOM     41  C   UNL     1      -3.044  11.042  25.269  0.00  0.00    +0.414 C 
ATOM     42  O   UNL     1      -1.986  11.656  25.405  0.00  0.00    -0.240 OA
ATOM     43  O   UNL     1      -3.015   9.824  25.090  0.00  0.00    -0.240 OA
ENDBRANCH  32  41
BRANCH  32  44
ATOM     44  O   UNL     1      -4.746  12.060  26.705  0.00  0.00    -0.343 OA
ATOM     45  C   UNL     1      -5.726  13.111  26.894  0.00  0.00    +0.198 C 
ENDBRANCH  32  44
BRANCH  34  46
ATOM     46  O   UNL     1      -4.206  14.225  22.406  0.00  0.00    -0.390 OA
ATOM     47  H   UNL     1      -4.833  14.797  22.854  0.00  0.00    +0.210 HD
ENDBRANCH  34  46
ENDBRANCH  29  30
BRANCH  29  48
ATOM     48  O   UNL     1      -7.740  10.260  23.429  0.00  0.00    -0.387 OA
ATOM     49  H   UNL     1      -8.407  10.260  22.738  0.00  0.00    +0.210 HD
ENDBRANCH  29  48
ENDBRANCH  26  29
ENDBRANCH   1  26
TORSDOF 18
