REMARK VINA RESULT:    -4.651      3.933      5.715
REMARK INTER + INTRA:         -11.082
REMARK INTER:                  -7.988
REMARK INTRA:                  -3.094
REMARK UNBOUND:                -2.759
REMARK  Name = lig_assembled_38.pdb
REMARK  17 active torsions:
REMARK  status: ('A' for Active; 'I' for Inactive)
REMARK    1  A    between atoms: _2  and  _9
REMARK    2  A    between atoms: _4  and  _19
REMARK    3  A    between atoms: _6  and  _7
REMARK    4  A    between atoms: _6  and  _19
REMARK    5  A    between atoms: _9  and  _10
REMARK    6  A    between atoms: _15  and  _35
REMARK    7  A    between atoms: _17  and  _23
REMARK    8  A    between atoms: _18  and  _22
REMARK    9  A    between atoms: _22  and  _23
REMARK   10  A    between atoms: _25  and  _26
REMARK   11  A    between atoms: _27  and  _28
REMARK   12  A    between atoms: _29  and  _31
REMARK   13  A    between atoms: _31  and  _32
REMARK   14  A    between atoms: _31  and  _33
REMARK   15  A    between atoms: _33  and  _34
REMARK   16  A    between atoms: _33  and  _35
REMARK   17  A    between atoms: _36  and  _38
REMARK                            x       y       z     vdW  Elec       q    Type
REMARK                         _______ _______ _______ _____ _____    ______ ____
ROOT
ATOM      1  C   UNL     1      -4.201   9.263  30.611  0.00  0.00    +0.163 C 
ENDROOT
BRANCH   1   2
ATOM      2  O   UNL     1      -4.631   8.456  31.720  0.00  0.00    -0.388 OA
ATOM      3  H   UNL     1      -5.089   9.007  32.359  0.00  0.00    +0.210 HD
ENDBRANCH   1   2
BRANCH   1   4
ATOM      4  C   UNL     1      -2.800   8.848  30.176  0.00  0.00    +0.141 C 
BRANCH   4   7
ATOM      5  C   UNL     1      -2.001   8.219  27.924  0.00  0.00    +0.401 C 
ATOM      6  O   UNL     1      -1.589   7.112  28.276  0.00  0.00    -0.226 OA
ATOM      7  N   UNL     1      -2.574   9.098  28.747  0.00  0.00    -0.279 N 
ATOM      8  H   UNL     1      -2.870   9.986  28.366  0.00  0.00    +0.152 HD
BRANCH   5   9
ATOM      9  O   UNL     1      -1.861   8.609  26.555  0.00  0.00    -0.444 OA
BRANCH   9  10
ATOM     10  C   UNL     1      -3.137   8.990  26.034  0.00  0.00    +0.292 C 
BRANCH  10  12
ATOM     11  N   UNL     1      -2.202  11.282  25.921  0.00  0.00    -0.131 NA
ATOM     12  C   UNL     1      -3.065  10.337  25.432  0.00  0.00    +0.120 A 
ATOM     13  C   UNL     1      -3.742  10.860  24.353  0.00  0.00    +0.137 A 
ATOM     14  N   UNL     1      -3.206  12.106  24.200  0.00  0.00    -0.247 N 
ATOM     15  N   UNL     1      -2.290  12.360  25.154  0.00  0.00    -0.065 NA
BRANCH  14  16
ATOM     16  C   UNL     1      -3.339  12.994  23.059  0.00  0.00    +0.180 C 
BRANCH  16  17
ATOM     17  C   UNL     1      -4.714  13.603  22.928  0.00  0.00    -0.025 A 
ATOM     18  C   UNL     1      -5.499  13.371  21.788  0.00  0.00    +0.005 A 
ATOM     19  C   UNL     1      -6.806  13.863  21.713  0.00  0.00    +0.001 A 
ATOM     20  C   UNL     1      -7.343  14.592  22.774  0.00  0.00    +0.015 A 
ATOM     21  C   UNL     1      -6.566  14.834  23.902  0.00  0.00    +0.018 A 
ATOM     22 BR   UNL     1      -7.292  15.814  25.347  0.00  0.00    -0.050 Br
ATOM     23  C   UNL     1      -5.260  14.347  23.986  0.00  0.00    +0.020 A 
ENDBRANCH  16  17
ENDBRANCH  14  16
ENDBRANCH  10  12
ENDBRANCH   9  10
ENDBRANCH   5   9
ENDBRANCH   4   7
ENDBRANCH   1   4
BRANCH   1  24
ATOM     24  C   UNL     1      -4.203  10.756  30.984  0.00  0.00    +0.175 C 
BRANCH  24  25
ATOM     25  C   UNL     1      -5.280  11.541  30.221  0.00  0.00    +0.176 C 
ATOM     26  O   UNL     1      -5.352  11.005  28.871  0.00  0.00    -0.332 OA
ATOM     27  C   UNL     1      -6.407  11.566  28.022  0.00  0.00    +0.277 C 
ATOM     28  C   UNL     1      -6.294  13.109  27.967  0.00  0.00    +0.110 C 
ATOM     29  C   UNL     1      -6.182  13.723  29.378  0.00  0.00    +0.143 C 
ATOM     30  C   UNL     1      -5.056  13.064  30.176  0.00  0.00    +0.133 C 
BRANCH  30  31
ATOM     31  N   UNL     1      -5.016  13.596  31.547  0.00  0.00    -0.308 N 
ATOM     32  H   UNL     1      -5.781  13.366  32.165  0.00  0.00    +0.149 HD
ATOM     33  C   UNL     1      -4.034  14.364  32.028  0.00  0.00    +0.210 C 
ATOM     34  C   UNL     1      -2.895  14.718  31.053  0.00  0.00    +0.109 C 
ATOM     35  O   UNL     1      -4.020  14.783  33.186  0.00  0.00    -0.276 OA
ENDBRANCH  30  31
BRANCH  27  36
ATOM     36  C   UNL     1      -7.802  11.170  28.549  0.00  0.00    +0.414 C 
ATOM     37  O   UNL     1      -8.664  12.030  28.729  0.00  0.00    -0.240 OA
ATOM     38  O   UNL     1      -8.066   9.992  28.794  0.00  0.00    -0.240 OA
ENDBRANCH  27  36
BRANCH  27  39
ATOM     39  O   UNL     1      -6.227  11.046  26.680  0.00  0.00    -0.343 OA
ATOM     40  C   UNL     1      -7.148  11.571  25.691  0.00  0.00    +0.198 C 
ENDBRANCH  27  39
BRANCH  29  41
ATOM     41  O   UNL     1      -5.928  15.125  29.275  0.00  0.00    -0.390 OA
ATOM     42  H   UNL     1      -6.637  15.611  29.703  0.00  0.00    +0.210 HD
ENDBRANCH  29  41
ENDBRANCH  24  25
BRANCH  24  43
ATOM     43  O   UNL     1      -2.903  11.330  30.740  0.00  0.00    -0.387 OA
ATOM     44  H   UNL     1      -2.412  10.767  30.137  0.00  0.00    +0.210 HD
ENDBRANCH  24  43
ENDBRANCH   1  24
TORSDOF 15
