REMARK VINA RESULT:    -4.949      4.247      9.074
REMARK INTER + INTRA:         -11.432
REMARK INTER:                  -7.583
REMARK INTRA:                  -3.849
REMARK UNBOUND:                -2.867
REMARK  Name = lig_assembled_70.pdb
REMARK  16 active torsions:
REMARK  status: ('A' for Active; 'I' for Inactive)
REMARK    1  A    between atoms: _2  and  _10
REMARK    2  A    between atoms: _5  and  _22
REMARK    3  A    between atoms: _7  and  _8
REMARK    4  A    between atoms: _7  and  _22
REMARK    5  A    between atoms: _18  and  _38
REMARK    6  A    between atoms: _20  and  _26
REMARK    7  A    between atoms: _21  and  _25
REMARK    8  A    between atoms: _25  and  _26
REMARK    9  A    between atoms: _28  and  _29
REMARK   10  A    between atoms: _30  and  _31
REMARK   11  A    between atoms: _32  and  _34
REMARK   12  A    between atoms: _34  and  _35
REMARK   13  A    between atoms: _34  and  _36
REMARK   14  A    between atoms: _36  and  _37
REMARK   15  A    between atoms: _36  and  _38
REMARK   16  A    between atoms: _39  and  _41
REMARK                            x       y       z     vdW  Elec       q    Type
REMARK                         _______ _______ _______ _____ _____    ______ ____
ROOT
ATOM      1  C   UNL     1      -3.014  11.276  22.536  0.00  0.00    +0.163 C 
ENDROOT
BRANCH   1   2
ATOM      2  O   UNL     1      -2.628  12.065  23.673  0.00  0.00    -0.388 OA
ATOM      3  H   UNL     1      -3.319  12.702  23.871  0.00  0.00    +0.210 HD
ENDBRANCH   1   2
BRANCH   1   4
ATOM      4  C   UNL     1      -3.680  12.162  21.488  0.00  0.00    +0.141 C 
BRANCH   4   7
ATOM      5  C   UNL     1      -5.634  13.539  22.112  0.00  0.00    +0.401 C 
ATOM      6  O   UNL     1      -6.456  12.763  21.619  0.00  0.00    -0.226 OA
ATOM      7  N   UNL     1      -4.316  13.340  22.091  0.00  0.00    -0.279 N 
ATOM      8  H   UNL     1      -3.721  14.039  22.513  0.00  0.00    +0.152 HD
BRANCH   5   9
ATOM      9  O   UNL     1      -6.099  14.733  22.746  0.00  0.00    -0.444 OA
BRANCH   9  10
ATOM     10  C   UNL     1      -7.057  14.397  23.754  0.00  0.00    +0.292 C 
BRANCH  10  12
ATOM     11  N   UNL     1      -5.082  13.441  24.906  0.00  0.00    -0.131 NA
ATOM     12  C   UNL     1      -6.381  13.857  24.948  0.00  0.00    +0.121 A 
ATOM     13  C   UNL     1      -6.867  13.681  26.222  0.00  0.00    +0.143 A 
ATOM     14  N   UNL     1      -5.813  13.160  26.937  0.00  0.00    -0.218 N 
ATOM     15  N   UNL     1      -4.746  13.011  26.117  0.00  0.00    -0.060 NA
BRANCH  14  16
ATOM     16  C   UNL     1      -5.761  12.831  28.307  0.00  0.00    +0.086 A 
ATOM     17  C   UNL     1      -6.910  12.456  28.984  0.00  0.00    +0.139 A 
ATOM     18  N   UNL     1      -6.925  12.083  30.290  0.00  0.00    -0.253 NA
ATOM     19  C   UNL     1      -5.760  12.068  30.962  0.00  0.00    +0.071 A 
ATOM     20  C   UNL     1      -4.543  12.449  30.360  0.00  0.00    +0.002 A 
ATOM     21  C   UNL     1      -3.343  12.420  31.094  0.00  0.00    +0.010 A 
ATOM     22  C   UNL     1      -3.341  11.995  32.420  0.00  0.00    +0.001 A 
ATOM     23  C   UNL     1      -4.536  11.609  33.016  0.00  0.00    +0.002 A 
ATOM     24  C   UNL     1      -5.729  11.656  32.288  0.00  0.00    +0.028 A 
ATOM     25  C   UNL     1      -4.559  12.842  29.016  0.00  0.00    +0.039 A 
ENDBRANCH  14  16
ENDBRANCH  10  12
ENDBRANCH   9  10
ENDBRANCH   5   9
ENDBRANCH   4   7
ENDBRANCH   1   4
BRANCH   1  26
ATOM     26  C   UNL     1      -3.982  10.153  22.949  0.00  0.00    +0.175 C 
BRANCH  26  27
ATOM     27  C   UNL     1      -4.061   9.991  24.474  0.00  0.00    +0.176 C 
ATOM     28  O   UNL     1      -3.029   9.050  24.877  0.00  0.00    -0.332 OA
ATOM     29  C   UNL     1      -2.884   8.849  26.322  0.00  0.00    +0.277 C 
ATOM     30  C   UNL     1      -4.239   8.440  26.950  0.00  0.00    +0.110 C 
ATOM     31  C   UNL     1      -5.375   9.393  26.523  0.00  0.00    +0.143 C 
ATOM     32  C   UNL     1      -5.433   9.531  25.002  0.00  0.00    +0.133 C 
BRANCH  32  33
ATOM     33  N   UNL     1      -6.462  10.508  24.612  0.00  0.00    -0.308 N 
ATOM     34  H   UNL     1      -6.349  11.462  24.925  0.00  0.00    +0.149 HD
ATOM     35  C   UNL     1      -7.535  10.217  23.872  0.00  0.00    +0.210 C 
ATOM     36  C   UNL     1      -7.692   8.749  23.433  0.00  0.00    +0.109 C 
ATOM     37  O   UNL     1      -8.373  11.059  23.548  0.00  0.00    -0.276 OA
ENDBRANCH  32  33
BRANCH  29  38
ATOM     38  C   UNL     1      -2.367  10.133  27.004  0.00  0.00    +0.414 C 
ATOM     39  O   UNL     1      -2.506  10.291  28.216  0.00  0.00    -0.240 OA
ATOM     40  O   UNL     1      -1.810  11.010  26.342  0.00  0.00    -0.240 OA
ENDBRANCH  29  38
BRANCH  31  41
ATOM     41  O   UNL     1      -6.626   8.895  26.999  0.00  0.00    -0.390 OA
ATOM     42  H   UNL     1      -7.011   8.313  26.339  0.00  0.00    +0.210 HD
ENDBRANCH  31  41
BRANCH  29  43
ATOM     43  O   UNL     1      -1.938   7.769  26.533  0.00  0.00    -0.343 OA
ATOM     44  C   UNL     1      -2.519   6.441  26.551  0.00  0.00    +0.198 C 
ENDBRANCH  29  43
ENDBRANCH  26  27
BRANCH  26  45
ATOM     45  O   UNL     1      -3.588   8.909  22.336  0.00  0.00    -0.387 OA
ATOM     46  H   UNL     1      -4.165   8.722  21.591  0.00  0.00    +0.210 HD
ENDBRANCH  26  45
ENDBRANCH   1  26
TORSDOF 14
