REMARK VINA RESULT:    -5.339      3.591     10.822
REMARK INTER + INTRA:         -14.349
REMARK INTER:                 -10.402
REMARK INTRA:                  -3.947
REMARK UNBOUND:                -3.392
REMARK  Name = lig_assembled_47.pdb
REMARK  22 active torsions:
REMARK  status: ('A' for Active; 'I' for Inactive)
REMARK    1  A    between atoms: _2  and  _9
REMARK    2  A    between atoms: _4  and  _30
REMARK    3  A    between atoms: _6  and  _7
REMARK    4  A    between atoms: _6  and  _30
REMARK    5  A    between atoms: _9  and  _10
REMARK    6  A    between atoms: _10  and  _11
REMARK    7  A    between atoms: _10  and  _12
REMARK    8  A    between atoms: _11  and  _24
REMARK    9  A    between atoms: _12  and  _13
REMARK   10  A    between atoms: _12  and  _19
REMARK   11  A    between atoms: _26  and  _46
REMARK   12  A    between atoms: _28  and  _34
REMARK   13  A    between atoms: _29  and  _33
REMARK   14  A    between atoms: _33  and  _34
REMARK   15  A    between atoms: _36  and  _37
REMARK   16  A    between atoms: _38  and  _39
REMARK   17  A    between atoms: _40  and  _42
REMARK   18  A    between atoms: _42  and  _43
REMARK   19  A    between atoms: _42  and  _44
REMARK   20  A    between atoms: _44  and  _45
REMARK   21  A    between atoms: _44  and  _46
REMARK   22  A    between atoms: _47  and  _49
REMARK                            x       y       z     vdW  Elec       q    Type
REMARK                         _______ _______ _______ _____ _____    ______ ____
ROOT
ATOM      1  C   UNL     1      -7.908   8.052  18.928  0.00  0.00    +0.401 C 
ATOM      2  O   UNL     1      -8.172   6.995  19.508  0.00  0.00    -0.226 OA
ATOM      3  N   UNL     1      -7.582   8.133  17.638  0.00  0.00    -0.279 N 
ATOM      4  H   UNL     1      -7.392   9.046  17.250  0.00  0.00    +0.152 HD
ENDROOT
BRANCH   3   5
ATOM      5  C   UNL     1      -7.482   6.969  16.749  0.00  0.00    +0.141 C 
BRANCH   5   6
ATOM      6  C   UNL     1      -6.062   6.772  16.227  0.00  0.00    +0.163 C 
BRANCH   6   7
ATOM      7  O   UNL     1      -6.098   6.323  14.862  0.00  0.00    -0.388 OA
ATOM      8  H   UNL     1      -6.504   5.453  14.822  0.00  0.00    +0.210 HD
ENDBRANCH   6   7
BRANCH   6   9
ATOM      9  C   UNL     1      -5.281   8.092  16.351  0.00  0.00    +0.175 C 
BRANCH   9  10
ATOM     10  C   UNL     1      -4.321   8.308  15.172  0.00  0.00    +0.176 C 
ATOM     11  O   UNL     1      -3.144   7.484  15.397  0.00  0.00    -0.332 OA
ATOM     12  C   UNL     1      -2.156   7.480  14.314  0.00  0.00    +0.277 C 
ATOM     13  C   UNL     1      -1.724   8.927  13.972  0.00  0.00    +0.110 C 
ATOM     14  C   UNL     1      -2.942   9.849  13.755  0.00  0.00    +0.143 C 
ATOM     15  C   UNL     1      -3.906   9.773  14.939  0.00  0.00    +0.133 C 
BRANCH  15  16
ATOM     16  N   UNL     1      -5.103  10.588  14.683  0.00  0.00    -0.308 N 
ATOM     17  H   UNL     1      -5.702  10.318  13.915  0.00  0.00    +0.149 HD
ATOM     18  C   UNL     1      -5.451  11.661  15.398  0.00  0.00    +0.210 C 
ATOM     19  C   UNL     1      -4.504  12.062  16.545  0.00  0.00    +0.109 C 
ATOM     20  O   UNL     1      -6.468  12.317  15.169  0.00  0.00    -0.276 OA
ENDBRANCH  15  16
BRANCH  12  21
ATOM     21  C   UNL     1      -2.729   6.801  13.053  0.00  0.00    +0.414 C 
ATOM     22  O   UNL     1      -3.564   5.904  13.157  0.00  0.00    -0.240 OA
ATOM     23  O   UNL     1      -2.357   7.151  11.932  0.00  0.00    -0.240 OA
ENDBRANCH  12  21
BRANCH  12  24
ATOM     24  O   UNL     1      -0.989   6.751  14.774  0.00  0.00    -0.343 OA
ATOM     25  C   UNL     1      -0.747   6.820  16.202  0.00  0.00    +0.198 C 
ENDBRANCH  12  24
BRANCH  14  26
ATOM     26  O   UNL     1      -2.502  11.198  13.593  0.00  0.00    -0.390 OA
ATOM     27  H   UNL     1      -1.594  11.278  13.895  0.00  0.00    +0.210 HD
ENDBRANCH  14  26
ENDBRANCH   9  10
BRANCH   9  28
ATOM     28  O   UNL     1      -4.555   8.124  17.596  0.00  0.00    -0.387 OA
ATOM     29  H   UNL     1      -5.090   7.729  18.288  0.00  0.00    +0.210 HD
ENDBRANCH   9  28
ENDBRANCH   6   9
ENDBRANCH   5   6
ENDBRANCH   3   5
BRANCH   1  30
ATOM     30  O   UNL     1      -7.954   9.277  19.663  0.00  0.00    -0.444 OA
BRANCH  30  31
ATOM     31  C   UNL     1      -7.174  10.268  18.989  0.00  0.00    +0.292 C 
BRANCH  31  33
ATOM     32  N   UNL     1      -4.965   9.690  19.965  0.00  0.00    -0.131 NA
ATOM     33  C   UNL     1      -5.963  10.608  19.764  0.00  0.00    +0.120 A 
ATOM     34  C   UNL     1      -5.627  11.779  20.406  0.00  0.00    +0.137 A 
ATOM     35  N   UNL     1      -4.441  11.495  21.017  0.00  0.00    -0.251 N 
ATOM     36  N   UNL     1      -4.036  10.246  20.732  0.00  0.00    -0.065 NA
BRANCH  35  37
ATOM     37  C   UNL     1      -3.721  12.296  21.996  0.00  0.00    +0.160 C 
BRANCH  37  38
ATOM     38  C   UNL     1      -4.171  12.064  23.441  0.00  0.00    +0.131 C 
BRANCH  38  39
ATOM     39  C   UNL     1      -2.970  11.537  24.215  0.00  0.00    +0.311 C 
ATOM     40  O   UNL     1      -2.789  10.348  24.431  0.00  0.00    -0.251 OA
BRANCH  39  41
ATOM     41  O   UNL     1      -2.031  12.439  24.570  0.00  0.00    -0.480 OA
ATOM     42  H   UNL     1      -1.285  12.146  25.118  0.00  0.00    +0.295 HD
ENDBRANCH  39  41
ENDBRANCH  38  39
BRANCH  38  43
ATOM     43  C   UNL     1      -4.810  13.309  24.134  0.00  0.00    +0.064 C 
BRANCH  43  44
ATOM     44  C   UNL     1      -5.550  14.276  23.208  0.00  0.00    -0.039 A 
ATOM     45  C   UNL     1      -6.837  13.948  22.740  0.00  0.00    +0.004 A 
ATOM     46  C   UNL     1      -7.541  14.811  21.892  0.00  0.00    +0.000 A 
ATOM     47  C   UNL     1      -6.966  16.009  21.483  0.00  0.00    +0.000 A 
ATOM     48  C   UNL     1      -5.688  16.343  21.919  0.00  0.00    +0.000 A 
ATOM     49  C   UNL     1      -4.990  15.490  22.782  0.00  0.00    +0.004 A 
ENDBRANCH  43  44
BRANCH  43  50
ATOM     50  C   UNL     1      -5.652  12.871  25.339  0.00  0.00    -0.039 A 
ATOM     51  C   UNL     1      -5.478  13.486  26.589  0.00  0.00    +0.004 A 
ATOM     52  C   UNL     1      -6.115  12.979  27.726  0.00  0.00    +0.000 A 
ATOM     53  C   UNL     1      -6.953  11.870  27.625  0.00  0.00    +0.000 A 
ATOM     54  C   UNL     1      -7.166  11.273  26.389  0.00  0.00    +0.000 A 
ATOM     55  C   UNL     1      -6.521  11.769  25.256  0.00  0.00    +0.004 A 
ENDBRANCH  43  50
ENDBRANCH  38  43
ENDBRANCH  37  38
ENDBRANCH  35  37
ENDBRANCH  31  33
ENDBRANCH  30  31
ENDBRANCH   1  30
TORSDOF 20
