REMARK VINA RESULT:    -4.169      2.583      5.432
REMARK INTER + INTRA:         -11.822
REMARK INTER:                  -8.265
REMARK INTRA:                  -3.558
REMARK UNBOUND:                -3.997
REMARK  Name = lig_assembled_68.pdb
REMARK  19 active torsions:
REMARK  status: ('A' for Active; 'I' for Inactive)
REMARK    1  A    between atoms: _2  and  _9
REMARK    2  A    between atoms: _4  and  _21
REMARK    3  A    between atoms: _6  and  _7
REMARK    4  A    between atoms: _6  and  _21
REMARK    5  A    between atoms: _9  and  _10
REMARK    6  A    between atoms: _10  and  _11
REMARK    7  A    between atoms: _10  and  _16
REMARK    8  A    between atoms: _17  and  _37
REMARK    9  A    between atoms: _19  and  _25
REMARK   10  A    between atoms: _20  and  _24
REMARK   11  A    between atoms: _24  and  _25
REMARK   12  A    between atoms: _27  and  _28
REMARK   13  A    between atoms: _29  and  _30
REMARK   14  A    between atoms: _31  and  _33
REMARK   15  A    between atoms: _33  and  _34
REMARK   16  A    between atoms: _33  and  _35
REMARK   17  A    between atoms: _35  and  _36
REMARK   18  A    between atoms: _35  and  _37
REMARK   19  A    between atoms: _38  and  _40
REMARK                            x       y       z     vdW  Elec       q    Type
REMARK                         _______ _______ _______ _____ _____    ______ ____
ROOT
ATOM      1  C   UNL     1      -2.920  11.368  25.954  0.00  0.00    +0.163 C 
ENDROOT
BRANCH   1   2
ATOM      2  O   UNL     1      -1.949  12.284  25.423  0.00  0.00    -0.388 OA
ATOM      3  H   UNL     1      -1.405  12.625  26.137  0.00  0.00    +0.210 HD
ENDBRANCH   1   2
BRANCH   1   4
ATOM      4  C   UNL     1      -3.742  10.721  24.826  0.00  0.00    +0.175 C 
BRANCH   4   5
ATOM      5  C   UNL     1      -4.789  11.685  24.248  0.00  0.00    +0.176 C 
ATOM      6  O   UNL     1      -4.086  12.714  23.499  0.00  0.00    -0.332 OA
ATOM      7  C   UNL     1      -4.936  13.670  22.784  0.00  0.00    +0.277 C 
ATOM      8  C   UNL     1      -5.946  14.328  23.755  0.00  0.00    +0.110 C 
ATOM      9  C   UNL     1      -6.696  13.274  24.596  0.00  0.00    +0.143 C 
ATOM     10  C   UNL     1      -5.717  12.331  25.294  0.00  0.00    +0.133 C 
BRANCH  10  11
ATOM     11  N   UNL     1      -6.444  11.279  26.022  0.00  0.00    -0.308 N 
ATOM     12  H   UNL     1      -6.974  10.611  25.481  0.00  0.00    +0.149 HD
ATOM     13  C   UNL     1      -6.449  11.150  27.352  0.00  0.00    +0.210 C 
ATOM     14  C   UNL     1      -5.653  12.199  28.150  0.00  0.00    +0.109 C 
ATOM     15  O   UNL     1      -7.056  10.250  27.934  0.00  0.00    -0.276 OA
ENDBRANCH  10  11
BRANCH   7  16
ATOM     16  C   UNL     1      -5.700  12.973  21.639  0.00  0.00    +0.414 C 
ATOM     17  O   UNL     1      -5.133  12.140  20.933  0.00  0.00    -0.240 OA
ATOM     18  O   UNL     1      -6.882  13.242  21.422  0.00  0.00    -0.240 OA
ENDBRANCH   7  16
BRANCH   7  19
ATOM     19  O   UNL     1      -4.082  14.709  22.239  0.00  0.00    -0.343 OA
ATOM     20  C   UNL     1      -4.682  16.028  22.184  0.00  0.00    +0.198 C 
ENDBRANCH   7  19
BRANCH   9  21
ATOM     21  O   UNL     1      -7.502  13.927  25.578  0.00  0.00    -0.390 OA
ATOM     22  H   UNL     1      -8.109  14.531  25.145  0.00  0.00    +0.210 HD
ENDBRANCH   9  21
ENDBRANCH   4   5
BRANCH   4  23
ATOM     23  O   UNL     1      -4.381   9.520  25.302  0.00  0.00    -0.387 OA
ATOM     24  H   UNL     1      -3.953   9.229  26.111  0.00  0.00    +0.210 HD
ENDBRANCH   4  23
ENDBRANCH   1   4
BRANCH   1  25
ATOM     25  C   UNL     1      -2.224  10.280  26.765  0.00  0.00    +0.141 C 
BRANCH  25  28
ATOM     26  C   UNL     1      -3.553   9.307  28.606  0.00  0.00    +0.401 C 
ATOM     27  O   UNL     1      -4.023   8.400  27.913  0.00  0.00    -0.226 OA
ATOM     28  N   UNL     1      -2.710  10.233  28.149  0.00  0.00    -0.279 N 
ATOM     29  H   UNL     1      -2.387  10.942  28.792  0.00  0.00    +0.152 HD
BRANCH  26  30
ATOM     30  O   UNL     1      -3.926   9.391  29.984  0.00  0.00    -0.444 OA
BRANCH  30  31
ATOM     31  C   UNL     1      -2.781   9.738  30.768  0.00  0.00    +0.292 C 
BRANCH  31  33
ATOM     32  N   UNL     1      -2.036  11.561  32.274  0.00  0.00    -0.131 NA
ATOM     33  C   UNL     1      -2.985  11.036  31.434  0.00  0.00    +0.120 A 
ATOM     34  C   UNL     1      -4.055  11.898  31.371  0.00  0.00    +0.137 A 
ATOM     35  N   UNL     1      -3.693  12.931  32.185  0.00  0.00    -0.249 N 
ATOM     36  N   UNL     1      -2.485  12.721  32.735  0.00  0.00    -0.065 NA
BRANCH  35  37
ATOM     37  C   UNL     1      -4.485  14.085  32.558  0.00  0.00    +0.181 C 
BRANCH  37  38
ATOM     38  C   UNL     1      -4.011  15.364  31.856  0.00  0.00    +0.166 C 
BRANCH  38  39
ATOM     39  C   UNL     1      -4.959  15.879  30.783  0.00  0.00    -0.017 A 
ATOM     40  C   UNL     1      -4.720  17.144  30.215  0.00  0.00    +0.006 A 
ATOM     41  C   UNL     1      -5.550  17.645  29.210  0.00  0.00    +0.000 A 
ATOM     42  C   UNL     1      -6.625  16.890  28.752  0.00  0.00    +0.000 A 
ATOM     43  C   UNL     1      -6.866  15.630  29.288  0.00  0.00    +0.000 A 
ATOM     44  C   UNL     1      -6.037  15.125  30.294  0.00  0.00    +0.006 A 
ENDBRANCH  38  39
BRANCH  38  45
ATOM     45  O   UNL     1      -2.742  15.114  31.239  0.00  0.00    -0.385 OA
ATOM     46  H   UNL     1      -2.836  14.349  30.649  0.00  0.00    +0.210 HD
ENDBRANCH  38  45
ENDBRANCH  37  38
ENDBRANCH  35  37
ENDBRANCH  31  33
ENDBRANCH  30  31
ENDBRANCH  26  30
ENDBRANCH  25  28
ENDBRANCH   1  25
TORSDOF 17
