REMARK VINA RESULT:    -5.558      4.588      7.275
REMARK INTER + INTRA:         -11.433
REMARK INTER:                  -8.273
REMARK INTRA:                  -3.161
REMARK UNBOUND:                -1.813
REMARK  Name = lig_assembled_40.pdb
REMARK  17 active torsions:
REMARK  status: ('A' for Active; 'I' for Inactive)
REMARK    1  A    between atoms: _2  and  _9
REMARK    2  A    between atoms: _4  and  _19
REMARK    3  A    between atoms: _6  and  _7
REMARK    4  A    between atoms: _6  and  _19
REMARK    5  A    between atoms: _12  and  _13
REMARK    6  A    between atoms: _15  and  _35
REMARK    7  A    between atoms: _17  and  _23
REMARK    8  A    between atoms: _18  and  _22
REMARK    9  A    between atoms: _22  and  _23
REMARK   10  A    between atoms: _25  and  _26
REMARK   11  A    between atoms: _27  and  _28
REMARK   12  A    between atoms: _29  and  _31
REMARK   13  A    between atoms: _31  and  _32
REMARK   14  A    between atoms: _31  and  _33
REMARK   15  A    between atoms: _33  and  _34
REMARK   16  A    between atoms: _33  and  _35
REMARK   17  A    between atoms: _36  and  _38
REMARK                            x       y       z     vdW  Elec       q    Type
REMARK                         _______ _______ _______ _____ _____    ______ ____
ROOT
ATOM      1  C   UNL     1      -4.170   8.851  31.785  0.00  0.00    +0.163 C 
ENDROOT
BRANCH   1   2
ATOM      2  O   UNL     1      -2.962   9.600  31.995  0.00  0.00    -0.388 OA
ATOM      3  H   UNL     1      -2.547   9.317  32.814  0.00  0.00    +0.210 HD
ENDBRANCH   1   2
BRANCH   1   4
ATOM      4  C   UNL     1      -3.856   7.552  31.049  0.00  0.00    +0.141 C 
BRANCH   4   7
ATOM      5  C   UNL     1      -3.108   7.694  28.698  0.00  0.00    +0.401 C 
ATOM      6  O   UNL     1      -4.227   7.467  28.230  0.00  0.00    -0.226 OA
ATOM      7  N   UNL     1      -2.843   7.746  30.004  0.00  0.00    -0.279 N 
ATOM      8  H   UNL     1      -1.892   7.929  30.291  0.00  0.00    +0.152 HD
BRANCH   5   9
ATOM      9  O   UNL     1      -2.013   7.913  27.805  0.00  0.00    -0.444 OA
BRANCH   9  10
ATOM     10  C   UNL     1      -1.647   9.295  27.828  0.00  0.00    +0.292 C 
BRANCH  10  12
ATOM     11  N   UNL     1      -2.558   9.331  25.527  0.00  0.00    -0.131 NA
ATOM     12  C   UNL     1      -2.227  10.000  26.669  0.00  0.00    +0.121 A 
ATOM     13  C   UNL     1      -2.538  11.330  26.517  0.00  0.00    +0.143 A 
ATOM     14  N   UNL     1      -3.093  11.426  25.261  0.00  0.00    -0.220 N 
ATOM     15  N   UNL     1      -3.075  10.204  24.672  0.00  0.00    -0.060 NA
BRANCH  14  16
ATOM     16  C   UNL     1      -3.658  12.564  24.628  0.00  0.00    +0.067 A 
ATOM     17  C   UNL     1      -4.866  13.108  25.077  0.00  0.00    +0.028 A 
ATOM     18  C   UNL     1      -5.445  14.186  24.400  0.00  0.00    +0.005 A 
ATOM     19  C   UNL     1      -4.828  14.731  23.270  0.00  0.00    -0.050 A 
ATOM     20  C   UNL     1      -3.602  14.208  22.844  0.00  0.00    +0.005 A 
ATOM     21  C   UNL     1      -5.470  15.857  22.513  0.00  0.00    +0.044 C 
ATOM     22  C   UNL     1      -3.017  13.132  23.516  0.00  0.00    +0.028 A 
ENDBRANCH  14  16
ENDBRANCH  10  12
ENDBRANCH   9  10
ENDBRANCH   5   9
ENDBRANCH   4   7
ENDBRANCH   1   4
BRANCH   1  23
ATOM     23  C   UNL     1      -5.190   9.668  30.973  0.00  0.00    +0.175 C 
BRANCH  23  24
ATOM     24  C   UNL     1      -4.702  11.100  30.707  0.00  0.00    +0.176 C 
ATOM     25  O   UNL     1      -4.861  11.862  31.935  0.00  0.00    -0.332 OA
ATOM     26  C   UNL     1      -4.346  13.234  31.900  0.00  0.00    +0.277 C 
ATOM     27  C   UNL     1      -4.966  14.015  30.716  0.00  0.00    +0.110 C 
ATOM     28  C   UNL     1      -4.850  13.230  29.393  0.00  0.00    +0.143 C 
ATOM     29  C   UNL     1      -5.412  11.816  29.543  0.00  0.00    +0.133 C 
BRANCH  29  30
ATOM     30  N   UNL     1      -5.217  11.050  28.302  0.00  0.00    -0.308 N 
ATOM     31  H   UNL     1      -4.269  10.881  27.996  0.00  0.00    +0.149 HD
ATOM     32  C   UNL     1      -6.211  10.563  27.554  0.00  0.00    +0.210 C 
ATOM     33  C   UNL     1      -7.644  10.860  28.033  0.00  0.00    +0.109 C 
ATOM     34  O   UNL     1      -6.017   9.912  26.526  0.00  0.00    -0.276 OA
ENDBRANCH  29  30
BRANCH  26  35
ATOM     35  C   UNL     1      -2.808  13.238  31.772  0.00  0.00    +0.414 C 
ATOM     36  O   UNL     1      -2.139  12.355  32.307  0.00  0.00    -0.240 OA
ATOM     37  O   UNL     1      -2.238  14.124  31.134  0.00  0.00    -0.240 OA
ENDBRANCH  26  35
BRANCH  28  38
ATOM     38  O   UNL     1      -5.564  13.914  28.362  0.00  0.00    -0.390 OA
ATOM     39  H   UNL     1      -5.148  13.742  27.515  0.00  0.00    +0.210 HD
ENDBRANCH  28  38
BRANCH  26  40
ATOM     40  O   UNL     1      -4.734  13.890  33.135  0.00  0.00    -0.343 OA
ATOM     41  C   UNL     1      -6.099  14.378  33.165  0.00  0.00    +0.198 C 
ENDBRANCH  26  40
ENDBRANCH  23  24
BRANCH  23  42
ATOM     42  O   UNL     1      -6.460   9.694  31.655  0.00  0.00    -0.387 OA
ATOM     43  H   UNL     1      -6.603  10.565  32.032  0.00  0.00    +0.210 HD
ENDBRANCH  23  42
ENDBRANCH   1  23
TORSDOF 14
