REMARK VINA RESULT:    -4.800      2.556      5.043
REMARK INTER + INTRA:         -11.709
REMARK INTER:                  -7.022
REMARK INTRA:                  -4.687
REMARK UNBOUND:                -2.560
REMARK  Name = lig_assembled_18.pdb
REMARK  19 active torsions:
REMARK  status: ('A' for Active; 'I' for Inactive)
REMARK    1  A    between atoms: _2  and  _10
REMARK    2  A    between atoms: _3  and  _12
REMARK    3  A    between atoms: _5  and  _21
REMARK    4  A    between atoms: _7  and  _8
REMARK    5  A    between atoms: _7  and  _21
REMARK    6  A    between atoms: _10  and  _11
REMARK    7  A    between atoms: _12  and  _13
REMARK    8  A    between atoms: _17  and  _37
REMARK    9  A    between atoms: _19  and  _25
REMARK   10  A    between atoms: _20  and  _24
REMARK   11  A    between atoms: _24  and  _25
REMARK   12  A    between atoms: _27  and  _28
REMARK   13  A    between atoms: _29  and  _30
REMARK   14  A    between atoms: _31  and  _33
REMARK   15  A    between atoms: _33  and  _34
REMARK   16  A    between atoms: _33  and  _35
REMARK   17  A    between atoms: _35  and  _36
REMARK   18  A    between atoms: _35  and  _37
REMARK   19  A    between atoms: _38  and  _40
REMARK                            x       y       z     vdW  Elec       q    Type
REMARK                         _______ _______ _______ _____ _____    ______ ____
ROOT
ATOM      1  C   UNL     1      -3.518  11.539  22.135  0.00  0.00    +0.163 C 
ENDROOT
BRANCH   1   2
ATOM      2  O   UNL     1      -2.827  12.223  23.193  0.00  0.00    -0.388 OA
ATOM      3  H   UNL     1      -3.072  11.838  24.038  0.00  0.00    +0.210 HD
ENDBRANCH   1   2
BRANCH   1   4
ATOM      4  C   UNL     1      -4.060  10.183  22.619  0.00  0.00    +0.175 C 
BRANCH   4   5
ATOM      5  C   UNL     1      -4.274  10.156  24.140  0.00  0.00    +0.176 C 
ATOM      6  O   UNL     1      -3.004   9.823  24.765  0.00  0.00    -0.332 OA
ATOM      7  C   UNL     1      -2.991   9.855  26.230  0.00  0.00    +0.277 C 
ATOM      8  C   UNL     1      -4.109   8.947  26.801  0.00  0.00    +0.110 C 
ATOM      9  C   UNL     1      -5.473   9.243  26.143  0.00  0.00    +0.143 C 
ATOM     10  C   UNL     1      -5.371   9.187  24.619  0.00  0.00    +0.133 C 
BRANCH  10  11
ATOM     11  N   UNL     1      -6.655   9.555  24.002  0.00  0.00    -0.308 N 
ATOM     12  H   UNL     1      -7.009  10.486  24.169  0.00  0.00    +0.149 HD
ATOM     13  C   UNL     1      -7.385   8.738  23.237  0.00  0.00    +0.210 C 
ATOM     14  C   UNL     1      -6.832   7.316  23.024  0.00  0.00    +0.109 C 
ATOM     15  O   UNL     1      -8.450   9.078  22.722  0.00  0.00    -0.276 OA
ENDBRANCH  10  11
BRANCH   7  16
ATOM     16  C   UNL     1      -3.182  11.295  26.748  0.00  0.00    +0.414 C 
ATOM     17  O   UNL     1      -3.651  11.495  27.868  0.00  0.00    -0.240 OA
ATOM     18  O   UNL     1      -2.867  12.258  26.047  0.00  0.00    -0.240 OA
ENDBRANCH   7  16
BRANCH   7  19
ATOM     19  O   UNL     1      -1.711   9.340  26.679  0.00  0.00    -0.343 OA
ATOM     20  C   UNL     1      -1.764   8.523  27.875  0.00  0.00    +0.198 C 
ENDBRANCH   7  19
BRANCH   9  21
ATOM     21  O   UNL     1      -6.438   8.287  26.586  0.00  0.00    -0.390 OA
ATOM     22  H   UNL     1      -7.242   8.741  26.849  0.00  0.00    +0.210 HD
ENDBRANCH   9  21
ENDBRANCH   4   5
BRANCH   4  23
ATOM     23  O   UNL     1      -3.167   9.122  22.225  0.00  0.00    -0.387 OA
ATOM     24  H   UNL     1      -2.276   9.468  22.140  0.00  0.00    +0.210 HD
ENDBRANCH   4  23
ENDBRANCH   1   4
BRANCH   1  25
ATOM     25  C   UNL     1      -4.672  12.396  21.625  0.00  0.00    +0.141 C 
BRANCH  25  28
ATOM     26  C   UNL     1      -6.371  13.194  23.232  0.00  0.00    +0.401 C 
ATOM     27  O   UNL     1      -7.189  12.315  22.948  0.00  0.00    -0.226 OA
ATOM     28  N   UNL     1      -5.173  13.310  22.659  0.00  0.00    -0.279 N 
ATOM     29  H   UNL     1      -4.576  14.071  22.952  0.00  0.00    +0.152 HD
BRANCH  26  30
ATOM     30  O   UNL     1      -6.709  14.160  24.231  0.00  0.00    -0.444 OA
BRANCH  30  31
ATOM     31  C   UNL     1      -5.741  14.118  25.283  0.00  0.00    +0.292 C 
BRANCH  31  33
ATOM     32  N   UNL     1      -6.475  14.208  27.649  0.00  0.00    -0.131 NA
ATOM     33  C   UNL     1      -6.321  13.496  26.489  0.00  0.00    +0.120 A 
ATOM     34  C   UNL     1      -6.779  12.214  26.686  0.00  0.00    +0.137 A 
ATOM     35  N   UNL     1      -7.225  12.214  27.974  0.00  0.00    -0.242 N 
ATOM     36  N   UNL     1      -7.020  13.410  28.558  0.00  0.00    -0.065 NA
BRANCH  35  37
ATOM     37  C   UNL     1      -7.737  11.111  28.751  0.00  0.00    +0.240 C 
BRANCH  37  38
ATOM     38  C   UNL     1      -6.659  10.437  29.570  0.00  0.00    +0.235 C 
ATOM     39  O   UNL     1      -6.446   9.229  29.501  0.00  0.00    -0.274 OA
ATOM     40  N   UNL     1      -5.900  11.285  30.351  0.00  0.00    -0.309 N 
ATOM     41  H   UNL     1      -6.202  12.235  30.513  0.00  0.00    +0.149 HD
BRANCH  40  42
ATOM     42  C   UNL     1      -4.820  10.785  31.177  0.00  0.00    +0.146 C 
BRANCH  42  43
ATOM     43  C   UNL     1      -3.912  11.912  31.551  0.00  0.00    +0.007 A 
ATOM     44  S   UNL     1      -4.129  13.472  30.876  0.00  0.00    -0.100 S 
ATOM     45  C   UNL     1      -2.762  14.089  31.697  0.00  0.00    +0.045 A 
ATOM     46  C   UNL     1      -2.156  13.135  32.485  0.00  0.00    +0.008 A 
ATOM     47  C   UNL     1      -2.826  11.880  32.406  0.00  0.00    +0.013 A 
ENDBRANCH  42  43
ENDBRANCH  40  42
ENDBRANCH  37  38
ENDBRANCH  35  37
ENDBRANCH  31  33
ENDBRANCH  30  31
ENDBRANCH  26  30
ENDBRANCH  25  28
ENDBRANCH   1  25
TORSDOF 17
