REMARK VINA RESULT:    -4.623      4.954      7.651
REMARK INTER + INTRA:         -11.051
REMARK INTER:                  -8.339
REMARK INTRA:                  -2.713
REMARK UNBOUND:                -2.779
REMARK  Name = lig_assembled_39.pdb
REMARK  17 active torsions:
REMARK  status: ('A' for Active; 'I' for Inactive)
REMARK    1  A    between atoms: _2  and  _9
REMARK    2  A    between atoms: _4  and  _19
REMARK    3  A    between atoms: _6  and  _7
REMARK    4  A    between atoms: _6  and  _19
REMARK    5  A    between atoms: _9  and  _10
REMARK    6  A    between atoms: _15  and  _35
REMARK    7  A    between atoms: _17  and  _23
REMARK    8  A    between atoms: _18  and  _22
REMARK    9  A    between atoms: _22  and  _23
REMARK   10  A    between atoms: _25  and  _26
REMARK   11  A    between atoms: _27  and  _28
REMARK   12  A    between atoms: _29  and  _31
REMARK   13  A    between atoms: _31  and  _32
REMARK   14  A    between atoms: _31  and  _33
REMARK   15  A    between atoms: _33  and  _34
REMARK   16  A    between atoms: _33  and  _35
REMARK   17  A    between atoms: _36  and  _38
REMARK                            x       y       z     vdW  Elec       q    Type
REMARK                         _______ _______ _______ _____ _____    ______ ____
ROOT
ATOM      1  C   UNL     1      -5.008   7.407  23.639  0.00  0.00    +0.163 C 
ENDROOT
BRANCH   1   2
ATOM      2  O   UNL     1      -3.762   6.932  24.173  0.00  0.00    -0.388 OA
ATOM      3  H   UNL     1      -3.406   6.250  23.598  0.00  0.00    +0.210 HD
ENDBRANCH   1   2
BRANCH   1   4
ATOM      4  C   UNL     1      -5.350   6.651  22.360  0.00  0.00    +0.141 C 
BRANCH   4   7
ATOM      5  C   UNL     1      -6.141   7.350  20.126  0.00  0.00    +0.401 C 
ATOM      6  O   UNL     1      -5.394   6.580  19.517  0.00  0.00    -0.226 OA
ATOM      7  N   UNL     1      -6.182   7.453  21.455  0.00  0.00    -0.279 N 
ATOM      8  H   UNL     1      -6.821   8.121  21.862  0.00  0.00    +0.152 HD
BRANCH   5   9
ATOM      9  O   UNL     1      -7.022   8.196  19.382  0.00  0.00    -0.444 OA
BRANCH   9  10
ATOM     10  C   UNL     1      -6.976   9.521  19.918  0.00  0.00    +0.292 C 
BRANCH  10  12
ATOM     11  N   UNL     1      -7.151  11.565  18.532  0.00  0.00    -0.131 NA
ATOM     12  C   UNL     1      -6.436  10.462  18.919  0.00  0.00    +0.120 A 
ATOM     13  C   UNL     1      -5.230  10.450  18.255  0.00  0.00    +0.137 A 
ATOM     14  N   UNL     1      -5.239  11.614  17.544  0.00  0.00    -0.247 N 
ATOM     15  N   UNL     1      -6.419  12.250  17.665  0.00  0.00    -0.065 NA
BRANCH  14  16
ATOM     16  C   UNL     1      -4.145  12.212  16.792  0.00  0.00    +0.181 C 
BRANCH  16  17
ATOM     17  C   UNL     1      -3.882  11.522  15.465  0.00  0.00    -0.012 A 
ATOM     18  C   UNL     1      -3.068  10.374  15.393  0.00  0.00    +0.006 A 
ATOM     19  C   UNL     1      -2.814   9.732  14.178  0.00  0.00    +0.000 A 
ATOM     20  C   UNL     1      -3.349  10.237  13.001  0.00  0.00    +0.001 A 
ATOM     21  C   UNL     1      -4.123  11.395  13.036  0.00  0.00    +0.015 A 
ATOM     22  C   UNL     1      -4.379  12.040  14.254  0.00  0.00    +0.023 A 
ATOM     23 BR   UNL     1      -5.398  13.644  14.171  0.00  0.00    -0.050 Br
ENDBRANCH  16  17
ENDBRANCH  14  16
ENDBRANCH  10  12
ENDBRANCH   9  10
ENDBRANCH   5   9
ENDBRANCH   4   7
ENDBRANCH   1   4
BRANCH   1  24
ATOM     24  C   UNL     1      -4.940   8.915  23.341  0.00  0.00    +0.175 C 
BRANCH  24  25
ATOM     25  C   UNL     1      -3.893   9.629  24.210  0.00  0.00    +0.176 C 
ATOM     26  O   UNL     1      -4.268   9.446  25.603  0.00  0.00    -0.332 OA
ATOM     27  C   UNL     1      -3.321   9.974  26.589  0.00  0.00    +0.277 C 
ATOM     28  C   UNL     1      -3.034  11.471  26.317  0.00  0.00    +0.110 C 
ATOM     29  C   UNL     1      -2.662  11.720  24.840  0.00  0.00    +0.143 C 
ATOM     30  C   UNL     1      -3.713  11.127  23.901  0.00  0.00    +0.133 C 
BRANCH  30  31
ATOM     31  N   UNL     1      -3.304  11.294  22.498  0.00  0.00    -0.308 N 
ATOM     32  H   UNL     1      -2.488  10.789  22.181  0.00  0.00    +0.149 HD
ATOM     33  C   UNL     1      -3.940  12.069  21.616  0.00  0.00    +0.210 C 
ATOM     34  C   UNL     1      -5.164  12.846  22.137  0.00  0.00    +0.109 C 
ATOM     35  O   UNL     1      -3.583  12.179  20.442  0.00  0.00    -0.276 OA
ENDBRANCH  30  31
BRANCH  27  36
ATOM     36  C   UNL     1      -1.998   9.181  26.555  0.00  0.00    +0.414 C 
ATOM     37  O   UNL     1      -2.011   7.957  26.428  0.00  0.00    -0.240 OA
ATOM     38  O   UNL     1      -0.918   9.764  26.655  0.00  0.00    -0.240 OA
ENDBRANCH  27  36
BRANCH  27  39
ATOM     39  O   UNL     1      -3.927   9.856  27.902  0.00  0.00    -0.343 OA
ATOM     40  C   UNL     1      -3.477  10.832  28.874  0.00  0.00    +0.198 C 
ENDBRANCH  27  39
BRANCH  29  41
ATOM     41  O   UNL     1      -2.555  13.123  24.600  0.00  0.00    -0.390 OA
ATOM     42  H   UNL     1      -2.107  13.273  23.764  0.00  0.00    +0.210 HD
ENDBRANCH  29  41
ENDBRANCH  24  25
BRANCH  24  43
ATOM     43  O   UNL     1      -6.236   9.518  23.529  0.00  0.00    -0.387 OA
ATOM     44  H   UNL     1      -6.504   9.422  24.446  0.00  0.00    +0.210 HD
ENDBRANCH  24  43
ENDBRANCH   1  24
TORSDOF 15
