REMARK VINA RESULT:    -4.968      4.240      7.549
REMARK INTER + INTRA:         -10.596
REMARK INTER:                  -8.254
REMARK INTRA:                  -2.341
REMARK UNBOUND:                -1.997
REMARK  Name = lig_assembled_57.pdb
REMARK  17 active torsions:
REMARK  status: ('A' for Active; 'I' for Inactive)
REMARK    1  A    between atoms: _2  and  _10
REMARK    2  A    between atoms: _3  and  _13
REMARK    3  A    between atoms: _5  and  _19
REMARK    4  A    between atoms: _7  and  _8
REMARK    5  A    between atoms: _7  and  _19
REMARK    6  A    between atoms: _15  and  _35
REMARK    7  A    between atoms: _17  and  _23
REMARK    8  A    between atoms: _18  and  _22
REMARK    9  A    between atoms: _22  and  _23
REMARK   10  A    between atoms: _25  and  _26
REMARK   11  A    between atoms: _27  and  _28
REMARK   12  A    between atoms: _29  and  _31
REMARK   13  A    between atoms: _31  and  _32
REMARK   14  A    between atoms: _31  and  _33
REMARK   15  A    between atoms: _33  and  _34
REMARK   16  A    between atoms: _33  and  _35
REMARK   17  A    between atoms: _36  and  _38
REMARK                            x       y       z     vdW  Elec       q    Type
REMARK                         _______ _______ _______ _____ _____    ______ ____
ROOT
ATOM      1  C   UNL     1      -2.957  12.432  23.124  0.00  0.00    +0.163 C 
ENDROOT
BRANCH   1   2
ATOM      2  O   UNL     1      -2.714  13.070  24.389  0.00  0.00    -0.388 OA
ATOM      3  H   UNL     1      -2.126  12.525  24.916  0.00  0.00    +0.210 HD
ENDBRANCH   1   2
BRANCH   1   4
ATOM      4  C   UNL     1      -3.801  13.339  22.236  0.00  0.00    +0.141 C 
BRANCH   4   7
ATOM      5  C   UNL     1      -6.013  13.043  21.174  0.00  0.00    +0.401 C 
ATOM      6  O   UNL     1      -6.433  14.148  21.523  0.00  0.00    -0.226 OA
ATOM      7  N   UNL     1      -4.797  12.581  21.468  0.00  0.00    -0.279 N 
ATOM      8  H   UNL     1      -4.547  11.657  21.145  0.00  0.00    +0.152 HD
BRANCH   5   9
ATOM      9  O   UNL     1      -6.865  12.186  20.410  0.00  0.00    -0.444 OA
BRANCH   9  10
ATOM     10  C   UNL     1      -6.435  10.830  20.558  0.00  0.00    +0.292 C 
BRANCH  10  12
ATOM     11  N   UNL     1      -5.035   9.253  19.273  0.00  0.00    -0.131 NA
ATOM     12  C   UNL     1      -5.859  10.342  19.291  0.00  0.00    +0.120 A 
ATOM     13  C   UNL     1      -6.029  10.802  18.003  0.00  0.00    +0.137 A 
ATOM     14  N   UNL     1      -5.355   9.899  17.236  0.00  0.00    -0.248 N 
ATOM     15  N   UNL     1      -4.700   9.014  18.016  0.00  0.00    -0.065 NA
BRANCH  14  16
ATOM     16  C   UNL     1      -5.298   9.724  15.789  0.00  0.00    +0.111 C 
ATOM     17  C   UNL     1      -5.308  11.085  15.076  0.00  0.00    +0.042 C 
ATOM     18  C   UNL     1      -3.952  11.774  15.220  0.00  0.00    +0.086 C 
ATOM     19  N   UNL     1      -2.847  10.980  14.672  0.00  0.00    -0.305 NA
ATOM     20  C   UNL     1      -2.791   9.631  15.235  0.00  0.00    +0.086 C 
ATOM     21  C   UNL     1      -2.828  10.988  13.212  0.00  0.00    +0.104 C 
ATOM     22  C   UNL     1      -4.131   8.880  15.251  0.00  0.00    +0.042 C 
ENDBRANCH  14  16
ENDBRANCH  10  12
ENDBRANCH   9  10
ENDBRANCH   5   9
ENDBRANCH   4   7
ENDBRANCH   1   4
BRANCH   1  23
ATOM     23  C   UNL     1      -3.676  11.086  23.316  0.00  0.00    +0.175 C 
BRANCH  23  24
ATOM     24  C   UNL     1      -3.700  10.648  24.788  0.00  0.00    +0.176 C 
ATOM     25  O   UNL     1      -3.191   9.288  24.858  0.00  0.00    -0.332 OA
ATOM     26  C   UNL     1      -3.040   8.736  26.208  0.00  0.00    +0.277 C 
ATOM     27  C   UNL     1      -4.376   8.835  26.985  0.00  0.00    +0.110 C 
ATOM     28  C   UNL     1      -4.973  10.257  26.912  0.00  0.00    +0.143 C 
ATOM     29  C   UNL     1      -5.082  10.733  25.463  0.00  0.00    +0.133 C 
BRANCH  29  30
ATOM     30  N   UNL     1      -5.570  12.120  25.412  0.00  0.00    -0.308 N 
ATOM     31  H   UNL     1      -5.016  12.832  25.866  0.00  0.00    +0.149 HD
ATOM     32  C   UNL     1      -6.697  12.499  24.804  0.00  0.00    +0.210 C 
ATOM     33  C   UNL     1      -7.532  11.386  24.143  0.00  0.00    +0.109 C 
ATOM     34  O   UNL     1      -7.074  13.671  24.764  0.00  0.00    -0.276 OA
ENDBRANCH  29  30
BRANCH  26  35
ATOM     35  C   UNL     1      -1.935   9.483  26.984  0.00  0.00    +0.414 C 
ATOM     36  O   UNL     1      -1.992   9.574  28.210  0.00  0.00    -0.240 OA
ATOM     37  O   UNL     1      -0.988   9.993  26.385  0.00  0.00    -0.240 OA
ENDBRANCH  26  35
BRANCH  28  38
ATOM     38  O   UNL     1      -6.270  10.265  27.509  0.00  0.00    -0.390 OA
ATOM     39  H   UNL     1      -6.715  11.090  27.298  0.00  0.00    +0.210 HD
ENDBRANCH  28  38
BRANCH  26  40
ATOM     40  O   UNL     1      -2.687   7.334  26.083  0.00  0.00    -0.343 OA
ATOM     41  C   UNL     1      -3.259   6.466  27.094  0.00  0.00    +0.198 C 
ENDBRANCH  26  40
ENDBRANCH  23  24
BRANCH  23  42
ATOM     42  O   UNL     1      -3.053  10.070  22.506  0.00  0.00    -0.387 OA
ATOM     43  H   UNL     1      -3.423   9.212  22.727  0.00  0.00    +0.210 HD
ENDBRANCH  23  42
ENDBRANCH   1  23
TORSDOF 14
