REMARK VINA RESULT:    -4.870      4.638      9.830
REMARK INTER + INTRA:         -12.240
REMARK INTER:                  -9.740
REMARK INTRA:                  -2.500
REMARK UNBOUND:                -3.243
REMARK  Name = lig_assembled_78.pdb
REMARK  18 active torsions:
REMARK  status: ('A' for Active; 'I' for Inactive)
REMARK    1  A    between atoms: _2  and  _9
REMARK    2  A    between atoms: _4  and  _21
REMARK    3  A    between atoms: _6  and  _7
REMARK    4  A    between atoms: _6  and  _21
REMARK    5  A    between atoms: _9  and  _41
REMARK    6  A    between atoms: _10  and  _41
REMARK    7  A    between atoms: _17  and  _37
REMARK    8  A    between atoms: _19  and  _25
REMARK    9  A    between atoms: _20  and  _24
REMARK   10  A    between atoms: _24  and  _25
REMARK   11  A    between atoms: _27  and  _28
REMARK   12  A    between atoms: _29  and  _30
REMARK   13  A    between atoms: _31  and  _33
REMARK   14  A    between atoms: _33  and  _34
REMARK   15  A    between atoms: _33  and  _35
REMARK   16  A    between atoms: _35  and  _36
REMARK   17  A    between atoms: _35  and  _37
REMARK   18  A    between atoms: _38  and  _40
REMARK                            x       y       z     vdW  Elec       q    Type
REMARK                         _______ _______ _______ _____ _____    ______ ____
ROOT
ATOM      1  C   UNL     1      -4.212   9.138  24.047  0.00  0.00    +0.163 C 
ENDROOT
BRANCH   1   2
ATOM      2  O   UNL     1      -3.698   8.449  22.895  0.00  0.00    -0.388 OA
ATOM      3  H   UNL     1      -3.499   7.539  23.127  0.00  0.00    +0.210 HD
ENDBRANCH   1   2
BRANCH   1   4
ATOM      4  C   UNL     1      -5.631   9.669  23.783  0.00  0.00    +0.175 C 
BRANCH   4   5
ATOM      5  C   UNL     1      -5.617  10.987  22.995  0.00  0.00    +0.176 C 
ATOM      6  O   UNL     1      -5.267  10.682  21.618  0.00  0.00    -0.332 OA
ATOM      7  C   UNL     1      -5.307  11.814  20.687  0.00  0.00    +0.277 C 
ATOM      8  C   UNL     1      -4.423  12.974  21.207  0.00  0.00    +0.110 C 
ATOM      9  C   UNL     1      -4.738  13.314  22.679  0.00  0.00    +0.143 C 
ATOM     10  C   UNL     1      -4.670  12.064  23.558  0.00  0.00    +0.133 C 
BRANCH  10  11
ATOM     11  N   UNL     1      -5.056  12.384  24.941  0.00  0.00    -0.308 N 
ATOM     12  H   UNL     1      -6.030  12.582  25.125  0.00  0.00    +0.149 HD
ATOM     13  C   UNL     1      -4.205  12.431  25.968  0.00  0.00    +0.210 C 
ATOM     14  C   UNL     1      -2.724  12.151  25.650  0.00  0.00    +0.109 C 
ATOM     15  O   UNL     1      -4.559  12.688  27.120  0.00  0.00    -0.276 OA
ENDBRANCH  10  11
BRANCH   7  16
ATOM     16  C   UNL     1      -6.755  12.314  20.497  0.00  0.00    +0.414 C 
ATOM     17  O   UNL     1      -6.978  13.510  20.315  0.00  0.00    -0.240 OA
ATOM     18  O   UNL     1      -7.697  11.522  20.526  0.00  0.00    -0.240 OA
ENDBRANCH   7  16
BRANCH   7  19
ATOM     19  O   UNL     1      -4.774  11.368  19.414  0.00  0.00    -0.343 OA
ATOM     20  C   UNL     1      -4.949   9.955  19.138  0.00  0.00    +0.198 C 
ENDBRANCH   7  19
BRANCH   9  21
ATOM     21  O   UNL     1      -3.802  14.279  23.161  0.00  0.00    -0.390 OA
ATOM     22  H   UNL     1      -3.854  14.326  24.119  0.00  0.00    +0.210 HD
ENDBRANCH   9  21
ENDBRANCH   4   5
BRANCH   4  23
ATOM     23  O   UNL     1      -6.336   9.841  25.028  0.00  0.00    -0.387 OA
ATOM     24  H   UNL     1      -6.536   8.981  25.405  0.00  0.00    +0.210 HD
ENDBRANCH   4  23
ENDBRANCH   1   4
BRANCH   1  25
ATOM     25  C   UNL     1      -4.234   8.199  25.249  0.00  0.00    +0.141 C 
BRANCH  25  28
ATOM     26  C   UNL     1      -2.592   8.940  26.939  0.00  0.00    +0.401 C 
ATOM     27  O   UNL     1      -1.631   8.413  26.374  0.00  0.00    -0.226 OA
ATOM     28  N   UNL     1      -3.845   8.885  26.487  0.00  0.00    -0.279 N 
ATOM     29  H   UNL     1      -4.567   9.341  27.026  0.00  0.00    +0.152 HD
BRANCH  26  30
ATOM     30  O   UNL     1      -2.374   9.656  28.158  0.00  0.00    -0.444 OA
BRANCH  30  31
ATOM     31  C   UNL     1      -3.631  10.053  28.711  0.00  0.00    +0.292 C 
BRANCH  31  33
ATOM     32  N   UNL     1      -2.598  10.036  30.963  0.00  0.00    -0.131 NA
ATOM     33  C   UNL     1      -3.442  10.622  30.058  0.00  0.00    +0.120 A 
ATOM     34  C   UNL     1      -4.008  11.740  30.630  0.00  0.00    +0.139 A 
ATOM     35  N   UNL     1      -3.422  11.812  31.859  0.00  0.00    -0.230 N 
ATOM     36  N   UNL     1      -2.611  10.761  32.074  0.00  0.00    -0.064 NA
BRANCH  35  37
ATOM     37  C   UNL     1      -3.634  12.783  32.903  0.00  0.00    +0.316 C 
BRANCH  37  38
ATOM     38  S   UNL     1      -2.501  14.147  32.846  0.00  0.00    +0.017 S 
ATOM     39  O   UNL     1      -2.118  14.529  34.190  0.00  0.00    -0.168 OA
ATOM     40  O   UNL     1      -1.496  13.850  31.840  0.00  0.00    -0.168 OA
BRANCH  38  41
ATOM     41  C   UNL     1      -3.479  15.497  32.218  0.00  0.00    +0.090 A 
ATOM     42  C   UNL     1      -3.595  16.666  32.977  0.00  0.00    +0.027 A 
ATOM     43  C   UNL     1      -4.339  17.735  32.477  0.00  0.00    +0.002 A 
ATOM     44  C   UNL     1      -4.944  17.641  31.223  0.00  0.00    +0.000 A 
ATOM     45  C   UNL     1      -4.807  16.479  30.462  0.00  0.00    +0.002 A 
ATOM     46  C   UNL     1      -4.074  15.400  30.957  0.00  0.00    +0.027 A 
ENDBRANCH  38  41
ENDBRANCH  37  38
ENDBRANCH  35  37
ENDBRANCH  31  33
ENDBRANCH  30  31
ENDBRANCH  26  30
ENDBRANCH  25  28
ENDBRANCH   1  25
TORSDOF 16
