REMARK VINA RESULT:    -4.548      5.528      8.285
REMARK INTER + INTRA:         -10.370
REMARK INTER:                  -7.707
REMARK INTRA:                  -2.663
REMARK UNBOUND:                -2.233
REMARK  Name = lig_assembled_61.pdb
REMARK  17 active torsions:
REMARK  status: ('A' for Active; 'I' for Inactive)
REMARK    1  A    between atoms: _2  and  _9
REMARK    2  A    between atoms: _4  and  _17
REMARK    3  A    between atoms: _6  and  _7
REMARK    4  A    between atoms: _6  and  _17
REMARK    5  A    between atoms: _9  and  _10
REMARK    6  A    between atoms: _13  and  _33
REMARK    7  A    between atoms: _15  and  _21
REMARK    8  A    between atoms: _16  and  _20
REMARK    9  A    between atoms: _20  and  _21
REMARK   10  A    between atoms: _23  and  _24
REMARK   11  A    between atoms: _25  and  _26
REMARK   12  A    between atoms: _27  and  _29
REMARK   13  A    between atoms: _29  and  _30
REMARK   14  A    between atoms: _29  and  _31
REMARK   15  A    between atoms: _31  and  _32
REMARK   16  A    between atoms: _31  and  _33
REMARK   17  A    between atoms: _34  and  _36
REMARK                            x       y       z     vdW  Elec       q    Type
REMARK                         _______ _______ _______ _____ _____    ______ ____
ROOT
ATOM      1  C   UNL     1      -6.577   9.428  23.627  0.00  0.00    +0.163 C 
ENDROOT
BRANCH   1   2
ATOM      2  O   UNL     1      -7.254   9.254  24.883  0.00  0.00    -0.388 OA
ATOM      3  H   UNL     1      -8.143   8.928  24.725  0.00  0.00    +0.210 HD
ENDBRANCH   1   2
BRANCH   1   4
ATOM      4  C   UNL     1      -7.465   8.947  22.484  0.00  0.00    +0.141 C 
BRANCH   4   7
ATOM      5  C   UNL     1      -7.117   9.800  20.192  0.00  0.00    +0.401 C 
ATOM      6  O   UNL     1      -6.511   8.796  19.809  0.00  0.00    -0.226 OA
ATOM      7  N   UNL     1      -7.593   9.958  21.427  0.00  0.00    -0.279 N 
ATOM      8  H   UNL     1      -8.068  10.821  21.649  0.00  0.00    +0.152 HD
BRANCH   5   9
ATOM      9  O   UNL     1      -7.331  10.874  19.272  0.00  0.00    -0.444 OA
BRANCH   9  10
ATOM     10  C   UNL     1      -7.352  10.363  17.937  0.00  0.00    +0.292 C 
BRANCH  10  12
ATOM     11  N   UNL     1      -6.286  12.169  16.622  0.00  0.00    -0.131 NA
ATOM     12  C   UNL     1      -6.224  10.909  17.159  0.00  0.00    +0.120 A 
ATOM     13  C   UNL     1      -5.010  10.342  16.841  0.00  0.00    +0.137 A 
ATOM     14  N   UNL     1      -4.403  11.283  16.061  0.00  0.00    -0.247 N 
ATOM     15  N   UNL     1      -5.155  12.396  15.966  0.00  0.00    -0.065 NA
BRANCH  14  16
ATOM     16  C   UNL     1      -3.107  11.212  15.410  0.00  0.00    +0.180 C 
BRANCH  16  17
ATOM     17  C   UNL     1      -2.964   9.963  14.587  0.00  0.00    -0.019 A 
ATOM     18  C   UNL     1      -2.160   8.831  14.957  0.00  0.00    +0.013 A 
ATOM     19  C   UNL     1      -2.171   7.834  14.006  0.00  0.00    +0.045 A 
ATOM     20  S   UNL     1      -3.153   8.237  12.668  0.00  0.00    -0.105 S 
ATOM     21  C   UNL     1      -3.555   9.750  13.352  0.00  0.00    +0.050 A 
ENDBRANCH  16  17
ENDBRANCH  14  16
ENDBRANCH  10  12
ENDBRANCH   9  10
ENDBRANCH   5   9
ENDBRANCH   4   7
ENDBRANCH   1   4
BRANCH   1  22
ATOM     22  C   UNL     1      -5.248   8.654  23.606  0.00  0.00    +0.175 C 
BRANCH  22  23
ATOM     23  C   UNL     1      -4.110   9.441  24.272  0.00  0.00    +0.176 C 
ATOM     24  O   UNL     1      -4.386   9.508  25.698  0.00  0.00    -0.332 OA
ATOM     25  C   UNL     1      -3.345  10.137  26.516  0.00  0.00    +0.277 C 
ATOM     26  C   UNL     1      -3.017  11.552  25.981  0.00  0.00    +0.110 C 
ATOM     27  C   UNL     1      -2.747  11.537  24.461  0.00  0.00    +0.143 C 
ATOM     28  C   UNL     1      -3.890  10.857  23.707  0.00  0.00    +0.133 C 
BRANCH  28  29
ATOM     29  N   UNL     1      -3.582  10.772  22.271  0.00  0.00    -0.308 N 
ATOM     30  H   UNL     1      -2.889  10.098  21.977  0.00  0.00    +0.149 HD
ATOM     31  C   UNL     1      -4.158  11.526  21.331  0.00  0.00    +0.210 C 
ATOM     32  C   UNL     1      -5.190  12.562  21.815  0.00  0.00    +0.109 C 
ATOM     33  O   UNL     1      -3.890  11.423  20.134  0.00  0.00    -0.276 OA
ENDBRANCH  28  29
BRANCH  25  34
ATOM     34  C   UNL     1      -2.063   9.278  26.525  0.00  0.00    +0.414 C 
ATOM     35  O   UNL     1      -0.958   9.814  26.461  0.00  0.00    -0.240 OA
ATOM     36  O   UNL     1      -2.134   8.051  26.597  0.00  0.00    -0.240 OA
ENDBRANCH  25  34
BRANCH  25  37
ATOM     37  O   UNL     1      -3.855  10.267  27.869  0.00  0.00    -0.343 OA
ATOM     38  C   UNL     1      -5.053   9.499  28.148  0.00  0.00    +0.198 C 
ENDBRANCH  25  37
BRANCH  27  39
ATOM     39  O   UNL     1      -2.599  12.875  23.985  0.00  0.00    -0.390 OA
ATOM     40  H   UNL     1      -1.669  13.113  23.982  0.00  0.00    +0.210 HD
ENDBRANCH  27  39
ENDBRANCH  22  23
BRANCH  22  41
ATOM     41  O   UNL     1      -4.892   8.315  22.251  0.00  0.00    -0.387 OA
ATOM     42  H   UNL     1      -4.303   7.557  22.255  0.00  0.00    +0.210 HD
ENDBRANCH  22  41
ENDBRANCH   1  22
TORSDOF 15
