REMARK VINA RESULT:    -5.305      2.187      4.096
REMARK INTER + INTRA:         -12.911
REMARK INTER:                  -9.593
REMARK INTRA:                  -3.318
REMARK UNBOUND:                -3.108
REMARK  Name = lig_assembled_58.pdb
REMARK  18 active torsions:
REMARK  status: ('A' for Active; 'I' for Inactive)
REMARK    1  A    between atoms: _2  and  _9
REMARK    2  A    between atoms: _4  and  _25
REMARK    3  A    between atoms: _6  and  _7
REMARK    4  A    between atoms: _6  and  _25
REMARK    5  A    between atoms: _9  and  _10
REMARK    6  A    between atoms: _9  and  _16
REMARK    7  A    between atoms: _21  and  _41
REMARK    8  A    between atoms: _23  and  _29
REMARK    9  A    between atoms: _24  and  _28
REMARK   10  A    between atoms: _28  and  _29
REMARK   11  A    between atoms: _31  and  _32
REMARK   12  A    between atoms: _33  and  _34
REMARK   13  A    between atoms: _35  and  _37
REMARK   14  A    between atoms: _37  and  _38
REMARK   15  A    between atoms: _37  and  _39
REMARK   16  A    between atoms: _39  and  _40
REMARK   17  A    between atoms: _39  and  _41
REMARK   18  A    between atoms: _42  and  _44
REMARK                            x       y       z     vdW  Elec       q    Type
REMARK                         _______ _______ _______ _____ _____    ______ ____
ROOT
ATOM      1  C   UNL     1      -8.197  12.128  16.779  0.00  0.00    +0.141 C 
ENDROOT
BRANCH   1   4
ATOM      2  C   UNL     1      -8.162  11.819  19.230  0.00  0.00    +0.401 C 
ATOM      3  O   UNL     1      -8.244  13.024  19.478  0.00  0.00    -0.226 OA
ATOM      4  N   UNL     1      -8.128  11.312  17.997  0.00  0.00    -0.279 N 
ATOM      5  H   UNL     1      -8.051  10.309  17.896  0.00  0.00    +0.152 HD
BRANCH   2   6
ATOM      6  O   UNL     1      -8.095  10.890  20.315  0.00  0.00    -0.444 OA
BRANCH   6   7
ATOM      7  C   UNL     1      -6.871  10.153  20.238  0.00  0.00    +0.292 C 
BRANCH   7   9
ATOM      8  N   UNL     1      -4.730  11.336  19.797  0.00  0.00    -0.131 NA
ATOM      9  C   UNL     1      -5.739  10.998  20.659  0.00  0.00    +0.120 A 
ATOM     10  C   UNL     1      -5.504  11.595  21.876  0.00  0.00    +0.138 A 
ATOM     11  N   UNL     1      -4.427  12.408  21.651  0.00  0.00    -0.240 N 
ATOM     12  N   UNL     1      -3.919  12.183  20.417  0.00  0.00    -0.064 NA
BRANCH  11  13
ATOM     13  C   UNL     1      -3.838  13.443  22.520  0.00  0.00    +0.169 C 
BRANCH  13  14
ATOM     14  C   UNL     1      -4.487  14.804  22.229  0.00  0.00    -0.019 A 
ATOM     15  C   UNL     1      -5.862  14.884  21.947  0.00  0.00    +0.006 A 
ATOM     16  C   UNL     1      -6.451  16.110  21.624  0.00  0.00    +0.000 A 
ATOM     17  C   UNL     1      -5.684  17.273  21.591  0.00  0.00    +0.000 A 
ATOM     18  C   UNL     1      -4.322  17.214  21.864  0.00  0.00    +0.000 A 
ATOM     19  C   UNL     1      -3.728  15.989  22.169  0.00  0.00    +0.006 A 
ENDBRANCH  13  14
BRANCH  13  20
ATOM     20  C   UNL     1      -3.823  13.037  24.000  0.00  0.00    -0.019 A 
ATOM     21  C   UNL     1      -4.900  13.344  24.851  0.00  0.00    +0.006 A 
ATOM     22  C   UNL     1      -4.880  12.974  26.198  0.00  0.00    +0.000 A 
ATOM     23  C   UNL     1      -3.797  12.270  26.715  0.00  0.00    +0.000 A 
ATOM     24  C   UNL     1      -2.747  11.908  25.881  0.00  0.00    +0.000 A 
ATOM     25  C   UNL     1      -2.769  12.270  24.536  0.00  0.00    +0.006 A 
ENDBRANCH  13  20
ENDBRANCH  11  13
ENDBRANCH   7   9
ENDBRANCH   6   7
ENDBRANCH   2   6
ENDBRANCH   1   4
BRANCH   1  26
ATOM     26  C   UNL     1      -7.264  11.606  15.691  0.00  0.00    +0.163 C 
BRANCH  26  27
ATOM     27  O   UNL     1      -7.836  11.848  14.395  0.00  0.00    -0.388 OA
ATOM     28  H   UNL     1      -7.293  12.481  13.919  0.00  0.00    +0.210 HD
ENDBRANCH  26  27
BRANCH  26  29
ATOM     29  C   UNL     1      -5.891  12.288  15.823  0.00  0.00    +0.175 C 
BRANCH  29  30
ATOM     30  C   UNL     1      -4.846  11.669  14.882  0.00  0.00    +0.176 C 
ATOM     31  O   UNL     1      -5.148  12.108  13.529  0.00  0.00    -0.332 OA
ATOM     32  C   UNL     1      -4.187  11.698  12.501  0.00  0.00    +0.277 C 
ATOM     33  C   UNL     1      -3.993  10.161  12.522  0.00  0.00    +0.110 C 
ATOM     34  C   UNL     1      -3.702   9.644  13.947  0.00  0.00    +0.143 C 
ATOM     35  C   UNL     1      -4.761  10.132  14.935  0.00  0.00    +0.133 C 
BRANCH  35  36
ATOM     36  N   UNL     1      -4.425   9.706  16.303  0.00  0.00    -0.308 N 
ATOM     37  H   UNL     1      -3.640  10.151  16.756  0.00  0.00    +0.149 HD
ATOM     38  C   UNL     1      -5.091   8.769  16.984  0.00  0.00    +0.210 C 
ATOM     39  C   UNL     1      -6.267   8.092  16.256  0.00  0.00    +0.109 C 
ATOM     40  O   UNL     1      -4.796   8.443  18.134  0.00  0.00    -0.276 OA
ENDBRANCH  35  36
BRANCH  32  41
ATOM     41  C   UNL     1      -2.826  12.392  12.716  0.00  0.00    +0.414 C 
ATOM     42  O   UNL     1      -2.775  13.518  13.208  0.00  0.00    -0.240 OA
ATOM     43  O   UNL     1      -1.779  11.825  12.399  0.00  0.00    -0.240 OA
ENDBRANCH  32  41
BRANCH  34  44
ATOM     44  O   UNL     1      -3.681   8.216  13.946  0.00  0.00    -0.390 OA
ATOM     45  H   UNL     1      -2.949   7.906  13.408  0.00  0.00    +0.210 HD
ENDBRANCH  34  44
BRANCH  32  46
ATOM     46  O   UNL     1      -4.726  12.072  11.207  0.00  0.00    -0.343 OA
ATOM     47  C   UNL     1      -4.491  11.114  10.144  0.00  0.00    +0.198 C 
ENDBRANCH  32  46
ENDBRANCH  29  30
BRANCH  29  48
ATOM     48  O   UNL     1      -5.432  12.221  17.187  0.00  0.00    -0.387 OA
ATOM     49  H   UNL     1      -6.173  12.358  17.782  0.00  0.00    +0.210 HD
ENDBRANCH  29  48
ENDBRANCH  26  29
ENDBRANCH   1  26
TORSDOF 16
