REMARK VINA RESULT:    -5.303      3.111     11.270
REMARK INTER + INTRA:         -13.111
REMARK INTER:                 -10.263
REMARK INTRA:                  -2.847
REMARK UNBOUND:                -3.157
REMARK  Name = lig_assembled_64.pdb
REMARK  19 active torsions:
REMARK  status: ('A' for Active; 'I' for Inactive)
REMARK    1  A    between atoms: _2  and  _10
REMARK    2  A    between atoms: _5  and  _27
REMARK    3  A    between atoms: _7  and  _8
REMARK    4  A    between atoms: _7  and  _27
REMARK    5  A    between atoms: _12  and  _13
REMARK    6  A    between atoms: _13  and  _21
REMARK    7  A    between atoms: _14  and  _15
REMARK    8  A    between atoms: _23  and  _43
REMARK    9  A    between atoms: _25  and  _31
REMARK   10  A    between atoms: _26  and  _30
REMARK   11  A    between atoms: _30  and  _31
REMARK   12  A    between atoms: _33  and  _34
REMARK   13  A    between atoms: _35  and  _36
REMARK   14  A    between atoms: _37  and  _39
REMARK   15  A    between atoms: _39  and  _40
REMARK   16  A    between atoms: _39  and  _41
REMARK   17  A    between atoms: _41  and  _42
REMARK   18  A    between atoms: _41  and  _43
REMARK   19  A    between atoms: _44  and  _46
REMARK                            x       y       z     vdW  Elec       q    Type
REMARK                         _______ _______ _______ _____ _____    ______ ____
ROOT
ATOM      1  C   UNL     1      -5.000  14.055  22.311  0.00  0.00    +0.401 C 
ATOM      2  O   UNL     1      -4.843  15.229  22.655  0.00  0.00    -0.226 OA
ATOM      3  N   UNL     1      -4.345  13.026  22.850  0.00  0.00    -0.279 N 
ATOM      4  H   UNL     1      -4.549  12.098  22.507  0.00  0.00    +0.152 HD
ENDROOT
BRANCH   3   5
ATOM      5  C   UNL     1      -3.343  13.166  23.914  0.00  0.00    +0.141 C 
BRANCH   5   6
ATOM      6  C   UNL     1      -2.871  11.811  24.432  0.00  0.00    +0.163 C 
BRANCH   6   7
ATOM      7  O   UNL     1      -2.975  11.769  25.865  0.00  0.00    -0.388 OA
ATOM      8  H   UNL     1      -3.418  10.959  26.130  0.00  0.00    +0.210 HD
ENDBRANCH   6   7
BRANCH   6   9
ATOM      9  C   UNL     1      -3.709  10.694  23.787  0.00  0.00    +0.175 C 
BRANCH   9  10
ATOM     10  C   UNL     1      -4.077   9.593  24.792  0.00  0.00    +0.176 C 
ATOM     11  O   UNL     1      -2.842   8.982  25.258  0.00  0.00    -0.332 OA
ATOM     12  C   UNL     1      -2.992   7.973  26.311  0.00  0.00    +0.277 C 
ATOM     13  C   UNL     1      -3.986   6.872  25.867  0.00  0.00    +0.110 C 
ATOM     14  C   UNL     1      -5.303   7.474  25.334  0.00  0.00    +0.143 C 
ATOM     15  C   UNL     1      -5.029   8.513  24.246  0.00  0.00    +0.133 C 
BRANCH  15  16
ATOM     16  N   UNL     1      -6.285   9.142  23.807  0.00  0.00    -0.308 N 
ATOM     17  H   UNL     1      -6.829   9.641  24.498  0.00  0.00    +0.149 HD
ATOM     18  C   UNL     1      -6.753   9.097  22.557  0.00  0.00    +0.210 C 
ATOM     19  C   UNL     1      -5.915   8.307  21.535  0.00  0.00    +0.109 C 
ATOM     20  O   UNL     1      -7.801   9.646  22.215  0.00  0.00    -0.276 OA
ENDBRANCH  15  16
BRANCH  12  21
ATOM     21  C   UNL     1      -3.489   8.619  27.621  0.00  0.00    +0.414 C 
ATOM     22  O   UNL     1      -3.121   9.751  27.933  0.00  0.00    -0.240 OA
ATOM     23  O   UNL     1      -4.258   8.009  28.365  0.00  0.00    -0.240 OA
ENDBRANCH  12  21
BRANCH  12  24
ATOM     24  O   UNL     1      -1.696   7.359  26.531  0.00  0.00    -0.343 OA
ATOM     25  C   UNL     1      -1.718   5.915  26.663  0.00  0.00    +0.198 C 
ENDBRANCH  12  24
BRANCH  14  26
ATOM     26  O   UNL     1      -6.125   6.437  24.798  0.00  0.00    -0.390 OA
ATOM     27  H   UNL     1      -6.892   6.312  25.362  0.00  0.00    +0.210 HD
ENDBRANCH  14  26
ENDBRANCH   9  10
BRANCH   9  28
ATOM     28  O   UNL     1      -3.001  10.127  22.666  0.00  0.00    -0.387 OA
ATOM     29  H   UNL     1      -3.257  10.584  21.861  0.00  0.00    +0.210 HD
ENDBRANCH   9  28
ENDBRANCH   6   9
ENDBRANCH   5   6
ENDBRANCH   3   5
BRANCH   1  30
ATOM     30  O   UNL     1      -5.939  13.755  21.275  0.00  0.00    -0.444 OA
BRANCH  30  31
ATOM     31  C   UNL     1      -5.850  12.369  20.936  0.00  0.00    +0.292 C 
BRANCH  31  33
ATOM     32  N   UNL     1      -6.805  12.215  18.652  0.00  0.00    -0.131 NA
ATOM     33  C   UNL     1      -5.717  12.200  19.477  0.00  0.00    +0.121 A 
ATOM     34  C   UNL     1      -4.584  12.012  18.721  0.00  0.00    +0.143 A 
ATOM     35  N   UNL     1      -5.034  11.907  17.426  0.00  0.00    -0.220 N 
ATOM     36  N   UNL     1      -6.381  12.039  17.406  0.00  0.00    -0.060 NA
BRANCH  35  37
ATOM     37  C   UNL     1      -4.278  11.701  16.246  0.00  0.00    +0.071 A 
ATOM     38  C   UNL     1      -3.775  10.440  15.946  0.00  0.00    +0.063 A 
ATOM     39  CA  UNL     1      -3.046  10.306  14.780  0.00  0.00    +0.150 A 
ATOM     40  N   UNL     1      -2.778  11.319  13.907  0.00  0.00    -0.240 NA
ATOM     41  C   UNL     1      -3.262  12.553  14.216  0.00  0.00    +0.074 A 
ATOM     42  C   UNL     1      -4.023  12.768  15.369  0.00  0.00    +0.056 A 
BRANCH  41  43
ATOM     43  C   UNL     1      -2.905  13.636  13.268  0.00  0.00    +0.000 A 
ATOM     44  C   UNL     1      -3.560  14.882  13.276  0.00  0.00    +0.010 A 
ATOM     45  C   UNL     1      -3.189  15.911  12.401  0.00  0.00    +0.001 A 
ATOM     46  C   UNL     1      -2.150  15.719  11.496  0.00  0.00    +0.000 A 
ATOM     47  C   UNL     1      -1.489  14.496  11.460  0.00  0.00    +0.001 A 
ATOM     48  C   UNL     1      -1.863  13.469  12.335  0.00  0.00    +0.010 A 
ENDBRANCH  41  43
BRANCH  39  49
ATOM     49  C   UNL     1      -2.487   8.972  14.419  0.00  0.00    +0.355 C 
ATOM     50  OXT UNL     1      -1.355   8.786  14.008  0.00  0.00    -0.243 OA
BRANCH  49  51
ATOM     51  O   UNL     1      -3.408   8.000  14.607  0.00  0.00    -0.476 OA
ATOM     52  H   UNL     1      -3.235   7.266  13.972  0.00  0.00    +0.295 HD
ENDBRANCH  49  51
ENDBRANCH  39  49
ENDBRANCH  35  37
ENDBRANCH  31  33
ENDBRANCH  30  31
ENDBRANCH   1  30
TORSDOF 17
