REMARK VINA RESULT:    -5.253      0.000      0.000
REMARK INTER + INTRA:         -12.417
REMARK INTER:                 -10.224
REMARK INTRA:                  -2.192
REMARK UNBOUND:                -2.711
REMARK  Name = lig_assembled_36.pdb
REMARK  18 active torsions:
REMARK  status: ('A' for Active; 'I' for Inactive)
REMARK    1  A    between atoms: _2  and  _10
REMARK    2  A    between atoms: _5  and  _21
REMARK    3  A    between atoms: _7  and  _8
REMARK    4  A    between atoms: _7  and  _21
REMARK    5  A    between atoms: _10  and  _11
REMARK    6  A    between atoms: _14  and  _15
REMARK    7  A    between atoms: _17  and  _37
REMARK    8  A    between atoms: _19  and  _25
REMARK    9  A    between atoms: _20  and  _24
REMARK   10  A    between atoms: _24  and  _25
REMARK   11  A    between atoms: _27  and  _28
REMARK   12  A    between atoms: _29  and  _30
REMARK   13  A    between atoms: _31  and  _33
REMARK   14  A    between atoms: _33  and  _34
REMARK   15  A    between atoms: _33  and  _35
REMARK   16  A    between atoms: _35  and  _36
REMARK   17  A    between atoms: _35  and  _37
REMARK   18  A    between atoms: _38  and  _40
REMARK                            x       y       z     vdW  Elec       q    Type
REMARK                         _______ _______ _______ _____ _____    ______ ____
ROOT
ATOM      1  C   UNL     1      -3.055  11.558  25.363  0.00  0.00    +0.163 C 
ENDROOT
BRANCH   1   2
ATOM      2  O   UNL     1      -1.928  10.666  25.359  0.00  0.00    -0.388 OA
ATOM      3  H   UNL     1      -1.588  10.575  26.253  0.00  0.00    +0.210 HD
ENDBRANCH   1   2
BRANCH   1   4
ATOM      4  C   UNL     1      -3.460  11.926  26.801  0.00  0.00    +0.175 C 
BRANCH   4   5
ATOM      5  C   UNL     1      -3.242  10.762  27.779  0.00  0.00    +0.176 C 
ATOM      6  O   UNL     1      -3.831   9.569  27.192  0.00  0.00    -0.332 OA
ATOM      7  C   UNL     1      -3.626   8.326  27.943  0.00  0.00    +0.277 C 
ATOM      8  C   UNL     1      -4.116   8.488  29.402  0.00  0.00    +0.110 C 
ATOM      9  C   UNL     1      -3.541   9.761  30.058  0.00  0.00    +0.143 C 
ATOM     10  C   UNL     1      -3.808  10.993  29.192  0.00  0.00    +0.133 C 
BRANCH  10  11
ATOM     11  N   UNL     1      -3.180  12.185  29.784  0.00  0.00    -0.308 N 
ATOM     12  H   UNL     1      -2.171  12.209  29.839  0.00  0.00    +0.149 HD
ATOM     13  C   UNL     1      -3.856  13.236  30.255  0.00  0.00    +0.210 C 
ATOM     14  C   UNL     1      -5.392  13.158  30.182  0.00  0.00    +0.109 C 
ATOM     15  O   UNL     1      -3.302  14.228  30.732  0.00  0.00    -0.276 OA
ENDBRANCH  10  11
BRANCH   7  16
ATOM     16  C   UNL     1      -2.137   7.925  27.940  0.00  0.00    +0.414 C 
ATOM     17  O   UNL     1      -1.644   7.362  28.917  0.00  0.00    -0.240 OA
ATOM     18  O   UNL     1      -1.427   8.164  26.962  0.00  0.00    -0.240 OA
ENDBRANCH   7  16
BRANCH   7  19
ATOM     19  O   UNL     1      -4.413   7.285  27.309  0.00  0.00    -0.343 OA
ATOM     20  C   UNL     1      -5.009   6.327  28.221  0.00  0.00    +0.198 C 
ENDBRANCH   7  19
BRANCH   9  21
ATOM     21  O   UNL     1      -4.134   9.951  31.343  0.00  0.00    -0.390 OA
ATOM     22  H   UNL     1      -3.884   9.228  31.922  0.00  0.00    +0.210 HD
ENDBRANCH   9  21
ENDBRANCH   4   5
BRANCH   4  23
ATOM     23  O   UNL     1      -4.836  12.352  26.836  0.00  0.00    -0.387 OA
ATOM     24  H   UNL     1      -4.880  13.273  27.104  0.00  0.00    +0.210 HD
ENDBRANCH   4  23
ENDBRANCH   1   4
BRANCH   1  25
ATOM     25  C   UNL     1      -2.718  12.827  24.588  0.00  0.00    +0.141 C 
BRANCH  25  28
ATOM     26  C   UNL     1      -4.587  13.144  23.003  0.00  0.00    +0.401 C 
ATOM     27  O   UNL     1      -5.397  13.464  23.876  0.00  0.00    -0.226 OA
ATOM     28  N   UNL     1      -3.315  12.824  23.247  0.00  0.00    -0.279 N 
ATOM     29  H   UNL     1      -2.730  12.566  22.465  0.00  0.00    +0.152 HD
BRANCH  26  30
ATOM     30  O   UNL     1      -5.015  13.102  21.639  0.00  0.00    -0.444 OA
BRANCH  30  31
ATOM     31  C   UNL     1      -3.915  12.730  20.804  0.00  0.00    +0.292 C 
BRANCH  31  33
ATOM     32  N   UNL     1      -4.385  10.382  20.170  0.00  0.00    -0.131 NA
ATOM     33  C   UNL     1      -4.337  11.708  19.828  0.00  0.00    +0.120 A 
ATOM     34  C   UNL     1      -4.750  11.852  18.523  0.00  0.00    +0.137 A 
ATOM     35  N   UNL     1      -5.125  10.592  18.160  0.00  0.00    -0.247 N 
ATOM     36  N   UNL     1      -4.853   9.703  19.133  0.00  0.00    -0.065 NA
BRANCH  35  37
ATOM     37  C   UNL     1      -5.758  10.169  16.927  0.00  0.00    +0.180 C 
BRANCH  37  38
ATOM     38  C   UNL     1      -4.762   9.516  15.996  0.00  0.00    -0.026 A 
ATOM     39  C   UNL     1      -5.011   8.247  15.451  0.00  0.00    +0.007 A 
ATOM     40  C   UNL     1      -4.086   7.652  14.587  0.00  0.00    +0.019 A 
ATOM     41  C   UNL     1      -2.899   8.315  14.260  0.00  0.00    +0.052 A 
ATOM     42  C   UNL     1      -2.633   9.568  14.817  0.00  0.00    +0.019 A 
ATOM     43  C   UNL     1      -3.556  10.162  15.683  0.00  0.00    +0.007 A 
BRANCH  41  44
ATOM     44  C   UNL     1      -1.961   7.711  13.356  0.00  0.00    +0.099 C 
ATOM     45  N   UNL     1      -1.204   7.214  12.632  0.00  0.00    -0.191 NA
ENDBRANCH  41  44
ENDBRANCH  37  38
ENDBRANCH  35  37
ENDBRANCH  31  33
ENDBRANCH  30  31
ENDBRANCH  26  30
ENDBRANCH  25  28
ENDBRANCH   1  25
TORSDOF 16
