REMARK VINA RESULT:    -5.386      7.763     11.760
REMARK INTER + INTRA:         -13.266
REMARK INTER:                 -10.110
REMARK INTRA:                  -3.157
REMARK UNBOUND:                -3.157
REMARK  Name = lig_assembled_64.pdb
REMARK  19 active torsions:
REMARK  status: ('A' for Active; 'I' for Inactive)
REMARK    1  A    between atoms: _2  and  _10
REMARK    2  A    between atoms: _5  and  _27
REMARK    3  A    between atoms: _7  and  _8
REMARK    4  A    between atoms: _7  and  _27
REMARK    5  A    between atoms: _12  and  _13
REMARK    6  A    between atoms: _13  and  _21
REMARK    7  A    between atoms: _14  and  _15
REMARK    8  A    between atoms: _23  and  _43
REMARK    9  A    between atoms: _25  and  _31
REMARK   10  A    between atoms: _26  and  _30
REMARK   11  A    between atoms: _30  and  _31
REMARK   12  A    between atoms: _33  and  _34
REMARK   13  A    between atoms: _35  and  _36
REMARK   14  A    between atoms: _37  and  _39
REMARK   15  A    between atoms: _39  and  _40
REMARK   16  A    between atoms: _39  and  _41
REMARK   17  A    between atoms: _41  and  _42
REMARK   18  A    between atoms: _41  and  _43
REMARK   19  A    between atoms: _44  and  _46
REMARK                            x       y       z     vdW  Elec       q    Type
REMARK                         _______ _______ _______ _____ _____    ______ ____
ROOT
ATOM      1  C   UNL     1      -2.672   9.329  28.486  0.00  0.00    +0.401 C 
ATOM      2  O   UNL     1      -3.801   8.925  28.200  0.00  0.00    -0.226 OA
ATOM      3  N   UNL     1      -1.884   9.999  27.644  0.00  0.00    -0.279 N 
ATOM      4  H   UNL     1      -0.977  10.297  27.974  0.00  0.00    +0.152 HD
ENDROOT
BRANCH   3   5
ATOM      5  C   UNL     1      -2.262  10.329  26.264  0.00  0.00    +0.141 C 
BRANCH   5   6
ATOM      6  C   UNL     1      -2.633  11.800  26.112  0.00  0.00    +0.163 C 
BRANCH   6   7
ATOM      7  O   UNL     1      -2.016  12.343  24.933  0.00  0.00    -0.388 OA
ATOM      8  H   UNL     1      -2.370  11.905  24.155  0.00  0.00    +0.210 HD
ENDBRANCH   6   7
BRANCH   6   9
ATOM      9  C   UNL     1      -4.163  11.940  26.046  0.00  0.00    +0.175 C 
BRANCH   9  10
ATOM     10  C   UNL     1      -4.797  10.920  25.089  0.00  0.00    +0.176 C 
ATOM     11  O   UNL     1      -4.762  11.483  23.748  0.00  0.00    -0.332 OA
ATOM     12  C   UNL     1      -5.233  10.600  22.677  0.00  0.00    +0.277 C 
ATOM     13  C   UNL     1      -6.658  10.080  22.991  0.00  0.00    +0.110 C 
ATOM     14  C   UNL     1      -6.751   9.501  24.418  0.00  0.00    +0.143 C 
ATOM     15  C   UNL     1      -6.233  10.501  25.452  0.00  0.00    +0.133 C 
BRANCH  15  16
ATOM     16  N   UNL     1      -6.247   9.905  26.797  0.00  0.00    -0.308 N 
ATOM     17  H   UNL     1      -5.734   9.046  26.937  0.00  0.00    +0.149 HD
ATOM     18  C   UNL     1      -6.891  10.426  27.844  0.00  0.00    +0.210 C 
ATOM     19  C   UNL     1      -7.684  11.722  27.592  0.00  0.00    +0.109 C 
ATOM     20  O   UNL     1      -6.873   9.913  28.964  0.00  0.00    -0.276 OA
ENDBRANCH  15  16
BRANCH  12  21
ATOM     21  C   UNL     1      -4.276   9.403  22.496  0.00  0.00    +0.414 C 
ATOM     22  O   UNL     1      -3.067   9.590  22.364  0.00  0.00    -0.240 OA
ATOM     23  O   UNL     1      -4.713   8.251  22.482  0.00  0.00    -0.240 OA
ENDBRANCH  12  21
BRANCH  12  24
ATOM     24  O   UNL     1      -5.287  11.372  21.450  0.00  0.00    -0.343 OA
ATOM     25  C   UNL     1      -4.623  12.659  21.507  0.00  0.00    +0.198 C 
ENDBRANCH  12  24
BRANCH  14  26
ATOM     26  O   UNL     1      -8.109   9.175  24.717  0.00  0.00    -0.390 OA
ATOM     27  H   UNL     1      -8.274   8.255  24.498  0.00  0.00    +0.210 HD
ENDBRANCH  14  26
ENDBRANCH   9  10
BRANCH   9  28
ATOM     28  O   UNL     1      -4.523  13.280  25.653  0.00  0.00    -0.387 OA
ATOM     29  H   UNL     1      -3.730  13.771  25.426  0.00  0.00    +0.210 HD
ENDBRANCH   9  28
ENDBRANCH   6   9
ENDBRANCH   5   6
ENDBRANCH   3   5
BRANCH   1  30
ATOM     30  O   UNL     1      -2.155   9.078  29.795  0.00  0.00    -0.444 OA
BRANCH  30  31
ATOM     31  C   UNL     1      -3.147   9.406  30.771  0.00  0.00    +0.292 C 
BRANCH  31  33
ATOM     32  N   UNL     1      -2.017  11.155  32.120  0.00  0.00    -0.131 NA
ATOM     33  C   UNL     1      -2.985  10.800  31.226  0.00  0.00    +0.121 A 
ATOM     34  C   UNL     1      -3.704  11.919  30.876  0.00  0.00    +0.143 A 
ATOM     35  N   UNL     1      -3.138  12.945  31.596  0.00  0.00    -0.220 N 
ATOM     36  N   UNL     1      -2.114  12.461  32.339  0.00  0.00    -0.060 NA
BRANCH  35  37
ATOM     37  C   UNL     1      -3.501  14.313  31.613  0.00  0.00    +0.071 A 
ATOM     38  C   UNL     1      -3.137  15.123  32.683  0.00  0.00    +0.063 A 
ATOM     39  CA  UNL     1      -3.523  16.449  32.639  0.00  0.00    +0.150 A 
ATOM     40  N   UNL     1      -4.239  17.019  31.628  0.00  0.00    -0.240 NA
ATOM     41  C   UNL     1      -4.603  16.216  30.591  0.00  0.00    +0.074 A 
ATOM     42  C   UNL     1      -4.237  14.867  30.553  0.00  0.00    +0.056 A 
BRANCH  41  43
ATOM     43  C   UNL     1      -5.424  16.862  29.539  0.00  0.00    +0.000 A 
ATOM     44  C   UNL     1      -5.275  18.221  29.203  0.00  0.00    +0.010 A 
ATOM     45  C   UNL     1      -6.030  18.810  28.181  0.00  0.00    +0.001 A 
ATOM     46  C   UNL     1      -6.954  18.053  27.468  0.00  0.00    +0.000 A 
ATOM     47  C   UNL     1      -7.130  16.710  27.783  0.00  0.00    +0.001 A 
ATOM     48  C   UNL     1      -6.374  16.124  28.805  0.00  0.00    +0.010 A 
ENDBRANCH  41  43
BRANCH  39  49
ATOM     49  C   UNL     1      -3.155  17.354  33.765  0.00  0.00    +0.355 C 
ATOM     50  OXT UNL     1      -3.944  18.054  34.374  0.00  0.00    -0.243 OA
BRANCH  49  51
ATOM     51  O   UNL     1      -1.827  17.293  34.015  0.00  0.00    -0.476 OA
ATOM     52  H   UNL     1      -1.650  17.676  34.905  0.00  0.00    +0.295 HD
ENDBRANCH  49  51
ENDBRANCH  39  49
ENDBRANCH  35  37
ENDBRANCH  31  33
ENDBRANCH  30  31
ENDBRANCH   1  30
TORSDOF 17
