REMARK VINA RESULT:    -5.252      3.120      5.067
REMARK INTER + INTRA:         -11.505
REMARK INTER:                  -9.559
REMARK INTRA:                  -1.946
REMARK UNBOUND:                -1.954
REMARK  Name = lig_assembled_60.pdb
REMARK  18 active torsions:
REMARK  status: ('A' for Active; 'I' for Inactive)
REMARK    1  A    between atoms: _2  and  _10
REMARK    2  A    between atoms: _3  and  _41
REMARK    3  A    between atoms: _5  and  _21
REMARK    4  A    between atoms: _7  and  _8
REMARK    5  A    between atoms: _7  and  _21
REMARK    6  A    between atoms: _13  and  _41
REMARK    7  A    between atoms: _17  and  _37
REMARK    8  A    between atoms: _19  and  _25
REMARK    9  A    between atoms: _20  and  _24
REMARK   10  A    between atoms: _24  and  _25
REMARK   11  A    between atoms: _27  and  _28
REMARK   12  A    between atoms: _29  and  _30
REMARK   13  A    between atoms: _31  and  _33
REMARK   14  A    between atoms: _33  and  _34
REMARK   15  A    between atoms: _33  and  _35
REMARK   16  A    between atoms: _35  and  _36
REMARK   17  A    between atoms: _35  and  _37
REMARK   18  A    between atoms: _38  and  _40
REMARK                            x       y       z     vdW  Elec       q    Type
REMARK                         _______ _______ _______ _____ _____    ______ ____
ROOT
ATOM      1  C   UNL     1      -2.898  12.092  12.474  0.00  0.00    +0.141 C 
ENDROOT
BRANCH   1   4
ATOM      2  C   UNL     1      -4.543  11.802  14.295  0.00  0.00    +0.401 C 
ATOM      3  O   UNL     1      -4.213  10.639  14.535  0.00  0.00    -0.226 OA
ATOM      4  N   UNL     1      -3.986  12.554  13.344  0.00  0.00    -0.279 N 
ATOM      5  H   UNL     1      -4.331  13.495  13.216  0.00  0.00    +0.152 HD
BRANCH   2   6
ATOM      6  O   UNL     1      -5.587  12.402  15.066  0.00  0.00    -0.444 OA
BRANCH   6   7
ATOM      7  C   UNL     1      -6.253  11.395  15.833  0.00  0.00    +0.292 C 
BRANCH   7   9
ATOM      8  N   UNL     1      -7.300  12.244  17.910  0.00  0.00    -0.131 NA
ATOM      9  C   UNL     1      -6.210  11.731  17.268  0.00  0.00    +0.121 A 
ATOM     10  C   UNL     1      -5.179  11.598  18.170  0.00  0.00    +0.143 A 
ATOM     11  N   UNL     1      -5.703  12.014  19.373  0.00  0.00    -0.220 N 
ATOM     12  N   UNL     1      -6.982  12.422  19.185  0.00  0.00    -0.060 NA
BRANCH  11  13
ATOM     13  C   UNL     1      -5.093  12.006  20.654  0.00  0.00    +0.067 A 
ATOM     14  C   UNL     1      -3.795  11.501  20.824  0.00  0.00    +0.030 A 
ATOM     15  C   UNL     1      -3.231  11.433  22.100  0.00  0.00    +0.030 A 
ATOM     16  C   UNL     1      -3.957  11.884  23.205  0.00  0.00    +0.105 A 
ATOM     17  C   UNL     1      -5.245  12.404  23.045  0.00  0.00    +0.030 A 
ATOM     18  C   UNL     1      -5.810  12.471  21.769  0.00  0.00    +0.030 A 
BRANCH  16  19
ATOM     19  S   UNL     1      -3.263  11.720  24.823  0.00  0.00    +0.056 S 
ATOM     20  O   UNL     1      -2.049  12.498  24.902  0.00  0.00    -0.153 OA
ATOM     21  O   UNL     1      -4.319  11.826  25.803  0.00  0.00    -0.153 OA
BRANCH  19  22
ATOM     22  N   UNL     1      -2.786  10.112  24.827  0.00  0.00    -0.204 NA
ATOM     23  H   UNL     1      -3.044   9.677  25.712  0.00  0.00    +0.144 HD
ATOM     24  H   UNL     1      -1.790  10.047  24.611  0.00  0.00    +0.144 HD
ENDBRANCH  19  22
ENDBRANCH  16  19
ENDBRANCH  11  13
ENDBRANCH   7   9
ENDBRANCH   6   7
ENDBRANCH   2   6
ENDBRANCH   1   4
BRANCH   1  25
ATOM     25  C   UNL     1      -1.709  13.047  12.493  0.00  0.00    +0.163 C 
BRANCH  25  26
ATOM     26  O   UNL     1      -0.684  12.574  11.603  0.00  0.00    -0.388 OA
ATOM     27  H   UNL     1       0.163  12.944  11.864  0.00  0.00    +0.210 HD
ENDBRANCH  25  26
BRANCH  25  28
ATOM     28  C   UNL     1      -2.176  14.457  12.093  0.00  0.00    +0.175 C 
BRANCH  28  29
ATOM     29  C   UNL     1      -1.135  15.189  11.235  0.00  0.00    +0.176 C 
ATOM     30  O   UNL     1       0.006  15.497  12.082  0.00  0.00    -0.332 OA
ATOM     31  C   UNL     1       1.153  16.109  11.403  0.00  0.00    +0.277 C 
ATOM     32  C   UNL     1       0.713  17.379  10.635  0.00  0.00    +0.110 C 
ATOM     33  C   UNL     1      -0.517  17.109   9.744  0.00  0.00    +0.143 C 
ATOM     34  C   UNL     1      -1.649  16.470  10.551  0.00  0.00    +0.133 C 
BRANCH  34  35
ATOM     35  N   UNL     1      -2.783  16.137   9.674  0.00  0.00    -0.308 N 
ATOM     36  H   UNL     1      -2.618  15.492   8.914  0.00  0.00    +0.149 HD
ATOM     37  C   UNL     1      -4.015  16.632   9.817  0.00  0.00    +0.210 C 
ATOM     38  C   UNL     1      -4.227  17.633  10.968  0.00  0.00    +0.109 C 
ATOM     39  O   UNL     1      -4.949  16.325   9.076  0.00  0.00    -0.276 OA
ENDBRANCH  34  35
BRANCH  31  40
ATOM     40  C   UNL     1       1.803  15.111  10.421  0.00  0.00    +0.414 C 
ATOM     41  O   UNL     1       1.408  13.947  10.368  0.00  0.00    -0.240 OA
ATOM     42  O   UNL     1       2.720  15.471   9.683  0.00  0.00    -0.240 OA
ENDBRANCH  31  40
BRANCH  33  43
ATOM     43  O   UNL     1      -0.979  18.334   9.175  0.00  0.00    -0.390 OA
ATOM     44  H   UNL     1      -0.766  19.062   9.764  0.00  0.00    +0.210 HD
ENDBRANCH  33  43
BRANCH  31  45
ATOM     45  O   UNL     1       2.118  16.497  12.415  0.00  0.00    -0.343 OA
ATOM     46  C   UNL     1       2.626  17.849  12.290  0.00  0.00    +0.198 C 
ENDBRANCH  31  45
ENDBRANCH  28  29
BRANCH  28  47
ATOM     47  O   UNL     1      -2.482  15.231  13.270  0.00  0.00    -0.387 OA
ATOM     48  H   UNL     1      -1.813  15.073  13.941  0.00  0.00    +0.210 HD
ENDBRANCH  28  47
ENDBRANCH  25  28
ENDBRANCH   1  25
TORSDOF 16
