REMARK VINA RESULT:    -5.090      4.911     11.265
REMARK INTER + INTRA:         -12.115
REMARK INTER:                  -9.335
REMARK INTRA:                  -2.780
REMARK UNBOUND:                -2.711
REMARK  Name = lig_assembled_36.pdb
REMARK  18 active torsions:
REMARK  status: ('A' for Active; 'I' for Inactive)
REMARK    1  A    between atoms: _2  and  _10
REMARK    2  A    between atoms: _5  and  _21
REMARK    3  A    between atoms: _7  and  _8
REMARK    4  A    between atoms: _7  and  _21
REMARK    5  A    between atoms: _10  and  _11
REMARK    6  A    between atoms: _14  and  _15
REMARK    7  A    between atoms: _17  and  _37
REMARK    8  A    between atoms: _19  and  _25
REMARK    9  A    between atoms: _20  and  _24
REMARK   10  A    between atoms: _24  and  _25
REMARK   11  A    between atoms: _27  and  _28
REMARK   12  A    between atoms: _29  and  _30
REMARK   13  A    between atoms: _31  and  _33
REMARK   14  A    between atoms: _33  and  _34
REMARK   15  A    between atoms: _33  and  _35
REMARK   16  A    between atoms: _35  and  _36
REMARK   17  A    between atoms: _35  and  _37
REMARK   18  A    between atoms: _38  and  _40
REMARK                            x       y       z     vdW  Elec       q    Type
REMARK                         _______ _______ _______ _____ _____    ______ ____
ROOT
ATOM      1  C   UNL     1      -2.402   9.808  27.063  0.00  0.00    +0.163 C 
ENDROOT
BRANCH   1   2
ATOM      2  O   UNL     1      -1.200  10.026  26.305  0.00  0.00    -0.388 OA
ATOM      3  H   UNL     1      -1.095  10.964  26.132  0.00  0.00    +0.210 HD
ENDBRANCH   1   2
BRANCH   1   4
ATOM      4  C   UNL     1      -3.330   8.811  26.348  0.00  0.00    +0.175 C 
BRANCH   4   5
ATOM      5  C   UNL     1      -4.152   9.481  25.238  0.00  0.00    +0.176 C 
ATOM      6  O   UNL     1      -3.253   9.783  24.135  0.00  0.00    -0.332 OA
ATOM      7  C   UNL     1      -3.886  10.335  22.934  0.00  0.00    +0.277 C 
ATOM      8  C   UNL     1      -4.719  11.591  23.289  0.00  0.00    +0.110 C 
ATOM      9  C   UNL     1      -5.668  11.328  24.477  0.00  0.00    +0.143 C 
ATOM     10  C   UNL     1      -4.905  10.753  25.671  0.00  0.00    +0.133 C 
BRANCH  10  11
ATOM     11  N   UNL     1      -5.833  10.426  26.766  0.00  0.00    -0.308 N 
ATOM     12  H   UNL     1      -6.454   9.640  26.638  0.00  0.00    +0.149 HD
ATOM     13  C   UNL     1      -5.907  11.100  27.916  0.00  0.00    +0.210 C 
ATOM     14  C   UNL     1      -4.965  12.309  28.069  0.00  0.00    +0.109 C 
ATOM     15  O   UNL     1      -6.684  10.794  28.822  0.00  0.00    -0.276 OA
ENDBRANCH  10  11
BRANCH   7  16
ATOM     16  C   UNL     1      -4.797   9.285  22.265  0.00  0.00    +0.414 C 
ATOM     17  O   UNL     1      -4.460   8.102  22.230  0.00  0.00    -0.240 OA
ATOM     18  O   UNL     1      -5.870   9.620  21.759  0.00  0.00    -0.240 OA
ENDBRANCH   7  16
BRANCH   7  19
ATOM     19  O   UNL     1      -2.836  10.727  22.013  0.00  0.00    -0.343 OA
ATOM     20  C   UNL     1      -3.103  11.936  21.258  0.00  0.00    +0.198 C 
ENDBRANCH   7  19
BRANCH   9  21
ATOM     21  O   UNL     1      -6.301  12.548  24.866  0.00  0.00    -0.390 OA
ATOM     22  H   UNL     1      -7.098  12.675  24.347  0.00  0.00    +0.210 HD
ENDBRANCH   9  21
ENDBRANCH   4   5
BRANCH   4  23
ATOM     23  O   UNL     1      -4.206   8.177  27.302  0.00  0.00    -0.387 OA
ATOM     24  H   UNL     1      -4.612   8.847  27.857  0.00  0.00    +0.210 HD
ENDBRANCH   4  23
ENDBRANCH   1   4
BRANCH   1  25
ATOM     25  C   UNL     1      -2.055   9.278  28.450  0.00  0.00    +0.141 C 
BRANCH  25  28
ATOM     26  C   UNL     1      -3.675   9.337  30.316  0.00  0.00    +0.401 C 
ATOM     27  O   UNL     1      -3.923   8.130  30.262  0.00  0.00    -0.226 OA
ATOM     28  N   UNL     1      -2.819   9.958  29.503  0.00  0.00    -0.279 N 
ATOM     29  H   UNL     1      -2.689  10.954  29.618  0.00  0.00    +0.152 HD
BRANCH  26  30
ATOM     30  O   UNL     1      -4.335  10.139  31.298  0.00  0.00    -0.444 OA
BRANCH  30  31
ATOM     31  C   UNL     1      -3.521  10.225  32.471  0.00  0.00    +0.292 C 
BRANCH  31  33
ATOM     32  N   UNL     1      -1.921  12.075  32.079  0.00  0.00    -0.131 NA
ATOM     33  C   UNL     1      -3.064  11.612  32.675  0.00  0.00    +0.120 A 
ATOM     34  C   UNL     1      -3.637  12.630  33.404  0.00  0.00    +0.137 A 
ATOM     35  N   UNL     1      -2.846  13.708  33.132  0.00  0.00    -0.247 N 
ATOM     36  N   UNL     1      -1.786  13.359  32.382  0.00  0.00    -0.065 NA
BRANCH  35  37
ATOM     37  C   UNL     1      -3.047  15.086  33.534  0.00  0.00    +0.180 C 
BRANCH  37  38
ATOM     38  C   UNL     1      -3.721  15.884  32.440  0.00  0.00    -0.026 A 
ATOM     39  C   UNL     1      -4.325  15.242  31.349  0.00  0.00    +0.007 A 
ATOM     40  C   UNL     1      -4.951  15.987  30.345  0.00  0.00    +0.019 A 
ATOM     41  C   UNL     1      -4.976  17.384  30.415  0.00  0.00    +0.052 A 
ATOM     42  C   UNL     1      -4.355  18.032  31.486  0.00  0.00    +0.019 A 
ATOM     43  C   UNL     1      -3.728  17.287  32.490  0.00  0.00    +0.007 A 
BRANCH  41  44
ATOM     44  C   UNL     1      -5.637  18.146  29.394  0.00  0.00    +0.099 C 
ATOM     45  N   UNL     1      -6.169  18.772  28.575  0.00  0.00    -0.191 NA
ENDBRANCH  41  44
ENDBRANCH  37  38
ENDBRANCH  35  37
ENDBRANCH  31  33
ENDBRANCH  30  31
ENDBRANCH  26  30
ENDBRANCH  25  28
ENDBRANCH   1  25
TORSDOF 16
