REMARK VINA RESULT:    -4.713      9.220     13.145
REMARK INTER + INTRA:         -10.216
REMARK INTER:                  -7.490
REMARK INTRA:                  -2.726
REMARK UNBOUND:                -2.334
REMARK  Name = lig_assembled_65.pdb
REMARK  16 active torsions:
REMARK  status: ('A' for Active; 'I' for Inactive)
REMARK    1  A    between atoms: _8  and  _20
REMARK    2  A    between atoms: _9  and  _15
REMARK    3  A    between atoms: _10  and  _11
REMARK    4  A    between atoms: _10  and  _20
REMARK    5  A    between atoms: _16  and  _36
REMARK    6  A    between atoms: _18  and  _24
REMARK    7  A    between atoms: _19  and  _23
REMARK    8  A    between atoms: _23  and  _24
REMARK    9  A    between atoms: _26  and  _27
REMARK   10  A    between atoms: _28  and  _29
REMARK   11  A    between atoms: _30  and  _32
REMARK   12  A    between atoms: _32  and  _33
REMARK   13  A    between atoms: _32  and  _34
REMARK   14  A    between atoms: _34  and  _35
REMARK   15  A    between atoms: _34  and  _36
REMARK   16  A    between atoms: _37  and  _39
REMARK                            x       y       z     vdW  Elec       q    Type
REMARK                         _______ _______ _______ _____ _____    ______ ____
ROOT
ATOM      1  C   UNL     1      -3.120   8.725  27.206  0.00  0.00    +0.163 C 
ENDROOT
BRANCH   1   2
ATOM      2  O   UNL     1      -1.988   8.359  26.400  0.00  0.00    -0.388 OA
ATOM      3  H   UNL     1      -1.297   8.000  26.962  0.00  0.00    +0.210 HD
ENDBRANCH   1   2
BRANCH   1   4
ATOM      4  C   UNL     1      -3.079   7.975  28.534  0.00  0.00    +0.141 C 
BRANCH   4   7
ATOM      5  C   UNL     1      -4.358   8.788  30.485  0.00  0.00    +0.401 C 
ATOM      6  O   UNL     1      -5.263   7.961  30.355  0.00  0.00    -0.226 OA
ATOM      7  N   UNL     1      -3.302   8.871  29.675  0.00  0.00    -0.279 N 
ATOM      8  H   UNL     1      -2.616   9.590  29.858  0.00  0.00    +0.152 HD
BRANCH   5   9
ATOM      9  O   UNL     1      -4.426   9.729  31.560  0.00  0.00    -0.444 OA
BRANCH   9  10
ATOM     10  C   UNL     1      -3.103  10.114  31.943  0.00  0.00    +0.292 C 
BRANCH  10  12
ATOM     11  N   UNL     1      -1.821  12.198  32.322  0.00  0.00    -0.131 NA
ATOM     12  C   UNL     1      -3.023  11.575  32.120  0.00  0.00    +0.121 A 
ATOM     13  C   UNL     1      -4.022  12.519  32.122  0.00  0.00    +0.149 A 
ATOM     14  N   UNL     1      -3.379  13.719  32.340  0.00  0.00    -0.155 N 
ATOM     15  C   UNL     1      -3.976  15.009  32.446  0.00  0.00    +0.416 C 
ATOM     16  N   UNL     1      -3.184  16.066  32.657  0.00  0.00    +0.041 NA
ATOM     17  C   UNL     1      -3.815  17.233  32.763  0.00  0.00    +0.339 C 
ATOM     18  C   UNL     1      -2.984  18.452  33.013  0.00  0.00    +0.149 C 
ATOM     19  N   UNL     1      -5.136  17.388  32.672  0.00  0.00    +0.007 NA
ATOM     20  C   UNL     1      -5.830  16.278  32.476  0.00  0.00    +0.386 C 
ATOM     21  N   UNL     1      -7.201  16.392  32.388  0.00  0.00    -0.296 N 
ATOM     22  H   UNL     1      -7.465  17.333  32.130  0.00  0.00    +0.148 HD
ATOM     23  H   UNL     1      -7.600  15.633  31.857  0.00  0.00    +0.148 HD
ATOM     24  N   UNL     1      -5.311  15.071  32.335  0.00  0.00    -0.290 NA
ATOM     25  N   UNL     1      -2.044  13.501  32.451  0.00  0.00    -0.055 NA
ENDBRANCH  10  12
ENDBRANCH   9  10
ENDBRANCH   5   9
ENDBRANCH   4   7
ENDBRANCH   1   4
BRANCH   1  26
ATOM     26  C   UNL     1      -4.438   8.411  26.479  0.00  0.00    +0.175 C 
BRANCH  26  27
ATOM     27  C   UNL     1      -4.818   9.506  25.472  0.00  0.00    +0.176 C 
ATOM     28  O   UNL     1      -3.956   9.364  24.310  0.00  0.00    -0.332 OA
ATOM     29  C   UNL     1      -4.245  10.266  23.191  0.00  0.00    +0.277 C 
ATOM     30  C   UNL     1      -4.242  11.739  23.668  0.00  0.00    +0.110 C 
ATOM     31  C   UNL     1      -5.121  11.934  24.921  0.00  0.00    +0.143 C 
ATOM     32  C   UNL     1      -4.736  10.943  26.021  0.00  0.00    +0.133 C 
BRANCH  32  33
ATOM     33  N   UNL     1      -5.636  11.080  27.176  0.00  0.00    -0.308 N 
ATOM     34  H   UNL     1      -6.584  10.745  27.078  0.00  0.00    +0.149 HD
ATOM     35  C   UNL     1      -5.283  11.618  28.346  0.00  0.00    +0.210 C 
ATOM     36  C   UNL     1      -3.839  12.143  28.456  0.00  0.00    +0.109 C 
ATOM     37  O   UNL     1      -6.054  11.706  29.302  0.00  0.00    -0.276 OA
ENDBRANCH  32  33
BRANCH  29  38
ATOM     38  C   UNL     1      -5.613   9.932  22.559  0.00  0.00    +0.414 C 
ATOM     39  O   UNL     1      -5.944   8.760  22.381  0.00  0.00    -0.240 OA
ATOM     40  O   UNL     1      -6.385  10.833  22.228  0.00  0.00    -0.240 OA
ENDBRANCH  29  38
BRANCH  29  41
ATOM     41  O   UNL     1      -3.198  10.103  22.200  0.00  0.00    -0.343 OA
ATOM     42  C   UNL     1      -2.975  11.256  21.349  0.00  0.00    +0.198 C 
ENDBRANCH  29  41
BRANCH  31  43
ATOM     43  O   UNL     1      -4.969  13.265  25.414  0.00  0.00    -0.390 OA
ATOM     44  H   UNL     1      -4.146  13.334  25.903  0.00  0.00    +0.210 HD
ENDBRANCH  31  43
ENDBRANCH  26  27
BRANCH  26  45
ATOM     45  O   UNL     1      -5.501   8.225  27.435  0.00  0.00    -0.387 OA
ATOM     46  H   UNL     1      -5.150   7.812  28.227  0.00  0.00    +0.210 HD
ENDBRANCH  26  45
ENDBRANCH   1  26
TORSDOF 13
