REMARK VINA RESULT:    -4.688      1.942      4.450
REMARK INTER + INTRA:         -10.400
REMARK INTER:                  -7.556
REMARK INTRA:                  -2.845
REMARK UNBOUND:                -2.287
REMARK  Name = lig_assembled_52.pdb
REMARK  16 active torsions:
REMARK  status: ('A' for Active; 'I' for Inactive)
REMARK    1  A    between atoms: _2  and  _10
REMARK    2  A    between atoms: _5  and  _18
REMARK    3  A    between atoms: _7  and  _8
REMARK    4  A    between atoms: _7  and  _18
REMARK    5  A    between atoms: _14  and  _34
REMARK    6  A    between atoms: _16  and  _22
REMARK    7  A    between atoms: _17  and  _21
REMARK    8  A    between atoms: _21  and  _22
REMARK    9  A    between atoms: _24  and  _25
REMARK   10  A    between atoms: _26  and  _27
REMARK   11  A    between atoms: _28  and  _30
REMARK   12  A    between atoms: _30  and  _31
REMARK   13  A    between atoms: _30  and  _32
REMARK   14  A    between atoms: _32  and  _33
REMARK   15  A    between atoms: _32  and  _34
REMARK   16  A    between atoms: _35  and  _37
REMARK                            x       y       z     vdW  Elec       q    Type
REMARK                         _______ _______ _______ _____ _____    ______ ____
ROOT
ATOM      1  C   UNL     1      -3.005  11.970  24.128  0.00  0.00    +0.163 C 
ENDROOT
BRANCH   1   2
ATOM      2  O   UNL     1      -2.166  11.783  25.279  0.00  0.00    -0.388 OA
ATOM      3  H   UNL     1      -2.270  12.528  25.876  0.00  0.00    +0.210 HD
ENDBRANCH   1   2
BRANCH   1   4
ATOM      4  C   UNL     1      -3.990  13.108  24.379  0.00  0.00    +0.141 C 
BRANCH   4   7
ATOM      5  C   UNL     1      -5.748  12.940  26.107  0.00  0.00    +0.401 C 
ATOM      6  O   UNL     1      -6.659  12.759  25.296  0.00  0.00    -0.226 OA
ATOM      7  N   UNL     1      -4.471  13.119  25.766  0.00  0.00    -0.279 N 
ATOM      8  H   UNL     1      -3.797  13.269  26.503  0.00  0.00    +0.152 HD
BRANCH   5   9
ATOM      9  O   UNL     1      -6.057  12.969  27.503  0.00  0.00    -0.444 OA
BRANCH   9  10
ATOM     10  C   UNL     1      -5.231  12.028  28.194  0.00  0.00    +0.292 C 
BRANCH  10  12
ATOM     11  N   UNL     1      -3.697  11.989  30.134  0.00  0.00    -0.131 NA
ATOM     12  C   UNL     1      -4.604  12.663  29.368  0.00  0.00    +0.121 A 
ATOM     13  C   UNL     1      -4.772  13.928  29.883  0.00  0.00    +0.143 A 
ATOM     14  N   UNL     1      -3.923  13.988  30.964  0.00  0.00    -0.218 N 
ATOM     15  N   UNL     1      -3.291  12.798  31.103  0.00  0.00    -0.060 NA
BRANCH  14  16
ATOM     16  C   UNL     1      -3.674  15.074  31.831  0.00  0.00    +0.085 A 
ATOM     17  C   UNL     1      -4.131  16.365  31.550  0.00  0.00    +0.031 A 
ATOM     18  C   UNL     1      -3.833  17.399  32.436  0.00  0.00    +0.022 A 
ATOM     19  C   UNL     1      -3.094  17.107  33.570  0.00  0.00    +0.111 A 
ATOM     20  N   UNL     1      -2.647  15.869  33.872  0.00  0.00    -0.261 NA
ATOM     21  C   UNL     1      -2.945  14.877  32.998  0.00  0.00    +0.138 A 
ENDBRANCH  14  16
ENDBRANCH  10  12
ENDBRANCH   9  10
ENDBRANCH   5   9
ENDBRANCH   4   7
ENDBRANCH   1   4
BRANCH   1  22
ATOM     22  C   UNL     1      -3.781  10.683  23.798  0.00  0.00    +0.175 C 
BRANCH  22  23
ATOM     23  C   UNL     1      -4.033   9.824  25.047  0.00  0.00    +0.176 C 
ATOM     24  O   UNL     1      -2.846   9.017  25.281  0.00  0.00    -0.332 OA
ATOM     25  C   UNL     1      -2.863   8.205  26.501  0.00  0.00    +0.277 C 
ATOM     26  C   UNL     1      -4.123   7.305  26.535  0.00  0.00    +0.110 C 
ATOM     27  C   UNL     1      -5.408   8.114  26.259  0.00  0.00    +0.143 C 
ATOM     28  C   UNL     1      -5.280   8.924  24.968  0.00  0.00    +0.133 C 
BRANCH  28  29
ATOM     29  N   UNL     1      -6.475   9.756  24.762  0.00  0.00    -0.308 N 
ATOM     30  H   UNL     1      -6.716  10.423  25.482  0.00  0.00    +0.149 HD
ATOM     31  C   UNL     1      -7.263   9.688  23.686  0.00  0.00    +0.210 C 
ATOM     32  C   UNL     1      -6.885   8.644  22.619  0.00  0.00    +0.109 C 
ATOM     33  O   UNL     1      -8.250  10.409  23.533  0.00  0.00    -0.276 OA
ENDBRANCH  28  29
BRANCH  25  34
ATOM     34  C   UNL     1      -2.836   9.102  27.756  0.00  0.00    +0.414 C 
ATOM     35  O   UNL     1      -2.181  10.143  27.760  0.00  0.00    -0.240 OA
ATOM     36  O   UNL     1      -3.470   8.785  28.764  0.00  0.00    -0.240 OA
ENDBRANCH  25  34
BRANCH  27  37
ATOM     37  O   UNL     1      -6.521   7.226  26.150  0.00  0.00    -0.390 OA
ATOM     38  H   UNL     1      -7.073   7.306  26.932  0.00  0.00    +0.210 HD
ENDBRANCH  27  37
BRANCH  25  39
ATOM     39  O   UNL     1      -1.691   7.350  26.487  0.00  0.00    -0.343 OA
ATOM     40  C   UNL     1      -1.957   5.950  26.218  0.00  0.00    +0.198 C 
ENDBRANCH  25  39
ENDBRANCH  22  23
BRANCH  22  41
ATOM     41  O   UNL     1      -3.073   9.917  22.803  0.00  0.00    -0.387 OA
ATOM     42  H   UNL     1      -3.494  10.035  21.949  0.00  0.00    +0.210 HD
ENDBRANCH  22  41
ENDBRANCH   1  22
TORSDOF 14
