REMARK VINA RESULT:    -4.844      3.148      4.609
REMARK INTER + INTRA:         -11.427
REMARK INTER:                  -8.712
REMARK INTRA:                  -2.715
REMARK UNBOUND:                -2.759
REMARK  Name = lig_assembled_38.pdb
REMARK  17 active torsions:
REMARK  status: ('A' for Active; 'I' for Inactive)
REMARK    1  A    between atoms: _2  and  _9
REMARK    2  A    between atoms: _4  and  _19
REMARK    3  A    between atoms: _6  and  _7
REMARK    4  A    between atoms: _6  and  _19
REMARK    5  A    between atoms: _9  and  _10
REMARK    6  A    between atoms: _15  and  _35
REMARK    7  A    between atoms: _17  and  _23
REMARK    8  A    between atoms: _18  and  _22
REMARK    9  A    between atoms: _22  and  _23
REMARK   10  A    between atoms: _25  and  _26
REMARK   11  A    between atoms: _27  and  _28
REMARK   12  A    between atoms: _29  and  _31
REMARK   13  A    between atoms: _31  and  _32
REMARK   14  A    between atoms: _31  and  _33
REMARK   15  A    between atoms: _33  and  _34
REMARK   16  A    between atoms: _33  and  _35
REMARK   17  A    between atoms: _36  and  _38
REMARK                            x       y       z     vdW  Elec       q    Type
REMARK                         _______ _______ _______ _____ _____    ______ ____
ROOT
ATOM      1  C   UNL     1      -2.914  12.134  24.332  0.00  0.00    +0.163 C 
ENDROOT
BRANCH   1   2
ATOM      2  O   UNL     1      -2.026  11.914  25.440  0.00  0.00    -0.388 OA
ATOM      3  H   UNL     1      -1.404  11.217  25.220  0.00  0.00    +0.210 HD
ENDBRANCH   1   2
BRANCH   1   4
ATOM      4  C   UNL     1      -3.860  13.290  24.643  0.00  0.00    +0.141 C 
BRANCH   4   7
ATOM      5  C   UNL     1      -4.729  14.283  22.554  0.00  0.00    +0.401 C 
ATOM      6  O   UNL     1      -3.735  14.988  22.365  0.00  0.00    -0.226 OA
ATOM      7  N   UNL     1      -4.874  13.463  23.596  0.00  0.00    -0.279 N 
ATOM      8  H   UNL     1      -5.730  12.932  23.669  0.00  0.00    +0.152 HD
BRANCH   5   9
ATOM      9  O   UNL     1      -5.805  14.333  21.613  0.00  0.00    -0.444 OA
BRANCH   9  10
ATOM     10  C   UNL     1      -6.502  13.084  21.618  0.00  0.00    +0.292 C 
BRANCH  10  12
ATOM     11  N   UNL     1      -4.730  11.472  20.989  0.00  0.00    -0.131 NA
ATOM     12  C   UNL     1      -5.879  12.144  20.665  0.00  0.00    +0.120 A 
ATOM     13  C   UNL     1      -6.291  11.753  19.411  0.00  0.00    +0.137 A 
ATOM     14  N   UNL     1      -5.382  10.802  19.046  0.00  0.00    -0.247 N 
ATOM     15  N   UNL     1      -4.438  10.647  19.993  0.00  0.00    -0.065 NA
BRANCH  14  16
ATOM     16  C   UNL     1      -5.482   9.855  17.950  0.00  0.00    +0.180 C 
BRANCH  16  17
ATOM     17  C   UNL     1      -4.594  10.197  16.778  0.00  0.00    -0.025 A 
ATOM     18  C   UNL     1      -3.822   9.208  16.148  0.00  0.00    +0.005 A 
ATOM     19  C   UNL     1      -3.071   9.513  15.007  0.00  0.00    +0.001 A 
ATOM     20  C   UNL     1      -3.082  10.805  14.485  0.00  0.00    +0.015 A 
ATOM     21  C   UNL     1      -3.837  11.792  15.112  0.00  0.00    +0.018 A 
ATOM     22 BR   UNL     1      -3.863  13.544  14.402  0.00  0.00    -0.050 Br
ATOM     23  C   UNL     1      -4.590  11.498  16.250  0.00  0.00    +0.020 A 
ENDBRANCH  16  17
ENDBRANCH  14  16
ENDBRANCH  10  12
ENDBRANCH   9  10
ENDBRANCH   5   9
ENDBRANCH   4   7
ENDBRANCH   1   4
BRANCH   1  24
ATOM     24  C   UNL     1      -3.733  10.868  24.024  0.00  0.00    +0.175 C 
BRANCH  24  25
ATOM     25  C   UNL     1      -3.913   9.980  25.265  0.00  0.00    +0.176 C 
ATOM     26  O   UNL     1      -2.835   9.005  25.276  0.00  0.00    -0.332 OA
ATOM     27  C   UNL     1      -2.782   8.131  26.452  0.00  0.00    +0.277 C 
ATOM     28  C   UNL     1      -4.139   7.414  26.655  0.00  0.00    +0.110 C 
ATOM     29  C   UNL     1      -5.319   8.408  26.619  0.00  0.00    +0.143 C 
ATOM     30  C   UNL     1      -5.275   9.267  25.355  0.00  0.00    +0.133 C 
BRANCH  30  31
ATOM     31  N   UNL     1      -6.353  10.268  25.374  0.00  0.00    -0.308 N 
ATOM     32  H   UNL     1      -6.436  10.857  26.191  0.00  0.00    +0.149 HD
ATOM     33  C   UNL     1      -7.230  10.449  24.382  0.00  0.00    +0.210 C 
ATOM     34  C   UNL     1      -7.093   9.518  23.163  0.00  0.00    +0.109 C 
ATOM     35  O   UNL     1      -8.114  11.305  24.419  0.00  0.00    -0.276 OA
ENDBRANCH  30  31
BRANCH  27  36
ATOM     36  C   UNL     1      -2.432   8.940  27.718  0.00  0.00    +0.414 C 
ATOM     37  O   UNL     1      -2.829   8.568  28.822  0.00  0.00    -0.240 OA
ATOM     38  O   UNL     1      -1.753   9.965  27.637  0.00  0.00    -0.240 OA
ENDBRANCH  27  36
BRANCH  27  39
ATOM     39  O   UNL     1      -1.763   7.125  26.219  0.00  0.00    -0.343 OA
ATOM     40  C   UNL     1      -2.103   5.792  26.677  0.00  0.00    +0.198 C 
ENDBRANCH  27  39
BRANCH  29  41
ATOM     41  O   UNL     1      -6.554   7.691  26.657  0.00  0.00    -0.390 OA
ATOM     42  H   UNL     1      -6.663   7.197  25.841  0.00  0.00    +0.210 HD
ENDBRANCH  29  41
ENDBRANCH  24  25
BRANCH  24  43
ATOM     43  O   UNL     1      -3.109  10.119  22.963  0.00  0.00    -0.387 OA
ATOM     44  H   UNL     1      -2.537  10.699  22.455  0.00  0.00    +0.210 HD
ENDBRANCH  24  43
ENDBRANCH   1  24
TORSDOF 15
