REMARK VINA RESULT:    -4.316      2.633      6.532
REMARK INTER + INTRA:         -12.060
REMARK INTER:                  -8.060
REMARK INTRA:                  -4.000
REMARK UNBOUND:                -3.581
REMARK  Name = lig_assembled_31.pdb
REMARK  20 active torsions:
REMARK  status: ('A' for Active; 'I' for Inactive)
REMARK    1  A    between atoms: _2  and  _11
REMARK    2  A    between atoms: _3  and  _12
REMARK    3  A    between atoms: _4  and  _14
REMARK    4  A    between atoms: _6  and  _24
REMARK    5  A    between atoms: _8  and  _9
REMARK    6  A    between atoms: _8  and  _24
REMARK    7  A    between atoms: _11  and  _12
REMARK    8  A    between atoms: _14  and  _15
REMARK    9  A    between atoms: _20  and  _40
REMARK   10  A    between atoms: _22  and  _28
REMARK   11  A    between atoms: _23  and  _27
REMARK   12  A    between atoms: _27  and  _28
REMARK   13  A    between atoms: _30  and  _31
REMARK   14  A    between atoms: _32  and  _33
REMARK   15  A    between atoms: _34  and  _36
REMARK   16  A    between atoms: _36  and  _37
REMARK   17  A    between atoms: _36  and  _38
REMARK   18  A    between atoms: _38  and  _39
REMARK   19  A    between atoms: _38  and  _40
REMARK   20  A    between atoms: _41  and  _43
REMARK                            x       y       z     vdW  Elec       q    Type
REMARK                         _______ _______ _______ _____ _____    ______ ____
ROOT
ATOM      1  C   UNL     1      -3.553   9.830  29.035  0.00  0.00    +0.401 C 
ATOM      2  O   UNL     1      -3.526   8.657  28.658  0.00  0.00    -0.226 OA
ATOM      3  N   UNL     1      -2.952  10.833  28.394  0.00  0.00    -0.279 N 
ATOM      4  H   UNL     1      -3.039  11.764  28.776  0.00  0.00    +0.152 HD
ENDROOT
BRANCH   1   5
ATOM      5  O   UNL     1      -4.271  10.160  30.227  0.00  0.00    -0.444 OA
BRANCH   5   6
ATOM      6  C   UNL     1      -3.359  10.242  31.326  0.00  0.00    +0.292 C 
BRANCH   6   8
ATOM      7  N   UNL     1      -1.910  12.042  32.213  0.00  0.00    -0.131 NA
ATOM      8  C   UNL     1      -3.111  11.653  31.685  0.00  0.00    +0.120 A 
ATOM      9  C   UNL     1      -3.933  12.753  31.581  0.00  0.00    +0.137 A 
ATOM     10  N   UNL     1      -3.176  13.775  32.070  0.00  0.00    -0.250 N 
ATOM     11  N   UNL     1      -1.959  13.348  32.444  0.00  0.00    -0.065 NA
BRANCH  10  12
ATOM     12  C   UNL     1      -3.541  15.169  32.215  0.00  0.00    +0.164 C 
BRANCH  12  13
ATOM     13  C   UNL     1      -5.013  15.392  31.905  0.00  0.00    +0.129 C 
BRANCH  13  14
ATOM     14  N   UNL     1      -5.276  16.015  30.614  0.00  0.00    -0.298 N 
ATOM     15  H   UNL     1      -5.102  16.999  30.471  0.00  0.00    +0.150 HD
ATOM     16  C   UNL     1      -6.137  15.387  29.753  0.00  0.00    +0.300 C 
ATOM     17  O   UNL     1      -6.616  14.280  29.983  0.00  0.00    -0.253 OA
ATOM     18  N   UNL     1      -6.396  16.081  28.612  0.00  0.00    -0.292 N 
ATOM     19  H   UNL     1      -6.035  17.010  28.442  0.00  0.00    +0.151 HD
BRANCH  18  20
ATOM     20  C   UNL     1      -7.288  15.500  27.636  0.00  0.00    +0.180 C 
BRANCH  20  21
ATOM     21  C   UNL     1      -7.108  16.052  26.270  0.00  0.00    +0.122 A 
ATOM     22  O   UNL     1      -7.161  15.204  25.199  0.00  0.00    -0.466 OA
ATOM     23  C   UNL     1      -6.968  15.966  24.086  0.00  0.00    +0.195 A 
ATOM     24  C   UNL     1      -6.790  17.287  24.425  0.00  0.00    +0.041 A 
ATOM     25  C   UNL     1      -6.879  17.344  25.835  0.00  0.00    +0.046 A 
ENDBRANCH  20  21
ENDBRANCH  18  20
ENDBRANCH  13  14
ENDBRANCH  12  13
ENDBRANCH  10  12
ENDBRANCH   6   8
ENDBRANCH   5   6
ENDBRANCH   1   5
BRANCH   3  26
ATOM     26  C   UNL     1      -2.169  10.661  27.164  0.00  0.00    +0.141 C 
BRANCH  26  27
ATOM     27  C   UNL     1      -2.865  11.279  25.955  0.00  0.00    +0.163 C 
BRANCH  27  28
ATOM     28  O   UNL     1      -1.991  12.220  25.313  0.00  0.00    -0.388 OA
ATOM     29  H   UNL     1      -2.129  12.189  24.363  0.00  0.00    +0.210 HD
ENDBRANCH  27  28
BRANCH  27  30
ATOM     30  C   UNL     1      -3.287  10.166  24.981  0.00  0.00    +0.175 C 
BRANCH  30  31
ATOM     31  C   UNL     1      -4.358  10.642  23.988  0.00  0.00    +0.176 C 
ATOM     32  O   UNL     1      -3.725  11.558  23.053  0.00  0.00    -0.332 OA
ATOM     33  C   UNL     1      -4.576  12.037  21.960  0.00  0.00    +0.277 C 
ATOM     34  C   UNL     1      -5.871  12.674  22.522  0.00  0.00    +0.110 C 
ATOM     35  C   UNL     1      -6.563  11.750  23.545  0.00  0.00    +0.143 C 
ATOM     36  C   UNL     1      -5.585  11.309  24.636  0.00  0.00    +0.133 C 
BRANCH  36  37
ATOM     37  N   UNL     1      -6.233  10.361  25.555  0.00  0.00    -0.308 N 
ATOM     38  H   UNL     1      -6.492   9.454  25.192  0.00  0.00    +0.149 HD
ATOM     39  C   UNL     1      -6.500  10.619  26.838  0.00  0.00    +0.210 C 
ATOM     40  C   UNL     1      -6.116  12.019  27.354  0.00  0.00    +0.109 C 
ATOM     41  O   UNL     1      -7.030   9.799  27.589  0.00  0.00    -0.276 OA
ENDBRANCH  36  37
BRANCH  33  42
ATOM     42  C   UNL     1      -4.943  10.881  21.006  0.00  0.00    +0.414 C 
ATOM     43  O   UNL     1      -4.118  10.006  20.746  0.00  0.00    -0.240 OA
ATOM     44  O   UNL     1      -6.063  10.824  20.496  0.00  0.00    -0.240 OA
ENDBRANCH  33  42
BRANCH  35  45
ATOM     45  O   UNL     1      -7.662  12.435  24.147  0.00  0.00    -0.390 OA
ATOM     46  H   UNL     1      -8.486  12.071  23.817  0.00  0.00    +0.210 HD
ENDBRANCH  35  45
BRANCH  33  47
ATOM     47  O   UNL     1      -3.843  13.056  21.233  0.00  0.00    -0.343 OA
ATOM     48  C   UNL     1      -3.626  14.291  21.961  0.00  0.00    +0.198 C 
ENDBRANCH  33  47
ENDBRANCH  30  31
BRANCH  30  49
ATOM     49  O   UNL     1      -3.763   9.019  25.713  0.00  0.00    -0.387 OA
ATOM     50  H   UNL     1      -4.103   9.301  26.565  0.00  0.00    +0.210 HD
ENDBRANCH  30  49
ENDBRANCH  27  30
ENDBRANCH  26  27
ENDBRANCH   3  26
TORSDOF 18
