REMARK VINA RESULT:    -4.708      5.880     13.258
REMARK INTER + INTRA:         -11.327
REMARK INTER:                  -9.234
REMARK INTRA:                  -2.093
REMARK UNBOUND:                -2.903
REMARK  Name = lig_assembled_69.pdb
REMARK  18 active torsions:
REMARK  status: ('A' for Active; 'I' for Inactive)
REMARK    1  A    between atoms: _2  and  _9
REMARK    2  A    between atoms: _4  and  _21
REMARK    3  A    between atoms: _6  and  _7
REMARK    4  A    between atoms: _6  and  _21
REMARK    5  A    between atoms: _11  and  _16
REMARK    6  A    between atoms: _14  and  _15
REMARK    7  A    between atoms: _17  and  _37
REMARK    8  A    between atoms: _19  and  _25
REMARK    9  A    between atoms: _20  and  _24
REMARK   10  A    between atoms: _24  and  _25
REMARK   11  A    between atoms: _27  and  _28
REMARK   12  A    between atoms: _29  and  _30
REMARK   13  A    between atoms: _31  and  _33
REMARK   14  A    between atoms: _33  and  _34
REMARK   15  A    between atoms: _33  and  _35
REMARK   16  A    between atoms: _35  and  _36
REMARK   17  A    between atoms: _35  and  _37
REMARK   18  A    between atoms: _38  and  _40
REMARK                            x       y       z     vdW  Elec       q    Type
REMARK                         _______ _______ _______ _____ _____    ______ ____
ROOT
ATOM      1  C   UNL     1      -5.809  10.641  16.570  0.00  0.00    +0.163 C 
ENDROOT
BRANCH   1   2
ATOM      2  O   UNL     1      -5.035  11.806  16.240  0.00  0.00    -0.388 OA
ATOM      3  H   UNL     1      -5.310  12.141  15.383  0.00  0.00    +0.210 HD
ENDBRANCH   1   2
BRANCH   1   4
ATOM      4  C   UNL     1      -4.938   9.373  16.532  0.00  0.00    +0.175 C 
BRANCH   4   5
ATOM      5  C   UNL     1      -3.977   9.369  15.334  0.00  0.00    +0.176 C 
ATOM      6  O   UNL     1      -4.661   9.986  14.209  0.00  0.00    -0.332 OA
ATOM      7  C   UNL     1      -3.856  10.166  12.998  0.00  0.00    +0.277 C 
ATOM      8  C   UNL     1      -3.235   8.818  12.556  0.00  0.00    +0.110 C 
ATOM      9  C   UNL     1      -2.523   8.108  13.727  0.00  0.00    +0.143 C 
ATOM     10  C   UNL     1      -3.451   7.977  14.935  0.00  0.00    +0.133 C 
BRANCH  10  11
ATOM     11  N   UNL     1      -2.735   7.378  16.073  0.00  0.00    -0.308 N 
ATOM     12  H   UNL     1      -2.001   7.920  16.506  0.00  0.00    +0.149 HD
ATOM     13  C   UNL     1      -2.992   6.165  16.569  0.00  0.00    +0.210 C 
ATOM     14  C   UNL     1      -4.099   5.354  15.870  0.00  0.00    +0.109 C 
ATOM     15  O   UNL     1      -2.386   5.695  17.532  0.00  0.00    -0.276 OA
ENDBRANCH  10  11
BRANCH   7  16
ATOM     16  C   UNL     1      -2.733  11.197  13.235  0.00  0.00    +0.414 C 
ATOM     17  O   UNL     1      -2.813  11.998  14.166  0.00  0.00    -0.240 OA
ATOM     18  O   UNL     1      -1.747  11.228  12.497  0.00  0.00    -0.240 OA
ENDBRANCH   7  16
BRANCH   7  19
ATOM     19  O   UNL     1      -4.732  10.634  11.941  0.00  0.00    -0.343 OA
ATOM     20  C   UNL     1      -5.924  11.324  12.394  0.00  0.00    +0.198 C 
ENDBRANCH   7  19
BRANCH   9  21
ATOM     21  O   UNL     1      -2.100   6.807  13.316  0.00  0.00    -0.390 OA
ATOM     22  H   UNL     1      -2.652   6.143  13.735  0.00  0.00    +0.210 HD
ENDBRANCH   9  21
ENDBRANCH   4   5
BRANCH   4  23
ATOM     23  O   UNL     1      -5.773   8.198  16.504  0.00  0.00    -0.387 OA
ATOM     24  H   UNL     1      -6.572   8.361  17.010  0.00  0.00    +0.210 HD
ENDBRANCH   4  23
ENDBRANCH   1   4
BRANCH   1  25
ATOM     25  C   UNL     1      -6.420  10.797  17.959  0.00  0.00    +0.141 C 
BRANCH  25  28
ATOM     26  C   UNL     1      -5.052  11.324  19.947  0.00  0.00    +0.401 C 
ATOM     27  O   UNL     1      -5.421  12.499  20.007  0.00  0.00    -0.226 OA
ATOM     28  N   UNL     1      -5.463  10.459  19.019  0.00  0.00    -0.279 N 
ATOM     29  H   UNL     1      -5.096   9.518  19.048  0.00  0.00    +0.152 HD
BRANCH  26  30
ATOM     30  O   UNL     1      -4.123  10.838  20.920  0.00  0.00    -0.444 OA
BRANCH  30  31
ATOM     31  C   UNL     1      -3.226  11.889  21.291  0.00  0.00    +0.292 C 
BRANCH  31  33
ATOM     32  N   UNL     1      -3.912  13.310  23.192  0.00  0.00    -0.131 NA
ATOM     33  C   UNL     1      -3.323  12.161  22.736  0.00  0.00    +0.120 A 
ATOM     34  C   UNL     1      -2.890  11.419  23.812  0.00  0.00    +0.137 A 
ATOM     35  N   UNL     1      -3.232  12.176  24.893  0.00  0.00    -0.248 N 
ATOM     36  N   UNL     1      -3.845  13.311  24.515  0.00  0.00    -0.065 NA
BRANCH  35  37
ATOM     37  C   UNL     1      -2.961  11.907  26.304  0.00  0.00    +0.114 C 
ATOM     38  C   UNL     1      -2.086  10.661  26.481  0.00  0.00    +0.062 C 
ATOM     39  C   UNL     1      -2.817   9.317  26.496  0.00  0.00    +0.139 C 
ATOM     40  C   UNL     1      -3.661   9.028  27.706  0.00  0.00    +0.002 C 
ATOM     41  C   UNL     1      -4.186   9.892  28.589  0.00  0.00    +0.002 C 
ATOM     42  C   UNL     1      -4.189  11.388  28.517  0.00  0.00    +0.139 C 
ATOM     43  C   UNL     1      -4.270  11.954  27.104  0.00  0.00    +0.062 C 
BRANCH  39  44
ATOM     44  O   UNL     1      -1.814   8.294  26.477  0.00  0.00    -0.388 OA
ATOM     45  H   UNL     1      -1.083   8.615  25.921  0.00  0.00    +0.210 HD
ENDBRANCH  39  44
BRANCH  42  46
ATOM     46  O   UNL     1      -3.046  11.894  29.190  0.00  0.00    -0.388 OA
ATOM     47  H   UNL     1      -2.265  11.473  28.790  0.00  0.00    +0.210 HD
ENDBRANCH  42  46
ENDBRANCH  35  37
ENDBRANCH  31  33
ENDBRANCH  30  31
ENDBRANCH  26  30
ENDBRANCH  25  28
ENDBRANCH   1  25
TORSDOF 16
