REMARK VINA RESULT:    -4.936      5.070      9.528
REMARK INTER + INTRA:         -11.866
REMARK INTER:                  -9.157
REMARK INTRA:                  -2.709
REMARK UNBOUND:                -2.890
REMARK  Name = lig_assembled_73.pdb
REMARK  18 active torsions:
REMARK  status: ('A' for Active; 'I' for Inactive)
REMARK    1  A    between atoms: _2  and  _10
REMARK    2  A    between atoms: _3  and  _14
REMARK    3  A    between atoms: _5  and  _22
REMARK    4  A    between atoms: _7  and  _8
REMARK    5  A    between atoms: _7  and  _22
REMARK    6  A    between atoms: _13  and  _16
REMARK    7  A    between atoms: _18  and  _38
REMARK    8  A    between atoms: _20  and  _26
REMARK    9  A    between atoms: _21  and  _25
REMARK   10  A    between atoms: _25  and  _26
REMARK   11  A    between atoms: _28  and  _29
REMARK   12  A    between atoms: _30  and  _31
REMARK   13  A    between atoms: _32  and  _34
REMARK   14  A    between atoms: _34  and  _35
REMARK   15  A    between atoms: _34  and  _36
REMARK   16  A    between atoms: _36  and  _37
REMARK   17  A    between atoms: _36  and  _38
REMARK   18  A    between atoms: _39  and  _41
REMARK                            x       y       z     vdW  Elec       q    Type
REMARK                         _______ _______ _______ _____ _____    ______ ____
ROOT
ATOM      1  C   UNL     1      -3.411  12.232  23.982  0.00  0.00    +0.163 C 
ENDROOT
BRANCH   1   2
ATOM      2  O   UNL     1      -2.031  12.206  24.384  0.00  0.00    -0.388 OA
ATOM      3  H   UNL     1      -1.965  11.867  25.280  0.00  0.00    +0.210 HD
ENDBRANCH   1   2
BRANCH   1   4
ATOM      4  C   UNL     1      -4.335  12.420  25.198  0.00  0.00    +0.175 C 
BRANCH   4   5
ATOM      5  C   UNL     1      -4.054  11.390  26.302  0.00  0.00    +0.176 C 
ATOM      6  O   UNL     1      -3.871  10.094  25.669  0.00  0.00    -0.332 OA
ATOM      7  C   UNL     1      -3.487   8.999  26.565  0.00  0.00    +0.277 C 
ATOM      8  C   UNL     1      -4.499   8.874  27.730  0.00  0.00    +0.110 C 
ATOM      9  C   UNL     1      -4.750  10.234  28.415  0.00  0.00    +0.143 C 
ATOM     10  C   UNL     1      -5.140  11.300  27.390  0.00  0.00    +0.133 C 
BRANCH  10  11
ATOM     11  N   UNL     1      -5.292  12.610  28.043  0.00  0.00    -0.308 N 
ATOM     12  H   UNL     1      -4.460  13.058  28.401  0.00  0.00    +0.149 HD
ATOM     13  C   UNL     1      -6.457  13.245  28.193  0.00  0.00    +0.210 C 
ATOM     14  C   UNL     1      -7.710  12.525  27.659  0.00  0.00    +0.109 C 
ATOM     15  O   UNL     1      -6.553  14.349  28.730  0.00  0.00    -0.276 OA
ENDBRANCH  10  11
BRANCH   7  16
ATOM     16  C   UNL     1      -2.071   9.228  27.134  0.00  0.00    +0.414 C 
ATOM     17  O   UNL     1      -1.242   9.873  26.493  0.00  0.00    -0.240 OA
ATOM     18  O   UNL     1      -1.758   8.769  28.233  0.00  0.00    -0.240 OA
ENDBRANCH   7  16
BRANCH   9  19
ATOM     19  O   UNL     1      -5.797  10.102  29.378  0.00  0.00    -0.390 OA
ATOM     20  H   UNL     1      -5.502   9.536  30.096  0.00  0.00    +0.210 HD
ENDBRANCH   9  19
BRANCH   7  21
ATOM     21  O   UNL     1      -3.513   7.765  25.802  0.00  0.00    -0.343 OA
ATOM     22  C   UNL     1      -4.836   7.295  25.442  0.00  0.00    +0.198 C 
ENDBRANCH   7  21
ENDBRANCH   4   5
BRANCH   4  23
ATOM     23  O   UNL     1      -5.715  12.346  24.789  0.00  0.00    -0.387 OA
ATOM     24  H   UNL     1      -6.146  13.185  24.965  0.00  0.00    +0.210 HD
ENDBRANCH   4  23
ENDBRANCH   1   4
BRANCH   1  25
ATOM     25  C   UNL     1      -3.643  13.362  22.986  0.00  0.00    +0.141 C 
BRANCH  25  28
ATOM     26  C   UNL     1      -5.609  13.232  21.494  0.00  0.00    +0.401 C 
ATOM     27  O   UNL     1      -6.313  13.955  22.203  0.00  0.00    -0.226 OA
ATOM     28  N   UNL     1      -4.351  12.898  21.786  0.00  0.00    -0.279 N 
ATOM     29  H   UNL     1      -3.857  12.292  21.147  0.00  0.00    +0.152 HD
BRANCH  26  30
ATOM     30  O   UNL     1      -6.154  12.705  20.282  0.00  0.00    -0.444 OA
BRANCH  30  31
ATOM     31  C   UNL     1      -6.313  11.289  20.405  0.00  0.00    +0.292 C 
BRANCH  31  33
ATOM     32  N   UNL     1      -5.364   9.261  19.351  0.00  0.00    -0.131 NA
ATOM     33  C   UNL     1      -5.633  10.598  19.294  0.00  0.00    +0.121 A 
ATOM     34  C   UNL     1      -5.178  11.096  18.096  0.00  0.00    +0.143 A 
ATOM     35  N   UNL     1      -4.638  10.013  17.442  0.00  0.00    -0.220 N 
ATOM     36  N   UNL     1      -4.760   8.913  18.223  0.00  0.00    -0.060 NA
BRANCH  35  37
ATOM     37  C   UNL     1      -4.027   9.959  16.163  0.00  0.00    +0.074 A 
ATOM     38  C   UNL     1      -3.585   8.725  15.652  0.00  0.00    +0.032 A 
ATOM     39  C   UNL     1      -2.969   8.650  14.395  0.00  0.00    +0.054 A 
ATOM     40  C   UNL     1      -2.787   9.805  13.637  0.00  0.00    +0.195 A 
ATOM     41  C   UNL     1      -3.229  11.025  14.148  0.00  0.00    +0.316 A 
ATOM     42  C   UNL     1      -3.853  11.120  15.400  0.00  0.00    +0.116 A 
BRANCH  41  43
ATOM     43  N   UNL     1      -3.045  12.245  13.389  0.00  0.00    +0.083 N 
ATOM     44  O   UNL     1      -4.054  12.912  13.123  0.00  0.00    +0.042 OA
ATOM     45  O   UNL     1      -1.898  12.481  12.984  0.00  0.00    -0.576 OA
ENDBRANCH  41  43
BRANCH  40  46
ATOM     46  O   UNL     1      -2.208   9.727  12.406  0.00  0.00    -0.501 OA
ATOM     47  H   UNL     1      -1.374  10.227  12.398  0.00  0.00    +0.292 HD
ENDBRANCH  40  46
ENDBRANCH  35  37
ENDBRANCH  31  33
ENDBRANCH  30  31
ENDBRANCH  26  30
ENDBRANCH  25  28
ENDBRANCH   1  25
TORSDOF 16
