REMARK VINA RESULT:    -4.233      4.259     11.723
REMARK INTER + INTRA:         -11.354
REMARK INTER:                  -8.721
REMARK INTRA:                  -2.633
REMARK UNBOUND:                -3.657
REMARK  Name = lig_assembled_88.pdb
REMARK  18 active torsions:
REMARK  status: ('A' for Active; 'I' for Inactive)
REMARK    1  A    between atoms: _2  and  _9
REMARK    2  A    between atoms: _4  and  _20
REMARK    3  A    between atoms: _5  and  _15
REMARK    4  A    between atoms: _6  and  _7
REMARK    5  A    between atoms: _6  and  _20
REMARK    6  A    between atoms: _9  and  _10
REMARK    7  A    between atoms: _16  and  _36
REMARK    8  A    between atoms: _18  and  _24
REMARK    9  A    between atoms: _19  and  _23
REMARK   10  A    between atoms: _23  and  _24
REMARK   11  A    between atoms: _26  and  _27
REMARK   12  A    between atoms: _28  and  _29
REMARK   13  A    between atoms: _30  and  _32
REMARK   14  A    between atoms: _32  and  _33
REMARK   15  A    between atoms: _32  and  _34
REMARK   16  A    between atoms: _34  and  _35
REMARK   17  A    between atoms: _34  and  _36
REMARK   18  A    between atoms: _37  and  _39
REMARK                            x       y       z     vdW  Elec       q    Type
REMARK                         _______ _______ _______ _____ _____    ______ ____
ROOT
ATOM      1  C   UNL     1      -7.026  11.895  15.499  0.00  0.00    +0.163 C 
ENDROOT
BRANCH   1   2
ATOM      2  O   UNL     1      -6.209  13.074  15.408  0.00  0.00    -0.388 OA
ATOM      3  H   UNL     1      -6.743  13.811  15.102  0.00  0.00    +0.210 HD
ENDBRANCH   1   2
BRANCH   1   4
ATOM      4  C   UNL     1      -6.156  10.630  15.605  0.00  0.00    +0.175 C 
BRANCH   4   5
ATOM      5  C   UNL     1      -4.837  10.769  14.830  0.00  0.00    +0.176 C 
ATOM      6  O   UNL     1      -5.134  11.392  13.551  0.00  0.00    -0.332 OA
ATOM      7  C   UNL     1      -3.972  11.702  12.712  0.00  0.00    +0.277 C 
ATOM      8  C   UNL     1      -3.112  10.435  12.489  0.00  0.00    +0.110 C 
ATOM      9  C   UNL     1      -2.797   9.719  13.820  0.00  0.00    +0.143 C 
ATOM     10  C   UNL     1      -4.076   9.448  14.613  0.00  0.00    +0.133 C 
BRANCH  10  11
ATOM     11  N   UNL     1      -3.756   8.845  15.916  0.00  0.00    -0.308 N 
ATOM     12  H   UNL     1      -3.293   9.424  16.603  0.00  0.00    +0.149 HD
ATOM     13  C   UNL     1      -4.036   7.583  16.251  0.00  0.00    +0.210 C 
ATOM     14  C   UNL     1      -4.718   6.719  15.174  0.00  0.00    +0.109 C 
ATOM     15  O   UNL     1      -3.770   7.109  17.356  0.00  0.00    -0.276 OA
ENDBRANCH  10  11
BRANCH   7  16
ATOM     16  C   UNL     1      -3.109  12.805  13.360  0.00  0.00    +0.414 C 
ATOM     17  O   UNL     1      -3.599  13.569  14.190  0.00  0.00    -0.240 OA
ATOM     18  O   UNL     1      -1.923  12.930  13.052  0.00  0.00    -0.240 OA
ENDBRANCH   7  16
BRANCH   7  19
ATOM     19  O   UNL     1      -4.458  12.157  11.423  0.00  0.00    -0.343 OA
ATOM     20  C   UNL     1      -5.656  12.973  11.473  0.00  0.00    +0.198 C 
ENDBRANCH   7  19
BRANCH   9  21
ATOM     21  O   UNL     1      -2.135   8.482  13.556  0.00  0.00    -0.390 OA
ATOM     22  H   UNL     1      -2.430   7.820  14.187  0.00  0.00    +0.210 HD
ENDBRANCH   9  21
ENDBRANCH   4   5
BRANCH   4  23
ATOM     23  O   UNL     1      -6.890   9.482  15.136  0.00  0.00    -0.387 OA
ATOM     24  H   UNL     1      -6.429   9.090  14.390  0.00  0.00    +0.210 HD
ENDBRANCH   4  23
ENDBRANCH   1   4
BRANCH   1  25
ATOM     25  C   UNL     1      -7.942  11.987  16.715  0.00  0.00    +0.141 C 
BRANCH  25  28
ATOM     26  C   UNL     1      -7.519  11.855  19.146  0.00  0.00    +0.401 C 
ATOM     27  O   UNL     1      -8.220  12.833  19.416  0.00  0.00    -0.226 OA
ATOM     28  N   UNL     1      -7.328  11.394  17.909  0.00  0.00    -0.279 N 
ATOM     29  H   UNL     1      -6.727  10.590  17.787  0.00  0.00    +0.152 HD
BRANCH  26  30
ATOM     30  O   UNL     1      -6.857  11.160  20.206  0.00  0.00    -0.444 OA
BRANCH  30  31
ATOM     31  C   UNL     1      -5.547  10.775  19.781  0.00  0.00    +0.292 C 
BRANCH  31  33
ATOM     32  N   UNL     1      -4.005   9.863  21.489  0.00  0.00    -0.131 NA
ATOM     33  C   UNL     1      -4.576  10.947  20.877  0.00  0.00    +0.120 A 
ATOM     34  C   UNL     1      -4.104  12.099  21.469  0.00  0.00    +0.137 A 
ATOM     35  N   UNL     1      -3.310  11.643  22.481  0.00  0.00    -0.247 N 
ATOM     36  N   UNL     1      -3.212  10.301  22.458  0.00  0.00    -0.065 NA
BRANCH  35  37
ATOM     37  C   UNL     1      -2.676  12.414  23.540  0.00  0.00    +0.184 C 
BRANCH  37  38
ATOM     38  C   UNL     1      -3.380  12.284  24.876  0.00  0.00    +0.017 A 
ATOM     39  C   UNL     1      -4.518  13.045  25.207  0.00  0.00    +0.024 A 
ATOM     40  C   UNL     1      -5.141  12.900  26.449  0.00  0.00    +0.019 A 
ATOM     41 BR   UNL     1      -6.638  13.975  26.876  0.00  0.00    -0.050 Br
ATOM     42  C   UNL     1      -4.673  11.976  27.378  0.00  0.00    +0.034 A 
ATOM     43  C   UNL     1      -3.577  11.184  27.047  0.00  0.00    +0.061 A 
ATOM     44 BR   UNL     1      -2.964   9.901  28.301  0.00  0.00    -0.046 Br
ATOM     45  C   UNL     1      -2.940  11.333  25.807  0.00  0.00    +0.136 A 
BRANCH  45  46
ATOM     46  O   UNL     1      -1.871  10.548  25.465  0.00  0.00    -0.505 OA
ATOM     47  H   UNL     1      -1.626  10.767  24.546  0.00  0.00    +0.292 HD
ENDBRANCH  45  46
ENDBRANCH  37  38
ENDBRANCH  35  37
ENDBRANCH  31  33
ENDBRANCH  30  31
ENDBRANCH  26  30
ENDBRANCH  25  28
ENDBRANCH   1  25
TORSDOF 16
