REMARK VINA RESULT:    -4.209      3.185      6.270
REMARK INTER + INTRA:         -10.777
REMARK INTER:                  -7.733
REMARK INTRA:                  -3.044
REMARK UNBOUND:                -2.754
REMARK  Name = lig_assembled_19.pdb
REMARK  20 active torsions:
REMARK  status: ('A' for Active; 'I' for Inactive)
REMARK    1  A    between atoms: _2  and  _9
REMARK    2  A    between atoms: _4  and  _18
REMARK    3  A    between atoms: _5  and  _11
REMARK    4  A    between atoms: _6  and  _7
REMARK    5  A    between atoms: _6  and  _18
REMARK    6  A    between atoms: _9  and  _10
REMARK    7  A    between atoms: _10  and  _13
REMARK    8  A    between atoms: _11  and  _13
REMARK    9  A    between atoms: _14  and  _34
REMARK   10  A    between atoms: _16  and  _22
REMARK   11  A    between atoms: _17  and  _21
REMARK   12  A    between atoms: _21  and  _22
REMARK   13  A    between atoms: _24  and  _25
REMARK   14  A    between atoms: _26  and  _27
REMARK   15  A    between atoms: _28  and  _30
REMARK   16  A    between atoms: _30  and  _31
REMARK   17  A    between atoms: _30  and  _32
REMARK   18  A    between atoms: _32  and  _33
REMARK   19  A    between atoms: _32  and  _34
REMARK   20  A    between atoms: _35  and  _37
REMARK                            x       y       z     vdW  Elec       q    Type
REMARK                         _______ _______ _______ _____ _____    ______ ____
ROOT
ATOM      1  C   UNL     1      -2.178   9.451  27.168  0.00  0.00    +0.163 C 
ENDROOT
BRANCH   1   2
ATOM      2  O   UNL     1      -0.978   9.544  26.383  0.00  0.00    -0.388 OA
ATOM      3  H   UNL     1      -0.569  10.401  26.522  0.00  0.00    +0.210 HD
ENDBRANCH   1   2
BRANCH   1   4
ATOM      4  C   UNL     1      -3.277   8.691  26.406  0.00  0.00    +0.175 C 
BRANCH   4   5
ATOM      5  C   UNL     1      -4.036   9.600  25.428  0.00  0.00    +0.176 C 
ATOM      6  O   UNL     1      -3.205   9.781  24.249  0.00  0.00    -0.332 OA
ATOM      7  C   UNL     1      -3.815  10.541  23.154  0.00  0.00    +0.277 C 
ATOM      8  C   UNL     1      -4.312  11.917  23.661  0.00  0.00    +0.110 C 
ATOM      9  C   UNL     1      -5.175  11.778  24.933  0.00  0.00    +0.143 C 
ATOM     10  C   UNL     1      -4.444  10.968  26.005  0.00  0.00    +0.133 C 
BRANCH  10  11
ATOM     11  N   UNL     1      -5.310  10.768  27.178  0.00  0.00    -0.308 N 
ATOM     12  H   UNL     1      -6.091  10.134  27.086  0.00  0.00    +0.149 HD
ATOM     13  C   UNL     1      -5.130  11.370  28.357  0.00  0.00    +0.210 C 
ATOM     14  C   UNL     1      -3.946  12.350  28.458  0.00  0.00    +0.109 C 
ATOM     15  O   UNL     1      -5.862  11.172  29.327  0.00  0.00    -0.276 OA
ENDBRANCH  10  11
BRANCH   7  16
ATOM     16  C   UNL     1      -4.996   9.761  22.539  0.00  0.00    +0.414 C 
ATOM     17  O   UNL     1      -6.029  10.349  22.221  0.00  0.00    -0.240 OA
ATOM     18  O   UNL     1      -4.916   8.545  22.361  0.00  0.00    -0.240 OA
ENDBRANCH   7  16
BRANCH   9  19
ATOM     19  O   UNL     1      -5.483  13.073  25.450  0.00  0.00    -0.390 OA
ATOM     20  H   UNL     1      -6.432  13.213  25.417  0.00  0.00    +0.210 HD
ENDBRANCH   9  19
BRANCH   7  21
ATOM     21  O   UNL     1      -2.800  10.766  22.142  0.00  0.00    -0.343 OA
ATOM     22  C   UNL     1      -2.952  11.992  21.384  0.00  0.00    +0.198 C 
ENDBRANCH   7  21
ENDBRANCH   4   5
BRANCH   4  23
ATOM     23  O   UNL     1      -4.196   8.083  27.335  0.00  0.00    -0.387 OA
ATOM     24  H   UNL     1      -3.806   7.282  27.693  0.00  0.00    +0.210 HD
ENDBRANCH   4  23
ENDBRANCH   1   4
BRANCH   1  25
ATOM     25  C   UNL     1      -1.886   8.740  28.485  0.00  0.00    +0.141 C 
BRANCH  25  28
ATOM     26  C   UNL     1      -3.406   9.137  30.393  0.00  0.00    +0.401 C 
ATOM     27  O   UNL     1      -4.075   8.121  30.193  0.00  0.00    -0.226 OA
ATOM     28  N   UNL     1      -2.369   9.507  29.640  0.00  0.00    -0.279 N 
ATOM     29  H   UNL     1      -1.888  10.363  29.878  0.00  0.00    +0.152 HD
BRANCH  26  30
ATOM     30  O   UNL     1      -3.747   9.988  31.490  0.00  0.00    -0.444 OA
BRANCH  30  31
ATOM     31  C   UNL     1      -2.563  10.611  31.997  0.00  0.00    +0.292 C 
BRANCH  31  33
ATOM     32  N   UNL     1      -1.721  12.910  32.379  0.00  0.00    -0.131 NA
ATOM     33  C   UNL     1      -2.776  12.060  32.166  0.00  0.00    +0.120 A 
ATOM     34  C   UNL     1      -3.943  12.789  32.148  0.00  0.00    +0.137 A 
ATOM     35  N   UNL     1      -3.532  14.069  32.366  0.00  0.00    -0.248 N 
ATOM     36  N   UNL     1      -2.199  14.142  32.499  0.00  0.00    -0.065 NA
BRANCH  35  37
ATOM     37  C   UNL     1      -4.347  15.262  32.446  0.00  0.00    +0.186 C 
BRANCH  37  38
ATOM     38  C   UNL     1      -5.468  15.253  31.412  0.00  0.00    +0.255 C 
BRANCH  38  39
ATOM     39  O   UNL     1      -4.967  15.366  30.065  0.00  0.00    -0.463 OA
BRANCH  39  40
ATOM     40  C   UNL     1      -5.900  15.565  29.097  0.00  0.00    +0.304 C 
ATOM     41  O   UNL     1      -6.550  14.679  28.561  0.00  0.00    -0.251 OA
ATOM     42  C   UNL     1      -6.052  17.023  28.792  0.00  0.00    +0.136 C 
ENDBRANCH  39  40
ENDBRANCH  38  39
ENDBRANCH  37  38
ENDBRANCH  35  37
ENDBRANCH  31  33
ENDBRANCH  30  31
ENDBRANCH  26  30
ENDBRANCH  25  28
ENDBRANCH   1  25
TORSDOF 17
