REMARK VINA RESULT:    -4.770      3.153      8.739
REMARK INTER + INTRA:         -11.291
REMARK INTER:                  -8.252
REMARK INTRA:                  -3.039
REMARK UNBOUND:                -2.756
REMARK  Name = lig_assembled_41.pdb
REMARK  18 active torsions:
REMARK  status: ('A' for Active; 'I' for Inactive)
REMARK    1  A    between atoms: _2  and  _9
REMARK    2  A    between atoms: _4  and  _21
REMARK    3  A    between atoms: _6  and  _7
REMARK    4  A    between atoms: _6  and  _21
REMARK    5  A    between atoms: _10  and  _11
REMARK    6  A    between atoms: _11  and  _12
REMARK    7  A    between atoms: _17  and  _37
REMARK    8  A    between atoms: _19  and  _25
REMARK    9  A    between atoms: _20  and  _24
REMARK   10  A    between atoms: _24  and  _25
REMARK   11  A    between atoms: _27  and  _28
REMARK   12  A    between atoms: _29  and  _30
REMARK   13  A    between atoms: _31  and  _33
REMARK   14  A    between atoms: _33  and  _34
REMARK   15  A    between atoms: _33  and  _35
REMARK   16  A    between atoms: _35  and  _36
REMARK   17  A    between atoms: _35  and  _37
REMARK   18  A    between atoms: _38  and  _40
REMARK                            x       y       z     vdW  Elec       q    Type
REMARK                         _______ _______ _______ _____ _____    ______ ____
ROOT
ATOM      1  C   UNL     1      -5.739   7.678  24.412  0.00  0.00    +0.163 C 
ENDROOT
BRANCH   1   2
ATOM      2  O   UNL     1      -4.634   7.049  25.081  0.00  0.00    -0.388 OA
ATOM      3  H   UNL     1      -3.813   7.454  24.793  0.00  0.00    +0.210 HD
ENDBRANCH   1   2
BRANCH   1   4
ATOM      4  C   UNL     1      -6.454   6.666  23.522  0.00  0.00    +0.141 C 
BRANCH   4   7
ATOM      5  C   UNL     1      -6.978   6.517  21.111  0.00  0.00    +0.401 C 
ATOM      6  O   UNL     1      -6.833   5.294  21.059  0.00  0.00    -0.226 OA
ATOM      7  N   UNL     1      -6.814   7.241  22.220  0.00  0.00    -0.279 N 
ATOM      8  H   UNL     1      -6.946   8.241  22.160  0.00  0.00    +0.152 HD
BRANCH   5   9
ATOM      9  O   UNL     1      -7.338   7.225  19.922  0.00  0.00    -0.444 OA
BRANCH   9  10
ATOM     10  C   UNL     1      -6.959   8.598  20.050  0.00  0.00    +0.292 C 
BRANCH  10  12
ATOM     11  N   UNL     1      -5.014   8.321  18.558  0.00  0.00    -0.131 NA
ATOM     12  C   UNL     1      -6.136   9.013  18.899  0.00  0.00    +0.121 A 
ATOM     13  C   UNL     1      -6.312  10.051  18.010  0.00  0.00    +0.143 A 
ATOM     14  N   UNL     1      -5.201  10.019  17.197  0.00  0.00    -0.219 N 
ATOM     15  N   UNL     1      -4.481   8.902  17.495  0.00  0.00    -0.060 NA
BRANCH  14  16
ATOM     16  C   UNL     1      -4.815  10.861  16.116  0.00  0.00    +0.077 A 
ATOM     17  C   UNL     1      -4.835  10.484  14.756  0.00  0.00    +0.043 A 
ATOM     18  C   UNL     1      -4.376  11.405  13.790  0.00  0.00    +0.013 A 
ATOM     19  C   UNL     1      -3.901  12.666  14.157  0.00  0.00    +0.001 A 
ATOM     20  C   UNL     1      -3.904  13.045  15.491  0.00  0.00    +0.002 A 
ATOM     21  C   UNL     1      -4.367  12.157  16.460  0.00  0.00    +0.028 A 
BRANCH  17  22
ATOM     22  C   UNL     1      -5.506   9.251  14.244  0.00  0.00    +0.162 C 
ATOM     23  O   UNL     1      -4.834   8.244  14.032  0.00  0.00    -0.292 OA
ATOM     24  C   UNL     1      -6.995   9.243  13.991  0.00  0.00    +0.091 C 
ENDBRANCH  17  22
ENDBRANCH  14  16
ENDBRANCH  10  12
ENDBRANCH   9  10
ENDBRANCH   5   9
ENDBRANCH   4   7
ENDBRANCH   1   4
BRANCH   1  25
ATOM     25  C   UNL     1      -5.262   8.866  23.559  0.00  0.00    +0.175 C 
BRANCH  25  26
ATOM     26  C   UNL     1      -4.099   9.621  24.219  0.00  0.00    +0.176 C 
ATOM     27  O   UNL     1      -4.381   9.720  25.642  0.00  0.00    -0.332 OA
ATOM     28  C   UNL     1      -3.322  10.322  26.458  0.00  0.00    +0.277 C 
ATOM     29  C   UNL     1      -2.938  11.716  25.902  0.00  0.00    +0.110 C 
ATOM     30  C   UNL     1      -2.660  11.667  24.385  0.00  0.00    +0.143 C 
ATOM     31  C   UNL     1      -3.824  11.018  23.634  0.00  0.00    +0.133 C 
BRANCH  31  32
ATOM     32  N   UNL     1      -3.510  10.899  22.202  0.00  0.00    -0.308 N 
ATOM     33  H   UNL     1      -2.776  10.260  21.931  0.00  0.00    +0.149 HD
ATOM     34  C   UNL     1      -4.133  11.579  21.235  0.00  0.00    +0.210 C 
ATOM     35  C   UNL     1      -5.230  12.564  21.682  0.00  0.00    +0.109 C 
ATOM     36  O   UNL     1      -3.859  11.448  20.042  0.00  0.00    -0.276 OA
ENDBRANCH  31  32
BRANCH  28  37
ATOM     37  C   UNL     1      -2.073   9.417  26.488  0.00  0.00    +0.414 C 
ATOM     38  O   UNL     1      -2.191   8.195  26.415  0.00  0.00    -0.240 OA
ATOM     39  O   UNL     1      -0.948   9.909  26.585  0.00  0.00    -0.240 OA
ENDBRANCH  28  37
BRANCH  30  40
ATOM     40  O   UNL     1      -2.459  12.991  23.889  0.00  0.00    -0.390 OA
ATOM     41  H   UNL     1      -1.519  13.182  23.855  0.00  0.00    +0.210 HD
ENDBRANCH  30  40
BRANCH  28  42
ATOM     42  O   UNL     1      -3.835  10.493  27.804  0.00  0.00    -0.343 OA
ATOM     43  C   UNL     1      -3.720  11.836  28.338  0.00  0.00    +0.198 C 
ENDBRANCH  28  42
ENDBRANCH  25  26
BRANCH  25  44
ATOM     44  O   UNL     1      -6.358   9.766  23.304  0.00  0.00    -0.387 OA
ATOM     45  H   UNL     1      -6.237  10.571  23.814  0.00  0.00    +0.210 HD
ENDBRANCH  25  44
ENDBRANCH   1  25
TORSDOF 15
