REMARK VINA RESULT:    -4.691      3.885      9.071
REMARK INTER + INTRA:         -11.607
REMARK INTER:                  -9.006
REMARK INTRA:                  -2.600
REMARK UNBOUND:                -3.213
REMARK  Name = lig_assembled_46.pdb
REMARK  17 active torsions:
REMARK  status: ('A' for Active; 'I' for Inactive)
REMARK    1  A    between atoms: _2  and  _9
REMARK    2  A    between atoms: _4  and  _19
REMARK    3  A    between atoms: _6  and  _7
REMARK    4  A    between atoms: _6  and  _19
REMARK    5  A    between atoms: _9  and  _10
REMARK    6  A    between atoms: _15  and  _35
REMARK    7  A    between atoms: _17  and  _23
REMARK    8  A    between atoms: _18  and  _22
REMARK    9  A    between atoms: _22  and  _23
REMARK   10  A    between atoms: _25  and  _26
REMARK   11  A    between atoms: _27  and  _28
REMARK   12  A    between atoms: _29  and  _31
REMARK   13  A    between atoms: _31  and  _32
REMARK   14  A    between atoms: _31  and  _33
REMARK   15  A    between atoms: _33  and  _34
REMARK   16  A    between atoms: _33  and  _35
REMARK   17  A    between atoms: _36  and  _38
REMARK                            x       y       z     vdW  Elec       q    Type
REMARK                         _______ _______ _______ _____ _____    ______ ____
ROOT
ATOM      1  C   UNL     1      -1.879   9.464  27.262  0.00  0.00    +0.163 C 
ENDROOT
BRANCH   1   2
ATOM      2  O   UNL     1      -1.913   8.318  26.395  0.00  0.00    -0.388 OA
ATOM      3  H   UNL     1      -1.049   8.195  25.993  0.00  0.00    +0.210 HD
ENDBRANCH   1   2
BRANCH   1   4
ATOM      4  C   UNL     1      -2.339   9.072  28.663  0.00  0.00    +0.141 C 
BRANCH   4   7
ATOM      5  C   UNL     1      -3.721  10.049  30.463  0.00  0.00    +0.401 C 
ATOM      6  O   UNL     1      -3.945   8.966  31.008  0.00  0.00    -0.226 OA
ATOM      7  N   UNL     1      -2.986  10.191  29.359  0.00  0.00    -0.279 N 
ATOM      8  H   UNL     1      -2.866  11.120  28.982  0.00  0.00    +0.152 HD
BRANCH   5   9
ATOM      9  O   UNL     1      -4.276  11.239  31.029  0.00  0.00    -0.444 OA
BRANCH   9  10
ATOM     10  C   UNL     1      -3.296  11.880  31.851  0.00  0.00    +0.292 C 
BRANCH  10  12
ATOM     11  N   UNL     1      -2.557  14.154  31.211  0.00  0.00    -0.131 NA
ATOM     12  C   UNL     1      -3.477  13.344  31.820  0.00  0.00    +0.120 A 
ATOM     13  C   UNL     1      -4.511  14.118  32.301  0.00  0.00    +0.137 A 
ATOM     14  N   UNL     1      -4.190  15.384  31.902  0.00  0.00    -0.247 N 
ATOM     15  N   UNL     1      -3.006  15.402  31.259  0.00  0.00    -0.065 NA
BRANCH  14  16
ATOM     16  C   UNL     1      -5.056  16.550  31.874  0.00  0.00    +0.180 C 
BRANCH  16  17
ATOM     17  C   UNL     1      -5.375  17.035  30.482  0.00  0.00    -0.026 A 
ATOM     18  C   UNL     1      -6.168  16.268  29.614  0.00  0.00    +0.005 A 
ATOM     19  C   UNL     1      -6.537  16.769  28.363  0.00  0.00    +0.000 A 
ATOM     20  C   UNL     1      -6.124  18.039  27.967  0.00  0.00    +0.000 A 
ATOM     21  C   UNL     1      -5.330  18.807  28.816  0.00  0.00    +0.000 A 
ATOM     22  C   UNL     1      -4.958  18.310  30.066  0.00  0.00    +0.005 A 
ENDBRANCH  16  17
ENDBRANCH  14  16
ENDBRANCH  10  12
ENDBRANCH   9  10
ENDBRANCH   5   9
ENDBRANCH   4   7
ENDBRANCH   1   4
BRANCH   1  23
ATOM     23  C   UNL     1      -2.778  10.589  26.722  0.00  0.00    +0.175 C 
BRANCH  23  24
ATOM     24  C   UNL     1      -3.798  10.072  25.697  0.00  0.00    +0.176 C 
ATOM     25  O   UNL     1      -3.157  10.067  24.392  0.00  0.00    -0.332 OA
ATOM     26  C   UNL     1      -3.951   9.501  23.297  0.00  0.00    +0.277 C 
ATOM     27  C   UNL     1      -5.325  10.209  23.203  0.00  0.00    +0.110 C 
ATOM     28  C   UNL     1      -6.031  10.267  24.574  0.00  0.00    +0.143 C 
ATOM     29  C   UNL     1      -5.114  10.870  25.638  0.00  0.00    +0.133 C 
BRANCH  29  30
ATOM     30  N   UNL     1      -5.766  10.840  26.957  0.00  0.00    -0.308 N 
ATOM     31  H   UNL     1      -5.983   9.937  27.355  0.00  0.00    +0.149 HD
ATOM     32  C   UNL     1      -6.089  11.927  27.662  0.00  0.00    +0.210 C 
ATOM     33  C   UNL     1      -5.769  13.288  27.016  0.00  0.00    +0.109 C 
ATOM     34  O   UNL     1      -6.622  11.871  28.771  0.00  0.00    -0.276 OA
ENDBRANCH  29  30
BRANCH  26  35
ATOM     35  C   UNL     1      -4.164   7.987  23.503  0.00  0.00    +0.414 C 
ATOM     36  O   UNL     1      -3.399   7.345  24.222  0.00  0.00    -0.240 OA
ATOM     37  O   UNL     1      -5.101   7.408  22.951  0.00  0.00    -0.240 OA
ENDBRANCH  26  35
BRANCH  26  38
ATOM     38  O   UNL     1      -3.233   9.729  22.057  0.00  0.00    -0.343 OA
ATOM     39  C   UNL     1      -3.889  10.626  21.126  0.00  0.00    +0.198 C 
ENDBRANCH  26  38
BRANCH  28  40
ATOM     40  O   UNL     1      -7.217  11.056  24.472  0.00  0.00    -0.390 OA
ATOM     41  H   UNL     1      -7.436  11.187  23.547  0.00  0.00    +0.210 HD
ENDBRANCH  28  40
ENDBRANCH  23  24
BRANCH  23  42
ATOM     42  O   UNL     1      -1.972  11.632  26.138  0.00  0.00    -0.387 OA
ATOM     43  H   UNL     1      -1.376  11.251  25.489  0.00  0.00    +0.210 HD
ENDBRANCH  23  42
ENDBRANCH   1  23
TORSDOF 15
