REMARK VINA RESULT:    -4.599      9.052     13.731
REMARK INTER + INTRA:         -10.801
REMARK INTER:                  -7.589
REMARK INTRA:                  -3.212
REMARK UNBOUND:                -2.841
REMARK  Name = lig_assembled_86.pdb
REMARK  17 active torsions:
REMARK  status: ('A' for Active; 'I' for Inactive)
REMARK    1  A    between atoms: _2  and  _10
REMARK    2  A    between atoms: _3  and  _13
REMARK    3  A    between atoms: _5  and  _21
REMARK    4  A    between atoms: _7  and  _8
REMARK    5  A    between atoms: _7  and  _21
REMARK    6  A    between atoms: _17  and  _37
REMARK    7  A    between atoms: _19  and  _25
REMARK    8  A    between atoms: _20  and  _24
REMARK    9  A    between atoms: _24  and  _25
REMARK   10  A    between atoms: _27  and  _28
REMARK   11  A    between atoms: _29  and  _30
REMARK   12  A    between atoms: _31  and  _33
REMARK   13  A    between atoms: _33  and  _34
REMARK   14  A    between atoms: _33  and  _35
REMARK   15  A    between atoms: _35  and  _36
REMARK   16  A    between atoms: _35  and  _37
REMARK   17  A    between atoms: _38  and  _40
REMARK                            x       y       z     vdW  Elec       q    Type
REMARK                         _______ _______ _______ _____ _____    ______ ____
ROOT
ATOM      1  C   UNL     1      -2.904  10.182  29.250  0.00  0.00    +0.163 C 
ENDROOT
BRANCH   1   2
ATOM      2  O   UNL     1      -1.971  10.008  28.171  0.00  0.00    -0.388 OA
ATOM      3  H   UNL     1      -2.164   9.188  27.709  0.00  0.00    +0.210 HD
ENDBRANCH   1   2
BRANCH   1   4
ATOM      4  C   UNL     1      -3.356   8.823  29.773  0.00  0.00    +0.141 C 
BRANCH   4   7
ATOM      5  C   UNL     1      -4.281   7.004  28.380  0.00  0.00    +0.401 C 
ATOM      6  O   UNL     1      -5.409   7.070  28.875  0.00  0.00    -0.226 OA
ATOM      7  N   UNL     1      -3.260   7.780  28.744  0.00  0.00    -0.279 N 
ATOM      8  H   UNL     1      -2.370   7.644  28.286  0.00  0.00    +0.152 HD
BRANCH   5   9
ATOM      9  O   UNL     1      -4.029   6.040  27.354  0.00  0.00    -0.444 OA
BRANCH   9  10
ATOM     10  C   UNL     1      -4.684   6.442  26.149  0.00  0.00    +0.292 C 
BRANCH  10  12
ATOM     11  N   UNL     1      -2.945   8.164  25.745  0.00  0.00    -0.131 NA
ATOM     12  C   UNL     1      -4.268   7.807  25.774  0.00  0.00    +0.120 A 
ATOM     13  C   UNL     1      -5.029   8.888  25.398  0.00  0.00    +0.137 A 
ATOM     14  N   UNL     1      -4.115   9.858  25.120  0.00  0.00    -0.248 N 
ATOM     15  N   UNL     1      -2.863   9.431  25.360  0.00  0.00    -0.065 NA
BRANCH  14  16
ATOM     16  C   UNL     1      -4.374  11.199  24.618  0.00  0.00    +0.112 C 
ATOM     17  C   UNL     1      -3.075  11.916  24.198  0.00  0.00    +0.045 C 
ATOM     18  C   UNL     1      -3.147  12.625  22.843  0.00  0.00    +0.059 C 
ATOM     19  C   UNL     1      -3.054  11.622  21.689  0.00  0.00    +0.020 C 
ATOM     20  C   UNL     1      -4.505  11.304  21.337  0.00  0.00    +0.020 C 
ATOM     21  C   UNL     1      -5.328  12.082  22.366  0.00  0.00    +0.059 C 
ATOM     22  N   UNL     1      -4.453  13.233  22.590  0.00  0.00    -0.299 NA
ATOM     23  C   UNL     1      -4.914  14.217  23.552  0.00  0.00    +0.105 C 
ATOM     24  C   UNL     1      -5.565  11.251  23.634  0.00  0.00    +0.045 C 
ENDBRANCH  14  16
ENDBRANCH  10  12
ENDBRANCH   9  10
ENDBRANCH   5   9
ENDBRANCH   4   7
ENDBRANCH   1   4
BRANCH   1  25
ATOM     25  C   UNL     1      -4.130  10.990  28.792  0.00  0.00    +0.175 C 
BRANCH  25  26
ATOM     26  C   UNL     1      -4.268  12.315  29.556  0.00  0.00    +0.176 C 
ATOM     27  O   UNL     1      -4.028  12.045  30.965  0.00  0.00    -0.332 OA
ATOM     28  C   UNL     1      -4.014  13.220  31.842  0.00  0.00    +0.277 C 
ATOM     29  C   UNL     1      -5.323  14.032  31.679  0.00  0.00    +0.110 C 
ATOM     30  C   UNL     1      -5.636  14.316  30.195  0.00  0.00    +0.143 C 
ATOM     31  C   UNL     1      -5.622  13.026  29.375  0.00  0.00    +0.133 C 
BRANCH  31  32
ATOM     32  N   UNL     1      -5.836  13.320  27.949  0.00  0.00    -0.308 N 
ATOM     33  H   UNL     1      -5.110  13.822  27.457  0.00  0.00    +0.149 HD
ATOM     34  C   UNL     1      -6.925  12.965  27.263  0.00  0.00    +0.210 C 
ATOM     35  C   UNL     1      -8.024  12.224  28.047  0.00  0.00    +0.109 C 
ATOM     36  O   UNL     1      -7.071  13.212  26.065  0.00  0.00    -0.276 OA
ENDBRANCH  31  32
BRANCH  28  37
ATOM     37  C   UNL     1      -2.804  14.124  31.526  0.00  0.00    +0.414 C 
ATOM     38  O   UNL     1      -2.974  15.301  31.211  0.00  0.00    -0.240 OA
ATOM     39  O   UNL     1      -1.658  13.676  31.587  0.00  0.00    -0.240 OA
ENDBRANCH  28  37
BRANCH  30  40
ATOM     40  O   UNL     1      -6.920  14.931  30.083  0.00  0.00    -0.390 OA
ATOM     41  H   UNL     1      -7.545  14.474  30.651  0.00  0.00    +0.210 HD
ENDBRANCH  30  40
BRANCH  28  42
ATOM     42  O   UNL     1      -3.932  12.755  33.214  0.00  0.00    -0.343 OA
ATOM     43  C   UNL     1      -3.714  11.330  33.365  0.00  0.00    +0.198 C 
ENDBRANCH  28  42
ENDBRANCH  25  26
BRANCH  25  44
ATOM     44  O   UNL     1      -5.328  10.203  28.942  0.00  0.00    -0.387 OA
ATOM     45  H   UNL     1      -5.433   9.629  28.179  0.00  0.00    +0.210 HD
ENDBRANCH  25  44
ENDBRANCH   1  25
TORSDOF 14
