REMARK VINA RESULT:    -5.039      5.951     11.189
REMARK INTER + INTRA:         -11.704
REMARK INTER:                  -8.357
REMARK INTRA:                  -3.347
REMARK UNBOUND:                -2.541
REMARK  Name = lig_assembled_23.pdb
REMARK  18 active torsions:
REMARK  status: ('A' for Active; 'I' for Inactive)
REMARK    1  A    between atoms: _2  and  _10
REMARK    2  A    between atoms: _3  and  _41
REMARK    3  A    between atoms: _5  and  _21
REMARK    4  A    between atoms: _7  and  _8
REMARK    5  A    between atoms: _7  and  _21
REMARK    6  A    between atoms: _12  and  _41
REMARK    7  A    between atoms: _17  and  _37
REMARK    8  A    between atoms: _19  and  _25
REMARK    9  A    between atoms: _20  and  _24
REMARK   10  A    between atoms: _24  and  _25
REMARK   11  A    between atoms: _27  and  _28
REMARK   12  A    between atoms: _29  and  _30
REMARK   13  A    between atoms: _31  and  _33
REMARK   14  A    between atoms: _33  and  _34
REMARK   15  A    between atoms: _33  and  _35
REMARK   16  A    between atoms: _35  and  _36
REMARK   17  A    between atoms: _35  and  _37
REMARK   18  A    between atoms: _38  and  _40
REMARK                            x       y       z     vdW  Elec       q    Type
REMARK                         _______ _______ _______ _____ _____    ______ ____
ROOT
ATOM      1  C   UNL     1      -3.630  10.415  29.263  0.00  0.00    +0.141 C 
ENDROOT
BRANCH   1   4
ATOM      2  C   UNL     1      -2.820  11.027  31.516  0.00  0.00    +0.401 C 
ATOM      3  O   UNL     1      -3.375  10.079  32.076  0.00  0.00    -0.226 OA
ATOM      4  N   UNL     1      -2.891  11.264  30.205  0.00  0.00    -0.279 N 
ATOM      5  H   UNL     1      -2.409  12.074  29.840  0.00  0.00    +0.152 HD
BRANCH   2   6
ATOM      6  O   UNL     1      -2.052  11.943  32.300  0.00  0.00    -0.444 OA
BRANCH   6   7
ATOM      7  C   UNL     1      -2.921  12.674  33.169  0.00  0.00    +0.292 C 
BRANCH   7   9
ATOM      8  N   UNL     1      -2.690  15.126  32.938  0.00  0.00    -0.131 NA
ATOM      9  C   UNL     1      -3.293  13.962  32.555  0.00  0.00    +0.121 A 
ATOM     10  C   UNL     1      -4.221  14.239  31.576  0.00  0.00    +0.143 A 
ATOM     11  N   UNL     1      -4.140  15.598  31.385  0.00  0.00    -0.220 N 
ATOM     12  N   UNL     1      -3.211  16.115  32.226  0.00  0.00    -0.060 NA
BRANCH  11  13
ATOM     13  C   UNL     1      -4.875  16.418  30.488  0.00  0.00    +0.069 A 
ATOM     14  C   UNL     1      -5.737  15.820  29.557  0.00  0.00    +0.056 A 
ATOM     15  C   UNL     1      -6.435  16.623  28.649  0.00  0.00    +0.107 A 
ATOM     16  C   UNL     1      -6.307  18.013  28.673  0.00  0.00    +0.028 A 
ATOM     17  C   UNL     1      -5.461  18.606  29.609  0.00  0.00    +0.004 A 
ATOM     18  C   UNL     1      -4.743  17.814  30.512  0.00  0.00    +0.028 A 
BRANCH  15  19
ATOM     19  S   UNL     1      -7.472  15.850  27.444  0.00  0.00    +0.056 S 
ATOM     20  O   UNL     1      -8.761  15.586  28.041  0.00  0.00    -0.153 OA
ATOM     21  O   UNL     1      -7.322  16.530  26.179  0.00  0.00    -0.153 OA
BRANCH  19  22
ATOM     22  N   UNL     1      -6.722  14.362  27.241  0.00  0.00    -0.204 NA
ATOM     23  H   UNL     1      -7.052  13.918  26.385  0.00  0.00    +0.144 HD
ATOM     24  H   UNL     1      -6.845  13.791  28.079  0.00  0.00    +0.144 HD
ENDBRANCH  19  22
ENDBRANCH  15  19
ENDBRANCH  11  13
ENDBRANCH   7   9
ENDBRANCH   6   7
ENDBRANCH   2   6
ENDBRANCH   1   4
BRANCH   1  25
ATOM     25  C   UNL     1      -4.406  11.240  28.242  0.00  0.00    +0.163 C 
BRANCH  25  26
ATOM     26  O   UNL     1      -5.135  12.285  28.906  0.00  0.00    -0.388 OA
ATOM     27  H   UNL     1      -6.066  12.052  28.945  0.00  0.00    +0.210 HD
ENDBRANCH  25  26
BRANCH  25  28
ATOM     28  C   UNL     1      -3.430  11.823  27.205  0.00  0.00    +0.175 C 
BRANCH  28  29
ATOM     29  C   UNL     1      -3.952  11.667  25.769  0.00  0.00    +0.176 C 
ATOM     30  O   UNL     1      -5.103  12.541  25.613  0.00  0.00    -0.332 OA
ATOM     31  C   UNL     1      -5.673  12.604  24.264  0.00  0.00    +0.277 C 
ATOM     32  C   UNL     1      -6.023  11.183  23.758  0.00  0.00    +0.110 C 
ATOM     33  C   UNL     1      -4.839  10.209  23.933  0.00  0.00    +0.143 C 
ATOM     34  C   UNL     1      -4.322  10.226  25.372  0.00  0.00    +0.133 C 
BRANCH  34  35
ATOM     35  N   UNL     1      -3.141   9.359  25.505  0.00  0.00    -0.308 N 
ATOM     36  H   UNL     1      -2.285   9.656  25.056  0.00  0.00    +0.149 HD
ATOM     37  C   UNL     1      -3.124   8.207  26.180  0.00  0.00    +0.210 C 
ATOM     38  C   UNL     1      -4.450   7.770  26.831  0.00  0.00    +0.109 C 
ATOM     39  O   UNL     1      -2.115   7.509  26.287  0.00  0.00    -0.276 OA
ENDBRANCH  34  35
BRANCH  31  40
ATOM     40  C   UNL     1      -4.687  13.272  23.284  0.00  0.00    +0.414 C 
ATOM     41  O   UNL     1      -4.192  14.366  23.551  0.00  0.00    -0.240 OA
ATOM     42  O   UNL     1      -4.386  12.717  22.226  0.00  0.00    -0.240 OA
ENDBRANCH  31  40
BRANCH  33  43
ATOM     43  O   UNL     1      -5.252   8.883  23.597  0.00  0.00    -0.390 OA
ATOM     44  H   UNL     1      -4.500   8.290  23.651  0.00  0.00    +0.210 HD
ENDBRANCH  33  43
BRANCH  31  45
ATOM     45  O   UNL     1      -6.897  13.380  24.330  0.00  0.00    -0.343 OA
ATOM     46  C   UNL     1      -7.603  13.519  23.071  0.00  0.00    +0.198 C 
ENDBRANCH  31  45
ENDBRANCH  28  29
BRANCH  28  47
ATOM     47  O   UNL     1      -2.137  11.200  27.335  0.00  0.00    -0.387 OA
ATOM     48  H   UNL     1      -2.238  10.246  27.314  0.00  0.00    +0.210 HD
ENDBRANCH  28  47
ENDBRANCH  25  28
ENDBRANCH   1  25
TORSDOF 16
