REMARK VINA RESULT:    -5.140      7.822     11.491
REMARK INTER + INTRA:         -10.930
REMARK INTER:                  -7.970
REMARK INTRA:                  -2.960
REMARK UNBOUND:                -2.334
REMARK  Name = lig_assembled_65.pdb
REMARK  16 active torsions:
REMARK  status: ('A' for Active; 'I' for Inactive)
REMARK    1  A    between atoms: _8  and  _20
REMARK    2  A    between atoms: _9  and  _15
REMARK    3  A    between atoms: _10  and  _11
REMARK    4  A    between atoms: _10  and  _20
REMARK    5  A    between atoms: _16  and  _36
REMARK    6  A    between atoms: _18  and  _24
REMARK    7  A    between atoms: _19  and  _23
REMARK    8  A    between atoms: _23  and  _24
REMARK    9  A    between atoms: _26  and  _27
REMARK   10  A    between atoms: _28  and  _29
REMARK   11  A    between atoms: _30  and  _32
REMARK   12  A    between atoms: _32  and  _33
REMARK   13  A    between atoms: _32  and  _34
REMARK   14  A    between atoms: _34  and  _35
REMARK   15  A    between atoms: _34  and  _36
REMARK   16  A    between atoms: _37  and  _39
REMARK                            x       y       z     vdW  Elec       q    Type
REMARK                         _______ _______ _______ _____ _____    ______ ____
ROOT
ATOM      1  C   UNL     1      -5.316   8.235  25.047  0.00  0.00    +0.163 C 
ENDROOT
BRANCH   1   2
ATOM      2  O   UNL     1      -5.774   8.892  26.240  0.00  0.00    -0.388 OA
ATOM      3  H   UNL     1      -6.429   9.555  26.010  0.00  0.00    +0.210 HD
ENDBRANCH   1   2
BRANCH   1   4
ATOM      4  C   UNL     1      -3.825   7.933  25.157  0.00  0.00    +0.141 C 
BRANCH   4   7
ATOM      5  C   UNL     1      -2.746   7.456  27.328  0.00  0.00    +0.401 C 
ATOM      6  O   UNL     1      -2.658   6.243  27.125  0.00  0.00    -0.226 OA
ATOM      7  N   UNL     1      -3.283   8.320  26.466  0.00  0.00    -0.279 N 
ATOM      8  H   UNL     1      -3.320   9.295  26.727  0.00  0.00    +0.152 HD
BRANCH   5   9
ATOM      9  O   UNL     1      -2.253   7.992  28.559  0.00  0.00    -0.444 OA
BRANCH   9  10
ATOM     10  C   UNL     1      -3.340   8.170  29.472  0.00  0.00    +0.292 C 
BRANCH  10  12
ATOM     11  N   UNL     1      -4.582  10.212  28.824  0.00  0.00    -0.131 NA
ATOM     12  C   UNL     1      -3.655   9.603  29.624  0.00  0.00    +0.121 A 
ATOM     13  C   UNL     1      -3.143  10.529  30.502  0.00  0.00    +0.149 A 
ATOM     14  N   UNL     1      -3.788  11.707  30.191  0.00  0.00    -0.155 N 
ATOM     15  C   UNL     1      -3.599  12.980  30.806  0.00  0.00    +0.416 C 
ATOM     16  N   UNL     1      -4.323  14.016  30.369  0.00  0.00    +0.041 NA
ATOM     17  C   UNL     1      -4.078  15.174  30.979  0.00  0.00    +0.339 C 
ATOM     18  C   UNL     1      -4.848  16.374  30.525  0.00  0.00    +0.149 C 
ATOM     19  N   UNL     1      -3.187  15.338  31.957  0.00  0.00    +0.007 NA
ATOM     20  C   UNL     1      -2.514  14.253  32.305  0.00  0.00    +0.386 C 
ATOM     21  N   UNL     1      -1.573  14.383  33.305  0.00  0.00    -0.296 N 
ATOM     22  H   UNL     1      -1.771  15.192  33.879  0.00  0.00    +0.148 HD
ATOM     23  H   UNL     1      -1.414  13.504  33.776  0.00  0.00    +0.148 HD
ATOM     24  N   UNL     1      -2.687  13.051  31.787  0.00  0.00    -0.290 NA
ATOM     25  N   UNL     1      -4.662  11.490  29.175  0.00  0.00    -0.055 NA
ENDBRANCH  10  12
ENDBRANCH   9  10
ENDBRANCH   5   9
ENDBRANCH   4   7
ENDBRANCH   1   4
BRANCH   1  26
ATOM     26  C   UNL     1      -5.573   9.107  23.806  0.00  0.00    +0.175 C 
BRANCH  26  27
ATOM     27  C   UNL     1      -4.707  10.375  23.800  0.00  0.00    +0.176 C 
ATOM     28  O   UNL     1      -5.087  11.182  24.949  0.00  0.00    -0.332 OA
ATOM     29  C   UNL     1      -4.287  12.390  25.167  0.00  0.00    +0.277 C 
ATOM     30  C   UNL     1      -4.274  13.268  23.892  0.00  0.00    +0.110 C 
ATOM     31  C   UNL     1      -3.905  12.447  22.639  0.00  0.00    +0.143 C 
ATOM     32  C   UNL     1      -4.797  11.211  22.511  0.00  0.00    +0.133 C 
BRANCH  32  33
ATOM     33  N   UNL     1      -4.380  10.391  21.362  0.00  0.00    -0.308 N 
ATOM     34  H   UNL     1      -3.450   9.995  21.379  0.00  0.00    +0.149 HD
ATOM     35  C   UNL     1      -5.148  10.137  20.300  0.00  0.00    +0.210 C 
ATOM     36  C   UNL     1      -6.549  10.777  20.293  0.00  0.00    +0.109 C 
ATOM     37  O   UNL     1      -4.777   9.434  19.359  0.00  0.00    -0.276 OA
ENDBRANCH  32  33
BRANCH  29  38
ATOM     38  C   UNL     1      -2.840  12.025  25.557  0.00  0.00    +0.414 C 
ATOM     39  O   UNL     1      -1.895  12.675  25.112  0.00  0.00    -0.240 OA
ATOM     40  O   UNL     1      -2.617  11.081  26.316  0.00  0.00    -0.240 OA
ENDBRANCH  29  38
BRANCH  29  41
ATOM     41  O   UNL     1      -4.905  13.149  26.239  0.00  0.00    -0.343 OA
ATOM     42  C   UNL     1      -6.325  13.392  26.078  0.00  0.00    +0.198 C 
ENDBRANCH  29  41
BRANCH  31  43
ATOM     43  O   UNL     1      -4.052  13.257  21.472  0.00  0.00    -0.390 OA
ATOM     44  H   UNL     1      -4.976  13.281  21.213  0.00  0.00    +0.210 HD
ENDBRANCH  31  43
ENDBRANCH  26  27
BRANCH  26  45
ATOM     45  O   UNL     1      -6.969   9.459  23.727  0.00  0.00    -0.387 OA
ATOM     46  H   UNL     1      -7.496   8.773  24.144  0.00  0.00    +0.210 HD
ENDBRANCH  26  45
ENDBRANCH   1  26
TORSDOF 13
