REMARK VINA RESULT:    -5.965      2.654     12.871
REMARK INTER + INTRA:         -14.592
REMARK INTER:                 -10.997
REMARK INTRA:                  -3.595
REMARK UNBOUND:                -3.396
REMARK  Name = lig_assembled_34.pdb
REMARK  19 active torsions:
REMARK  status: ('A' for Active; 'I' for Inactive)
REMARK    1  A    between atoms: _2  and  _9
REMARK    2  A    between atoms: _4  and  _37
REMARK    3  A    between atoms: _6  and  _7
REMARK    4  A    between atoms: _6  and  _37
REMARK    5  A    between atoms: _11  and  _12
REMARK    6  A    between atoms: _13  and  _14
REMARK    7  A    between atoms: _18  and  _31
REMARK    8  A    between atoms: _33  and  _53
REMARK    9  A    between atoms: _35  and  _41
REMARK   10  A    between atoms: _36  and  _40
REMARK   11  A    between atoms: _40  and  _41
REMARK   12  A    between atoms: _43  and  _44
REMARK   13  A    between atoms: _45  and  _46
REMARK   14  A    between atoms: _47  and  _49
REMARK   15  A    between atoms: _49  and  _50
REMARK   16  A    between atoms: _49  and  _51
REMARK   17  A    between atoms: _51  and  _52
REMARK   18  A    between atoms: _51  and  _53
REMARK   19  A    between atoms: _54  and  _56
REMARK                            x       y       z     vdW  Elec       q    Type
REMARK                         _______ _______ _______ _____ _____    ______ ____
ROOT
ATOM      1  N   UNL     1      -4.624  13.565  21.577  0.00  0.00    -0.131 NA
ATOM      2  C   UNL     1      -5.151  12.354  21.226  0.00  0.00    +0.121 A 
ATOM      3  C   UNL     1      -5.030  11.493  22.288  0.00  0.00    +0.143 A 
ATOM      4  N   UNL     1      -4.443  12.228  23.295  0.00  0.00    -0.220 N 
ATOM      5  N   UNL     1      -4.182  13.479  22.829  0.00  0.00    -0.060 NA
ENDROOT
BRANCH   4   6
ATOM      6  C   UNL     1      -4.175  11.824  24.631  0.00  0.00    +0.068 A 
ATOM      7  C   UNL     1      -5.139  11.103  25.342  0.00  0.00    +0.038 A 
ATOM      8  C   UNL     1      -4.993  10.779  26.713  0.00  0.00    +0.007 A 
ATOM      9  C   UNL     1      -3.795  11.134  27.365  0.00  0.00    -0.008 A 
ATOM     10  C   UNL     1      -2.802  11.820  26.624  0.00  0.00    +0.011 A 
ATOM     11  C   UNL     1      -2.991  12.179  25.278  0.00  0.00    +0.028 A 
BRANCH   9  12
ATOM     12  C   UNL     1      -3.517  10.908  28.821  0.00  0.00    +0.004 A 
ATOM     13  C   UNL     1      -3.807  11.841  29.773  0.00  0.00    +0.026 A 
ATOM     14  C   UNL     1      -4.358  13.162  29.447  0.00  0.00    +0.016 A 
ATOM     15  C   UNL     1      -4.459  14.128  30.373  0.00  0.00    +0.051 A 
ATOM     16  C   UNL     1      -4.047  13.876  31.774  0.00  0.00    +0.183 A 
ATOM     17  O   UNL     1      -4.073  14.770  32.617  0.00  0.00    -0.288 OA
ATOM     18  C   UNL     1      -3.675  12.494  32.137  0.00  0.00    +0.097 A 
ATOM     19  C   UNL     1      -3.599  11.540  31.202  0.00  0.00    +0.140 A 
ATOM     20  O   UNL     1      -3.384  10.232  31.612  0.00  0.00    -0.455 OA
ATOM     21  C   UNL     1      -3.053   9.297  30.668  0.00  0.00    +0.140 A 
ATOM     22  C   UNL     1      -2.756   8.019  31.143  0.00  0.00    +0.092 A 
ATOM     23  C   UNL     1      -2.357   7.037  30.249  0.00  0.00    +0.120 A 
ATOM     24  C   UNL     1      -2.176   7.341  28.904  0.00  0.00    +0.046 A 
ATOM     25  C   UNL     1      -2.489   8.622  28.441  0.00  0.00    +0.016 A 
ATOM     26  C   UNL     1      -2.994   9.601  29.310  0.00  0.00    +0.026 A 
BRANCH  23  27
ATOM     27  O   UNL     1      -2.160   5.774  30.722  0.00  0.00    -0.507 OA
ATOM     28  H   UNL     1      -2.497   5.155  30.054  0.00  0.00    +0.292 HD
ENDBRANCH  23  27
ENDBRANCH   9  12
BRANCH   8  29
ATOM     29  C   UNL     1      -6.190  10.137  27.388  0.00  0.00    +0.072 C 
ATOM     30  O   UNL     1      -6.961  10.925  28.025  0.00  0.00    -0.545 OA
ATOM     31  O   UNL     1      -6.302   8.877  27.340  0.00  0.00    -0.545 OA
ENDBRANCH   8  29
ENDBRANCH   4   6
BRANCH   2  32
ATOM     32  C   UNL     1      -5.737  12.101  19.896  0.00  0.00    +0.292 C 
BRANCH  32  33
ATOM     33  O   UNL     1      -7.087  11.643  20.015  0.00  0.00    -0.444 OA
BRANCH  33  34
ATOM     34  C   UNL     1      -7.283  10.507  19.169  0.00  0.00    +0.401 C 
ATOM     35  O   UNL     1      -8.337  10.406  18.538  0.00  0.00    -0.226 OA
ATOM     36  N   UNL     1      -6.292   9.617  19.114  0.00  0.00    -0.279 N 
ATOM     37  H   UNL     1      -5.461   9.793  19.661  0.00  0.00    +0.152 HD
BRANCH  36  38
ATOM     38  C   UNL     1      -6.340   8.395  18.302  0.00  0.00    +0.141 C 
BRANCH  38  39
ATOM     39  C   UNL     1      -5.064   8.202  17.489  0.00  0.00    +0.163 C 
BRANCH  39  40
ATOM     40  O   UNL     1      -5.123   6.959  16.769  0.00  0.00    -0.388 OA
ATOM     41  H   UNL     1      -4.554   6.314  17.195  0.00  0.00    +0.210 HD
ENDBRANCH  39  40
BRANCH  39  42
ATOM     42  C   UNL     1      -4.884   9.388  16.525  0.00  0.00    +0.175 C 
BRANCH  42  43
ATOM     43  C   UNL     1      -4.065   9.005  15.284  0.00  0.00    +0.176 C 
ATOM     44  O   UNL     1      -2.952   8.178  15.721  0.00  0.00    -0.332 OA
ATOM     45  C   UNL     1      -2.113   7.627  14.652  0.00  0.00    +0.277 C 
ATOM     46  C   UNL     1      -1.594   8.760  13.733  0.00  0.00    +0.110 C 
ATOM     47  C   UNL     1      -2.738   9.686  13.269  0.00  0.00    +0.143 C 
ATOM     48  C   UNL     1      -3.547  10.199  14.461  0.00  0.00    +0.133 C 
BRANCH  48  49
ATOM     49  N   UNL     1      -4.686  11.009  14.000  0.00  0.00    -0.308 N 
ATOM     50  H   UNL     1      -5.403  10.549  13.458  0.00  0.00    +0.149 HD
ATOM     51  C   UNL     1      -4.832  12.313  14.251  0.00  0.00    +0.210 C 
ATOM     52  C   UNL     1      -3.708  12.991  15.057  0.00  0.00    +0.109 C 
ATOM     53  O   UNL     1      -5.804  12.963  13.865  0.00  0.00    -0.276 OA
ENDBRANCH  48  49
BRANCH  45  54
ATOM     54  C   UNL     1      -2.902   6.602  13.811  0.00  0.00    +0.414 C 
ATOM     55  O   UNL     1      -3.871   6.017  14.294  0.00  0.00    -0.240 OA
ATOM     56  O   UNL     1      -2.571   6.361  12.649  0.00  0.00    -0.240 OA
ENDBRANCH  45  54
BRANCH  47  57
ATOM     57  O   UNL     1      -2.198  10.798  12.553  0.00  0.00    -0.390 OA
ATOM     58  H   UNL     1      -1.924  10.513  11.678  0.00  0.00    +0.210 HD
ENDBRANCH  47  57
BRANCH  45  59
ATOM     59  O   UNL     1      -0.971   6.977  15.267  0.00  0.00    -0.343 OA
ATOM     60  C   UNL     1      -1.245   6.328  16.534  0.00  0.00    +0.198 C 
ENDBRANCH  45  59
ENDBRANCH  42  43
BRANCH  42  61
ATOM     61  O   UNL     1      -4.262  10.493  17.210  0.00  0.00    -0.387 OA
ATOM     62  H   UNL     1      -3.357  10.265  17.431  0.00  0.00    +0.210 HD
ENDBRANCH  42  61
ENDBRANCH  39  42
ENDBRANCH  38  39
ENDBRANCH  36  38
ENDBRANCH  33  34
ENDBRANCH  32  33
ENDBRANCH   2  32
TORSDOF 17
