REMARK VINA RESULT:    -4.918      2.333      4.467
REMARK INTER + INTRA:         -12.971
REMARK INTER:                  -9.468
REMARK INTRA:                  -3.503
REMARK UNBOUND:                -3.885
REMARK  Name = lig_assembled_79.pdb
REMARK  20 active torsions:
REMARK  status: ('A' for Active; 'I' for Inactive)
REMARK    1  A    between atoms: _2  and  _10
REMARK    2  A    between atoms: _5  and  _26
REMARK    3  A    between atoms: _7  and  _8
REMARK    4  A    between atoms: _7  and  _26
REMARK    5  A    between atoms: _10  and  _11
REMARK    6  A    between atoms: _10  and  _12
REMARK    7  A    between atoms: _10  and  _13
REMARK    8  A    between atoms: _13  and  _14
REMARK    9  A    between atoms: _22  and  _42
REMARK   10  A    between atoms: _24  and  _30
REMARK   11  A    between atoms: _25  and  _29
REMARK   12  A    between atoms: _29  and  _30
REMARK   13  A    between atoms: _32  and  _33
REMARK   14  A    between atoms: _34  and  _35
REMARK   15  A    between atoms: _36  and  _38
REMARK   16  A    between atoms: _38  and  _39
REMARK   17  A    between atoms: _38  and  _40
REMARK   18  A    between atoms: _40  and  _41
REMARK   19  A    between atoms: _40  and  _42
REMARK   20  A    between atoms: _43  and  _45
REMARK                            x       y       z     vdW  Elec       q    Type
REMARK                         _______ _______ _______ _____ _____    ______ ____
ROOT
ATOM      1  C   UNL     1      -2.775   9.865  25.926  0.00  0.00    +0.401 C 
ATOM      2  O   UNL     1      -1.980  10.612  25.350  0.00  0.00    -0.226 OA
ATOM      3  N   UNL     1      -3.459  10.206  27.019  0.00  0.00    -0.279 N 
ATOM      4  H   UNL     1      -4.095   9.528  27.414  0.00  0.00    +0.152 HD
ENDROOT
BRANCH   3   5
ATOM      5  C   UNL     1      -3.341  11.512  27.680  0.00  0.00    +0.141 C 
BRANCH   5   6
ATOM      6  C   UNL     1      -4.697  12.051  28.122  0.00  0.00    +0.163 C 
BRANCH   6   7
ATOM      7  O   UNL     1      -5.738  11.140  27.733  0.00  0.00    -0.388 OA
ATOM      8  H   UNL     1      -6.049  11.365  26.853  0.00  0.00    +0.210 HD
ENDBRANCH   6   7
BRANCH   6   9
ATOM      9  C   UNL     1      -4.693  12.264  29.646  0.00  0.00    +0.175 C 
BRANCH   9  10
ATOM     10  C   UNL     1      -4.285  10.994  30.406  0.00  0.00    +0.176 C 
ATOM     11  O   UNL     1      -5.457  10.139  30.511  0.00  0.00    -0.332 OA
ATOM     12  C   UNL     1      -5.230   8.825  31.119  0.00  0.00    +0.277 C 
ATOM     13  C   UNL     1      -4.569   8.979  32.511  0.00  0.00    +0.110 C 
ATOM     14  C   UNL     1      -3.336   9.906  32.456  0.00  0.00    +0.143 C 
ATOM     15  C   UNL     1      -3.684  11.244  31.802  0.00  0.00    +0.133 C 
BRANCH  15  16
ATOM     16  N   UNL     1      -2.483  12.084  31.677  0.00  0.00    -0.308 N 
ATOM     17  H   UNL     1      -1.749  11.768  31.057  0.00  0.00    +0.149 HD
ATOM     18  C   UNL     1      -2.298  13.235  32.328  0.00  0.00    +0.210 C 
ATOM     19  C   UNL     1      -3.423  13.675  33.284  0.00  0.00    +0.109 C 
ATOM     20  O   UNL     1      -1.287  13.926  32.192  0.00  0.00    -0.276 OA
ENDBRANCH  15  16
BRANCH  12  21
ATOM     21  C   UNL     1      -4.334   7.951  30.217  0.00  0.00    +0.414 C 
ATOM     22  O   UNL     1      -3.587   7.109  30.714  0.00  0.00    -0.240 OA
ATOM     23  O   UNL     1      -4.358   8.089  28.993  0.00  0.00    -0.240 OA
ENDBRANCH  12  21
BRANCH  14  24
ATOM     24  O   UNL     1      -2.851  10.141  33.778  0.00  0.00    -0.390 OA
ATOM     25  H   UNL     1      -2.778  11.086  33.930  0.00  0.00    +0.210 HD
ENDBRANCH  14  24
BRANCH  12  26
ATOM     26  O   UNL     1      -6.520   8.183  31.294  0.00  0.00    -0.343 OA
ATOM     27  C   UNL     1      -6.723   7.561  32.588  0.00  0.00    +0.198 C 
ENDBRANCH  12  26
ENDBRANCH   9  10
BRANCH   9  28
ATOM     28  O   UNL     1      -5.990  12.712  30.088  0.00  0.00    -0.387 OA
ATOM     29  H   UNL     1      -6.654  12.458  29.442  0.00  0.00    +0.210 HD
ENDBRANCH   9  28
ENDBRANCH   6   9
ENDBRANCH   5   6
ENDBRANCH   3   5
BRANCH   1  30
ATOM     30  O   UNL     1      -2.995   8.551  25.407  0.00  0.00    -0.444 OA
BRANCH  30  31
ATOM     31  C   UNL     1      -4.370   8.196  25.573  0.00  0.00    +0.292 C 
BRANCH  31  33
ATOM     32  N   UNL     1      -6.039   9.863  24.850  0.00  0.00    -0.131 NA
ATOM     33  C   UNL     1      -5.190   8.843  24.533  0.00  0.00    +0.120 A 
ATOM     34  C   UNL     1      -5.277   8.588  23.182  0.00  0.00    +0.138 A 
ATOM     35  N   UNL     1      -6.129   9.545  22.705  0.00  0.00    -0.238 N 
ATOM     36  N   UNL     1      -6.642  10.256  23.740  0.00  0.00    -0.064 NA
BRANCH  35  37
ATOM     37  C   UNL     1      -6.687   9.763  21.339  0.00  0.00    +0.122 C 
ATOM     38  C   UNL     1      -7.948  10.642  21.514  0.00  0.00    +0.044 C 
ATOM     39  C   UNL     1      -6.958   8.348  20.790  0.00  0.00    +0.044 C 
BRANCH  37  40
ATOM     40  C   UNL     1      -5.727  10.517  20.395  0.00  0.00    +0.192 C 
ATOM     41  O   UNL     1      -5.689  10.239  19.192  0.00  0.00    -0.289 OA
BRANCH  40  42
ATOM     42  C   UNL     1      -4.799  11.582  20.875  0.00  0.00    +0.045 A 
ATOM     43  C   UNL     1      -3.436  11.323  20.964  0.00  0.00    +0.095 A 
ATOM     44  N   UNL     1      -2.790  12.419  21.449  0.00  0.00    -0.360 N 
ATOM     45  H   UNL     1      -1.795  12.486  21.617  0.00  0.00    +0.165 HD
ATOM     46  C   UNL     1      -3.690  13.425  21.690  0.00  0.00    +0.047 A 
ATOM     47  C   UNL     1      -3.456  14.711  22.198  0.00  0.00    +0.026 A 
ATOM     48  C   UNL     1      -4.547  15.564  22.361  0.00  0.00    +0.002 A 
ATOM     49  C   UNL     1      -5.824  15.145  22.025  0.00  0.00    +0.001 A 
ATOM     50  C   UNL     1      -6.037  13.857  21.518  0.00  0.00    +0.011 A 
ATOM     51  C   UNL     1      -4.962  12.950  21.338  0.00  0.00    +0.010 A 
ENDBRANCH  40  42
ENDBRANCH  37  40
ENDBRANCH  35  37
ENDBRANCH  31  33
ENDBRANCH  30  31
ENDBRANCH   1  30
TORSDOF 16
