REMARK VINA RESULT:    -5.247      4.339      8.351
REMARK INTER + INTRA:         -11.575
REMARK INTER:                  -8.126
REMARK INTRA:                  -3.449
REMARK UNBOUND:                -2.494
REMARK  Name = lig_assembled_56.pdb
REMARK  16 active torsions:
REMARK  status: ('A' for Active; 'I' for Inactive)
REMARK    1  A    between atoms: _2  and  _10
REMARK    2  A    between atoms: _5  and  _18
REMARK    3  A    between atoms: _7  and  _8
REMARK    4  A    between atoms: _7  and  _18
REMARK    5  A    between atoms: _14  and  _34
REMARK    6  A    between atoms: _16  and  _22
REMARK    7  A    between atoms: _17  and  _21
REMARK    8  A    between atoms: _21  and  _22
REMARK    9  A    between atoms: _24  and  _25
REMARK   10  A    between atoms: _26  and  _27
REMARK   11  A    between atoms: _28  and  _30
REMARK   12  A    between atoms: _30  and  _31
REMARK   13  A    between atoms: _30  and  _32
REMARK   14  A    between atoms: _32  and  _33
REMARK   15  A    between atoms: _32  and  _34
REMARK   16  A    between atoms: _35  and  _37
REMARK                            x       y       z     vdW  Elec       q    Type
REMARK                         _______ _______ _______ _____ _____    ______ ____
ROOT
ATOM      1  C   UNL     1      -2.918  11.213  23.779  0.00  0.00    +0.163 C 
ENDROOT
BRANCH   1   2
ATOM      2  O   UNL     1      -2.267  11.548  25.015  0.00  0.00    -0.388 OA
ATOM      3  H   UNL     1      -1.654  10.848  25.255  0.00  0.00    +0.210 HD
ENDBRANCH   1   2
BRANCH   1   4
ATOM      4  C   UNL     1      -3.649  12.433  23.227  0.00  0.00    +0.141 C 
BRANCH   4   7
ATOM      5  C   UNL     1      -5.548  13.429  24.454  0.00  0.00    +0.401 C 
ATOM      6  O   UNL     1      -6.405  12.940  23.715  0.00  0.00    -0.226 OA
ATOM      7  N   UNL     1      -4.236  13.249  24.297  0.00  0.00    -0.279 N 
ATOM      8  H   UNL     1      -3.611  13.700  24.950  0.00  0.00    +0.152 HD
BRANCH   5   9
ATOM      9  O   UNL     1      -5.963  14.246  25.552  0.00  0.00    -0.444 OA
BRANCH   9  10
ATOM     10  C   UNL     1      -6.533  13.422  26.572  0.00  0.00    +0.292 C 
BRANCH  10  12
ATOM     11  N   UNL     1      -4.483  12.211  27.244  0.00  0.00    -0.131 NA
ATOM     12  C   UNL     1      -5.508  13.052  27.566  0.00  0.00    +0.121 A 
ATOM     13  C   UNL     1      -5.378  13.435  28.882  0.00  0.00    +0.143 A 
ATOM     14  N   UNL     1      -4.234  12.810  29.322  0.00  0.00    -0.220 N 
ATOM     15  N   UNL     1      -3.715  12.066  28.315  0.00  0.00    -0.060 NA
BRANCH  14  16
ATOM     16  C   UNL     1      -3.617  12.881  30.595  0.00  0.00    +0.070 A 
ATOM     17  C   UNL     1      -3.221  11.723  31.269  0.00  0.00    +0.047 A 
ATOM     18  C   UNL     1      -2.638  11.864  32.518  0.00  0.00    +0.113 A 
ATOM     19  N   UNL     1      -2.429  13.054  33.120  0.00  0.00    -0.263 NA
ATOM     20  C   UNL     1      -2.818  14.157  32.447  0.00  0.00    +0.113 A 
ATOM     21  C   UNL     1      -3.408  14.126  31.195  0.00  0.00    +0.047 A 
ENDBRANCH  14  16
ENDBRANCH  10  12
ENDBRANCH   9  10
ENDBRANCH   5   9
ENDBRANCH   4   7
ENDBRANCH   1   4
BRANCH   1  22
ATOM     22  C   UNL     1      -3.918  10.061  23.978  0.00  0.00    +0.175 C 
BRANCH  22  23
ATOM     23  C   UNL     1      -3.855   9.481  25.399  0.00  0.00    +0.176 C 
ATOM     24  O   UNL     1      -2.784   8.498  25.434  0.00  0.00    -0.332 OA
ATOM     25  C   UNL     1      -2.506   7.911  26.748  0.00  0.00    +0.277 C 
ATOM     26  C   UNL     1      -3.795   7.302  27.352  0.00  0.00    +0.110 C 
ATOM     27  C   UNL     1      -4.971   8.300  27.308  0.00  0.00    +0.143 C 
ATOM     28  C   UNL     1      -5.170   8.851  25.895  0.00  0.00    +0.133 C 
BRANCH  28  29
ATOM     29  N   UNL     1      -6.236   9.865  25.883  0.00  0.00    -0.308 N 
ATOM     30  H   UNL     1      -6.097  10.702  26.431  0.00  0.00    +0.149 HD
ATOM     31  C   UNL     1      -7.375   9.751  25.195  0.00  0.00    +0.210 C 
ATOM     32  C   UNL     1      -7.568   8.451  24.391  0.00  0.00    +0.109 C 
ATOM     33  O   UNL     1      -8.245  10.623  25.192  0.00  0.00    -0.276 OA
ENDBRANCH  28  29
BRANCH  25  34
ATOM     34  C   UNL     1      -1.936   8.972  27.712  0.00  0.00    +0.414 C 
ATOM     35  O   UNL     1      -2.241   8.955  28.904  0.00  0.00    -0.240 OA
ATOM     36  O   UNL     1      -1.171   9.844  27.298  0.00  0.00    -0.240 OA
ENDBRANCH  25  34
BRANCH  27  37
ATOM     37  O   UNL     1      -6.170   7.650  27.732  0.00  0.00    -0.390 OA
ATOM     38  H   UNL     1      -6.100   6.707  27.565  0.00  0.00    +0.210 HD
ENDBRANCH  27  37
BRANCH  25  39
ATOM     39  O   UNL     1      -1.538   6.845  26.567  0.00  0.00    -0.343 OA
ATOM     40  C   UNL     1      -2.084   5.601  26.060  0.00  0.00    +0.198 C 
ENDBRANCH  25  39
ENDBRANCH  22  23
BRANCH  22  41
ATOM     41  O   UNL     1      -3.679   9.023  23.007  0.00  0.00    -0.387 OA
ATOM     42  H   UNL     1      -3.606   8.176  23.454  0.00  0.00    +0.210 HD
ENDBRANCH  22  41
ENDBRANCH   1  22
TORSDOF 14
