REMARK VINA RESULT:    -4.538      9.152     12.552
REMARK INTER + INTRA:         -11.697
REMARK INTER:                  -6.914
REMARK INTRA:                  -4.784
REMARK UNBOUND:                -3.048
REMARK  Name = lig_assembled_50.pdb
REMARK  20 active torsions:
REMARK  status: ('A' for Active; 'I' for Inactive)
REMARK    1  A    between atoms: _2  and  _9
REMARK    2  A    between atoms: _4  and  _17
REMARK    3  A    between atoms: _5  and  _10
REMARK    4  A    between atoms: _5  and  _11
REMARK    5  A    between atoms: _6  and  _7
REMARK    6  A    between atoms: _6  and  _17
REMARK    7  A    between atoms: _9  and  _10
REMARK    8  A    between atoms: _10  and  _12
REMARK    9  A    between atoms: _13  and  _33
REMARK   10  A    between atoms: _15  and  _21
REMARK   11  A    between atoms: _16  and  _20
REMARK   12  A    between atoms: _20  and  _21
REMARK   13  A    between atoms: _23  and  _24
REMARK   14  A    between atoms: _25  and  _26
REMARK   15  A    between atoms: _27  and  _29
REMARK   16  A    between atoms: _29  and  _30
REMARK   17  A    between atoms: _29  and  _31
REMARK   18  A    between atoms: _31  and  _32
REMARK   19  A    between atoms: _31  and  _33
REMARK   20  A    between atoms: _34  and  _36
REMARK                            x       y       z     vdW  Elec       q    Type
REMARK                         _______ _______ _______ _____ _____    ______ ____
ROOT
ATOM      1  C   UNL     1      -4.607  11.804  13.931  0.00  0.00    +0.163 C 
ENDROOT
BRANCH   1   2
ATOM      2  O   UNL     1      -3.523  11.321  13.122  0.00  0.00    -0.388 OA
ATOM      3  H   UNL     1      -3.827  11.194  12.220  0.00  0.00    +0.210 HD
ENDBRANCH   1   2
BRANCH   1   4
ATOM      4  C   UNL     1      -5.258  10.656  14.722  0.00  0.00    +0.175 C 
BRANCH   4   5
ATOM      5  C   UNL     1      -4.265   9.521  15.014  0.00  0.00    +0.176 C 
ATOM      6  O   UNL     1      -4.119   8.732  13.801  0.00  0.00    -0.332 OA
ATOM      7  C   UNL     1      -3.122   7.658  13.860  0.00  0.00    +0.277 C 
ATOM      8  C   UNL     1      -3.404   6.723  15.062  0.00  0.00    +0.110 C 
ATOM      9  C   UNL     1      -3.599   7.520  16.370  0.00  0.00    +0.143 C 
ATOM     10  C   UNL     1      -4.655   8.612  16.195  0.00  0.00    +0.133 C 
BRANCH  10  11
ATOM     11  N   UNL     1      -4.769   9.419  17.419  0.00  0.00    -0.308 N 
ATOM     12  H   UNL     1      -3.948   9.919  17.733  0.00  0.00    +0.149 HD
ATOM     13  C   UNL     1      -5.885   9.534  18.144  0.00  0.00    +0.210 C 
ATOM     14  C   UNL     1      -7.110   8.739  17.655  0.00  0.00    +0.109 C 
ATOM     15  O   UNL     1      -5.955  10.230  19.158  0.00  0.00    -0.276 OA
ENDBRANCH  10  11
BRANCH   7  16
ATOM     16  C   UNL     1      -1.698   8.239  13.982  0.00  0.00    +0.414 C 
ATOM     17  O   UNL     1      -1.434   9.339  13.497  0.00  0.00    -0.240 OA
ATOM     18  O   UNL     1      -0.815   7.610  14.565  0.00  0.00    -0.240 OA
ENDBRANCH   7  16
BRANCH   9  19
ATOM     19  O   UNL     1      -4.004   6.637  17.416  0.00  0.00    -0.390 OA
ATOM     20  H   UNL     1      -4.758   6.118  17.124  0.00  0.00    +0.210 HD
ENDBRANCH   9  19
BRANCH   7  21
ATOM     21  O   UNL     1      -3.229   6.879  12.641  0.00  0.00    -0.343 OA
ATOM     22  C   UNL     1      -4.548   6.342  12.371  0.00  0.00    +0.198 C 
ENDBRANCH   7  21
ENDBRANCH   4   5
BRANCH   4  23
ATOM     23  O   UNL     1      -6.400  10.145  14.006  0.00  0.00    -0.387 OA
ATOM     24  H   UNL     1      -6.117   9.799  13.157  0.00  0.00    +0.210 HD
ENDBRANCH   4  23
ENDBRANCH   1   4
BRANCH   1  25
ATOM     25  C   UNL     1      -4.102  12.868  14.900  0.00  0.00    +0.141 C 
BRANCH  25  28
ATOM     26  C   UNL     1      -3.278  14.771  13.557  0.00  0.00    +0.401 C 
ATOM     27  O   UNL     1      -4.406  15.183  13.277  0.00  0.00    -0.226 OA
ATOM     28  N   UNL     1      -3.043  13.692  14.305  0.00  0.00    -0.279 N 
ATOM     29  H   UNL     1      -2.083  13.427  14.471  0.00  0.00    +0.152 HD
BRANCH  26  30
ATOM     30  O   UNL     1      -2.138  15.474  13.056  0.00  0.00    -0.444 OA
BRANCH  30  31
ATOM     31  C   UNL     1      -2.161  15.465  11.626  0.00  0.00    +0.292 C 
BRANCH  31  33
ATOM     32  N   UNL     1      -1.313  13.138  11.727  0.00  0.00    -0.131 NA
ATOM     33  C   UNL     1      -2.104  14.080  11.118  0.00  0.00    +0.120 A 
ATOM     34  C   UNL     1      -2.762  13.495  10.056  0.00  0.00    +0.137 A 
ATOM     35  N   UNL     1      -2.325  12.210  10.069  0.00  0.00    -0.249 N 
ATOM     36  N   UNL     1      -1.467  11.992  11.084  0.00  0.00    -0.065 NA
BRANCH  35  37
ATOM     37  C   UNL     1      -2.660  11.138   9.159  0.00  0.00    +0.178 C 
BRANCH  37  38
ATOM     38  C   UNL     1      -3.440   9.988   9.807  0.00  0.00    +0.161 C 
BRANCH  38  39
ATOM     39  O   UNL     1      -2.819   9.507  11.003  0.00  0.00    -0.388 OA
ATOM     40  H   UNL     1      -2.699  10.261  11.616  0.00  0.00    +0.210 HD
ENDBRANCH  38  39
BRANCH  38  41
ATOM     41  C   UNL     1      -4.911  10.324  10.087  0.00  0.00    +0.189 C 
BRANCH  41  42
ATOM     42  O   UNL     1      -5.366   9.703  11.288  0.00  0.00    -0.392 OA
ATOM     43  H   UNL     1      -5.215  10.322  12.027  0.00  0.00    +0.210 HD
ENDBRANCH  41  42
ENDBRANCH  38  41
ENDBRANCH  37  38
ENDBRANCH  35  37
ENDBRANCH  31  33
ENDBRANCH  30  31
ENDBRANCH  26  30
ENDBRANCH  25  28
ENDBRANCH   1  25
TORSDOF 18
