REMARK VINA RESULT:    -4.604      3.640      8.463
REMARK INTER + INTRA:         -11.529
REMARK INTER:                  -9.117
REMARK INTRA:                  -2.412
REMARK UNBOUND:                -2.754
REMARK  Name = lig_assembled_19.pdb
REMARK  20 active torsions:
REMARK  status: ('A' for Active; 'I' for Inactive)
REMARK    1  A    between atoms: _2  and  _9
REMARK    2  A    between atoms: _4  and  _18
REMARK    3  A    between atoms: _5  and  _11
REMARK    4  A    between atoms: _6  and  _7
REMARK    5  A    between atoms: _6  and  _18
REMARK    6  A    between atoms: _9  and  _10
REMARK    7  A    between atoms: _10  and  _13
REMARK    8  A    between atoms: _11  and  _13
REMARK    9  A    between atoms: _14  and  _34
REMARK   10  A    between atoms: _16  and  _22
REMARK   11  A    between atoms: _17  and  _21
REMARK   12  A    between atoms: _21  and  _22
REMARK   13  A    between atoms: _24  and  _25
REMARK   14  A    between atoms: _26  and  _27
REMARK   15  A    between atoms: _28  and  _30
REMARK   16  A    between atoms: _30  and  _31
REMARK   17  A    between atoms: _30  and  _32
REMARK   18  A    between atoms: _32  and  _33
REMARK   19  A    between atoms: _32  and  _34
REMARK   20  A    between atoms: _35  and  _37
REMARK                            x       y       z     vdW  Elec       q    Type
REMARK                         _______ _______ _______ _____ _____    ______ ____
ROOT
ATOM      1  C   UNL     1      -6.370   9.396  23.300  0.00  0.00    +0.163 C 
ENDROOT
BRANCH   1   2
ATOM      2  O   UNL     1      -7.154   9.417  24.504  0.00  0.00    -0.388 OA
ATOM      3  H   UNL     1      -7.215  10.318  24.831  0.00  0.00    +0.210 HD
ENDBRANCH   1   2
BRANCH   1   4
ATOM      4  C   UNL     1      -5.062   8.614  23.509  0.00  0.00    +0.175 C 
BRANCH   4   5
ATOM      5  C   UNL     1      -4.002   9.446  24.245  0.00  0.00    +0.176 C 
ATOM      6  O   UNL     1      -4.347   9.462  25.657  0.00  0.00    -0.332 OA
ATOM      7  C   UNL     1      -3.382  10.127  26.539  0.00  0.00    +0.277 C 
ATOM      8  C   UNL     1      -3.109  11.571  26.051  0.00  0.00    +0.110 C 
ATOM      9  C   UNL     1      -2.769  11.608  24.546  0.00  0.00    +0.143 C 
ATOM     10  C   UNL     1      -3.836  10.886  23.723  0.00  0.00    +0.133 C 
BRANCH  10  11
ATOM     11  N   UNL     1      -3.457  10.853  22.302  0.00  0.00    -0.308 N 
ATOM     12  H   UNL     1      -2.718  10.222  22.026  0.00  0.00    +0.149 HD
ATOM     13  C   UNL     1      -4.026  11.603  21.354  0.00  0.00    +0.210 C 
ATOM     14  C   UNL     1      -5.130  12.573  21.812  0.00  0.00    +0.109 C 
ATOM     15  O   UNL     1      -3.697  11.544  20.169  0.00  0.00    -0.276 OA
ENDBRANCH  10  11
BRANCH   7  16
ATOM     16  C   UNL     1      -2.056   9.341  26.590  0.00  0.00    +0.414 C 
ATOM     17  O   UNL     1      -2.065   8.116  26.712  0.00  0.00    -0.240 OA
ATOM     18  O   UNL     1      -0.977   9.930  26.508  0.00  0.00    -0.240 OA
ENDBRANCH   7  16
BRANCH   9  19
ATOM     19  O   UNL     1      -2.675  12.964  24.107  0.00  0.00    -0.390 OA
ATOM     20  H   UNL     1      -2.458  13.528  24.853  0.00  0.00    +0.210 HD
ENDBRANCH   9  19
BRANCH   7  21
ATOM     21  O   UNL     1      -3.961  10.195  27.867  0.00  0.00    -0.343 OA
ATOM     22  C   UNL     1      -3.897  11.499  28.497  0.00  0.00    +0.198 C 
ENDBRANCH   7  21
ENDBRANCH   4   5
BRANCH   4  23
ATOM     23  O   UNL     1      -4.546   8.162  22.241  0.00  0.00    -0.387 OA
ATOM     24  H   UNL     1      -4.933   7.311  22.023  0.00  0.00    +0.210 HD
ENDBRANCH   4  23
ENDBRANCH   1   4
BRANCH   1  25
ATOM     25  C   UNL     1      -7.169   8.759  22.168  0.00  0.00    +0.141 C 
BRANCH  25  28
ATOM     26  C   UNL     1      -6.494   9.587  19.940  0.00  0.00    +0.401 C 
ATOM     27  O   UNL     1      -5.573   8.776  19.814  0.00  0.00    -0.226 OA
ATOM     28  N   UNL     1      -7.287   9.654  21.010  0.00  0.00    -0.279 N 
ATOM     29  H   UNL     1      -8.009  10.360  21.025  0.00  0.00    +0.152 HD
BRANCH  26  30
ATOM     30  O   UNL     1      -6.743  10.524  18.889  0.00  0.00    -0.444 OA
BRANCH  30  31
ATOM     31  C   UNL     1      -7.175   9.826  17.718  0.00  0.00    +0.292 C 
BRANCH  31  33
ATOM     32  N   UNL     1      -6.061   8.800  15.757  0.00  0.00    -0.131 NA
ATOM     33  C   UNL     1      -6.091   9.775  16.720  0.00  0.00    +0.120 A 
ATOM     34  C   UNL     1      -5.001  10.600  16.558  0.00  0.00    +0.137 A 
ATOM     35  N   UNL     1      -4.345  10.067  15.490  0.00  0.00    -0.248 N 
ATOM     36  N   UNL     1      -4.984   8.990  15.006  0.00  0.00    -0.065 NA
BRANCH  35  37
ATOM     37  C   UNL     1      -3.123  10.536  14.874  0.00  0.00    +0.186 C 
BRANCH  37  38
ATOM     38  C   UNL     1      -2.844   9.825  13.554  0.00  0.00    +0.255 C 
BRANCH  38  39
ATOM     39  O   UNL     1      -1.529   9.234  13.520  0.00  0.00    -0.463 OA
BRANCH  39  40
ATOM     40  C   UNL     1      -1.487   7.877  13.459  0.00  0.00    +0.304 C 
ATOM     41  O   UNL     1      -1.268   7.230  12.445  0.00  0.00    -0.251 OA
ATOM     42  C   UNL     1      -1.713   7.274  14.811  0.00  0.00    +0.136 C 
ENDBRANCH  39  40
ENDBRANCH  38  39
ENDBRANCH  37  38
ENDBRANCH  35  37
ENDBRANCH  31  33
ENDBRANCH  30  31
ENDBRANCH  26  30
ENDBRANCH  25  28
ENDBRANCH   1  25
TORSDOF 17
