REMARK VINA RESULT:    -4.549      2.114      2.426
REMARK INTER + INTRA:         -11.720
REMARK INTER:                  -7.135
REMARK INTRA:                  -4.584
REMARK UNBOUND:                -3.048
REMARK  Name = lig_assembled_50.pdb
REMARK  20 active torsions:
REMARK  status: ('A' for Active; 'I' for Inactive)
REMARK    1  A    between atoms: _2  and  _9
REMARK    2  A    between atoms: _4  and  _17
REMARK    3  A    between atoms: _5  and  _10
REMARK    4  A    between atoms: _5  and  _11
REMARK    5  A    between atoms: _6  and  _7
REMARK    6  A    between atoms: _6  and  _17
REMARK    7  A    between atoms: _9  and  _10
REMARK    8  A    between atoms: _10  and  _12
REMARK    9  A    between atoms: _13  and  _33
REMARK   10  A    between atoms: _15  and  _21
REMARK   11  A    between atoms: _16  and  _20
REMARK   12  A    between atoms: _20  and  _21
REMARK   13  A    between atoms: _23  and  _24
REMARK   14  A    between atoms: _25  and  _26
REMARK   15  A    between atoms: _27  and  _29
REMARK   16  A    between atoms: _29  and  _30
REMARK   17  A    between atoms: _29  and  _31
REMARK   18  A    between atoms: _31  and  _32
REMARK   19  A    between atoms: _31  and  _33
REMARK   20  A    between atoms: _34  and  _36
REMARK                            x       y       z     vdW  Elec       q    Type
REMARK                         _______ _______ _______ _____ _____    ______ ____
ROOT
ATOM      1  C   UNL     1      -3.456  12.082  23.804  0.00  0.00    +0.163 C 
ENDROOT
BRANCH   1   2
ATOM      2  O   UNL     1      -2.214  12.137  24.523  0.00  0.00    -0.388 OA
ATOM      3  H   UNL     1      -1.734  11.315  24.399  0.00  0.00    +0.210 HD
ENDBRANCH   1   2
BRANCH   1   4
ATOM      4  C   UNL     1      -4.633  11.818  24.758  0.00  0.00    +0.175 C 
BRANCH   4   5
ATOM      5  C   UNL     1      -4.246  10.873  25.905  0.00  0.00    +0.176 C 
ATOM      6  O   UNL     1      -3.620   9.697  25.324  0.00  0.00    -0.332 OA
ATOM      7  C   UNL     1      -3.086   8.724  26.283  0.00  0.00    +0.277 C 
ATOM      8  C   UNL     1      -4.185   8.292  27.284  0.00  0.00    +0.110 C 
ATOM      9  C   UNL     1      -4.901   9.510  27.904  0.00  0.00    +0.143 C 
ATOM     10  C   UNL     1      -5.414  10.456  26.819  0.00  0.00    +0.133 C 
BRANCH  10  11
ATOM     11  N   UNL     1      -6.017  11.655  27.423  0.00  0.00    -0.308 N 
ATOM     12  H   UNL     1      -5.414  12.275  27.945  0.00  0.00    +0.149 HD
ATOM     13  C   UNL     1      -7.310  11.976  27.327  0.00  0.00    +0.210 C 
ATOM     14  C   UNL     1      -8.208  10.998  26.547  0.00  0.00    +0.109 C 
ATOM     15  O   UNL     1      -7.785  12.994  27.831  0.00  0.00    -0.276 OA
ENDBRANCH  10  11
BRANCH   7  16
ATOM     16  C   UNL     1      -1.889   9.318  27.055  0.00  0.00    +0.414 C 
ATOM     17  O   UNL     1      -1.027   9.964  26.461  0.00  0.00    -0.240 OA
ATOM     18  O   UNL     1      -1.787   9.151  28.271  0.00  0.00    -0.240 OA
ENDBRANCH   7  16
BRANCH   9  19
ATOM     19  O   UNL     1      -6.001   9.067  28.701  0.00  0.00    -0.390 OA
ATOM     20  H   UNL     1      -6.109   8.119  28.599  0.00  0.00    +0.210 HD
ENDBRANCH   9  19
BRANCH   7  21
ATOM     21  O   UNL     1      -2.655   7.554  25.542  0.00  0.00    -0.343 OA
ATOM     22  C   UNL     1      -2.290   6.412  26.358  0.00  0.00    +0.198 C 
ENDBRANCH   7  21
ENDBRANCH   4   5
BRANCH   4  23
ATOM     23  O   UNL     1      -5.753  11.278  24.027  0.00  0.00    -0.387 OA
ATOM     24  H   UNL     1      -5.566  10.370  23.779  0.00  0.00    +0.210 HD
ENDBRANCH   4  23
ENDBRANCH   1   4
BRANCH   1  25
ATOM     25  C   UNL     1      -3.687  13.394  23.061  0.00  0.00    +0.141 C 
BRANCH  25  28
ATOM     26  C   UNL     1      -5.620  13.399  21.521  0.00  0.00    +0.401 C 
ATOM     27  O   UNL     1      -6.418  13.794  22.374  0.00  0.00    -0.226 OA
ATOM     28  N   UNL     1      -4.325  13.180  21.756  0.00  0.00    -0.279 N 
ATOM     29  H   UNL     1      -3.752  12.847  20.994  0.00  0.00    +0.152 HD
BRANCH  26  30
ATOM     30  O   UNL     1      -6.088  13.152  20.193  0.00  0.00    -0.444 OA
BRANCH  30  31
ATOM     31  C   UNL     1      -7.046  12.090  20.214  0.00  0.00    +0.292 C 
BRANCH  31  33
ATOM     32  N   UNL     1      -5.123  10.565  19.861  0.00  0.00    -0.131 NA
ATOM     33  C   UNL     1      -6.369  10.789  20.392  0.00  0.00    +0.120 A 
ATOM     34  C   UNL     1      -6.784   9.656  21.060  0.00  0.00    +0.137 A 
ATOM     35  N   UNL     1      -5.757   8.783  20.891  0.00  0.00    -0.249 N 
ATOM     36  N   UNL     1      -4.753   9.336  20.185  0.00  0.00    -0.065 NA
BRANCH  35  37
ATOM     37  C   UNL     1      -5.653   7.418  21.355  0.00  0.00    +0.178 C 
BRANCH  37  38
ATOM     38  C   UNL     1      -4.776   7.246  22.601  0.00  0.00    +0.161 C 
BRANCH  38  39
ATOM     39  O   UNL     1      -3.778   8.264  22.717  0.00  0.00    -0.388 OA
ATOM     40  H   UNL     1      -4.194   9.131  22.535  0.00  0.00    +0.210 HD
ENDBRANCH  38  39
BRANCH  38  41
ATOM     41  C   UNL     1      -5.577   7.155  23.907  0.00  0.00    +0.189 C 
BRANCH  41  42
ATOM     42  O   UNL     1      -6.159   8.413  24.249  0.00  0.00    -0.392 OA
ATOM     43  H   UNL     1      -7.009   8.242  24.697  0.00  0.00    +0.210 HD
ENDBRANCH  41  42
ENDBRANCH  38  41
ENDBRANCH  37  38
ENDBRANCH  35  37
ENDBRANCH  31  33
ENDBRANCH  30  31
ENDBRANCH  26  30
ENDBRANCH  25  28
ENDBRANCH   1  25
TORSDOF 18
