REMARK VINA RESULT:    -4.262      4.592      8.149
REMARK INTER + INTRA:         -10.877
REMARK INTER:                  -8.361
REMARK INTRA:                  -2.516
REMARK UNBOUND:                -2.754
REMARK  Name = lig_assembled_19.pdb
REMARK  20 active torsions:
REMARK  status: ('A' for Active; 'I' for Inactive)
REMARK    1  A    between atoms: _2  and  _9
REMARK    2  A    between atoms: _4  and  _18
REMARK    3  A    between atoms: _5  and  _11
REMARK    4  A    between atoms: _6  and  _7
REMARK    5  A    between atoms: _6  and  _18
REMARK    6  A    between atoms: _9  and  _10
REMARK    7  A    between atoms: _10  and  _13
REMARK    8  A    between atoms: _11  and  _13
REMARK    9  A    between atoms: _14  and  _34
REMARK   10  A    between atoms: _16  and  _22
REMARK   11  A    between atoms: _17  and  _21
REMARK   12  A    between atoms: _21  and  _22
REMARK   13  A    between atoms: _24  and  _25
REMARK   14  A    between atoms: _26  and  _27
REMARK   15  A    between atoms: _28  and  _30
REMARK   16  A    between atoms: _30  and  _31
REMARK   17  A    between atoms: _30  and  _32
REMARK   18  A    between atoms: _32  and  _33
REMARK   19  A    between atoms: _32  and  _34
REMARK   20  A    between atoms: _35  and  _37
REMARK                            x       y       z     vdW  Elec       q    Type
REMARK                         _______ _______ _______ _____ _____    ______ ____
ROOT
ATOM      1  C   UNL     1      -5.718  10.664  16.699  0.00  0.00    +0.163 C 
ENDROOT
BRANCH   1   2
ATOM      2  O   UNL     1      -4.865  11.806  16.514  0.00  0.00    -0.388 OA
ATOM      3  H   UNL     1      -5.379  12.535  16.159  0.00  0.00    +0.210 HD
ENDBRANCH   1   2
BRANCH   1   4
ATOM      4  C   UNL     1      -4.912   9.356  16.614  0.00  0.00    +0.175 C 
BRANCH   4   5
ATOM      5  C   UNL     1      -4.004   9.315  15.376  0.00  0.00    +0.176 C 
ATOM      6  O   UNL     1      -4.732   9.916  14.269  0.00  0.00    -0.332 OA
ATOM      7  C   UNL     1      -3.978  10.061  13.020  0.00  0.00    +0.277 C 
ATOM      8  C   UNL     1      -3.390   8.697  12.581  0.00  0.00    +0.110 C 
ATOM      9  C   UNL     1      -2.634   8.005  13.735  0.00  0.00    +0.143 C 
ATOM     10  C   UNL     1      -3.509   7.910  14.985  0.00  0.00    +0.133 C 
BRANCH  10  11
ATOM     11  N   UNL     1      -2.750   7.329  16.103  0.00  0.00    -0.308 N 
ATOM     12  H   UNL     1      -1.987   7.869  16.487  0.00  0.00    +0.149 HD
ATOM     13  C   UNL     1      -3.002   6.133  16.643  0.00  0.00    +0.210 C 
ATOM     14  C   UNL     1      -4.154   5.323  16.019  0.00  0.00    +0.109 C 
ATOM     15  O   UNL     1      -2.358   5.678  17.589  0.00  0.00    -0.276 OA
ENDBRANCH  10  11
BRANCH   7  16
ATOM     16  C   UNL     1      -2.837  11.085  13.185  0.00  0.00    +0.414 C 
ATOM     17  O   UNL     1      -2.895  11.942  14.066  0.00  0.00    -0.240 OA
ATOM     18  O   UNL     1      -1.857  11.055  12.439  0.00  0.00    -0.240 OA
ENDBRANCH   7  16
BRANCH   9  19
ATOM     19  O   UNL     1      -2.241   6.692  13.335  0.00  0.00    -0.390 OA
ATOM     20  H   UNL     1      -1.648   6.320  13.992  0.00  0.00    +0.210 HD
ENDBRANCH   9  19
BRANCH   7  21
ATOM     21  O   UNL     1      -4.896  10.514  11.992  0.00  0.00    -0.343 OA
ATOM     22  C   UNL     1      -6.174  10.994  12.481  0.00  0.00    +0.198 C 
ENDBRANCH   7  21
ENDBRANCH   4   5
BRANCH   4  23
ATOM     23  O   UNL     1      -5.802   8.223  16.615  0.00  0.00    -0.387 OA
ATOM     24  H   UNL     1      -6.712   8.530  16.640  0.00  0.00    +0.210 HD
ENDBRANCH   4  23
ENDBRANCH   1   4
BRANCH   1  25
ATOM     25  C   UNL     1      -6.414  10.746  18.053  0.00  0.00    +0.141 C 
BRANCH  25  28
ATOM     26  C   UNL     1      -4.723  10.904  19.848  0.00  0.00    +0.401 C 
ATOM     27  O   UNL     1      -4.519  12.108  19.679  0.00  0.00    -0.226 OA
ATOM     28  N   UNL     1      -5.587  10.186  19.129  0.00  0.00    -0.279 N 
ATOM     29  H   UNL     1      -5.678   9.201  19.336  0.00  0.00    +0.152 HD
BRANCH  26  30
ATOM     30  O   UNL     1      -3.998  10.213  20.868  0.00  0.00    -0.444 OA
BRANCH  30  31
ATOM     31  C   UNL     1      -3.035  11.095  21.450  0.00  0.00    +0.292 C 
BRANCH  31  33
ATOM     32  N   UNL     1      -3.071  12.465  23.515  0.00  0.00    -0.131 NA
ATOM     33  C   UNL     1      -3.296  11.265  22.891  0.00  0.00    +0.120 A 
ATOM     34  C   UNL     1      -3.768  10.361  23.815  0.00  0.00    +0.137 A 
ATOM     35  N   UNL     1      -3.796  11.068  24.979  0.00  0.00    -0.248 N 
ATOM     36  N   UNL     1      -3.383  12.332  24.797  0.00  0.00    -0.065 NA
BRANCH  35  37
ATOM     37  C   UNL     1      -4.214  10.610  26.286  0.00  0.00    +0.186 C 
BRANCH  37  38
ATOM     38  C   UNL     1      -3.197  10.971  27.364  0.00  0.00    +0.255 C 
BRANCH  38  39
ATOM     39  O   UNL     1      -1.974  10.218  27.233  0.00  0.00    -0.463 OA
BRANCH  39  40
ATOM     40  C   UNL     1      -2.077   8.876  27.420  0.00  0.00    +0.304 C 
ATOM     41  O   UNL     1      -1.883   8.033  26.556  0.00  0.00    -0.251 OA
ATOM     42  C   UNL     1      -2.431   8.560  28.841  0.00  0.00    +0.136 C 
ENDBRANCH  39  40
ENDBRANCH  38  39
ENDBRANCH  37  38
ENDBRANCH  35  37
ENDBRANCH  31  33
ENDBRANCH  30  31
ENDBRANCH  26  30
ENDBRANCH  25  28
ENDBRANCH   1  25
TORSDOF 17
