REMARK VINA RESULT:    -4.269      2.209      6.663
REMARK INTER + INTRA:         -10.804
REMARK INTER:                  -7.789
REMARK INTRA:                  -3.014
REMARK UNBOUND:                -3.040
REMARK  Name = lig_assembled_1.pdb
REMARK  18 active torsions:
REMARK  status: ('A' for Active; 'I' for Inactive)
REMARK    1  A    between atoms: _2  and  _9
REMARK    2  A    between atoms: _4  and  _15
REMARK    3  A    between atoms: _5  and  _9
REMARK    4  A    between atoms: _5  and  _10
REMARK    5  A    between atoms: _6  and  _7
REMARK    6  A    between atoms: _6  and  _15
REMARK    7  A    between atoms: _11  and  _31
REMARK    8  A    between atoms: _13  and  _19
REMARK    9  A    between atoms: _14  and  _18
REMARK   10  A    between atoms: _18  and  _19
REMARK   11  A    between atoms: _21  and  _22
REMARK   12  A    between atoms: _23  and  _24
REMARK   13  A    between atoms: _25  and  _27
REMARK   14  A    between atoms: _27  and  _28
REMARK   15  A    between atoms: _27  and  _29
REMARK   16  A    between atoms: _29  and  _30
REMARK   17  A    between atoms: _29  and  _31
REMARK   18  A    between atoms: _32  and  _34
REMARK                            x       y       z     vdW  Elec       q    Type
REMARK                         _______ _______ _______ _____ _____    ______ ____
ROOT
ATOM      1  C   UNL     1      -3.219  11.722  23.958  0.00  0.00    +0.175 C 
ENDROOT
BRANCH   1   2
ATOM      2  C   UNL     1      -4.462  12.618  23.853  0.00  0.00    +0.176 C 
ATOM      3  O   UNL     1      -4.077  13.838  23.163  0.00  0.00    -0.332 OA
ATOM      4  C   UNL     1      -5.167  14.776  22.876  0.00  0.00    +0.277 C 
ATOM      5  C   UNL     1      -5.933  15.128  24.174  0.00  0.00    +0.110 C 
ATOM      6  C   UNL     1      -6.337  13.862  24.959  0.00  0.00    +0.143 C 
ATOM      7  C   UNL     1      -5.128  12.957  25.200  0.00  0.00    +0.133 C 
BRANCH   7   8
ATOM      8  N   UNL     1      -5.540  11.715  25.871  0.00  0.00    -0.308 N 
ATOM      9  H   UNL     1      -6.295  11.184  25.459  0.00  0.00    +0.149 HD
ATOM     10  C   UNL     1      -4.982  11.243  26.989  0.00  0.00    +0.210 C 
ATOM     11  C   UNL     1      -3.853  12.088  27.607  0.00  0.00    +0.109 C 
ATOM     12  O   UNL     1      -5.339  10.191  27.522  0.00  0.00    -0.276 OA
ENDBRANCH   7   8
BRANCH   4  13
ATOM     13  C   UNL     1      -6.146  14.177  21.845  0.00  0.00    +0.414 C 
ATOM     14  O   UNL     1      -7.309  14.576  21.790  0.00  0.00    -0.240 OA
ATOM     15  O   UNL     1      -5.775  13.294  21.070  0.00  0.00    -0.240 OA
ENDBRANCH   4  13
BRANCH   4  16
ATOM     16  O   UNL     1      -4.583  15.993  22.344  0.00  0.00    -0.343 OA
ATOM     17  C   UNL     1      -5.295  17.211  22.680  0.00  0.00    +0.198 C 
ENDBRANCH   4  16
BRANCH   6  18
ATOM     18  O   UNL     1      -6.904  14.235  26.216  0.00  0.00    -0.390 OA
ATOM     19  H   UNL     1      -7.861  14.226  26.151  0.00  0.00    +0.210 HD
ENDBRANCH   6  18
ENDBRANCH   1   2
BRANCH   1  20
ATOM     20  O   UNL     1      -2.082  12.499  24.384  0.00  0.00    -0.387 OA
ATOM     21  H   UNL     1      -1.749  12.150  25.214  0.00  0.00    +0.210 HD
ENDBRANCH   1  20
BRANCH   1  22
ATOM     22  C   UNL     1      -2.907  11.008  22.632  0.00  0.00    +0.163 C 
BRANCH  22  23
ATOM     23  O   UNL     1      -2.751  11.955  21.563  0.00  0.00    -0.388 OA
ATOM     24  H   UNL     1      -3.593  12.381  21.386  0.00  0.00    +0.210 HD
ENDBRANCH  22  23
BRANCH  22  25
ATOM     25  C   UNL     1      -4.030  10.029  22.303  0.00  0.00    +0.141 C 
BRANCH  25  28
ATOM     26  C   UNL     1      -4.995   8.622  24.090  0.00  0.00    +0.401 C 
ATOM     27  O   UNL     1      -5.983   9.341  24.252  0.00  0.00    -0.226 OA
ATOM     28  N   UNL     1      -4.028   8.871  23.205  0.00  0.00    -0.279 N 
ATOM     29  H   UNL     1      -3.252   8.227  23.153  0.00  0.00    +0.152 HD
BRANCH  26  30
ATOM     30  O   UNL     1      -4.852   7.446  24.891  0.00  0.00    -0.444 OA
BRANCH  30  31
ATOM     31  C   UNL     1      -3.463   7.154  25.069  0.00  0.00    +0.292 C 
BRANCH  31  33
ATOM     32  N   UNL     1      -2.014   8.604  26.461  0.00  0.00    -0.131 NA
ATOM     33  C   UNL     1      -2.997   7.653  26.377  0.00  0.00    +0.120 A 
ATOM     34  C   UNL     1      -3.402   7.311  27.648  0.00  0.00    +0.137 A 
ATOM     35  N   UNL     1      -2.623   8.082  28.458  0.00  0.00    -0.249 N 
ATOM     36  N   UNL     1      -1.788   8.854  27.743  0.00  0.00    -0.065 NA
BRANCH  35  37
ATOM     37  C   UNL     1      -2.627   8.141  29.902  0.00  0.00    +0.173 C 
BRANCH  37  38
ATOM     38  C   UNL     1      -3.359   9.365  30.438  0.00  0.00    +0.179 C 
BRANCH  38  39
ATOM     39  O   UNL     1      -2.547  10.535  30.342  0.00  0.00    -0.393 OA
ATOM     40  H   UNL     1      -1.637  10.233  30.157  0.00  0.00    +0.209 HD
ENDBRANCH  38  39
ENDBRANCH  37  38
ENDBRANCH  35  37
ENDBRANCH  31  33
ENDBRANCH  30  31
ENDBRANCH  26  30
ENDBRANCH  25  28
ENDBRANCH  22  25
ENDBRANCH   1  22
TORSDOF 16
