REMARK VINA RESULT:    -4.690      1.863      3.789
REMARK INTER + INTRA:         -11.530
REMARK INTER:                  -9.015
REMARK INTRA:                  -2.516
REMARK UNBOUND:                -2.590
REMARK  Name = lig_assembled_29.pdb
REMARK  21 active torsions:
REMARK  status: ('A' for Active; 'I' for Inactive)
REMARK    1  A    between atoms: _2  and  _9
REMARK    2  A    between atoms: _4  and  _23
REMARK    3  A    between atoms: _6  and  _7
REMARK    4  A    between atoms: _6  and  _23
REMARK    5  A    between atoms: _9  and  _10
REMARK    6  A    between atoms: _12  and  _18
REMARK    7  A    between atoms: _13  and  _18
REMARK    8  A    between atoms: _14  and  _17
REMARK    9  A    between atoms: _15  and  _17
REMARK   10  A    between atoms: _19  and  _39
REMARK   11  A    between atoms: _21  and  _27
REMARK   12  A    between atoms: _22  and  _26
REMARK   13  A    between atoms: _26  and  _27
REMARK   14  A    between atoms: _29  and  _30
REMARK   15  A    between atoms: _31  and  _32
REMARK   16  A    between atoms: _33  and  _35
REMARK   17  A    between atoms: _35  and  _36
REMARK   18  A    between atoms: _35  and  _37
REMARK   19  A    between atoms: _37  and  _38
REMARK   20  A    between atoms: _37  and  _39
REMARK   21  A    between atoms: _40  and  _42
REMARK                            x       y       z     vdW  Elec       q    Type
REMARK                         _______ _______ _______ _____ _____    ______ ____
ROOT
ATOM      1  C   UNL     1      -3.352  12.192  25.751  0.00  0.00    +0.163 C 
ENDROOT
BRANCH   1   2
ATOM      2  O   UNL     1      -4.672  12.701  26.001  0.00  0.00    -0.388 OA
ATOM      3  H   UNL     1      -4.927  13.294  25.290  0.00  0.00    +0.210 HD
ENDBRANCH   1   2
BRANCH   1   4
ATOM      4  C   UNL     1      -3.335  10.655  25.809  0.00  0.00    +0.175 C 
BRANCH   4   5
ATOM      5  C   UNL     1      -4.025  10.117  27.072  0.00  0.00    +0.176 C 
ATOM      6  O   UNL     1      -3.566  10.907  28.203  0.00  0.00    -0.332 OA
ATOM      7  C   UNL     1      -4.202  10.604  29.488  0.00  0.00    +0.277 C 
ATOM      8  C   UNL     1      -4.070   9.096  29.815  0.00  0.00    +0.110 C 
ATOM      9  C   UNL     1      -4.517   8.215  28.629  0.00  0.00    +0.143 C 
ATOM     10  C   UNL     1      -3.795   8.619  27.343  0.00  0.00    +0.133 C 
BRANCH  10  11
ATOM     11  N   UNL     1      -4.292   7.831  26.204  0.00  0.00    -0.308 N 
ATOM     12  H   UNL     1      -5.221   8.032  25.862  0.00  0.00    +0.149 HD
ATOM     13  C   UNL     1      -3.596   6.868  25.594  0.00  0.00    +0.210 C 
ATOM     14  C   UNL     1      -2.194   6.568  26.156  0.00  0.00    +0.109 C 
ATOM     15  O   UNL     1      -4.033   6.235  24.632  0.00  0.00    -0.276 OA
ENDBRANCH  10  11
BRANCH   7  16
ATOM     16  C   UNL     1      -5.693  10.998  29.467  0.00  0.00    +0.414 C 
ATOM     17  O   UNL     1      -6.483  10.480  30.256  0.00  0.00    -0.240 OA
ATOM     18  O   UNL     1      -6.107  11.832  28.661  0.00  0.00    -0.240 OA
ENDBRANCH   7  16
BRANCH   7  19
ATOM     19  O   UNL     1      -3.513  11.357  30.519  0.00  0.00    -0.343 OA
ATOM     20  C   UNL     1      -2.895  10.553  31.555  0.00  0.00    +0.198 C 
ENDBRANCH   7  19
BRANCH   9  21
ATOM     21  O   UNL     1      -4.237   6.844  28.915  0.00  0.00    -0.390 OA
ATOM     22  H   UNL     1      -3.889   6.417  28.129  0.00  0.00    +0.210 HD
ENDBRANCH   9  21
ENDBRANCH   4   5
BRANCH   4  23
ATOM     23  O   UNL     1      -1.979  10.170  25.739  0.00  0.00    -0.387 OA
ATOM     24  H   UNL     1      -1.678   9.931  26.619  0.00  0.00    +0.210 HD
ENDBRANCH   4  23
ENDBRANCH   1   4
BRANCH   1  25
ATOM     25  C   UNL     1      -2.865  12.655  24.381  0.00  0.00    +0.141 C 
BRANCH  25  28
ATOM     26  C   UNL     1      -4.455  11.901  22.647  0.00  0.00    +0.401 C 
ATOM     27  O   UNL     1      -5.270  12.799  22.870  0.00  0.00    -0.226 OA
ATOM     28  N   UNL     1      -3.307  11.754  23.310  0.00  0.00    -0.279 N 
ATOM     29  H   UNL     1      -2.708  10.980  23.061  0.00  0.00    +0.152 HD
BRANCH  26  30
ATOM     30  O   UNL     1      -4.739  10.945  21.623  0.00  0.00    -0.444 OA
BRANCH  30  31
ATOM     31  C   UNL     1      -3.928  11.218  20.476  0.00  0.00    +0.292 C 
BRANCH  31  33
ATOM     32  N   UNL     1      -5.697  12.184  19.032  0.00  0.00    -0.131 NA
ATOM     33  C   UNL     1      -4.750  11.219  19.252  0.00  0.00    +0.120 A 
ATOM     34  C   UNL     1      -4.722  10.362  18.175  0.00  0.00    +0.137 A 
ATOM     35  N   UNL     1      -5.608  10.914  17.295  0.00  0.00    -0.247 N 
ATOM     36  N   UNL     1      -6.226  11.981  17.831  0.00  0.00    -0.065 NA
BRANCH  35  37
ATOM     37  C   UNL     1      -5.877  10.514  15.927  0.00  0.00    +0.180 C 
BRANCH  37  38
ATOM     38  C   UNL     1      -4.749  10.936  15.012  0.00  0.00    -0.022 A 
ATOM     39  C   UNL     1      -3.767  10.007  14.627  0.00  0.00    +0.054 A 
ATOM     40  C   UNL     1      -2.761  10.364  13.717  0.00  0.00    +0.162 A 
ATOM     41  C   UNL     1      -2.730  11.671  13.191  0.00  0.00    +0.162 A 
ATOM     42  C   UNL     1      -3.707  12.592  13.576  0.00  0.00    +0.050 A 
ATOM     43  C   UNL     1      -4.708  12.229  14.481  0.00  0.00    +0.009 A 
BRANCH  40  44
ATOM     44  O   UNL     1      -1.780   9.510  13.275  0.00  0.00    -0.491 OA
ATOM     45  C   UNL     1      -1.495   8.363  14.063  0.00  0.00    +0.277 C 
ENDBRANCH  40  44
BRANCH  41  46
ATOM     46  O   UNL     1      -1.711  11.945  12.312  0.00  0.00    -0.491 OA
ATOM     47  C   UNL     1      -1.708  13.216  11.679  0.00  0.00    +0.277 C 
ENDBRANCH  41  46
ENDBRANCH  37  38
ENDBRANCH  35  37
ENDBRANCH  31  33
ENDBRANCH  30  31
ENDBRANCH  26  30
ENDBRANCH  25  28
ENDBRANCH   1  25
TORSDOF 17
