REMARK VINA RESULT:    -4.655      2.894      7.774
REMARK INTER + INTRA:         -10.381
REMARK INTER:                  -7.169
REMARK INTRA:                  -3.211
REMARK UNBOUND:                -1.779
REMARK  Name = lig_assembled_14.pdb
REMARK  18 active torsions:
REMARK  status: ('A' for Active; 'I' for Inactive)
REMARK    1  A    between atoms: _2  and  _10
REMARK    2  A    between atoms: _3  and  _11
REMARK    3  A    between atoms: _5  and  _19
REMARK    4  A    between atoms: _7  and  _8
REMARK    5  A    between atoms: _7  and  _19
REMARK    6  A    between atoms: _10  and  _11
REMARK    7  A    between atoms: _15  and  _35
REMARK    8  A    between atoms: _17  and  _23
REMARK    9  A    between atoms: _18  and  _22
REMARK   10  A    between atoms: _22  and  _23
REMARK   11  A    between atoms: _25  and  _26
REMARK   12  A    between atoms: _27  and  _28
REMARK   13  A    between atoms: _29  and  _31
REMARK   14  A    between atoms: _31  and  _32
REMARK   15  A    between atoms: _31  and  _33
REMARK   16  A    between atoms: _33  and  _34
REMARK   17  A    between atoms: _33  and  _35
REMARK   18  A    between atoms: _36  and  _38
REMARK                            x       y       z     vdW  Elec       q    Type
REMARK                         _______ _______ _______ _____ _____    ______ ____
ROOT
ATOM      1  C   UNL     1      -2.896  11.129  30.658  0.00  0.00    +0.163 C 
ENDROOT
BRANCH   1   2
ATOM      2  O   UNL     1      -2.093  11.026  31.846  0.00  0.00    -0.388 OA
ATOM      3  H   UNL     1      -1.200  10.768  31.607  0.00  0.00    +0.210 HD
ENDBRANCH   1   2
BRANCH   1   4
ATOM      4  C   UNL     1      -3.381   9.742  30.201  0.00  0.00    +0.175 C 
BRANCH   4   5
ATOM      5  C   UNL     1      -3.107   9.497  28.710  0.00  0.00    +0.176 C 
ATOM      6  O   UNL     1      -4.172  10.130  27.949  0.00  0.00    -0.332 OA
ATOM      7  C   UNL     1      -4.021  10.089  26.491  0.00  0.00    +0.277 C 
ATOM      8  C   UNL     1      -3.828   8.631  26.008  0.00  0.00    +0.110 C 
ATOM      9  C   UNL     1      -2.727   7.906  26.809  0.00  0.00    +0.143 C 
ATOM     10  C   UNL     1      -2.981   8.014  28.313  0.00  0.00    +0.133 C 
BRANCH  10  11
ATOM     11  N   UNL     1      -1.880   7.395  29.068  0.00  0.00    -0.308 N 
ATOM     12  H   UNL     1      -0.967   7.821  29.004  0.00  0.00    +0.149 HD
ATOM     13  C   UNL     1      -2.010   6.306  29.831  0.00  0.00    +0.210 C 
ATOM     14  C   UNL     1      -3.409   5.665  29.886  0.00  0.00    +0.109 C 
ATOM     15  O   UNL     1      -1.073   5.818  30.464  0.00  0.00    -0.276 OA
ENDBRANCH  10  11
BRANCH   7  16
ATOM     16  C   UNL     1      -2.818  10.945  26.042  0.00  0.00    +0.414 C 
ATOM     17  O   UNL     1      -1.957  10.465  25.305  0.00  0.00    -0.240 OA
ATOM     18  O   UNL     1      -2.708  12.113  26.417  0.00  0.00    -0.240 OA
ENDBRANCH   7  16
BRANCH   9  19
ATOM     19  O   UNL     1      -2.687   6.528  26.436  0.00  0.00    -0.390 OA
ATOM     20  H   UNL     1      -1.774   6.238  26.376  0.00  0.00    +0.210 HD
ENDBRANCH   9  19
BRANCH   7  21
ATOM     21  O   UNL     1      -5.239  10.610  25.899  0.00  0.00    -0.343 OA
ATOM     22  C   UNL     1      -5.519  10.136  24.558  0.00  0.00    +0.198 C 
ENDBRANCH   7  21
ENDBRANCH   4   5
BRANCH   4  23
ATOM     23  O   UNL     1      -4.788   9.592  30.479  0.00  0.00    -0.387 OA
ATOM     24  H   UNL     1      -5.285   9.659  29.660  0.00  0.00    +0.210 HD
ENDBRANCH   4  23
ENDBRANCH   1   4
BRANCH   1  25
ATOM     25  C   UNL     1      -4.099  12.030  30.917  0.00  0.00    +0.141 C 
BRANCH  25  28
ATOM     26  C   UNL     1      -5.666  12.654  29.112  0.00  0.00    +0.401 C 
ATOM     27  O   UNL     1      -6.551  11.881  29.485  0.00  0.00    -0.226 OA
ATOM     28  N   UNL     1      -4.486  12.784  29.718  0.00  0.00    -0.279 N 
ATOM     29  H   UNL     1      -3.820  13.438  29.332  0.00  0.00    +0.152 HD
BRANCH  26  30
ATOM     30  O   UNL     1      -5.895  13.468  27.958  0.00  0.00    -0.444 OA
BRANCH  30  31
ATOM     31  C   UNL     1      -7.277  13.405  27.596  0.00  0.00    +0.292 C 
BRANCH  31  33
ATOM     32  N   UNL     1      -8.440  12.539  25.591  0.00  0.00    -0.131 NA
ATOM     33  C   UNL     1      -7.421  13.277  26.134  0.00  0.00    +0.120 A 
ATOM     34  C   UNL     1      -6.649  13.796  25.119  0.00  0.00    +0.137 A 
ATOM     35  N   UNL     1      -7.242  13.327  23.987  0.00  0.00    -0.250 N 
ATOM     36  N   UNL     1      -8.322  12.580  24.272  0.00  0.00    -0.065 NA
BRANCH  35  37
ATOM     37  C   UNL     1      -6.814  13.497  22.615  0.00  0.00    +0.160 C 
BRANCH  37  38
ATOM     38  C   UNL     1      -5.368  13.998  22.525  0.00  0.00    +0.107 C 
BRANCH  38  39
ATOM     39  N   UNL     1      -4.498  13.108  21.736  0.00  0.00    -0.301 NA
ATOM     40  C   UNL     1      -3.479  12.434  22.546  0.00  0.00    +0.084 C 
ATOM     41  C   UNL     1      -3.023  11.314  21.633  0.00  0.00    +0.017 C 
ATOM     42  C   UNL     1      -4.300  10.862  20.949  0.00  0.00    +0.017 C 
ATOM     43  C   UNL     1      -5.265  12.036  21.083  0.00  0.00    +0.084 C 
ENDBRANCH  38  39
ENDBRANCH  37  38
ENDBRANCH  35  37
ENDBRANCH  31  33
ENDBRANCH  30  31
ENDBRANCH  26  30
ENDBRANCH  25  28
ENDBRANCH   1  25
TORSDOF 16
