REMARK VINA RESULT:    -5.185      5.696      9.803
REMARK INTER + INTRA:         -11.144
REMARK INTER:                  -8.296
REMARK INTRA:                  -2.848
REMARK UNBOUND:                -2.170
REMARK  Name = lig_assembled_87.pdb
REMARK  17 active torsions:
REMARK  status: ('A' for Active; 'I' for Inactive)
REMARK    1  A    between atoms: _2  and  _10
REMARK    2  A    between atoms: _3  and  _13
REMARK    3  A    between atoms: _5  and  _21
REMARK    4  A    between atoms: _7  and  _8
REMARK    5  A    between atoms: _7  and  _21
REMARK    6  A    between atoms: _17  and  _37
REMARK    7  A    between atoms: _19  and  _25
REMARK    8  A    between atoms: _20  and  _24
REMARK    9  A    between atoms: _24  and  _25
REMARK   10  A    between atoms: _27  and  _28
REMARK   11  A    between atoms: _29  and  _30
REMARK   12  A    between atoms: _31  and  _33
REMARK   13  A    between atoms: _33  and  _34
REMARK   14  A    between atoms: _33  and  _35
REMARK   15  A    between atoms: _35  and  _36
REMARK   16  A    between atoms: _35  and  _37
REMARK   17  A    between atoms: _38  and  _40
REMARK                            x       y       z     vdW  Elec       q    Type
REMARK                         _______ _______ _______ _____ _____    ______ ____
ROOT
ATOM      1  C   UNL     1      -3.221  12.500  13.899  0.00  0.00    +0.163 C 
ENDROOT
BRANCH   1   2
ATOM      2  O   UNL     1      -2.798  12.027  15.189  0.00  0.00    -0.388 OA
ATOM      3  H   UNL     1      -2.422  11.148  15.100  0.00  0.00    +0.210 HD
ENDBRANCH   1   2
BRANCH   1   4
ATOM      4  C   UNL     1      -4.630  13.076  13.991  0.00  0.00    +0.141 C 
BRANCH   4   7
ATOM      5  C   UNL     1      -6.152  12.046  15.643  0.00  0.00    +0.401 C 
ATOM      6  O   UNL     1      -6.668  11.277  14.828  0.00  0.00    -0.226 OA
ATOM      7  N   UNL     1      -5.197  12.925  15.337  0.00  0.00    -0.279 N 
ATOM      8  H   UNL     1      -4.843  13.520  16.072  0.00  0.00    +0.152 HD
BRANCH   5   9
ATOM      9  O   UNL     1      -6.592  12.014  17.003  0.00  0.00    -0.444 OA
BRANCH   9  10
ATOM     10  C   UNL     1      -6.623  10.661  17.463  0.00  0.00    +0.292 C 
BRANCH  10  12
ATOM     11  N   UNL     1      -5.498   9.296  19.189  0.00  0.00    -0.131 NA
ATOM     12  C   UNL     1      -5.831  10.528  18.700  0.00  0.00    +0.120 A 
ATOM     13  C   UNL     1      -5.301  11.497  19.521  0.00  0.00    +0.137 A 
ATOM     14  N   UNL     1      -4.550  10.799  20.428  0.00  0.00    -0.248 N 
ATOM     15  N   UNL     1      -4.777   9.476  20.282  0.00  0.00    -0.065 NA
BRANCH  14  16
ATOM     16  C   UNL     1      -3.612  11.259  21.469  0.00  0.00    +0.112 C 
ATOM     17  C   UNL     1      -3.472  10.307  22.689  0.00  0.00    +0.045 C 
ATOM     18  C   UNL     1      -3.844  10.912  24.053  0.00  0.00    +0.059 C 
ATOM     19  C   UNL     1      -2.727  11.805  24.610  0.00  0.00    +0.020 C 
ATOM     20  C   UNL     1      -3.123  13.223  24.197  0.00  0.00    +0.020 C 
ATOM     21  C   UNL     1      -4.333  13.016  23.286  0.00  0.00    +0.059 C 
ATOM     22  N   UNL     1      -4.937  11.872  23.962  0.00  0.00    -0.299 NA
ATOM     23  C   UNL     1      -6.209  11.393  23.464  0.00  0.00    +0.105 C 
ATOM     24  C   UNL     1      -3.883  12.747  21.849  0.00  0.00    +0.045 C 
ENDBRANCH  14  16
ENDBRANCH  10  12
ENDBRANCH   9  10
ENDBRANCH   5   9
ENDBRANCH   4   7
ENDBRANCH   1   4
BRANCH   1  25
ATOM     25  C   UNL     1      -3.196  11.365  12.861  0.00  0.00    +0.175 C 
BRANCH  25  26
ATOM     26  C   UNL     1      -3.782  10.060  13.418  0.00  0.00    +0.176 C 
ATOM     27  O   UNL     1      -2.676   9.229  13.868  0.00  0.00    -0.332 OA
ATOM     28  C   UNL     1      -3.053   7.978  14.532  0.00  0.00    +0.277 C 
ATOM     29  C   UNL     1      -3.996   7.148  13.627  0.00  0.00    +0.110 C 
ATOM     30  C   UNL     1      -5.171   7.997  13.098  0.00  0.00    +0.143 C 
ATOM     31  C   UNL     1      -4.666   9.276  12.430  0.00  0.00    +0.133 C 
BRANCH  31  32
ATOM     32  N   UNL     1      -5.796  10.118  12.008  0.00  0.00    -0.308 N 
ATOM     33  H   UNL     1      -6.419  10.465  12.724  0.00  0.00    +0.149 HD
ATOM     34  C   UNL     1      -6.053  10.453  10.740  0.00  0.00    +0.210 C 
ATOM     35  C   UNL     1      -5.101   9.886   9.670  0.00  0.00    +0.109 C 
ATOM     36  O   UNL     1      -7.000  11.172  10.417  0.00  0.00    -0.276 OA
ENDBRANCH  31  32
BRANCH  28  37
ATOM     37  C   UNL     1      -3.749   8.261  15.880  0.00  0.00    +0.414 C 
ATOM     38  O   UNL     1      -3.700   9.384  16.379  0.00  0.00    -0.240 OA
ATOM     39  O   UNL     1      -4.359   7.367  16.467  0.00  0.00    -0.240 OA
ENDBRANCH  28  37
BRANCH  30  40
ATOM     40  O   UNL     1      -5.926   7.239  12.152  0.00  0.00    -0.390 OA
ATOM     41  H   UNL     1      -5.353   6.959  11.434  0.00  0.00    +0.210 HD
ENDBRANCH  30  40
BRANCH  28  42
ATOM     42  O   UNL     1      -1.843   7.209  14.759  0.00  0.00    -0.343 OA
ATOM     43  C   UNL     1      -0.730   7.964  15.300  0.00  0.00    +0.198 C 
ENDBRANCH  28  42
ENDBRANCH  25  26
BRANCH  25  44
ATOM     44  O   UNL     1      -1.849  11.147  12.396  0.00  0.00    -0.387 OA
ATOM     45  H   UNL     1      -1.872  10.715  11.539  0.00  0.00    +0.210 HD
ENDBRANCH  25  44
ENDBRANCH   1  25
TORSDOF 14
