REMARK VINA RESULT:    -3.854      2.133      4.365
REMARK INTER + INTRA:         -10.730
REMARK INTER:                  -7.040
REMARK INTRA:                  -3.689
REMARK UNBOUND:                -3.721
REMARK  Name = lig_assembled_35.pdb
REMARK  19 active torsions:
REMARK  status: ('A' for Active; 'I' for Inactive)
REMARK    1  A    between atoms: _2  and  _9
REMARK    2  A    between atoms: _4  and  _17
REMARK    3  A    between atoms: _5  and  _9
REMARK    4  A    between atoms: _5  and  _11
REMARK    5  A    between atoms: _6  and  _7
REMARK    6  A    between atoms: _6  and  _17
REMARK    7  A    between atoms: _9  and  _10
REMARK    8  A    between atoms: _13  and  _33
REMARK    9  A    between atoms: _15  and  _21
REMARK   10  A    between atoms: _16  and  _20
REMARK   11  A    between atoms: _20  and  _21
REMARK   12  A    between atoms: _23  and  _24
REMARK   13  A    between atoms: _25  and  _26
REMARK   14  A    between atoms: _27  and  _29
REMARK   15  A    between atoms: _29  and  _30
REMARK   16  A    between atoms: _29  and  _31
REMARK   17  A    between atoms: _31  and  _32
REMARK   18  A    between atoms: _31  and  _33
REMARK   19  A    between atoms: _34  and  _36
REMARK                            x       y       z     vdW  Elec       q    Type
REMARK                         _______ _______ _______ _____ _____    ______ ____
ROOT
ATOM      1  C   UNL     1      -3.835  12.487  29.467  0.00  0.00    +0.163 C 
ENDROOT
BRANCH   1   2
ATOM      2  O   UNL     1      -2.980  13.290  30.297  0.00  0.00    -0.388 OA
ATOM      3  H   UNL     1      -3.478  13.612  31.053  0.00  0.00    +0.210 HD
ENDBRANCH   1   2
BRANCH   1   4
ATOM      4  C   UNL     1      -4.012  11.078  30.059  0.00  0.00    +0.175 C 
BRANCH   4   5
ATOM      5  C   UNL     1      -3.593   9.979  29.072  0.00  0.00    +0.176 C 
ATOM      6  O   UNL     1      -4.203  10.277  27.786  0.00  0.00    -0.332 OA
ATOM      7  C   UNL     1      -3.827   9.386  26.685  0.00  0.00    +0.277 C 
ATOM      8  C   UNL     1      -4.101   7.910  27.065  0.00  0.00    +0.110 C 
ATOM      9  C   UNL     1      -3.497   7.555  28.440  0.00  0.00    +0.143 C 
ATOM     10  C   UNL     1      -3.951   8.548  29.511  0.00  0.00    +0.133 C 
BRANCH  10  11
ATOM     11  N   UNL     1      -3.302   8.251  30.798  0.00  0.00    -0.308 N 
ATOM     12  H   UNL     1      -2.303   8.392  30.865  0.00  0.00    +0.149 HD
ATOM     13  C   UNL     1      -3.945   7.808  31.881  0.00  0.00    +0.210 C 
ATOM     14  C   UNL     1      -5.461   7.578  31.738  0.00  0.00    +0.109 C 
ATOM     15  O   UNL     1      -3.377   7.581  32.950  0.00  0.00    -0.276 OA
ENDBRANCH  10  11
BRANCH   7  16
ATOM     16  C   UNL     1      -2.337   9.558  26.326  0.00  0.00    +0.414 C 
ATOM     17  O   UNL     1      -1.601   8.575  26.241  0.00  0.00    -0.240 OA
ATOM     18  O   UNL     1      -1.869  10.679  26.122  0.00  0.00    -0.240 OA
ENDBRANCH   7  16
BRANCH   7  19
ATOM     19  O   UNL     1      -4.648   9.721  25.536  0.00  0.00    -0.343 OA
ATOM     20  C   UNL     1      -5.532   8.664  25.085  0.00  0.00    +0.198 C 
ENDBRANCH   7  19
BRANCH   9  21
ATOM     21  O   UNL     1      -3.900   6.238  28.818  0.00  0.00    -0.390 OA
ATOM     22  H   UNL     1      -3.715   6.101  29.750  0.00  0.00    +0.210 HD
ENDBRANCH   9  21
ENDBRANCH   4   5
BRANCH   4  23
ATOM     23  O   UNL     1      -5.379  10.881  30.471  0.00  0.00    -0.387 OA
ATOM     24  H   UNL     1      -5.960  10.982  29.713  0.00  0.00    +0.210 HD
ENDBRANCH   4  23
ENDBRANCH   1   4
BRANCH   1  25
ATOM     25  C   UNL     1      -5.198  13.154  29.323  0.00  0.00    +0.141 C 
BRANCH  25  28
ATOM     26  C   UNL     1      -6.941  12.323  27.781  0.00  0.00    +0.401 C 
ATOM     27  O   UNL     1      -7.649  11.863  28.679  0.00  0.00    -0.226 OA
ATOM     28  N   UNL     1      -5.776  12.937  27.991  0.00  0.00    -0.279 N 
ATOM     29  H   UNL     1      -5.262  13.272  27.188  0.00  0.00    +0.152 HD
BRANCH  26  30
ATOM     30  O   UNL     1      -7.372  12.197  26.423  0.00  0.00    -0.444 OA
BRANCH  30  31
ATOM     31  C   UNL     1      -6.924  13.330  25.673  0.00  0.00    +0.292 C 
BRANCH  31  33
ATOM     32  N   UNL     1      -4.593  13.130  24.868  0.00  0.00    -0.131 NA
ATOM     33  C   UNL     1      -5.929  12.915  24.665  0.00  0.00    +0.120 A 
ATOM     34  C   UNL     1      -6.106  12.300  23.445  0.00  0.00    +0.138 A 
ATOM     35  N   UNL     1      -4.838  12.154  22.963  0.00  0.00    -0.238 N 
ATOM     36  N   UNL     1      -3.935  12.674  23.811  0.00  0.00    -0.065 NA
BRANCH  35  37
ATOM     37  C   UNL     1      -4.383  11.574  21.714  0.00  0.00    +0.214 C 
ATOM     38  C   UNL     1      -3.216  12.369  21.135  0.00  0.00    +0.045 C 
BRANCH  37  39
ATOM     39  C   UNL     1      -4.050  10.105  21.874  0.00  0.00    +0.329 C 
ATOM     40  O   UNL     1      -4.578   9.202  21.238  0.00  0.00    -0.249 OA
BRANCH  39  41
ATOM     41  O   UNL     1      -3.115   9.842  22.821  0.00  0.00    -0.479 OA
ATOM     42  H   UNL     1      -3.132  10.424  23.608  0.00  0.00    +0.295 HD
ENDBRANCH  39  41
ENDBRANCH  37  39
ENDBRANCH  35  37
ENDBRANCH  31  33
ENDBRANCH  30  31
ENDBRANCH  26  30
ENDBRANCH  25  28
ENDBRANCH   1  25
TORSDOF 16
