REMARK VINA RESULT:    -5.289      4.160      6.755
REMARK INTER + INTRA:         -12.053
REMARK INTER:                  -9.143
REMARK INTRA:                  -2.910
REMARK UNBOUND:                -2.589
REMARK  Name = lig_assembled_82.pdb
REMARK  19 active torsions:
REMARK  status: ('A' for Active; 'I' for Inactive)
REMARK    1  A    between atoms: _2  and  _9
REMARK    2  A    between atoms: _4  and  _22
REMARK    3  A    between atoms: _5  and  _16
REMARK    4  A    between atoms: _6  and  _7
REMARK    5  A    between atoms: _6  and  _22
REMARK    6  A    between atoms: _9  and  _10
REMARK    7  A    between atoms: _16  and  _17
REMARK    8  A    between atoms: _18  and  _38
REMARK    9  A    between atoms: _20  and  _26
REMARK   10  A    between atoms: _21  and  _25
REMARK   11  A    between atoms: _25  and  _26
REMARK   12  A    between atoms: _28  and  _29
REMARK   13  A    between atoms: _30  and  _31
REMARK   14  A    between atoms: _32  and  _34
REMARK   15  A    between atoms: _34  and  _35
REMARK   16  A    between atoms: _34  and  _36
REMARK   17  A    between atoms: _36  and  _37
REMARK   18  A    between atoms: _36  and  _38
REMARK   19  A    between atoms: _39  and  _41
REMARK                            x       y       z     vdW  Elec       q    Type
REMARK                         _______ _______ _______ _____ _____    ______ ____
ROOT
ATOM      1  C   UNL     1      -2.783  12.219  23.269  0.00  0.00    +0.163 C 
ENDROOT
BRANCH   1   2
ATOM      2  O   UNL     1      -2.212  12.713  24.492  0.00  0.00    -0.388 OA
ATOM      3  H   UNL     1      -1.543  13.371  24.289  0.00  0.00    +0.210 HD
ENDBRANCH   1   2
BRANCH   1   4
ATOM      4  C   UNL     1      -3.628  13.305  22.612  0.00  0.00    +0.141 C 
BRANCH   4   7
ATOM      5  C   UNL     1      -5.877  13.346  21.589  0.00  0.00    +0.401 C 
ATOM      6  O   UNL     1      -6.179  14.440  22.072  0.00  0.00    -0.226 OA
ATOM      7  N   UNL     1      -4.708  12.738  21.794  0.00  0.00    -0.279 N 
ATOM      8  H   UNL     1      -4.557  11.837  21.363  0.00  0.00    +0.152 HD
BRANCH   5   9
ATOM      9  O   UNL     1      -6.824  12.668  20.759  0.00  0.00    -0.444 OA
BRANCH   9  10
ATOM     10  C   UNL     1      -6.944  11.308  21.185  0.00  0.00    +0.292 C 
BRANCH  10  12
ATOM     11  N   UNL     1      -5.110   9.911  20.286  0.00  0.00    -0.131 NA
ATOM     12  C   UNL     1      -6.393  10.393  20.180  0.00  0.00    +0.120 A 
ATOM     13  C   UNL     1      -6.960   9.877  19.029  0.00  0.00    +0.137 A 
ATOM     14  N   UNL     1      -5.936   9.204  18.425  0.00  0.00    -0.247 N 
ATOM     15  N   UNL     1      -4.857   9.154  19.228  0.00  0.00    -0.065 NA
BRANCH  14  16
ATOM     16  C   UNL     1      -5.877   8.666  17.063  0.00  0.00    +0.176 C 
BRANCH  16  17
ATOM     17  C   UNL     1      -5.067   9.534  16.131  0.00  0.00    -0.049 C 
ATOM     18  C   UNL     1      -5.782  10.628  15.402  0.00  0.00    +0.023 C 
ATOM     19  C   UNL     1      -5.012  12.002  15.150  0.00  0.00    -0.025 C 
ATOM     20  C   UNL     1      -3.966  12.742  15.994  0.00  0.00    +0.012 C 
ATOM     21  C   UNL     1      -4.270  11.127  14.035  0.00  0.00    -0.000 C 
ATOM     22  C   UNL     1      -3.206  10.129  14.591  0.00  0.00    +0.031 C 
ATOM     23  C   UNL     1      -6.149  13.022  14.891  0.00  0.00    +0.012 C 
ATOM     24  C   UNL     1      -5.628  10.400  13.844  0.00  0.00    +0.012 C 
ATOM     25  C   UNL     1      -3.795   9.327  15.742  0.00  0.00    -0.025 C 
ENDBRANCH  16  17
ENDBRANCH  14  16
ENDBRANCH  10  12
ENDBRANCH   9  10
ENDBRANCH   5   9
ENDBRANCH   4   7
ENDBRANCH   1   4
BRANCH   1  26
ATOM     26  C   UNL     1      -3.654  10.978  23.532  0.00  0.00    +0.175 C 
BRANCH  26  27
ATOM     27  C   UNL     1      -3.578  10.517  24.994  0.00  0.00    +0.176 C 
ATOM     28  O   UNL     1      -3.385   9.076  24.999  0.00  0.00    -0.332 OA
ATOM     29  C   UNL     1      -3.183   8.468  26.318  0.00  0.00    +0.277 C 
ATOM     30  C   UNL     1      -4.344   8.844  27.271  0.00  0.00    +0.110 C 
ATOM     31  C   UNL     1      -4.607  10.364  27.275  0.00  0.00    +0.143 C 
ATOM     32  C   UNL     1      -4.800  10.891  25.853  0.00  0.00    +0.133 C 
BRANCH  32  33
ATOM     33  N   UNL     1      -4.964  12.354  25.863  0.00  0.00    -0.308 N 
ATOM     34  H   UNL     1      -4.206  12.910  26.233  0.00  0.00    +0.149 HD
ATOM     35  C   UNL     1      -6.048  12.993  25.416  0.00  0.00    +0.210 C 
ATOM     36  C   UNL     1      -7.195  12.115  24.882  0.00  0.00    +0.109 C 
ATOM     37  O   UNL     1      -6.151  14.220  25.424  0.00  0.00    -0.276 OA
ENDBRANCH  32  33
BRANCH  29  38
ATOM     38  C   UNL     1      -1.843   8.925  26.932  0.00  0.00    +0.414 C 
ATOM     39  O   UNL     1      -1.096   9.674  26.302  0.00  0.00    -0.240 OA
ATOM     40  O   UNL     1      -1.509   8.547  28.055  0.00  0.00    -0.240 OA
ENDBRANCH  29  38
BRANCH  29  41
ATOM     41  O   UNL     1      -3.176   7.026  26.151  0.00  0.00    -0.343 OA
ATOM     42  C   UNL     1      -3.983   6.533  25.052  0.00  0.00    +0.198 C 
ENDBRANCH  29  41
BRANCH  31  43
ATOM     43  O   UNL     1      -5.776  10.648  28.045  0.00  0.00    -0.390 OA
ATOM     44  H   UNL     1      -5.820  11.590  28.225  0.00  0.00    +0.210 HD
ENDBRANCH  31  43
ENDBRANCH  26  27
BRANCH  26  45
ATOM     45  O   UNL     1      -3.267   9.904  22.651  0.00  0.00    -0.387 OA
ATOM     46  H   UNL     1      -4.052   9.466  22.316  0.00  0.00    +0.210 HD
ENDBRANCH  26  45
ENDBRANCH   1  26
TORSDOF 15
