REMARK VINA RESULT:    -4.627      4.368     12.551
REMARK INTER + INTRA:         -10.875
REMARK INTER:                  -8.772
REMARK INTRA:                  -2.102
REMARK UNBOUND:                -2.867
REMARK  Name = lig_assembled_70.pdb
REMARK  16 active torsions:
REMARK  status: ('A' for Active; 'I' for Inactive)
REMARK    1  A    between atoms: _2  and  _10
REMARK    2  A    between atoms: _5  and  _22
REMARK    3  A    between atoms: _7  and  _8
REMARK    4  A    between atoms: _7  and  _22
REMARK    5  A    between atoms: _18  and  _38
REMARK    6  A    between atoms: _20  and  _26
REMARK    7  A    between atoms: _21  and  _25
REMARK    8  A    between atoms: _25  and  _26
REMARK    9  A    between atoms: _28  and  _29
REMARK   10  A    between atoms: _30  and  _31
REMARK   11  A    between atoms: _32  and  _34
REMARK   12  A    between atoms: _34  and  _35
REMARK   13  A    between atoms: _34  and  _36
REMARK   14  A    between atoms: _36  and  _37
REMARK   15  A    between atoms: _36  and  _38
REMARK   16  A    between atoms: _39  and  _41
REMARK                            x       y       z     vdW  Elec       q    Type
REMARK                         _______ _______ _______ _____ _____    ______ ____
ROOT
ATOM      1  C   UNL     1      -6.032  10.967  16.342  0.00  0.00    +0.163 C 
ENDROOT
BRANCH   1   2
ATOM      2  O   UNL     1      -5.087  12.027  16.120  0.00  0.00    -0.388 OA
ATOM      3  H   UNL     1      -4.311  11.884  16.668  0.00  0.00    +0.210 HD
ENDBRANCH   1   2
BRANCH   1   4
ATOM      4  C   UNL     1      -6.572  11.039  17.766  0.00  0.00    +0.141 C 
BRANCH   4   7
ATOM      5  C   UNL     1      -4.869  10.892  19.550  0.00  0.00    +0.401 C 
ATOM      6  O   UNL     1      -4.955   9.666  19.661  0.00  0.00    -0.226 OA
ATOM      7  N   UNL     1      -5.592  11.616  18.695  0.00  0.00    -0.279 N 
ATOM      8  H   UNL     1      -5.458  12.617  18.685  0.00  0.00    +0.152 HD
BRANCH   5   9
ATOM      9  O   UNL     1      -3.948  11.601  20.383  0.00  0.00    -0.444 OA
BRANCH   9  10
ATOM     10  C   UNL     1      -4.634  12.106  21.532  0.00  0.00    +0.292 C 
BRANCH  10  12
ATOM     11  N   UNL     1      -3.380  10.306  22.687  0.00  0.00    -0.131 NA
ATOM     12  C   UNL     1      -4.178  11.413  22.751  0.00  0.00    +0.121 A 
ATOM     13  C   UNL     1      -4.431  11.706  24.071  0.00  0.00    +0.143 A 
ATOM     14  N   UNL     1      -3.749  10.749  24.786  0.00  0.00    -0.218 N 
ATOM     15  N   UNL     1      -3.130   9.905  23.928  0.00  0.00    -0.060 NA
BRANCH  14  16
ATOM     16  C   UNL     1      -3.641  10.614  26.186  0.00  0.00    +0.086 A 
ATOM     17  C   UNL     1      -3.290   9.398  26.750  0.00  0.00    +0.139 A 
ATOM     18  N   UNL     1      -3.123   9.210  28.084  0.00  0.00    -0.253 NA
ATOM     19  C   UNL     1      -3.300  10.262  28.904  0.00  0.00    +0.071 A 
ATOM     20  C   UNL     1      -3.673  11.533  28.421  0.00  0.00    +0.002 A 
ATOM     21  C   UNL     1      -3.847  12.611  29.309  0.00  0.00    +0.010 A 
ATOM     22  C   UNL     1      -3.633  12.439  30.673  0.00  0.00    +0.001 A 
ATOM     23  C   UNL     1      -3.257  11.190  31.154  0.00  0.00    +0.002 A 
ATOM     24  C   UNL     1      -3.101  10.117  30.271  0.00  0.00    +0.028 A 
ATOM     25  C   UNL     1      -3.851  11.695  27.042  0.00  0.00    +0.039 A 
ENDBRANCH  14  16
ENDBRANCH  10  12
ENDBRANCH   9  10
ENDBRANCH   5   9
ENDBRANCH   4   7
ENDBRANCH   1   4
BRANCH   1  26
ATOM     26  C   UNL     1      -5.382   9.593  16.108  0.00  0.00    +0.175 C 
BRANCH  26  27
ATOM     27  C   UNL     1      -4.294   9.645  15.025  0.00  0.00    +0.176 C 
ATOM     28  O   UNL     1      -4.866  10.277  13.847  0.00  0.00    -0.332 OA
ATOM     29  C   UNL     1      -3.936  10.509  12.738  0.00  0.00    +0.277 C 
ATOM     30  C   UNL     1      -3.233   9.190  12.335  0.00  0.00    +0.110 C 
ATOM     31  C   UNL     1      -2.637   8.465  13.560  0.00  0.00    +0.143 C 
ATOM     32  C   UNL     1      -3.689   8.278  14.653  0.00  0.00    +0.133 C 
BRANCH  32  33
ATOM     33  N   UNL     1      -3.088   7.665  15.848  0.00  0.00    -0.308 N 
ATOM     34  H   UNL     1      -2.386   8.194  16.347  0.00  0.00    +0.149 HD
ATOM     35  C   UNL     1      -3.409   6.456  16.317  0.00  0.00    +0.210 C 
ATOM     36  C   UNL     1      -4.463   5.665  15.519  0.00  0.00    +0.109 C 
ATOM     37  O   UNL     1      -2.899   5.974  17.329  0.00  0.00    -0.276 OA
ENDBRANCH  32  33
BRANCH  29  38
ATOM     38  C   UNL     1      -2.875  11.561  13.125  0.00  0.00    +0.414 C 
ATOM     39  O   UNL     1      -3.090  12.349  14.045  0.00  0.00    -0.240 OA
ATOM     40  O   UNL     1      -1.805  11.621  12.519  0.00  0.00    -0.240 OA
ENDBRANCH  29  38
BRANCH  31  41
ATOM     41  O   UNL     1      -2.134   7.187  13.167  0.00  0.00    -0.390 OA
ATOM     42  H   UNL     1      -2.548   6.920  12.343  0.00  0.00    +0.210 HD
ENDBRANCH  31  41
BRANCH  29  43
ATOM     43  O   UNL     1      -4.702  10.985  11.601  0.00  0.00    -0.343 OA
ATOM     44  C   UNL     1      -5.826  11.838  11.935  0.00  0.00    +0.198 C 
ENDBRANCH  29  43
ENDBRANCH  26  27
BRANCH  26  45
ATOM     45  O   UNL     1      -6.387   8.621  15.756  0.00  0.00    -0.387 OA
ATOM     46  H   UNL     1      -5.963   7.823  15.433  0.00  0.00    +0.210 HD
ENDBRANCH  26  45
ENDBRANCH   1  26
TORSDOF 14
