REMARK VINA RESULT:    -3.902      2.775      6.362
REMARK INTER + INTRA:         -12.505
REMARK INTER:                  -8.452
REMARK INTRA:                  -4.053
REMARK UNBOUND:                -4.498
REMARK  Name = lig_assembled_33.pdb
REMARK  22 active torsions:
REMARK  status: ('A' for Active; 'I' for Inactive)
REMARK    1  A    between atoms: _2  and  _9
REMARK    2  A    between atoms: _4  and  _20
REMARK    3  A    between atoms: _5  and  _13
REMARK    4  A    between atoms: _5  and  _14
REMARK    5  A    between atoms: _6  and  _7
REMARK    6  A    between atoms: _6  and  _20
REMARK    7  A    between atoms: _9  and  _10
REMARK    8  A    between atoms: _10  and  _11
REMARK    9  A    between atoms: _11  and  _12
REMARK   10  A    between atoms: _12  and  _13
REMARK   11  A    between atoms: _16  and  _36
REMARK   12  A    between atoms: _18  and  _24
REMARK   13  A    between atoms: _19  and  _23
REMARK   14  A    between atoms: _23  and  _24
REMARK   15  A    between atoms: _26  and  _27
REMARK   16  A    between atoms: _28  and  _29
REMARK   17  A    between atoms: _30  and  _32
REMARK   18  A    between atoms: _32  and  _33
REMARK   19  A    between atoms: _32  and  _34
REMARK   20  A    between atoms: _34  and  _35
REMARK   21  A    between atoms: _34  and  _36
REMARK   22  A    between atoms: _37  and  _39
REMARK                            x       y       z     vdW  Elec       q    Type
REMARK                         _______ _______ _______ _____ _____    ______ ____
ROOT
ATOM      1  C   UNL     1      -3.414  11.146  21.701  0.00  0.00    +0.163 C 
ENDROOT
BRANCH   1   2
ATOM      2  O   UNL     1      -2.809  12.098  22.591  0.00  0.00    -0.388 OA
ATOM      3  H   UNL     1      -3.398  12.265  23.331  0.00  0.00    +0.210 HD
ENDBRANCH   1   2
BRANCH   1   4
ATOM      4  C   UNL     1      -4.129  10.034  22.489  0.00  0.00    +0.175 C 
BRANCH   4   5
ATOM      5  C   UNL     1      -4.174  10.330  23.995  0.00  0.00    +0.176 C 
ATOM      6  O   UNL     1      -2.905   9.915  24.570  0.00  0.00    -0.332 OA
ATOM      7  C   UNL     1      -2.724  10.219  25.993  0.00  0.00    +0.277 C 
ATOM      8  C   UNL     1      -3.891   9.634  26.824  0.00  0.00    +0.110 C 
ATOM      9  C   UNL     1      -5.263  10.022  26.232  0.00  0.00    +0.143 C 
ATOM     10  C   UNL     1      -5.341   9.664  24.748  0.00  0.00    +0.133 C 
BRANCH  10  11
ATOM     11  N   UNL     1      -6.618  10.117  24.175  0.00  0.00    -0.308 N 
ATOM     12  H   UNL     1      -6.848  11.098  24.252  0.00  0.00    +0.149 HD
ATOM     13  C   UNL     1      -7.494   9.317  23.561  0.00  0.00    +0.210 C 
ATOM     14  C   UNL     1      -7.126   7.823  23.483  0.00  0.00    +0.109 C 
ATOM     15  O   UNL     1      -8.549   9.727  23.077  0.00  0.00    -0.276 OA
ENDBRANCH  10  11
BRANCH   7  16
ATOM     16  C   UNL     1      -2.642  11.743  26.220  0.00  0.00    +0.414 C 
ATOM     17  O   UNL     1      -3.064  12.238  27.264  0.00  0.00    -0.240 OA
ATOM     18  O   UNL     1      -2.154  12.477  25.359  0.00  0.00    -0.240 OA
ENDBRANCH   7  16
BRANCH   9  19
ATOM     19  O   UNL     1      -6.302   9.341  26.936  0.00  0.00    -0.390 OA
ATOM     20  H   UNL     1      -7.133   9.803  26.808  0.00  0.00    +0.210 HD
ENDBRANCH   9  19
BRANCH   7  21
ATOM     21  O   UNL     1      -1.491   9.593  26.432  0.00  0.00    -0.343 OA
ATOM     22  C   UNL     1      -1.469   9.197  27.827  0.00  0.00    +0.198 C 
ENDBRANCH   7  21
ENDBRANCH   4   5
BRANCH   4  23
ATOM     23  O   UNL     1      -3.488   8.765  22.250  0.00  0.00    -0.387 OA
ATOM     24  H   UNL     1      -2.542   8.852  22.395  0.00  0.00    +0.210 HD
ENDBRANCH   4  23
ENDBRANCH   1   4
BRANCH   1  25
ATOM     25  C   UNL     1      -4.414  11.848  20.788  0.00  0.00    +0.141 C 
BRANCH  25  28
ATOM     26  C   UNL     1      -5.952  13.197  22.174  0.00  0.00    +0.401 C 
ATOM     27  O   UNL     1      -5.144  14.113  22.345  0.00  0.00    -0.226 OA
ATOM     28  N   UNL     1      -5.692  12.097  21.466  0.00  0.00    -0.279 N 
ATOM     29  H   UNL     1      -6.416  11.396  21.391  0.00  0.00    +0.152 HD
BRANCH  26  30
ATOM     30  O   UNL     1      -7.250  13.296  22.766  0.00  0.00    -0.444 OA
BRANCH  30  31
ATOM     31  C   UNL     1      -7.209  14.220  23.856  0.00  0.00    +0.292 C 
BRANCH  31  33
ATOM     32  N   UNL     1      -8.144  12.503  25.371  0.00  0.00    -0.131 NA
ATOM     33  C   UNL     1      -7.234  13.501  25.143  0.00  0.00    +0.120 A 
ATOM     34  C   UNL     1      -6.448  13.659  26.265  0.00  0.00    +0.137 A 
ATOM     35  N   UNL     1      -6.926  12.722  27.131  0.00  0.00    -0.251 N 
ATOM     36  N   UNL     1      -7.955  12.042  26.599  0.00  0.00    -0.065 NA
BRANCH  35  37
ATOM     37  C   UNL     1      -6.470  12.427  28.474  0.00  0.00    +0.145 C 
BRANCH  37  38
ATOM     38  C   UNL     1      -5.873  13.654  29.160  0.00  0.00    +0.023 C 
BRANCH  38  39
ATOM     39  C   UNL     1      -5.751  13.480  30.676  0.00  0.00    +0.002 C 
BRANCH  39  40
ATOM     40  C   UNL     1      -5.021  12.172  30.993  0.00  0.00    +0.011 C 
BRANCH  40  41
ATOM     41  C   UNL     1      -3.503  12.302  30.895  0.00  0.00    +0.120 C 
BRANCH  41  42
ATOM     42  C   UNL     1      -2.814  11.029  31.334  0.00  0.00    +0.305 C 
ATOM     43  O   UNL     1      -3.076   9.908  30.930  0.00  0.00    -0.251 OA
BRANCH  42  44
ATOM     44  O   UNL     1      -1.840  11.258  32.245  0.00  0.00    -0.481 OA
ATOM     45  H   UNL     1      -1.635  10.488  32.806  0.00  0.00    +0.295 HD
ENDBRANCH  42  44
ENDBRANCH  41  42
ENDBRANCH  40  41
ENDBRANCH  39  40
ENDBRANCH  38  39
ENDBRANCH  37  38
ENDBRANCH  35  37
ENDBRANCH  31  33
ENDBRANCH  30  31
ENDBRANCH  26  30
ENDBRANCH  25  28
ENDBRANCH   1  25
TORSDOF 20
