REMARK VINA RESULT:    -4.237      2.077      4.224
REMARK INTER + INTRA:         -10.831
REMARK INTER:                  -6.728
REMARK INTRA:                  -4.103
REMARK UNBOUND:                -2.754
REMARK  Name = lig_assembled_19.pdb
REMARK  20 active torsions:
REMARK  status: ('A' for Active; 'I' for Inactive)
REMARK    1  A    between atoms: _2  and  _9
REMARK    2  A    between atoms: _4  and  _18
REMARK    3  A    between atoms: _5  and  _11
REMARK    4  A    between atoms: _6  and  _7
REMARK    5  A    between atoms: _6  and  _18
REMARK    6  A    between atoms: _9  and  _10
REMARK    7  A    between atoms: _10  and  _13
REMARK    8  A    between atoms: _11  and  _13
REMARK    9  A    between atoms: _14  and  _34
REMARK   10  A    between atoms: _16  and  _22
REMARK   11  A    between atoms: _17  and  _21
REMARK   12  A    between atoms: _21  and  _22
REMARK   13  A    between atoms: _24  and  _25
REMARK   14  A    between atoms: _26  and  _27
REMARK   15  A    between atoms: _28  and  _30
REMARK   16  A    between atoms: _30  and  _31
REMARK   17  A    between atoms: _30  and  _32
REMARK   18  A    between atoms: _32  and  _33
REMARK   19  A    between atoms: _32  and  _34
REMARK   20  A    between atoms: _35  and  _37
REMARK                            x       y       z     vdW  Elec       q    Type
REMARK                         _______ _______ _______ _____ _____    ______ ____
ROOT
ATOM      1  C   UNL     1      -2.742  11.177  26.135  0.00  0.00    +0.163 C 
ENDROOT
BRANCH   1   2
ATOM      2  O   UNL     1      -2.076  12.120  25.280  0.00  0.00    -0.388 OA
ATOM      3  H   UNL     1      -2.502  12.978  25.355  0.00  0.00    +0.210 HD
ENDBRANCH   1   2
BRANCH   1   4
ATOM      4  C   UNL     1      -3.687  10.272  25.325  0.00  0.00    +0.175 C 
BRANCH   4   5
ATOM      5  C   UNL     1      -4.144  10.936  24.018  0.00  0.00    +0.176 C 
ATOM      6  O   UNL     1      -5.005  12.056  24.363  0.00  0.00    -0.332 OA
ATOM      7  C   UNL     1      -5.456  12.879  23.237  0.00  0.00    +0.277 C 
ATOM      8  C   UNL     1      -6.145  12.000  22.166  0.00  0.00    +0.110 C 
ATOM      9  C   UNL     1      -5.281  10.778  21.789  0.00  0.00    +0.143 C 
ATOM     10  C   UNL     1      -4.865   9.995  23.036  0.00  0.00    +0.133 C 
BRANCH  10  11
ATOM     11  N   UNL     1      -3.971   8.885  22.672  0.00  0.00    -0.308 N 
ATOM     12  H   UNL     1      -3.126   9.106  22.164  0.00  0.00    +0.149 HD
ATOM     13  C   UNL     1      -4.203   7.603  22.970  0.00  0.00    +0.210 C 
ATOM     14  C   UNL     1      -5.512   7.296  23.722  0.00  0.00    +0.109 C 
ATOM     15  O   UNL     1      -3.429   6.695  22.666  0.00  0.00    -0.276 OA
ENDBRANCH  10  11
BRANCH   7  16
ATOM     16  C   UNL     1      -4.269  13.632  22.601  0.00  0.00    +0.414 C 
ATOM     17  O   UNL     1      -4.239  13.829  21.387  0.00  0.00    -0.240 OA
ATOM     18  O   UNL     1      -3.343  14.043  23.301  0.00  0.00    -0.240 OA
ENDBRANCH   7  16
BRANCH   9  19
ATOM     19  O   UNL     1      -6.015   9.918  20.917  0.00  0.00    -0.390 OA
ATOM     20  H   UNL     1      -6.862  10.320  20.709  0.00  0.00    +0.210 HD
ENDBRANCH   9  19
BRANCH   7  21
ATOM     21  O   UNL     1      -6.427  13.834  23.739  0.00  0.00    -0.343 OA
ATOM     22  C   UNL     1      -6.856  13.608  25.106  0.00  0.00    +0.198 C 
ENDBRANCH   7  21
ENDBRANCH   4   5
BRANCH   4  23
ATOM     23  O   UNL     1      -4.830   9.907  26.124  0.00  0.00    -0.387 OA
ATOM     24  H   UNL     1      -5.635  10.100  25.637  0.00  0.00    +0.210 HD
ENDBRANCH   4  23
ENDBRANCH   1   4
BRANCH   1  25
ATOM     25  C   UNL     1      -1.714  10.318  26.864  0.00  0.00    +0.141 C 
BRANCH  25  28
ATOM     26  C   UNL     1      -2.092   8.574  28.573  0.00  0.00    +0.401 C 
ATOM     27  O   UNL     1      -1.543   7.683  27.921  0.00  0.00    -0.226 OA
ATOM     28  N   UNL     1      -2.222   9.833  28.153  0.00  0.00    -0.279 N 
ATOM     29  H   UNL     1      -2.697  10.490  28.756  0.00  0.00    +0.152 HD
BRANCH  26  30
ATOM     30  O   UNL     1      -2.633   8.260  29.859  0.00  0.00    -0.444 OA
BRANCH  30  31
ATOM     31  C   UNL     1      -3.648   7.262  29.720  0.00  0.00    +0.292 C 
BRANCH  31  33
ATOM     32  N   UNL     1      -5.412   7.503  27.995  0.00  0.00    -0.131 NA
ATOM     33  C   UNL     1      -4.895   7.864  29.213  0.00  0.00    +0.120 A 
ATOM     34  C   UNL     1      -5.716   8.808  29.787  0.00  0.00    +0.137 A 
ATOM     35  N   UNL     1      -6.703   8.985  28.865  0.00  0.00    -0.248 N 
ATOM     36  N   UNL     1      -6.523   8.198  27.793  0.00  0.00    -0.065 NA
BRANCH  35  37
ATOM     37  C   UNL     1      -7.846   9.869  28.946  0.00  0.00    +0.186 C 
BRANCH  37  38
ATOM     38  C   UNL     1      -7.432  11.336  28.881  0.00  0.00    +0.255 C 
BRANCH  38  39
ATOM     39  O   UNL     1      -6.218  11.527  28.127  0.00  0.00    -0.463 OA
BRANCH  39  40
ATOM     40  C   UNL     1      -5.283  12.332  28.697  0.00  0.00    +0.304 C 
ATOM     41  O   UNL     1      -4.189  11.959  29.095  0.00  0.00    -0.251 OA
ATOM     42  C   UNL     1      -5.758  13.752  28.744  0.00  0.00    +0.136 C 
ENDBRANCH  39  40
ENDBRANCH  38  39
ENDBRANCH  37  38
ENDBRANCH  35  37
ENDBRANCH  31  33
ENDBRANCH  30  31
ENDBRANCH  26  30
ENDBRANCH  25  28
ENDBRANCH   1  25
TORSDOF 17
