REMARK VINA RESULT:    -4.870      2.184      3.449
REMARK INTER + INTRA:         -10.717
REMARK INTER:                  -8.439
REMARK INTRA:                  -2.278
REMARK UNBOUND:                -2.287
REMARK  Name = lig_assembled_52.pdb
REMARK  16 active torsions:
REMARK  status: ('A' for Active; 'I' for Inactive)
REMARK    1  A    between atoms: _2  and  _10
REMARK    2  A    between atoms: _5  and  _18
REMARK    3  A    between atoms: _7  and  _8
REMARK    4  A    between atoms: _7  and  _18
REMARK    5  A    between atoms: _14  and  _34
REMARK    6  A    between atoms: _16  and  _22
REMARK    7  A    between atoms: _17  and  _21
REMARK    8  A    between atoms: _21  and  _22
REMARK    9  A    between atoms: _24  and  _25
REMARK   10  A    between atoms: _26  and  _27
REMARK   11  A    between atoms: _28  and  _30
REMARK   12  A    between atoms: _30  and  _31
REMARK   13  A    between atoms: _30  and  _32
REMARK   14  A    between atoms: _32  and  _33
REMARK   15  A    between atoms: _32  and  _34
REMARK   16  A    between atoms: _35  and  _37
REMARK                            x       y       z     vdW  Elec       q    Type
REMARK                         _______ _______ _______ _____ _____    ______ ____
ROOT
ATOM      1  C   UNL     1      -4.266   9.022  23.815  0.00  0.00    +0.163 C 
ENDROOT
BRANCH   1   2
ATOM      2  O   UNL     1      -3.846   8.264  22.669  0.00  0.00    -0.388 OA
ATOM      3  H   UNL     1      -4.350   7.448  22.623  0.00  0.00    +0.210 HD
ENDBRANCH   1   2
BRANCH   1   4
ATOM      4  C   UNL     1      -4.278   8.133  25.054  0.00  0.00    +0.141 C 
BRANCH   4   7
ATOM      5  C   UNL     1      -2.591   8.691  26.771  0.00  0.00    +0.401 C 
ATOM      6  O   UNL     1      -1.740   7.922  26.319  0.00  0.00    -0.226 OA
ATOM      7  N   UNL     1      -3.807   8.848  26.246  0.00  0.00    -0.279 N 
ATOM      8  H   UNL     1      -4.439   9.496  26.694  0.00  0.00    +0.152 HD
BRANCH   5   9
ATOM      9  O   UNL     1      -2.280   9.468  27.930  0.00  0.00    -0.444 OA
BRANCH   9  10
ATOM     10  C   UNL     1      -3.430   9.546  28.776  0.00  0.00    +0.292 C 
BRANCH  10  12
ATOM     11  N   UNL     1      -2.484  10.127  30.986  0.00  0.00    -0.131 NA
ATOM     12  C   UNL     1      -3.191  10.496  29.879  0.00  0.00    +0.121 A 
ATOM     13  C   UNL     1      -3.579  11.810  30.012  0.00  0.00    +0.143 A 
ATOM     14  N   UNL     1      -3.063  12.213  31.222  0.00  0.00    -0.218 N 
ATOM     15  N   UNL     1      -2.413  11.173  31.799  0.00  0.00    -0.060 NA
BRANCH  14  16
ATOM     16  C   UNL     1      -3.134  13.483  31.832  0.00  0.00    +0.085 A 
ATOM     17  C   UNL     1      -3.930  14.509  31.315  0.00  0.00    +0.031 A 
ATOM     18  C   UNL     1      -3.940  15.749  31.952  0.00  0.00    +0.022 A 
ATOM     19  C   UNL     1      -3.159  15.918  33.083  0.00  0.00    +0.111 A 
ATOM     20  N   UNL     1      -2.386  14.944  33.611  0.00  0.00    -0.261 NA
ATOM     21  C   UNL     1      -2.389  13.746  32.976  0.00  0.00    +0.138 A 
ENDBRANCH  14  16
ENDBRANCH  10  12
ENDBRANCH   9  10
ENDBRANCH   5   9
ENDBRANCH   4   7
ENDBRANCH   1   4
BRANCH   1  22
ATOM     22  C   UNL     1      -5.667   9.619  23.597  0.00  0.00    +0.175 C 
BRANCH  22  23
ATOM     23  C   UNL     1      -5.619  10.930  22.798  0.00  0.00    +0.176 C 
ATOM     24  O   UNL     1      -5.314  10.600  21.415  0.00  0.00    -0.332 OA
ATOM     25  C   UNL     1      -5.331  11.725  20.476  0.00  0.00    +0.277 C 
ATOM     26  C   UNL     1      -4.389  12.852  20.965  0.00  0.00    +0.110 C 
ATOM     27  C   UNL     1      -4.654  13.216  22.441  0.00  0.00    +0.143 C 
ATOM     28  C   UNL     1      -4.616  11.971  23.328  0.00  0.00    +0.133 C 
BRANCH  28  29
ATOM     29  N   UNL     1      -4.956  12.318  24.717  0.00  0.00    -0.308 N 
ATOM     30  H   UNL     1      -5.922  12.529  24.928  0.00  0.00    +0.149 HD
ATOM     31  C   UNL     1      -4.073  12.372  25.718  0.00  0.00    +0.210 C 
ATOM     32  C   UNL     1      -2.605  12.070  25.359  0.00  0.00    +0.109 C 
ATOM     33  O   UNL     1      -4.389  12.651  26.875  0.00  0.00    -0.276 OA
ENDBRANCH  28  29
BRANCH  25  34
ATOM     34  C   UNL     1      -6.761  12.282  20.315  0.00  0.00    +0.414 C 
ATOM     35  O   UNL     1      -6.939  13.481  20.107  0.00  0.00    -0.240 OA
ATOM     36  O   UNL     1      -7.735  11.532  20.394  0.00  0.00    -0.240 OA
ENDBRANCH  25  34
BRANCH  27  37
ATOM     37  O   UNL     1      -3.669  14.146  22.893  0.00  0.00    -0.390 OA
ATOM     38  H   UNL     1      -2.834  13.966  22.456  0.00  0.00    +0.210 HD
ENDBRANCH  27  37
BRANCH  25  39
ATOM     39  O   UNL     1      -4.846  11.248  19.194  0.00  0.00    -0.343 OA
ATOM     40  C   UNL     1      -5.047   9.833  18.952  0.00  0.00    +0.198 C 
ENDBRANCH  25  39
ENDBRANCH  22  23
BRANCH  22  41
ATOM     41  O   UNL     1      -6.318   9.833  24.865  0.00  0.00    -0.387 OA
ATOM     42  H   UNL     1      -5.701   9.651  25.577  0.00  0.00    +0.210 HD
ENDBRANCH  22  41
ENDBRANCH   1  22
TORSDOF 14
