REMARK VINA RESULT:    -5.004      2.418      8.392
REMARK INTER + INTRA:         -11.026
REMARK INTER:                  -8.256
REMARK INTRA:                  -2.769
REMARK UNBOUND:                -1.779
REMARK  Name = lig_assembled_14.pdb
REMARK  18 active torsions:
REMARK  status: ('A' for Active; 'I' for Inactive)
REMARK    1  A    between atoms: _2  and  _10
REMARK    2  A    between atoms: _3  and  _11
REMARK    3  A    between atoms: _5  and  _19
REMARK    4  A    between atoms: _7  and  _8
REMARK    5  A    between atoms: _7  and  _19
REMARK    6  A    between atoms: _10  and  _11
REMARK    7  A    between atoms: _15  and  _35
REMARK    8  A    between atoms: _17  and  _23
REMARK    9  A    between atoms: _18  and  _22
REMARK   10  A    between atoms: _22  and  _23
REMARK   11  A    between atoms: _25  and  _26
REMARK   12  A    between atoms: _27  and  _28
REMARK   13  A    between atoms: _29  and  _31
REMARK   14  A    between atoms: _31  and  _32
REMARK   15  A    between atoms: _31  and  _33
REMARK   16  A    between atoms: _33  and  _34
REMARK   17  A    between atoms: _33  and  _35
REMARK   18  A    between atoms: _36  and  _38
REMARK                            x       y       z     vdW  Elec       q    Type
REMARK                         _______ _______ _______ _____ _____    ______ ____
ROOT
ATOM      1  C   UNL     1      -4.339  10.819  25.286  0.00  0.00    +0.163 C 
ENDROOT
BRANCH   1   2
ATOM      2  O   UNL     1      -4.953  10.199  24.144  0.00  0.00    -0.388 OA
ATOM      3  H   UNL     1      -5.142  10.866  23.480  0.00  0.00    +0.210 HD
ENDBRANCH   1   2
BRANCH   1   4
ATOM      4  C   UNL     1      -2.903  10.303  25.486  0.00  0.00    +0.175 C 
BRANCH   4   5
ATOM      5  C   UNL     1      -2.862   9.025  26.336  0.00  0.00    +0.176 C 
ATOM      6  O   UNL     1      -3.332   7.923  25.511  0.00  0.00    -0.332 OA
ATOM      7  C   UNL     1      -3.261   6.595  26.127  0.00  0.00    +0.277 C 
ATOM      8  C   UNL     1      -4.007   6.588  27.484  0.00  0.00    +0.110 C 
ATOM      9  C   UNL     1      -3.564   7.760  28.384  0.00  0.00    +0.143 C 
ATOM     10  C   UNL     1      -3.674   9.093  27.642  0.00  0.00    +0.133 C 
BRANCH  10  11
ATOM     11  N   UNL     1      -3.168  10.192  28.479  0.00  0.00    -0.308 N 
ATOM     12  H   UNL     1      -2.174  10.226  28.662  0.00  0.00    +0.149 HD
ATOM     13  C   UNL     1      -3.934  11.146  29.014  0.00  0.00    +0.210 C 
ATOM     14  C   UNL     1      -5.447  11.051  28.739  0.00  0.00    +0.109 C 
ATOM     15  O   UNL     1      -3.480  12.063  29.699  0.00  0.00    -0.276 OA
ENDBRANCH  10  11
BRANCH   7  16
ATOM     16  C   UNL     1      -1.794   6.169  26.343  0.00  0.00    +0.414 C 
ATOM     17  O   UNL     1      -1.411   5.805  27.454  0.00  0.00    -0.240 OA
ATOM     18  O   UNL     1      -0.994   6.189  25.407  0.00  0.00    -0.240 OA
ENDBRANCH   7  16
BRANCH   9  19
ATOM     19  O   UNL     1      -4.380   7.804  29.555  0.00  0.00    -0.390 OA
ATOM     20  H   UNL     1      -4.342   8.683  29.939  0.00  0.00    +0.210 HD
ENDBRANCH   9  19
BRANCH   7  21
ATOM     21  O   UNL     1      -3.918   5.653  25.239  0.00  0.00    -0.343 OA
ATOM     22  C   UNL     1      -4.267   6.183  23.935  0.00  0.00    +0.198 C 
ENDBRANCH   7  21
ENDBRANCH   4   5
BRANCH   4  23
ATOM     23  O   UNL     1      -2.087  11.327  26.088  0.00  0.00    -0.387 OA
ATOM     24  H   UNL     1      -1.402  10.918  26.622  0.00  0.00    +0.210 HD
ENDBRANCH   4  23
ENDBRANCH   1   4
BRANCH   1  25
ATOM     25  C   UNL     1      -4.316  12.333  25.108  0.00  0.00    +0.141 C 
BRANCH  25  28
ATOM     26  C   UNL     1      -4.494  13.411  22.891  0.00  0.00    +0.401 C 
ATOM     27  O   UNL     1      -5.658  13.783  23.061  0.00  0.00    -0.226 OA
ATOM     28  N   UNL     1      -3.793  12.722  23.792  0.00  0.00    -0.279 N 
ATOM     29  H   UNL     1      -2.848  12.453  23.557  0.00  0.00    +0.152 HD
BRANCH  26  30
ATOM     30  O   UNL     1      -3.839  13.721  21.659  0.00  0.00    -0.444 OA
BRANCH  30  31
ATOM     31  C   UNL     1      -2.976  12.641  21.291  0.00  0.00    +0.292 C 
BRANCH  31  33
ATOM     32  N   UNL     1      -3.595  10.262  21.578  0.00  0.00    -0.131 NA
ATOM     33  C   UNL     1      -3.767  11.452  20.922  0.00  0.00    +0.120 A 
ATOM     34  C   UNL     1      -4.725  11.294  19.945  0.00  0.00    +0.137 A 
ATOM     35  N   UNL     1      -5.085   9.985  20.052  0.00  0.00    -0.250 N 
ATOM     36  N   UNL     1      -4.411   9.369  21.038  0.00  0.00    -0.065 NA
BRANCH  35  37
ATOM     37  C   UNL     1      -6.010   9.241  19.225  0.00  0.00    +0.160 C 
BRANCH  37  38
ATOM     38  C   UNL     1      -5.925   9.660  17.752  0.00  0.00    +0.107 C 
BRANCH  38  39
ATOM     39  N   UNL     1      -4.624   9.343  17.138  0.00  0.00    -0.301 NA
ATOM     40  C   UNL     1      -4.689   8.217  16.201  0.00  0.00    +0.084 C 
ATOM     41  C   UNL     1      -3.396   8.362  15.425  0.00  0.00    +0.017 C 
ATOM     42  C   UNL     1      -3.235   9.862  15.266  0.00  0.00    +0.017 C 
ATOM     43  C   UNL     1      -4.095  10.477  16.366  0.00  0.00    +0.084 C 
ENDBRANCH  38  39
ENDBRANCH  37  38
ENDBRANCH  35  37
ENDBRANCH  31  33
ENDBRANCH  30  31
ENDBRANCH  26  30
ENDBRANCH  25  28
ENDBRANCH   1  25
TORSDOF 16
