REMARK VINA RESULT:    -4.960      2.998      8.525
REMARK INTER + INTRA:         -11.631
REMARK INTER:                  -8.273
REMARK INTRA:                  -3.359
REMARK UNBOUND:                -2.756
REMARK  Name = lig_assembled_41.pdb
REMARK  18 active torsions:
REMARK  status: ('A' for Active; 'I' for Inactive)
REMARK    1  A    between atoms: _2  and  _9
REMARK    2  A    between atoms: _4  and  _21
REMARK    3  A    between atoms: _6  and  _7
REMARK    4  A    between atoms: _6  and  _21
REMARK    5  A    between atoms: _10  and  _11
REMARK    6  A    between atoms: _11  and  _12
REMARK    7  A    between atoms: _17  and  _37
REMARK    8  A    between atoms: _19  and  _25
REMARK    9  A    between atoms: _20  and  _24
REMARK   10  A    between atoms: _24  and  _25
REMARK   11  A    between atoms: _27  and  _28
REMARK   12  A    between atoms: _29  and  _30
REMARK   13  A    between atoms: _31  and  _33
REMARK   14  A    between atoms: _33  and  _34
REMARK   15  A    between atoms: _33  and  _35
REMARK   16  A    between atoms: _35  and  _36
REMARK   17  A    between atoms: _35  and  _37
REMARK   18  A    between atoms: _38  and  _40
REMARK                            x       y       z     vdW  Elec       q    Type
REMARK                         _______ _______ _______ _____ _____    ______ ____
ROOT
ATOM      1  C   UNL     1      -5.436  11.594  28.239  0.00  0.00    +0.163 C 
ENDROOT
BRANCH   1   2
ATOM      2  O   UNL     1      -6.134  11.447  26.991  0.00  0.00    -0.388 OA
ATOM      3  H   UNL     1      -5.505  11.476  26.267  0.00  0.00    +0.210 HD
ENDBRANCH   1   2
BRANCH   1   4
ATOM      4  C   UNL     1      -5.759  12.948  28.862  0.00  0.00    +0.141 C 
BRANCH   4   7
ATOM      5  C   UNL     1      -6.905  14.878  27.829  0.00  0.00    +0.401 C 
ATOM      6  O   UNL     1      -7.820  14.898  28.656  0.00  0.00    -0.226 OA
ATOM      7  N   UNL     1      -5.904  13.997  27.846  0.00  0.00    -0.279 N 
ATOM      8  H   UNL     1      -5.205  14.056  27.118  0.00  0.00    +0.152 HD
BRANCH   5   9
ATOM      9  O   UNL     1      -6.899  15.846  26.777  0.00  0.00    -0.444 OA
BRANCH   9  10
ATOM     10  C   UNL     1      -7.867  15.484  25.789  0.00  0.00    +0.292 C 
BRANCH  10  12
ATOM     11  N   UNL     1      -7.777  13.111  25.122  0.00  0.00    -0.131 NA
ATOM     12  C   UNL     1      -7.353  14.392  24.942  0.00  0.00    +0.121 A 
ATOM     13  C   UNL     1      -6.458  14.426  23.895  0.00  0.00    +0.143 A 
ATOM     14  N   UNL     1      -6.281  13.111  23.531  0.00  0.00    -0.219 N 
ATOM     15  N   UNL     1      -7.165  12.347  24.230  0.00  0.00    -0.060 NA
BRANCH  14  16
ATOM     16  C   UNL     1      -5.453  12.525  22.531  0.00  0.00    +0.077 A 
ATOM     17  C   UNL     1      -4.191  11.942  22.771  0.00  0.00    +0.043 A 
ATOM     18  C   UNL     1      -3.454  11.443  21.676  0.00  0.00    +0.013 A 
ATOM     19  C   UNL     1      -3.947  11.525  20.372  0.00  0.00    +0.001 A 
ATOM     20  C   UNL     1      -5.198  12.076  20.139  0.00  0.00    +0.002 A 
ATOM     21  C   UNL     1      -5.949  12.561  21.208  0.00  0.00    +0.028 A 
BRANCH  17  22
ATOM     22  C   UNL     1      -3.667  11.624  24.134  0.00  0.00    +0.162 C 
ATOM     23  O   UNL     1      -4.058  10.611  24.709  0.00  0.00    -0.292 OA
ATOM     24  C   UNL     1      -2.663  12.538  24.796  0.00  0.00    +0.091 C 
ENDBRANCH  17  22
ENDBRANCH  14  16
ENDBRANCH  10  12
ENDBRANCH   9  10
ENDBRANCH   5   9
ENDBRANCH   4   7
ENDBRANCH   1   4
BRANCH   1  25
ATOM     25  C   UNL     1      -3.916  11.471  28.037  0.00  0.00    +0.175 C 
BRANCH  25  26
ATOM     26  C   UNL     1      -3.396  10.072  28.399  0.00  0.00    +0.176 C 
ATOM     27  O   UNL     1      -4.141   9.101  27.613  0.00  0.00    -0.332 OA
ATOM     28  C   UNL     1      -3.707   7.707  27.750  0.00  0.00    +0.277 C 
ATOM     29  C   UNL     1      -3.704   7.285  29.239  0.00  0.00    +0.110 C 
ATOM     30  C   UNL     1      -2.950   8.304  30.119  0.00  0.00    +0.143 C 
ATOM     31  C   UNL     1      -3.481   9.720  29.896  0.00  0.00    +0.133 C 
BRANCH  31  32
ATOM     32  N   UNL     1      -2.697  10.693  30.674  0.00  0.00    -0.308 N 
ATOM     33  H   UNL     1      -1.735  10.846  30.405  0.00  0.00    +0.149 HD
ATOM     34  C   UNL     1      -3.174  11.386  31.711  0.00  0.00    +0.210 C 
ATOM     35  C   UNL     1      -4.636  11.111  32.111  0.00  0.00    +0.109 C 
ATOM     36  O   UNL     1      -2.499  12.205  32.335  0.00  0.00    -0.276 OA
ENDBRANCH  31  32
BRANCH  28  37
ATOM     37  C   UNL     1      -2.296   7.514  27.157  0.00  0.00    +0.414 C 
ATOM     38  O   UNL     1      -1.884   8.270  26.277  0.00  0.00    -0.240 OA
ATOM     39  O   UNL     1      -1.570   6.603  27.557  0.00  0.00    -0.240 OA
ENDBRANCH  28  37
BRANCH  30  40
ATOM     40  O   UNL     1      -3.101   7.956  31.496  0.00  0.00    -0.390 OA
ATOM     41  H   UNL     1      -2.890   8.716  32.044  0.00  0.00    +0.210 HD
ENDBRANCH  30  40
BRANCH  28  42
ATOM     42  O   UNL     1      -4.654   6.870  27.038  0.00  0.00    -0.343 OA
ATOM     43  C   UNL     1      -5.735   7.585  26.387  0.00  0.00    +0.198 C 
ENDBRANCH  28  42
ENDBRANCH  25  26
BRANCH  25  44
ATOM     44  O   UNL     1      -3.229  12.472  28.813  0.00  0.00    -0.387 OA
ATOM     45  H   UNL     1      -2.292  12.451  28.606  0.00  0.00    +0.210 HD
ENDBRANCH  25  44
ENDBRANCH   1  25
TORSDOF 15
