REMARK VINA RESULT:    -5.568      0.000      0.000
REMARK INTER + INTRA:         -12.665
REMARK INTER:                 -10.490
REMARK INTRA:                  -2.176
REMARK UNBOUND:                -2.541
REMARK  Name = lig_assembled_23.pdb
REMARK  18 active torsions:
REMARK  status: ('A' for Active; 'I' for Inactive)
REMARK    1  A    between atoms: _2  and  _10
REMARK    2  A    between atoms: _3  and  _41
REMARK    3  A    between atoms: _5  and  _21
REMARK    4  A    between atoms: _7  and  _8
REMARK    5  A    between atoms: _7  and  _21
REMARK    6  A    between atoms: _12  and  _41
REMARK    7  A    between atoms: _17  and  _37
REMARK    8  A    between atoms: _19  and  _25
REMARK    9  A    between atoms: _20  and  _24
REMARK   10  A    between atoms: _24  and  _25
REMARK   11  A    between atoms: _27  and  _28
REMARK   12  A    between atoms: _29  and  _30
REMARK   13  A    between atoms: _31  and  _33
REMARK   14  A    between atoms: _33  and  _34
REMARK   15  A    between atoms: _33  and  _35
REMARK   16  A    between atoms: _35  and  _36
REMARK   17  A    between atoms: _35  and  _37
REMARK   18  A    between atoms: _38  and  _40
REMARK                            x       y       z     vdW  Elec       q    Type
REMARK                         _______ _______ _______ _____ _____    ______ ____
ROOT
ATOM      1  C   UNL     1      -3.486  13.141  24.321  0.00  0.00    +0.141 C 
ENDROOT
BRANCH   1   4
ATOM      2  C   UNL     1      -3.953  12.436  22.000  0.00  0.00    +0.401 C 
ATOM      3  O   UNL     1      -2.919  11.772  21.893  0.00  0.00    -0.226 OA
ATOM      4  N   UNL     1      -4.295  13.113  23.096  0.00  0.00    -0.279 N 
ATOM      5  H   UNL     1      -5.159  13.636  23.084  0.00  0.00    +0.152 HD
BRANCH   2   6
ATOM      6  O   UNL     1      -4.853  12.501  20.890  0.00  0.00    -0.444 OA
BRANCH   6   7
ATOM      7  C   UNL     1      -5.604  11.286  20.813  0.00  0.00    +0.292 C 
BRANCH   7   9
ATOM      8  N   UNL     1      -5.229   9.181  19.572  0.00  0.00    -0.131 NA
ATOM      9  C   UNL     1      -5.255  10.546  19.587  0.00  0.00    +0.121 A 
ATOM     10  C   UNL     1      -4.918  11.015  18.337  0.00  0.00    +0.143 A 
ATOM     11  N   UNL     1      -4.703   9.887  17.580  0.00  0.00    -0.220 N 
ATOM     12  N   UNL     1      -4.890   8.788  18.352  0.00  0.00    -0.060 NA
BRANCH  11  13
ATOM     13  C   UNL     1      -4.331   9.787  16.215  0.00  0.00    +0.069 A 
ATOM     14  C   UNL     1      -3.444   8.778  15.814  0.00  0.00    +0.056 A 
ATOM     15  C   UNL     1      -3.047   8.698  14.474  0.00  0.00    +0.107 A 
ATOM     16  C   UNL     1      -3.544   9.593  13.525  0.00  0.00    +0.028 A 
ATOM     17  C   UNL     1      -4.439  10.586  13.922  0.00  0.00    +0.004 A 
ATOM     18  C   UNL     1      -4.829  10.688  15.262  0.00  0.00    +0.028 A 
BRANCH  15  19
ATOM     19  S   UNL     1      -1.883   7.457  13.998  0.00  0.00    +0.056 S 
ATOM     20  O   UNL     1      -1.472   7.704  12.636  0.00  0.00    -0.153 OA
ATOM     21  O   UNL     1      -0.940   7.250  15.073  0.00  0.00    -0.153 OA
BRANCH  19  22
ATOM     22  N   UNL     1      -2.837   6.076  13.970  0.00  0.00    -0.204 NA
ATOM     23  H   UNL     1      -3.661   6.233  13.391  0.00  0.00    +0.144 HD
ATOM     24  H   UNL     1      -3.049   5.778  14.923  0.00  0.00    +0.144 HD
ENDBRANCH  19  22
ENDBRANCH  15  19
ENDBRANCH  11  13
ENDBRANCH   7   9
ENDBRANCH   6   7
ENDBRANCH   2   6
ENDBRANCH   1   4
BRANCH   1  25
ATOM     25  C   UNL     1      -3.558  11.820  25.081  0.00  0.00    +0.163 C 
BRANCH  25  26
ATOM     26  O   UNL     1      -2.364  11.055  24.851  0.00  0.00    -0.388 OA
ATOM     27  H   UNL     1      -1.791  11.117  25.619  0.00  0.00    +0.210 HD
ENDBRANCH  25  26
BRANCH  25  28
ATOM     28  C   UNL     1      -3.752  12.100  26.581  0.00  0.00    +0.175 C 
BRANCH  28  29
ATOM     29  C   UNL     1      -3.418  10.875  27.445  0.00  0.00    +0.176 C 
ATOM     30  O   UNL     1      -4.025   9.710  26.822  0.00  0.00    -0.332 OA
ATOM     31  C   UNL     1      -3.721   8.423  27.456  0.00  0.00    +0.277 C 
ATOM     32  C   UNL     1      -4.085   8.461  28.960  0.00  0.00    +0.110 C 
ATOM     33  C   UNL     1      -3.488   9.701  29.659  0.00  0.00    +0.143 C 
ATOM     34  C   UNL     1      -3.863  10.984  28.915  0.00  0.00    +0.133 C 
BRANCH  34  35
ATOM     35  N   UNL     1      -3.217  12.149  29.540  0.00  0.00    -0.308 N 
ATOM     36  H   UNL     1      -2.211  12.217  29.483  0.00  0.00    +0.149 HD
ATOM     37  C   UNL     1      -3.874  13.122  30.177  0.00  0.00    +0.210 C 
ATOM     38  C   UNL     1      -5.405  12.975  30.269  0.00  0.00    +0.109 C 
ATOM     39  O   UNL     1      -3.308  14.094  30.678  0.00  0.00    -0.276 OA
ENDBRANCH  34  35
BRANCH  31  40
ATOM     40  C   UNL     1      -2.228   8.073  27.295  0.00  0.00    +0.414 C 
ATOM     41  O   UNL     1      -1.635   7.459  28.182  0.00  0.00    -0.240 OA
ATOM     42  O   UNL     1      -1.615   8.403  26.279  0.00  0.00    -0.240 OA
ENDBRANCH  31  40
BRANCH  33  43
ATOM     43  O   UNL     1      -3.971   9.777  31.001  0.00  0.00    -0.390 OA
ATOM     44  H   UNL     1      -4.877   9.461  31.034  0.00  0.00    +0.210 HD
ENDBRANCH  33  43
BRANCH  31  45
ATOM     45  O   UNL     1      -4.533   7.405  26.815  0.00  0.00    -0.343 OA
ATOM     46  C   UNL     1      -5.773   7.885  26.236  0.00  0.00    +0.198 C 
ENDBRANCH  31  45
ENDBRANCH  28  29
BRANCH  28  47
ATOM     47  O   UNL     1      -5.104  12.533  26.834  0.00  0.00    -0.387 OA
ATOM     48  H   UNL     1      -5.198  13.454  26.581  0.00  0.00    +0.210 HD
ENDBRANCH  28  47
ENDBRANCH  25  28
ENDBRANCH   1  25
TORSDOF 16
