REMARK VINA RESULT:    -5.211      6.334     10.245
REMARK INTER + INTRA:         -11.628
REMARK INTER:                  -9.276
REMARK INTRA:                  -2.352
REMARK UNBOUND:                -2.303
REMARK  Name = lig_assembled_4.pdb
REMARK  19 active torsions:
REMARK  status: ('A' for Active; 'I' for Inactive)
REMARK    1  A    between atoms: _2  and  _9
REMARK    2  A    between atoms: _4  and  _21
REMARK    3  A    between atoms: _6  and  _7
REMARK    4  A    between atoms: _6  and  _21
REMARK    5  A    between atoms: _10  and  _11
REMARK    6  A    between atoms: _11  and  _12
REMARK    7  A    between atoms: _11  and  _13
REMARK    8  A    between atoms: _17  and  _37
REMARK    9  A    between atoms: _19  and  _25
REMARK   10  A    between atoms: _20  and  _24
REMARK   11  A    between atoms: _24  and  _25
REMARK   12  A    between atoms: _27  and  _28
REMARK   13  A    between atoms: _29  and  _30
REMARK   14  A    between atoms: _31  and  _33
REMARK   15  A    between atoms: _33  and  _34
REMARK   16  A    between atoms: _33  and  _35
REMARK   17  A    between atoms: _35  and  _36
REMARK   18  A    between atoms: _35  and  _37
REMARK   19  A    between atoms: _38  and  _40
REMARK                            x       y       z     vdW  Elec       q    Type
REMARK                         _______ _______ _______ _____ _____    ______ ____
ROOT
ATOM      1  C   UNL     1      -2.960  11.055  13.648  0.00  0.00    +0.163 C 
ENDROOT
BRANCH   1   2
ATOM      2  O   UNL     1      -2.049  10.699  12.596  0.00  0.00    -0.388 OA
ATOM      3  H   UNL     1      -1.648  11.493  12.236  0.00  0.00    +0.210 HD
ENDBRANCH   1   2
BRANCH   1   4
ATOM      4  C   UNL     1      -3.768   9.834  14.075  0.00  0.00    +0.141 C 
BRANCH   4   7
ATOM      5  C   UNL     1      -4.638   9.277  16.320  0.00  0.00    +0.401 C 
ATOM      6  O   UNL     1      -4.041   8.201  16.387  0.00  0.00    -0.226 OA
ATOM      7  N   UNL     1      -4.573  10.102  15.274  0.00  0.00    -0.279 N 
ATOM      8  H   UNL     1      -5.106  10.959  15.308  0.00  0.00    +0.152 HD
BRANCH   5   9
ATOM      9  O   UNL     1      -5.460   9.686  17.416  0.00  0.00    -0.444 OA
BRANCH   9  10
ATOM     10  C   UNL     1      -5.069  10.993  17.846  0.00  0.00    +0.292 C 
BRANCH  10  12
ATOM     11  N   UNL     1      -6.284  11.122  19.990  0.00  0.00    -0.131 NA
ATOM     12  C   UNL     1      -5.102  11.090  19.316  0.00  0.00    +0.121 A 
ATOM     13  C   UNL     1      -4.066  11.199  20.217  0.00  0.00    +0.143 A 
ATOM     14  N   UNL     1      -4.678  11.431  21.435  0.00  0.00    -0.219 N 
ATOM     15  N   UNL     1      -6.013  11.302  21.277  0.00  0.00    -0.060 NA
BRANCH  14  16
ATOM     16  C   UNL     1      -4.051  11.776  22.669  0.00  0.00    +0.070 A 
ATOM     17  C   UNL     1      -3.757  13.114  23.048  0.00  0.00    -0.019 A 
ATOM     18  C   UNL     1      -3.105  13.312  24.286  0.00  0.00    +0.006 A 
ATOM     19  C   UNL     1      -2.742  12.248  25.113  0.00  0.00    +0.000 A 
ATOM     20  C   UNL     1      -3.040  10.947  24.736  0.00  0.00    +0.002 A 
ATOM     21  C   UNL     1      -3.687  10.711  23.524  0.00  0.00    +0.028 A 
BRANCH  17  22
ATOM     22  C   UNL     1      -4.091  14.343  22.201  0.00  0.00    +0.015 C 
ATOM     23  C   UNL     1      -2.914  15.298  21.945  0.00  0.00    +0.012 C 
ATOM     24  C   UNL     1      -5.254  15.112  22.832  0.00  0.00    +0.012 C 
ENDBRANCH  17  22
ENDBRANCH  14  16
ENDBRANCH  10  12
ENDBRANCH   9  10
ENDBRANCH   5   9
ENDBRANCH   4   7
ENDBRANCH   1   4
BRANCH   1  25
ATOM     25  C   UNL     1      -3.916  12.171  13.194  0.00  0.00    +0.175 C 
BRANCH  25  26
ATOM     26  C   UNL     1      -3.246  13.141  12.209  0.00  0.00    +0.176 C 
ATOM     27  O   UNL     1      -1.932  13.475  12.734  0.00  0.00    -0.332 OA
ATOM     28  C   UNL     1      -1.097  14.314  11.869  0.00  0.00    +0.277 C 
ATOM     29  C   UNL     1      -1.851  15.610  11.483  0.00  0.00    +0.110 C 
ATOM     30  C   UNL     1      -3.267  15.308  10.948  0.00  0.00    +0.143 C 
ATOM     31  C   UNL     1      -4.046  14.426  11.925  0.00  0.00    +0.133 C 
BRANCH  31  32
ATOM     32  N   UNL     1      -5.360  14.073  11.365  0.00  0.00    -0.308 N 
ATOM     33  H   UNL     1      -5.381  13.470  10.555  0.00  0.00    +0.149 HD
ATOM     34  C   UNL     1      -6.526  14.499  11.858  0.00  0.00    +0.210 C 
ATOM     35  C   UNL     1      -6.459  15.438  13.076  0.00  0.00    +0.109 C 
ATOM     36  O   UNL     1      -7.613  14.175  11.377  0.00  0.00    -0.276 OA
ENDBRANCH  31  32
BRANCH  28  37
ATOM     37  C   UNL     1      -0.695  13.551  10.590  0.00  0.00    +0.414 C 
ATOM     38  O   UNL     1      -0.798  12.325  10.541  0.00  0.00    -0.240 OA
ATOM     39  O   UNL     1      -0.268  14.159   9.608  0.00  0.00    -0.240 OA
ENDBRANCH  28  37
BRANCH  30  40
ATOM     40  O   UNL     1      -3.977  16.530  10.748  0.00  0.00    -0.390 OA
ATOM     41  H   UNL     1      -3.432  17.140  10.246  0.00  0.00    +0.210 HD
ENDBRANCH  30  40
BRANCH  28  42
ATOM     42  O   UNL     1       0.093  14.681  12.613  0.00  0.00    -0.343 OA
ATOM     43  C   UNL     1       0.549  16.042  12.405  0.00  0.00    +0.198 C 
ENDBRANCH  28  42
ENDBRANCH  25  26
BRANCH  25  44
ATOM     44  O   UNL     1      -4.417  12.892  14.337  0.00  0.00    -0.387 OA
ATOM     45  H   UNL     1      -3.846  12.734  15.092  0.00  0.00    +0.210 HD
ENDBRANCH  25  44
ENDBRANCH   1  25
TORSDOF 15
