REMARK VINA RESULT:    -4.925      4.621      9.555
REMARK INTER + INTRA:         -13.181
REMARK INTER:                 -10.759
REMARK INTRA:                  -2.422
REMARK UNBOUND:                -3.793
REMARK  Name = lig_assembled_21.pdb
REMARK  20 active torsions:
REMARK  status: ('A' for Active; 'I' for Inactive)
REMARK    1  A    between atoms: _2  and  _9
REMARK    2  A    between atoms: _4  and  _23
REMARK    3  A    between atoms: _6  and  _7
REMARK    4  A    between atoms: _6  and  _23
REMARK    5  A    between atoms: _9  and  _10
REMARK    6  A    between atoms: _11  and  _18
REMARK    7  A    between atoms: _12  and  _13
REMARK    8  A    between atoms: _12  and  _18
REMARK    9  A    between atoms: _19  and  _39
REMARK   10  A    between atoms: _21  and  _27
REMARK   11  A    between atoms: _22  and  _26
REMARK   12  A    between atoms: _26  and  _27
REMARK   13  A    between atoms: _29  and  _30
REMARK   14  A    between atoms: _31  and  _32
REMARK   15  A    between atoms: _33  and  _35
REMARK   16  A    between atoms: _35  and  _36
REMARK   17  A    between atoms: _35  and  _37
REMARK   18  A    between atoms: _37  and  _38
REMARK   19  A    between atoms: _37  and  _39
REMARK   20  A    between atoms: _40  and  _42
REMARK                            x       y       z     vdW  Elec       q    Type
REMARK                         _______ _______ _______ _____ _____    ______ ____
ROOT
ATOM      1  C   UNL     1      -3.194  11.801  25.117  0.00  0.00    +0.163 C 
ENDROOT
BRANCH   1   2
ATOM      2  O   UNL     1      -2.011  10.988  25.052  0.00  0.00    -0.388 OA
ATOM      3  H   UNL     1      -1.364  11.311  25.684  0.00  0.00    +0.210 HD
ENDBRANCH   1   2
BRANCH   1   4
ATOM      4  C   UNL     1      -3.578  12.096  26.578  0.00  0.00    +0.175 C 
BRANCH   4   5
ATOM      5  C   UNL     1      -3.366  10.878  27.489  0.00  0.00    +0.176 C 
ATOM      6  O   UNL     1      -4.002   9.732  26.859  0.00  0.00    -0.332 OA
ATOM      7  C   UNL     1      -3.811   8.447  27.539  0.00  0.00    +0.277 C 
ATOM      8  C   UNL     1      -4.257   8.547  29.019  0.00  0.00    +0.110 C 
ATOM      9  C   UNL     1      -3.630   9.769  29.722  0.00  0.00    +0.143 C 
ATOM     10  C   UNL     1      -3.887  11.050  28.927  0.00  0.00    +0.133 C 
BRANCH  10  11
ATOM     11  N   UNL     1      -3.212  12.194  29.561  0.00  0.00    -0.308 N 
ATOM     12  H   UNL     1      -2.201  12.194  29.578  0.00  0.00    +0.149 HD
ATOM     13  C   UNL     1      -3.846  13.230  30.116  0.00  0.00    +0.210 C 
ATOM     14  C   UNL     1      -5.386  13.186  30.098  0.00  0.00    +0.109 C 
ATOM     15  O   UNL     1      -3.254  14.181  30.627  0.00  0.00    -0.276 OA
ENDBRANCH  10  11
BRANCH   7  16
ATOM     16  C   UNL     1      -2.333   8.009  27.475  0.00  0.00    +0.414 C 
ATOM     17  O   UNL     1      -1.861   7.291  28.355  0.00  0.00    -0.240 OA
ATOM     18  O   UNL     1      -1.614   8.373  26.543  0.00  0.00    -0.240 OA
ENDBRANCH   7  16
BRANCH   9  19
ATOM     19  O   UNL     1      -4.184   9.908  31.031  0.00  0.00    -0.390 OA
ATOM     20  H   UNL     1      -3.491  10.157  31.647  0.00  0.00    +0.210 HD
ENDBRANCH   9  19
BRANCH   7  21
ATOM     21  O   UNL     1      -4.643   7.460  26.876  0.00  0.00    -0.343 OA
ATOM     22  C   UNL     1      -5.788   7.010  27.643  0.00  0.00    +0.198 C 
ENDBRANCH   7  21
ENDBRANCH   4   5
BRANCH   4  23
ATOM     23  O   UNL     1      -4.948  12.538  26.651  0.00  0.00    -0.387 OA
ATOM     24  H   UNL     1      -5.311  12.605  25.765  0.00  0.00    +0.210 HD
ENDBRANCH   4  23
ENDBRANCH   1   4
BRANCH   1  25
ATOM     25  C   UNL     1      -2.968  13.113  24.375  0.00  0.00    +0.141 C 
BRANCH  25  28
ATOM     26  C   UNL     1      -4.947  13.643  22.994  0.00  0.00    +0.401 C 
ATOM     27  O   UNL     1      -5.604  14.089  23.938  0.00  0.00    -0.226 OA
ATOM     28  N   UNL     1      -3.709  13.161  23.109  0.00  0.00    -0.279 N 
ATOM     29  H   UNL     1      -3.256  12.808  22.277  0.00  0.00    +0.152 HD
BRANCH  26  30
ATOM     30  O   UNL     1      -5.530  13.629  21.688  0.00  0.00    -0.444 OA
BRANCH  30  31
ATOM     31  C   UNL     1      -5.952  12.300  21.368  0.00  0.00    +0.292 C 
BRANCH  31  33
ATOM     32  N   UNL     1      -7.092  12.172  19.179  0.00  0.00    -0.131 NA
ATOM     33  C   UNL     1      -5.937  12.098  19.908  0.00  0.00    +0.120 A 
ATOM     34  C   UNL     1      -4.883  11.856  19.055  0.00  0.00    +0.137 A 
ATOM     35  N   UNL     1      -5.449  11.886  17.810  0.00  0.00    -0.247 N 
ATOM     36  N   UNL     1      -6.783  12.039  17.898  0.00  0.00    -0.065 NA
BRANCH  35  37
ATOM     37  C   UNL     1      -4.730  11.852  16.540  0.00  0.00    +0.184 C 
BRANCH  37  38
ATOM     38  C   UNL     1      -4.129  10.519  16.163  0.00  0.00    +0.016 A 
ATOM     39  C   UNL     1      -3.135  10.405  15.175  0.00  0.00    +0.137 A 
ATOM     40  C   UNL     1      -2.589   9.164  14.843  0.00  0.00    +0.047 A 
ATOM     41  C   UNL     1      -3.021   8.018  15.511  0.00  0.00    +0.004 A 
ATOM     42  C   UNL     1      -4.015   8.109  16.483  0.00  0.00    +0.001 A 
ATOM     43  C   UNL     1      -4.564   9.349  16.810  0.00  0.00    +0.009 A 
BRANCH  39  44
ATOM     44  O   UNL     1      -2.784  11.589  14.483  0.00  0.00    -0.426 OA
BRANCH  44  45
ATOM     45  C   UNL     1      -2.806  11.679  13.090  0.00  0.00    +0.309 C 
ATOM     46  O   UNL     1      -1.862  11.540  12.324  0.00  0.00    -0.251 OA
ATOM     47  C   UNL     1      -4.219  11.906  12.640  0.00  0.00    +0.136 C 
ENDBRANCH  44  45
ENDBRANCH  39  44
ENDBRANCH  37  38
ENDBRANCH  35  37
ENDBRANCH  31  33
ENDBRANCH  30  31
ENDBRANCH  26  30
ENDBRANCH  25  28
ENDBRANCH   1  25
TORSDOF 17
