REMARK VINA RESULT:    -4.211      3.156      6.288
REMARK INTER + INTRA:         -11.760
REMARK INTER:                  -7.861
REMARK INTRA:                  -3.899
REMARK UNBOUND:                -3.979
REMARK  Name = lig_assembled_24.pdb
REMARK  19 active torsions:
REMARK  status: ('A' for Active; 'I' for Inactive)
REMARK    1  A    between atoms: _2  and  _9
REMARK    2  A    between atoms: _4  and  _21
REMARK    3  A    between atoms: _6  and  _7
REMARK    4  A    between atoms: _6  and  _21
REMARK    5  A    between atoms: _9  and  _10
REMARK    6  A    between atoms: _13  and  _16
REMARK    7  A    between atoms: _14  and  _16
REMARK    8  A    between atoms: _17  and  _37
REMARK    9  A    between atoms: _19  and  _25
REMARK   10  A    between atoms: _20  and  _24
REMARK   11  A    between atoms: _24  and  _25
REMARK   12  A    between atoms: _27  and  _28
REMARK   13  A    between atoms: _29  and  _30
REMARK   14  A    between atoms: _31  and  _33
REMARK   15  A    between atoms: _33  and  _34
REMARK   16  A    between atoms: _33  and  _35
REMARK   17  A    between atoms: _35  and  _36
REMARK   18  A    between atoms: _35  and  _37
REMARK   19  A    between atoms: _38  and  _40
REMARK                            x       y       z     vdW  Elec       q    Type
REMARK                         _______ _______ _______ _____ _____    ______ ____
ROOT
ATOM      1  C   UNL     1      -2.071   9.352  27.639  0.00  0.00    +0.163 C 
ENDROOT
BRANCH   1   2
ATOM      2  O   UNL     1      -2.202   9.051  26.240  0.00  0.00    -0.388 OA
ATOM      3  H   UNL     1      -2.848   8.350  26.122  0.00  0.00    +0.210 HD
ENDBRANCH   1   2
BRANCH   1   4
ATOM      4  C   UNL     1      -3.288  10.143  28.148  0.00  0.00    +0.175 C 
BRANCH   4   5
ATOM      5  C   UNL     1      -4.113  10.739  26.997  0.00  0.00    +0.176 C 
ATOM      6  O   UNL     1      -3.226  11.564  26.193  0.00  0.00    -0.332 OA
ATOM      7  C   UNL     1      -3.818  12.135  24.979  0.00  0.00    +0.277 C 
ATOM      8  C   UNL     1      -5.101  12.929  25.326  0.00  0.00    +0.110 C 
ATOM      9  C   UNL     1      -6.062  12.104  26.207  0.00  0.00    +0.143 C 
ATOM     10  C   UNL     1      -5.341  11.556  27.440  0.00  0.00    +0.133 C 
BRANCH  10  11
ATOM     11  N   UNL     1      -6.243  10.700  28.226  0.00  0.00    -0.308 N 
ATOM     12  H   UNL     1      -6.634   9.885  27.773  0.00  0.00    +0.149 HD
ATOM     13  C   UNL     1      -6.579  10.929  29.498  0.00  0.00    +0.210 C 
ATOM     14  C   UNL     1      -5.988  12.192  30.151  0.00  0.00    +0.109 C 
ATOM     15  O   UNL     1      -7.326  10.186  30.137  0.00  0.00    -0.276 OA
ENDBRANCH  10  11
BRANCH   7  16
ATOM     16  C   UNL     1      -4.158  11.025  23.962  0.00  0.00    +0.414 C 
ATOM     17  O   UNL     1      -5.256  11.007  23.408  0.00  0.00    -0.240 OA
ATOM     18  O   UNL     1      -3.334  10.149  23.696  0.00  0.00    -0.240 OA
ENDBRANCH   7  16
BRANCH   7  19
ATOM     19  O   UNL     1      -2.855  13.052  24.398  0.00  0.00    -0.343 OA
ATOM     20  C   UNL     1      -3.354  13.841  23.288  0.00  0.00    +0.198 C 
ENDBRANCH   7  19
BRANCH   9  21
ATOM     21  O   UNL     1      -7.154  12.922  26.627  0.00  0.00    -0.390 OA
ATOM     22  H   UNL     1      -7.172  13.727  26.103  0.00  0.00    +0.210 HD
ENDBRANCH   9  21
ENDBRANCH   4   5
BRANCH   4  23
ATOM     23  O   UNL     1      -2.862  11.187  29.046  0.00  0.00    -0.387 OA
ATOM     24  H   UNL     1      -1.945  11.407  28.869  0.00  0.00    +0.210 HD
ENDBRANCH   4  23
ENDBRANCH   1   4
BRANCH   1  25
ATOM     25  C   UNL     1      -1.932   8.061  28.440  0.00  0.00    +0.141 C 
BRANCH  25  28
ATOM     26  C   UNL     1      -2.992   7.381  30.565  0.00  0.00    +0.401 C 
ATOM     27  O   UNL     1      -3.446   6.329  30.111  0.00  0.00    -0.226 OA
ATOM     28  N   UNL     1      -2.278   8.254  29.853  0.00  0.00    -0.279 N 
ATOM     29  H   UNL     1      -1.957   9.095  30.312  0.00  0.00    +0.152 HD
BRANCH  26  30
ATOM     30  O   UNL     1      -3.237   7.709  31.936  0.00  0.00    -0.444 OA
BRANCH  30  31
ATOM     31  C   UNL     1      -4.262   8.704  32.013  0.00  0.00    +0.292 C 
BRANCH  31  33
ATOM     32  N   UNL     1      -2.497  10.425  31.791  0.00  0.00    -0.131 NA
ATOM     33  C   UNL     1      -3.679  10.017  32.347  0.00  0.00    +0.120 A 
ATOM     34  C   UNL     1      -4.153  11.009  33.176  0.00  0.00    +0.137 A 
ATOM     35  N   UNL     1      -3.254  12.024  33.029  0.00  0.00    -0.247 N 
ATOM     36  N   UNL     1      -2.240  11.651  32.222  0.00  0.00    -0.065 NA
BRANCH  35  37
ATOM     37  C   UNL     1      -3.267  13.385  33.542  0.00  0.00    +0.180 C 
BRANCH  37  38
ATOM     38  C   UNL     1      -4.035  14.372  32.697  0.00  0.00    -0.026 A 
ATOM     39  C   UNL     1      -5.370  14.675  32.993  0.00  0.00    +0.009 A 
ATOM     40  C   UNL     1      -6.074  15.592  32.207  0.00  0.00    +0.046 A 
ATOM     41  C   UNL     1      -5.454  16.229  31.130  0.00  0.00    +0.120 A 
ATOM     42  C   UNL     1      -4.135  15.914  30.815  0.00  0.00    +0.046 A 
ATOM     43  C   UNL     1      -3.427  14.991  31.594  0.00  0.00    +0.009 A 
BRANCH  41  44
ATOM     44  O   UNL     1      -6.248  17.089  30.423  0.00  0.00    -0.495 OA
ATOM     45  C   UNL     1      -6.437  16.759  29.050  0.00  0.00    +0.277 C 
ENDBRANCH  41  44
ENDBRANCH  37  38
ENDBRANCH  35  37
ENDBRANCH  31  33
ENDBRANCH  30  31
ENDBRANCH  26  30
ENDBRANCH  25  28
ENDBRANCH   1  25
TORSDOF 16
