REMARK VINA RESULT:    -4.258      2.439      6.479
REMARK INTER + INTRA:         -11.164
REMARK INTER:                  -7.706
REMARK INTRA:                  -3.458
REMARK UNBOUND:                -3.048
REMARK  Name = lig_assembled_50.pdb
REMARK  20 active torsions:
REMARK  status: ('A' for Active; 'I' for Inactive)
REMARK    1  A    between atoms: _2  and  _9
REMARK    2  A    between atoms: _4  and  _17
REMARK    3  A    between atoms: _5  and  _10
REMARK    4  A    between atoms: _5  and  _11
REMARK    5  A    between atoms: _6  and  _7
REMARK    6  A    between atoms: _6  and  _17
REMARK    7  A    between atoms: _9  and  _10
REMARK    8  A    between atoms: _10  and  _12
REMARK    9  A    between atoms: _13  and  _33
REMARK   10  A    between atoms: _15  and  _21
REMARK   11  A    between atoms: _16  and  _20
REMARK   12  A    between atoms: _20  and  _21
REMARK   13  A    between atoms: _23  and  _24
REMARK   14  A    between atoms: _25  and  _26
REMARK   15  A    between atoms: _27  and  _29
REMARK   16  A    between atoms: _29  and  _30
REMARK   17  A    between atoms: _29  and  _31
REMARK   18  A    between atoms: _31  and  _32
REMARK   19  A    between atoms: _31  and  _33
REMARK   20  A    between atoms: _34  and  _36
REMARK                            x       y       z     vdW  Elec       q    Type
REMARK                         _______ _______ _______ _____ _____    ______ ____
ROOT
ATOM      1  C   UNL     1      -2.847  11.171  22.562  0.00  0.00    +0.163 C 
ENDROOT
BRANCH   1   2
ATOM      2  O   UNL     1      -2.882  12.192  21.551  0.00  0.00    -0.388 OA
ATOM      3  H   UNL     1      -3.621  12.031  20.959  0.00  0.00    +0.210 HD
ENDBRANCH   1   2
BRANCH   1   4
ATOM      4  C   UNL     1      -3.122  11.766  23.954  0.00  0.00    +0.175 C 
BRANCH   4   5
ATOM      5  C   UNL     1      -4.413  12.598  23.981  0.00  0.00    +0.176 C 
ATOM      6  O   UNL     1      -4.149  13.855  23.301  0.00  0.00    -0.332 OA
ATOM      7  C   UNL     1      -5.305  14.742  23.136  0.00  0.00    +0.277 C 
ATOM      8  C   UNL     1      -5.974  15.018  24.504  0.00  0.00    +0.110 C 
ATOM      9  C   UNL     1      -6.246  13.711  25.279  0.00  0.00    +0.143 C 
ATOM     10  C   UNL     1      -4.977  12.865  25.389  0.00  0.00    +0.133 C 
BRANCH  10  11
ATOM     11  N   UNL     1      -5.268  11.584  26.053  0.00  0.00    -0.308 N 
ATOM     12  H   UNL     1      -5.969  10.986  25.638  0.00  0.00    +0.149 HD
ATOM     13  C   UNL     1      -4.667  11.161  27.168  0.00  0.00    +0.210 C 
ATOM     14  C   UNL     1      -3.623  12.107  27.790  0.00  0.00    +0.109 C 
ATOM     15  O   UNL     1      -4.920  10.077  27.694  0.00  0.00    -0.276 OA
ENDBRANCH  10  11
BRANCH   7  16
ATOM     16  C   UNL     1      -6.337  14.120  22.172  0.00  0.00    +0.414 C 
ATOM     17  O   UNL     1      -5.976  13.328  21.303  0.00  0.00    -0.240 OA
ATOM     18  O   UNL     1      -7.531  14.411  22.265  0.00  0.00    -0.240 OA
ENDBRANCH   7  16
BRANCH   9  19
ATOM     19  O   UNL     1      -6.721  14.019  26.591  0.00  0.00    -0.390 OA
ATOM     20  H   UNL     1      -7.661  14.213  26.554  0.00  0.00    +0.210 HD
ENDBRANCH   9  19
BRANCH   7  21
ATOM     21  O   UNL     1      -4.830  16.002  22.596  0.00  0.00    -0.343 OA
ATOM     22  C   UNL     1      -5.540  17.176  23.067  0.00  0.00    +0.198 C 
ENDBRANCH   7  21
ENDBRANCH   4   5
BRANCH   4  23
ATOM     23  O   UNL     1      -2.004  12.569  24.381  0.00  0.00    -0.387 OA
ATOM     24  H   UNL     1      -1.223  12.016  24.457  0.00  0.00    +0.210 HD
ENDBRANCH   4  23
ENDBRANCH   1   4
BRANCH   1  25
ATOM     25  C   UNL     1      -3.882  10.095  22.253  0.00  0.00    +0.141 C 
BRANCH  25  28
ATOM     26  C   UNL     1      -5.182   8.716  23.839  0.00  0.00    +0.401 C 
ATOM     27  O   UNL     1      -6.277   9.109  23.430  0.00  0.00    -0.226 OA
ATOM     28  N   UNL     1      -4.011   9.129  23.351  0.00  0.00    -0.279 N 
ATOM     29  H   UNL     1      -3.166   8.755  23.759  0.00  0.00    +0.152 HD
BRANCH  26  30
ATOM     30  O   UNL     1      -5.140   7.763  24.904  0.00  0.00    -0.444 OA
BRANCH  30  31
ATOM     31  C   UNL     1      -3.852   7.143  24.941  0.00  0.00    +0.292 C 
BRANCH  31  33
ATOM     32  N   UNL     1      -2.197   8.458  26.237  0.00  0.00    -0.131 NA
ATOM     33  C   UNL     1      -3.155   7.475  26.200  0.00  0.00    +0.120 A 
ATOM     34  C   UNL     1      -3.304   6.944  27.464  0.00  0.00    +0.137 A 
ATOM     35  N   UNL     1      -2.409   7.636  28.216  0.00  0.00    -0.249 N 
ATOM     36  N   UNL     1      -1.757   8.557  27.481  0.00  0.00    -0.065 NA
BRANCH  35  37
ATOM     37  C   UNL     1      -2.108   7.482  29.621  0.00  0.00    +0.178 C 
BRANCH  37  38
ATOM     38  C   UNL     1      -2.815   8.497  30.527  0.00  0.00    +0.161 C 
BRANCH  38  39
ATOM     39  O   UNL     1      -2.794   9.823  29.991  0.00  0.00    -0.388 OA
ATOM     40  H   UNL     1      -3.097  10.444  30.685  0.00  0.00    +0.210 HD
ENDBRANCH  38  39
BRANCH  38  41
ATOM     41  C   UNL     1      -4.256   8.104  30.881  0.00  0.00    +0.189 C 
BRANCH  41  42
ATOM     42  O   UNL     1      -5.190   9.073  30.406  0.00  0.00    -0.392 OA
ATOM     43  H   UNL     1      -5.597   9.508  31.179  0.00  0.00    +0.210 HD
ENDBRANCH  41  42
ENDBRANCH  38  41
ENDBRANCH  37  38
ENDBRANCH  35  37
ENDBRANCH  31  33
ENDBRANCH  30  31
ENDBRANCH  26  30
ENDBRANCH  25  28
ENDBRANCH   1  25
TORSDOF 18
