REMARK VINA RESULT:    -5.242      2.336      4.450
REMARK INTER + INTRA:         -11.547
REMARK INTER:                  -9.072
REMARK INTRA:                  -2.475
REMARK UNBOUND:                -2.475
REMARK  Name = lig_assembled_25.pdb
REMARK  16 active torsions:
REMARK  status: ('A' for Active; 'I' for Inactive)
REMARK    1  A    between atoms: _2  and  _9
REMARK    2  A    between atoms: _4  and  _25
REMARK    3  A    between atoms: _6  and  _7
REMARK    4  A    between atoms: _6  and  _25
REMARK    5  A    between atoms: _21  and  _41
REMARK    6  A    between atoms: _23  and  _29
REMARK    7  A    between atoms: _24  and  _28
REMARK    8  A    between atoms: _28  and  _29
REMARK    9  A    between atoms: _31  and  _32
REMARK   10  A    between atoms: _33  and  _34
REMARK   11  A    between atoms: _35  and  _37
REMARK   12  A    between atoms: _37  and  _38
REMARK   13  A    between atoms: _37  and  _39
REMARK   14  A    between atoms: _39  and  _40
REMARK   15  A    between atoms: _39  and  _41
REMARK   16  A    between atoms: _42  and  _44
REMARK                            x       y       z     vdW  Elec       q    Type
REMARK                         _______ _______ _______ _____ _____    ______ ____
ROOT
ATOM      1  C   UNL     1      -7.397   8.577  22.519  0.00  0.00    +0.141 C 
ENDROOT
BRANCH   1   4
ATOM      2  C   UNL     1      -8.257  10.033  20.718  0.00  0.00    +0.401 C 
ATOM      3  O   UNL     1      -8.913  10.747  21.479  0.00  0.00    -0.226 OA
ATOM      4  N   UNL     1      -7.524   8.993  21.117  0.00  0.00    -0.279 N 
ATOM      5  H   UNL     1      -7.028   8.461  20.416  0.00  0.00    +0.152 HD
BRANCH   2   6
ATOM      6  O   UNL     1      -8.271  10.316  19.316  0.00  0.00    -0.444 OA
BRANCH   6   7
ATOM      7  C   UNL     1      -7.419  11.432  19.045  0.00  0.00    +0.292 C 
BRANCH   7   9
ATOM      8  N   UNL     1      -5.632  12.072  17.465  0.00  0.00    -0.131 NA
ATOM      9  C   UNL     1      -6.545  11.146  17.891  0.00  0.00    +0.120 A 
ATOM     10  C   UNL     1      -6.479  10.038  17.076  0.00  0.00    +0.138 A 
ATOM     11  N   UNL     1      -5.517  10.355  16.159  0.00  0.00    -0.240 N 
ATOM     12  N   UNL     1      -5.003  11.579  16.408  0.00  0.00    -0.064 NA
BRANCH  11  13
ATOM     13  C   UNL     1      -5.073   9.626  14.982  0.00  0.00    +0.170 C 
ATOM     14  C   UNL     1      -3.846   8.767  15.258  0.00  0.00    -0.011 A 
ATOM     15  C   UNL     1      -2.809   9.103  14.359  0.00  0.00    -0.012 A 
ATOM     16  C   UNL     1      -3.267  10.170  13.491  0.00  0.00    -0.012 A 
ATOM     17  C   UNL     1      -2.630  10.803  12.437  0.00  0.00    +0.009 A 
ATOM     18  C   UNL     1      -3.326  11.793  11.737  0.00  0.00    +0.001 A 
ATOM     19  C   UNL     1      -4.639  12.141  12.097  0.00  0.00    +0.000 A 
ATOM     20  C   UNL     1      -5.284  11.504  13.160  0.00  0.00    +0.006 A 
ATOM     21  C   UNL     1      -1.598   8.435  14.404  0.00  0.00    +0.009 A 
ATOM     22  C   UNL     1      -1.429   7.425  15.356  0.00  0.00    +0.001 A 
ATOM     23  C   UNL     1      -2.463   7.092  16.245  0.00  0.00    +0.000 A 
ATOM     24  C   UNL     1      -3.687   7.761  16.202  0.00  0.00    +0.006 A 
ATOM     25  C   UNL     1      -4.589  10.523  13.850  0.00  0.00    -0.011 A 
ENDBRANCH  11  13
ENDBRANCH   7   9
ENDBRANCH   6   7
ENDBRANCH   2   6
ENDBRANCH   1   4
BRANCH   1  26
ATOM     26  C   UNL     1      -6.385   9.431  23.277  0.00  0.00    +0.163 C 
BRANCH  26  27
ATOM     27  O   UNL     1      -6.905   9.776  24.571  0.00  0.00    -0.388 OA
ATOM     28  H   UNL     1      -6.746   9.054  25.183  0.00  0.00    +0.210 HD
ENDBRANCH  26  27
BRANCH  26  29
ATOM     29  C   UNL     1      -5.058   8.664  23.403  0.00  0.00    +0.175 C 
BRANCH  29  30
ATOM     30  C   UNL     1      -3.990   9.476  24.151  0.00  0.00    +0.176 C 
ATOM     31  O   UNL     1      -4.345   9.491  25.561  0.00  0.00    -0.332 OA
ATOM     32  C   UNL     1      -3.377  10.137  26.452  0.00  0.00    +0.277 C 
ATOM     33  C   UNL     1      -3.077  11.579  25.972  0.00  0.00    +0.110 C 
ATOM     34  C   UNL     1      -2.725  11.617  24.470  0.00  0.00    +0.143 C 
ATOM     35  C   UNL     1      -3.798  10.915  23.637  0.00  0.00    +0.133 C 
BRANCH  35  36
ATOM     36  N   UNL     1      -3.409  10.882  22.218  0.00  0.00    -0.308 N 
ATOM     37  H   UNL     1      -2.625  10.301  21.957  0.00  0.00    +0.149 HD
ATOM     38  C   UNL     1      -4.025  11.570  21.252  0.00  0.00    +0.210 C 
ATOM     39  C   UNL     1      -5.200  12.466  21.686  0.00  0.00    +0.109 C 
ATOM     40  O   UNL     1      -3.686  11.511  20.070  0.00  0.00    -0.276 OA
ENDBRANCH  35  36
BRANCH  32  41
ATOM     41  C   UNL     1      -2.063   9.330  26.509  0.00  0.00    +0.414 C 
ATOM     42  O   UNL     1      -2.089   8.100  26.468  0.00  0.00    -0.240 OA
ATOM     43  O   UNL     1      -0.979   9.907  26.596  0.00  0.00    -0.240 OA
ENDBRANCH  32  41
BRANCH  34  44
ATOM     44  O   UNL     1      -2.606  12.973  24.038  0.00  0.00    -0.390 OA
ATOM     45  H   UNL     1      -3.157  13.112  23.263  0.00  0.00    +0.210 HD
ENDBRANCH  34  44
BRANCH  32  46
ATOM     46  O   UNL     1      -3.964  10.209  27.777  0.00  0.00    -0.343 OA
ATOM     47  C   UNL     1      -3.741  11.458  28.478  0.00  0.00    +0.198 C 
ENDBRANCH  32  46
ENDBRANCH  29  30
BRANCH  29  48
ATOM     48  O   UNL     1      -4.574   8.290  22.098  0.00  0.00    -0.387 OA
ATOM     49  H   UNL     1      -3.633   8.103  22.147  0.00  0.00    +0.210 HD
ENDBRANCH  29  48
ENDBRANCH  26  29
ENDBRANCH   1  26
TORSDOF 14
