REMARK VINA RESULT:    -4.092      2.655      3.352
REMARK INTER + INTRA:         -10.481
REMARK INTER:                  -6.493
REMARK INTRA:                  -3.989
REMARK UNBOUND:                -3.040
REMARK  Name = lig_assembled_1.pdb
REMARK  18 active torsions:
REMARK  status: ('A' for Active; 'I' for Inactive)
REMARK    1  A    between atoms: _2  and  _9
REMARK    2  A    between atoms: _4  and  _15
REMARK    3  A    between atoms: _5  and  _9
REMARK    4  A    between atoms: _5  and  _10
REMARK    5  A    between atoms: _6  and  _7
REMARK    6  A    between atoms: _6  and  _15
REMARK    7  A    between atoms: _11  and  _31
REMARK    8  A    between atoms: _13  and  _19
REMARK    9  A    between atoms: _14  and  _18
REMARK   10  A    between atoms: _18  and  _19
REMARK   11  A    between atoms: _21  and  _22
REMARK   12  A    between atoms: _23  and  _24
REMARK   13  A    between atoms: _25  and  _27
REMARK   14  A    between atoms: _27  and  _28
REMARK   15  A    between atoms: _27  and  _29
REMARK   16  A    between atoms: _29  and  _30
REMARK   17  A    between atoms: _29  and  _31
REMARK   18  A    between atoms: _32  and  _34
REMARK                            x       y       z     vdW  Elec       q    Type
REMARK                         _______ _______ _______ _____ _____    ______ ____
ROOT
ATOM      1  C   UNL     1      -4.387  11.628  24.566  0.00  0.00    +0.175 C 
ENDROOT
BRANCH   1   2
ATOM      2  C   UNL     1      -4.137  10.712  25.772  0.00  0.00    +0.176 C 
ATOM      3  O   UNL     1      -3.370   9.566  25.312  0.00  0.00    -0.332 OA
ATOM      4  C   UNL     1      -2.944   8.627  26.355  0.00  0.00    +0.277 C 
ATOM      5  C   UNL     1      -4.163   8.144  27.178  0.00  0.00    +0.110 C 
ATOM      6  C   UNL     1      -5.027   9.327  27.663  0.00  0.00    +0.143 C 
ATOM      7  C   UNL     1      -5.411  10.241  26.498  0.00  0.00    +0.133 C 
BRANCH   7   8
ATOM      8  N   UNL     1      -6.160  11.410  26.985  0.00  0.00    -0.308 N 
ATOM      9  H   UNL     1      -5.675  12.066  27.580  0.00  0.00    +0.149 HD
ATOM     10  C   UNL     1      -7.439  11.659  26.692  0.00  0.00    +0.210 C 
ATOM     11  C   UNL     1      -8.157  10.626  25.804  0.00  0.00    +0.109 C 
ATOM     12  O   UNL     1      -8.037  12.655  27.102  0.00  0.00    -0.276 OA
ENDBRANCH   7   8
BRANCH   4  13
ATOM     13  C   UNL     1      -1.914   9.286  27.296  0.00  0.00    +0.414 C 
ATOM     14  O   UNL     1      -1.065  10.055  26.845  0.00  0.00    -0.240 OA
ATOM     15  O   UNL     1      -1.931   9.049  28.504  0.00  0.00    -0.240 OA
ENDBRANCH   4  13
BRANCH   4  16
ATOM     16  O   UNL     1      -2.346   7.476  25.705  0.00  0.00    -0.343 OA
ATOM     17  C   UNL     1      -2.694   6.195  26.288  0.00  0.00    +0.198 C 
ENDBRANCH   4  16
BRANCH   6  18
ATOM     18  O   UNL     1      -6.214   8.834  28.285  0.00  0.00    -0.390 OA
ATOM     19  H   UNL     1      -6.768   8.408  27.626  0.00  0.00    +0.210 HD
ENDBRANCH   6  18
ENDBRANCH   1   2
BRANCH   1  20
ATOM     20  O   UNL     1      -5.374  11.043  23.693  0.00  0.00    -0.387 OA
ATOM     21  H   UNL     1      -5.278  11.409  22.810  0.00  0.00    +0.210 HD
ENDBRANCH   1  20
BRANCH   1  22
ATOM     22  C   UNL     1      -3.095  11.922  23.784  0.00  0.00    +0.163 C 
BRANCH  22  23
ATOM     23  O   UNL     1      -2.030  12.297  24.673  0.00  0.00    -0.388 OA
ATOM     24  H   UNL     1      -1.899  11.605  25.326  0.00  0.00    +0.210 HD
ENDBRANCH  22  23
BRANCH  22  25
ATOM     25  C   UNL     1      -3.351  13.038  22.776  0.00  0.00    +0.141 C 
BRANCH  25  28
ATOM     26  C   UNL     1      -5.011  12.746  20.970  0.00  0.00    +0.401 C 
ATOM     27  O   UNL     1      -5.881  13.414  21.533  0.00  0.00    -0.226 OA
ATOM     28  N   UNL     1      -3.802  12.513  21.481  0.00  0.00    -0.279 N 
ATOM     29  H   UNL     1      -3.160  11.944  20.948  0.00  0.00    +0.152 HD
BRANCH  26  30
ATOM     30  O   UNL     1      -5.296  12.171  19.691  0.00  0.00    -0.444 OA
BRANCH  30  31
ATOM     31  C   UNL     1      -6.555  11.495  19.741  0.00  0.00    +0.292 C 
BRANCH  31  33
ATOM     32  N   UNL     1      -7.166  10.106  21.699  0.00  0.00    -0.131 NA
ATOM     33  C   UNL     1      -6.445  10.263  20.545  0.00  0.00    +0.120 A 
ATOM     34  C   UNL     1      -5.683   9.135  20.334  0.00  0.00    +0.137 A 
ATOM     35  N   UNL     1      -5.980   8.336  21.396  0.00  0.00    -0.249 N 
ATOM     36  N   UNL     1      -6.867   8.922  22.217  0.00  0.00    -0.065 NA
BRANCH  35  37
ATOM     37  C   UNL     1      -5.470   7.014  21.686  0.00  0.00    +0.173 C 
BRANCH  37  38
ATOM     38  C   UNL     1      -4.470   7.009  22.835  0.00  0.00    +0.179 C 
BRANCH  38  39
ATOM     39  O   UNL     1      -3.851   8.286  22.985  0.00  0.00    -0.393 OA
ATOM     40  H   UNL     1      -3.302   8.430  22.191  0.00  0.00    +0.209 HD
ENDBRANCH  38  39
ENDBRANCH  37  38
ENDBRANCH  35  37
ENDBRANCH  31  33
ENDBRANCH  30  31
ENDBRANCH  26  30
ENDBRANCH  25  28
ENDBRANCH  22  25
ENDBRANCH   1  22
TORSDOF 16
