REMARK VINA RESULT:    -4.833      3.208     10.430
REMARK INTER + INTRA:         -11.891
REMARK INTER:                  -8.724
REMARK INTRA:                  -3.167
REMARK UNBOUND:                -2.678
REMARK  Name = lig_assembled_26.pdb
REMARK  20 active torsions:
REMARK  status: ('A' for Active; 'I' for Inactive)
REMARK    1  A    between atoms: _2  and  _9
REMARK    2  A    between atoms: _4  and  _23
REMARK    3  A    between atoms: _6  and  _7
REMARK    4  A    between atoms: _6  and  _23
REMARK    5  A    between atoms: _9  and  _10
REMARK    6  A    between atoms: _9  and  _11
REMARK    7  A    between atoms: _11  and  _12
REMARK    8  A    between atoms: _12  and  _13
REMARK    9  A    between atoms: _19  and  _39
REMARK   10  A    between atoms: _21  and  _27
REMARK   11  A    between atoms: _22  and  _26
REMARK   12  A    between atoms: _26  and  _27
REMARK   13  A    between atoms: _29  and  _30
REMARK   14  A    between atoms: _31  and  _32
REMARK   15  A    between atoms: _33  and  _35
REMARK   16  A    between atoms: _35  and  _36
REMARK   17  A    between atoms: _35  and  _37
REMARK   18  A    between atoms: _37  and  _38
REMARK   19  A    between atoms: _37  and  _39
REMARK   20  A    between atoms: _40  and  _42
REMARK                            x       y       z     vdW  Elec       q    Type
REMARK                         _______ _______ _______ _____ _____    ______ ____
ROOT
ATOM      1  C   UNL     1      -2.921  10.075  14.037  0.00  0.00    +0.163 C 
ENDROOT
BRANCH   1   2
ATOM      2  O   UNL     1      -2.022  10.254  12.930  0.00  0.00    -0.388 OA
ATOM      3  H   UNL     1      -1.862   9.406  12.507  0.00  0.00    +0.210 HD
ENDBRANCH   1   2
BRANCH   1   4
ATOM      4  C   UNL     1      -3.877  11.273  14.168  0.00  0.00    +0.175 C 
BRANCH   4   5
ATOM      5  C   UNL     1      -3.669  12.304  13.049  0.00  0.00    +0.176 C 
ATOM      6  O   UNL     1      -2.426  13.009  13.315  0.00  0.00    -0.332 OA
ATOM      7  C   UNL     1      -2.008  13.967  12.286  0.00  0.00    +0.277 C 
ATOM      8  C   UNL     1      -3.138  14.986  12.004  0.00  0.00    +0.110 C 
ATOM      9  C   UNL     1      -4.488  14.283  11.746  0.00  0.00    +0.143 C 
ATOM     10  C   UNL     1      -4.823  13.309  12.876  0.00  0.00    +0.133 C 
BRANCH  10  11
ATOM     11  N   UNL     1      -6.067  12.582  12.576  0.00  0.00    -0.308 N 
ATOM     12  H   UNL     1      -6.075  11.972  11.771  0.00  0.00    +0.149 HD
ATOM     13  C   UNL     1      -7.186  12.675  13.300  0.00  0.00    +0.210 C 
ATOM     14  C   UNL     1      -7.150  13.632  14.506  0.00  0.00    +0.109 C 
ATOM     15  O   UNL     1      -8.209  12.043  13.034  0.00  0.00    -0.276 OA
ENDBRANCH  10  11
BRANCH   7  16
ATOM     16  C   UNL     1      -1.634  13.237  10.980  0.00  0.00    +0.414 C 
ATOM     17  O   UNL     1      -2.016  13.673   9.894  0.00  0.00    -0.240 OA
ATOM     18  O   UNL     1      -0.950  12.213  11.010  0.00  0.00    -0.240 OA
ENDBRANCH   7  16
BRANCH   7  19
ATOM     19  O   UNL     1      -0.855  14.690  12.789  0.00  0.00    -0.343 OA
ATOM     20  C   UNL     1      -0.921  16.130  12.635  0.00  0.00    +0.198 C 
ENDBRANCH   7  19
BRANCH   9  21
ATOM     21  O   UNL     1      -5.526  15.258  11.642  0.00  0.00    -0.390 OA
ATOM     22  H   UNL     1      -5.674  15.662  12.500  0.00  0.00    +0.210 HD
ENDBRANCH   9  21
ENDBRANCH   4   5
BRANCH   4  23
ATOM     23  O   UNL     1      -3.713  11.900  15.456  0.00  0.00    -0.387 OA
ATOM     24  H   UNL     1      -2.802  12.186  15.560  0.00  0.00    +0.210 HD
ENDBRANCH   4  23
ENDBRANCH   1   4
BRANCH   1  25
ATOM     25  C   UNL     1      -3.731   8.796  13.850  0.00  0.00    +0.141 C 
BRANCH  25  28
ATOM     26  C   UNL     1      -5.405   8.324  15.605  0.00  0.00    +0.401 C 
ATOM     27  O   UNL     1      -4.639   7.635  16.282  0.00  0.00    -0.226 OA
ATOM     28  N   UNL     1      -5.066   8.901  14.451  0.00  0.00    -0.279 N 
ATOM     29  H   UNL     1      -5.768   9.440  13.963  0.00  0.00    +0.152 HD
BRANCH  26  30
ATOM     30  O   UNL     1      -6.744   8.528  16.063  0.00  0.00    -0.444 OA
BRANCH  30  31
ATOM     31  C   UNL     1      -7.046   9.926  16.047  0.00  0.00    +0.292 C 
BRANCH  31  33
ATOM     32  N   UNL     1      -6.109  11.867  17.277  0.00  0.00    -0.131 NA
ATOM     33  C   UNL     1      -6.555  10.573  17.277  0.00  0.00    +0.120 A 
ATOM     34  C   UNL     1      -6.461  10.064  18.552  0.00  0.00    +0.137 A 
ATOM     35  N   UNL     1      -5.924  11.082  19.280  0.00  0.00    -0.248 N 
ATOM     36  N   UNL     1      -5.740  12.177  18.513  0.00  0.00    -0.065 NA
BRANCH  35  37
ATOM     37  C   UNL     1      -5.622  11.144  20.702  0.00  0.00    +0.113 C 
ATOM     38  C   UNL     1      -6.626  10.403  21.596  0.00  0.00    +0.033 C 
BRANCH  37  39
ATOM     39  C   UNL     1      -4.170  10.742  21.019  0.00  0.00    +0.106 C 
BRANCH  39  40
ATOM     40  C   UNL     1      -3.408  11.768  21.836  0.00  0.00    +0.165 C 
ATOM     41  O   UNL     1      -2.903  12.768  21.329  0.00  0.00    -0.292 OA
BRANCH  40  42
ATOM     42  C   UNL     1      -3.231  11.535  23.301  0.00  0.00    +0.017 A 
ATOM     43  C   UNL     1      -2.756  12.527  24.168  0.00  0.00    +0.011 A 
ATOM     44  C   UNL     1      -2.650  12.267  25.536  0.00  0.00    +0.001 A 
ATOM     45  C   UNL     1      -3.008  11.019  26.044  0.00  0.00    +0.000 A 
ATOM     46  C   UNL     1      -3.469  10.024  25.187  0.00  0.00    +0.001 A 
ATOM     47  C   UNL     1      -3.582  10.281  23.820  0.00  0.00    +0.011 A 
ENDBRANCH  40  42
ENDBRANCH  39  40
ENDBRANCH  37  39
ENDBRANCH  35  37
ENDBRANCH  31  33
ENDBRANCH  30  31
ENDBRANCH  26  30
ENDBRANCH  25  28
ENDBRANCH   1  25
TORSDOF 17
