REMARK VINA RESULT:    -5.051      6.231     10.387
REMARK INTER + INTRA:         -12.183
REMARK INTER:                  -9.676
REMARK INTRA:                  -2.506
REMARK UNBOUND:                -2.554
REMARK  Name = lig_assembled_9.pdb
REMARK  20 active torsions:
REMARK  status: ('A' for Active; 'I' for Inactive)
REMARK    1  A    between atoms: _2  and  _9
REMARK    2  A    between atoms: _4  and  _23
REMARK    3  A    between atoms: _6  and  _7
REMARK    4  A    between atoms: _6  and  _23
REMARK    5  A    between atoms: _11  and  _12
REMARK    6  A    between atoms: _12  and  _17
REMARK    7  A    between atoms: _13  and  _14
REMARK    8  A    between atoms: _13  and  _17
REMARK    9  A    between atoms: _19  and  _39
REMARK   10  A    between atoms: _21  and  _27
REMARK   11  A    between atoms: _22  and  _26
REMARK   12  A    between atoms: _26  and  _27
REMARK   13  A    between atoms: _29  and  _30
REMARK   14  A    between atoms: _31  and  _32
REMARK   15  A    between atoms: _33  and  _35
REMARK   16  A    between atoms: _35  and  _36
REMARK   17  A    between atoms: _35  and  _37
REMARK   18  A    between atoms: _37  and  _38
REMARK   19  A    between atoms: _37  and  _39
REMARK   20  A    between atoms: _40  and  _42
REMARK                            x       y       z     vdW  Elec       q    Type
REMARK                         _______ _______ _______ _____ _____    ______ ____
ROOT
ATOM      1  C   UNL     1      -3.060   9.254  13.041  0.00  0.00    +0.163 C 
ENDROOT
BRANCH   1   2
ATOM      2  O   UNL     1      -2.905   9.157  11.616  0.00  0.00    -0.388 OA
ATOM      3  H   UNL     1      -3.765   9.226  11.194  0.00  0.00    +0.210 HD
ENDBRANCH   1   2
BRANCH   1   4
ATOM      4  C   UNL     1      -3.586  10.642  13.444  0.00  0.00    +0.175 C 
BRANCH   4   5
ATOM      5  C   UNL     1      -3.470  11.659  12.299  0.00  0.00    +0.176 C 
ATOM      6  O   UNL     1      -2.093  12.122  12.250  0.00  0.00    -0.332 OA
ATOM      7  C   UNL     1      -1.767  13.026  11.143  0.00  0.00    +0.277 C 
ATOM      8  C   UNL     1      -2.728  14.240  11.135  0.00  0.00    +0.110 C 
ATOM      9  C   UNL     1      -4.204  13.799  11.218  0.00  0.00    +0.143 C 
ATOM     10  C   UNL     1      -4.430  12.859  12.403  0.00  0.00    +0.133 C 
BRANCH  10  11
ATOM     11  N   UNL     1      -5.820  12.377  12.421  0.00  0.00    -0.308 N 
ATOM     12  H   UNL     1      -6.170  11.917  11.592  0.00  0.00    +0.149 HD
ATOM     13  C   UNL     1      -6.648  12.507  13.461  0.00  0.00    +0.210 C 
ATOM     14  C   UNL     1      -6.092  13.235  14.699  0.00  0.00    +0.109 C 
ATOM     15  O   UNL     1      -7.803  12.080  13.453  0.00  0.00    -0.276 OA
ENDBRANCH  10  11
BRANCH   7  16
ATOM     16  C   UNL     1      -1.857  12.289   9.790  0.00  0.00    +0.414 C 
ATOM     17  O   UNL     1      -2.160  12.903   8.768  0.00  0.00    -0.240 OA
ATOM     18  O   UNL     1      -1.626  11.081   9.721  0.00  0.00    -0.240 OA
ENDBRANCH   7  16
BRANCH   7  19
ATOM     19  O   UNL     1      -0.415  13.514  11.344  0.00  0.00    -0.343 OA
ATOM     20  C   UNL     1      -0.276  14.521  12.378  0.00  0.00    +0.198 C 
ENDBRANCH   7  19
BRANCH   9  21
ATOM     21  O   UNL     1      -5.043  14.946  11.361  0.00  0.00    -0.390 OA
ATOM     22  H   UNL     1      -4.689  15.518  12.046  0.00  0.00    +0.210 HD
ENDBRANCH   9  21
ENDBRANCH   4   5
BRANCH   4  23
ATOM     23  O   UNL     1      -2.881  11.122  14.607  0.00  0.00    -0.387 OA
ATOM     24  H   UNL     1      -1.973  11.323  14.371  0.00  0.00    +0.210 HD
ENDBRANCH   4  23
ENDBRANCH   1   4
BRANCH   1  25
ATOM     25  C   UNL     1      -4.025   8.181  13.535  0.00  0.00    +0.141 C 
BRANCH  25  28
ATOM     26  C   UNL     1      -4.631   8.292  15.928  0.00  0.00    +0.401 C 
ATOM     27  O   UNL     1      -3.742   7.517  16.286  0.00  0.00    -0.226 OA
ATOM     28  N   UNL     1      -4.840   8.653  14.661  0.00  0.00    -0.279 N 
ATOM     29  H   UNL     1      -5.601   9.288  14.466  0.00  0.00    +0.152 HD
BRANCH  26  30
ATOM     30  O   UNL     1      -5.506   8.848  16.913  0.00  0.00    -0.444 OA
BRANCH  30  31
ATOM     31  C   UNL     1      -5.049  10.153  17.278  0.00  0.00    +0.292 C 
BRANCH  31  33
ATOM     32  N   UNL     1      -4.982   9.130  19.531  0.00  0.00    -0.131 NA
ATOM     33  C   UNL     1      -4.814  10.223  18.732  0.00  0.00    +0.121 A 
ATOM     34  C   UNL     1      -4.409  11.287  19.504  0.00  0.00    +0.143 A 
ATOM     35  N   UNL     1      -4.305  10.779  20.780  0.00  0.00    -0.220 N 
ATOM     36  N   UNL     1      -4.680   9.478  20.775  0.00  0.00    -0.060 NA
BRANCH  35  37
ATOM     37  C   UNL     1      -3.856  11.429  21.959  0.00  0.00    +0.068 A 
ATOM     38  C   UNL     1      -3.579  10.691  23.118  0.00  0.00    +0.042 A 
ATOM     39  C   UNL     1      -3.167  11.342  24.291  0.00  0.00    +0.061 A 
ATOM     40  C   UNL     1      -3.029  12.735  24.298  0.00  0.00    +0.015 A 
ATOM     41  C   UNL     1      -3.292  13.471  23.142  0.00  0.00    +0.003 A 
ATOM     42  C   UNL     1      -3.702  12.824  21.975  0.00  0.00    +0.028 A 
BRANCH  39  43
ATOM     43  C   UNL     1      -2.806  10.591  25.522  0.00  0.00    +0.339 C 
ATOM     44  O   UNL     1      -1.658  10.378  25.873  0.00  0.00    -0.245 OA
BRANCH  43  45
ATOM     45  O   UNL     1      -3.929  10.111  26.112  0.00  0.00    -0.461 OA
BRANCH  45  46
ATOM     46  C   UNL     1      -3.869   8.743  26.534  0.00  0.00    +0.229 C 
ATOM     47  C   UNL     1      -3.985   7.866  25.301  0.00  0.00    +0.048 C 
ENDBRANCH  45  46
ENDBRANCH  43  45
ENDBRANCH  39  43
ENDBRANCH  35  37
ENDBRANCH  31  33
ENDBRANCH  30  31
ENDBRANCH  26  30
ENDBRANCH  25  28
ENDBRANCH   1  25
TORSDOF 17
