REMARK VINA RESULT:    -4.170      4.523      6.557
REMARK INTER + INTRA:         -10.590
REMARK INTER:                  -7.937
REMARK INTRA:                  -2.653
REMARK UNBOUND:                -3.373
REMARK  Name = lig_assembled_27.pdb
REMARK  16 active torsions:
REMARK  status: ('A' for Active; 'I' for Inactive)
REMARK    1  A    between atoms: _2  and  _9
REMARK    2  A    between atoms: _4  and  _18
REMARK    3  A    between atoms: _6  and  _7
REMARK    4  A    between atoms: _6  and  _18
REMARK    5  A    between atoms: _14  and  _34
REMARK    6  A    between atoms: _16  and  _22
REMARK    7  A    between atoms: _17  and  _21
REMARK    8  A    between atoms: _21  and  _22
REMARK    9  A    between atoms: _24  and  _25
REMARK   10  A    between atoms: _26  and  _27
REMARK   11  A    between atoms: _28  and  _30
REMARK   12  A    between atoms: _30  and  _31
REMARK   13  A    between atoms: _30  and  _32
REMARK   14  A    between atoms: _32  and  _33
REMARK   15  A    between atoms: _32  and  _34
REMARK   16  A    between atoms: _35  and  _37
REMARK                            x       y       z     vdW  Elec       q    Type
REMARK                         _______ _______ _______ _____ _____    ______ ____
ROOT
ATOM      1  C   UNL     1      -6.517   9.025  23.753  0.00  0.00    +0.163 C 
ENDROOT
BRANCH   1   2
ATOM      2  O   UNL     1      -7.172   9.008  25.032  0.00  0.00    -0.388 OA
ATOM      3  H   UNL     1      -6.533   8.794  25.716  0.00  0.00    +0.210 HD
ENDBRANCH   1   2
BRANCH   1   4
ATOM      4  C   UNL     1      -7.403   8.359  22.705  0.00  0.00    +0.141 C 
BRANCH   4   7
ATOM      5  C   UNL     1      -7.174   9.042  20.341  0.00  0.00    +0.401 C 
ATOM      6  O   UNL     1      -6.443   8.096  20.040  0.00  0.00    -0.226 OA
ATOM      7  N   UNL     1      -7.664   9.246  21.564  0.00  0.00    -0.279 N 
ATOM      8  H   UNL     1      -8.247  10.057  21.715  0.00  0.00    +0.152 HD
BRANCH   5   9
ATOM      9  O   UNL     1      -7.528   9.993  19.334  0.00  0.00    -0.444 OA
BRANCH   9  10
ATOM     10  C   UNL     1      -7.182   9.477  18.046  0.00  0.00    +0.292 C 
BRANCH  10  12
ATOM     11  N   UNL     1      -6.289  11.761  17.713  0.00  0.00    -0.131 NA
ATOM     12  C   UNL     1      -6.393  10.467  17.290  0.00  0.00    +0.121 A 
ATOM     13  C   UNL     1      -5.671  10.316  16.129  0.00  0.00    +0.143 A 
ATOM     14  N   UNL     1      -5.128  11.555  15.881  0.00  0.00    -0.220 N 
ATOM     15  N   UNL     1      -5.522  12.416  16.852  0.00  0.00    -0.060 NA
BRANCH  14  16
ATOM     16  C   UNL     1      -4.287  11.960  14.814  0.00  0.00    +0.068 A 
ATOM     17  C   UNL     1      -3.746  10.995  13.949  0.00  0.00    +0.028 A 
ATOM     18  C   UNL     1      -2.913  11.381  12.896  0.00  0.00    +0.003 A 
ATOM     19  C   UNL     1      -2.615  12.728  12.699  0.00  0.00    +0.020 A 
ATOM     20  C   UNL     1      -3.152  13.686  13.554  0.00  0.00    +0.043 A 
ATOM     21 CL   UNL     1      -2.784  15.350  13.310  0.00  0.00    -0.083 Cl
ATOM     22  C   UNL     1      -3.986  13.314  14.610  0.00  0.00    +0.047 A 
ENDBRANCH  14  16
ENDBRANCH  10  12
ENDBRANCH   9  10
ENDBRANCH   5   9
ENDBRANCH   4   7
ENDBRANCH   1   4
BRANCH   1  23
ATOM     23  C   UNL     1      -5.163   8.299  23.818  0.00  0.00    +0.175 C 
BRANCH  23  24
ATOM     24  C   UNL     1      -4.049   9.201  24.369  0.00  0.00    +0.176 C 
ATOM     25  O   UNL     1      -4.317   9.431  25.780  0.00  0.00    -0.332 OA
ATOM     26  C   UNL     1      -3.294  10.192  26.504  0.00  0.00    +0.277 C 
ATOM     27  C   UNL     1      -3.021  11.541  25.796  0.00  0.00    +0.110 C 
ATOM     28  C   UNL     1      -2.762  11.351  24.287  0.00  0.00    +0.143 C 
ATOM     29  C   UNL     1      -3.885  10.545  23.635  0.00  0.00    +0.133 C 
BRANCH  29  30
ATOM     30  N   UNL     1      -3.584  10.295  22.216  0.00  0.00    -0.308 N 
ATOM     31  H   UNL     1      -2.863   9.622  21.998  0.00  0.00    +0.149 HD
ATOM     32  C   UNL     1      -4.201  10.901  21.198  0.00  0.00    +0.210 C 
ATOM     33  C   UNL     1      -5.276  11.942  21.563  0.00  0.00    +0.109 C 
ATOM     34  O   UNL     1      -3.938  10.662  20.019  0.00  0.00    -0.276 OA
ENDBRANCH  29  30
BRANCH  26  35
ATOM     35  C   UNL     1      -1.982   9.386  26.603  0.00  0.00    +0.414 C 
ATOM     36  O   UNL     1      -2.013   8.160  26.704  0.00  0.00    -0.240 OA
ATOM     37  O   UNL     1      -0.893   9.962  26.581  0.00  0.00    -0.240 OA
ENDBRANCH  26  35
BRANCH  28  38
ATOM     38  O   UNL     1      -2.666  12.625  23.650  0.00  0.00    -0.390 OA
ATOM     39  H   UNL     1      -1.934  12.619  23.029  0.00  0.00    +0.210 HD
ENDBRANCH  28  38
BRANCH  26  40
ATOM     40  O   UNL     1      -3.799  10.468  27.836  0.00  0.00    -0.343 OA
ATOM     41  C   UNL     1      -3.800  11.868  28.212  0.00  0.00    +0.198 C 
ENDBRANCH  26  40
ENDBRANCH  23  24
BRANCH  23  42
ATOM     42  O   UNL     1      -4.801   7.804  22.513  0.00  0.00    -0.387 OA
ATOM     43  H   UNL     1      -5.347   8.228  21.847  0.00  0.00    +0.210 HD
ENDBRANCH  23  42
ENDBRANCH   1  23
TORSDOF 14
