REMARK VINA RESULT:    -5.265      5.095     10.444
REMARK INTER + INTRA:         -12.837
REMARK INTER:                  -9.133
REMARK INTRA:                  -3.703
REMARK UNBOUND:                -3.108
REMARK  Name = lig_assembled_58.pdb
REMARK  18 active torsions:
REMARK  status: ('A' for Active; 'I' for Inactive)
REMARK    1  A    between atoms: _2  and  _9
REMARK    2  A    between atoms: _4  and  _25
REMARK    3  A    between atoms: _6  and  _7
REMARK    4  A    between atoms: _6  and  _25
REMARK    5  A    between atoms: _9  and  _10
REMARK    6  A    between atoms: _9  and  _16
REMARK    7  A    between atoms: _21  and  _41
REMARK    8  A    between atoms: _23  and  _29
REMARK    9  A    between atoms: _24  and  _28
REMARK   10  A    between atoms: _28  and  _29
REMARK   11  A    between atoms: _31  and  _32
REMARK   12  A    between atoms: _33  and  _34
REMARK   13  A    between atoms: _35  and  _37
REMARK   14  A    between atoms: _37  and  _38
REMARK   15  A    between atoms: _37  and  _39
REMARK   16  A    between atoms: _39  and  _40
REMARK   17  A    between atoms: _39  and  _41
REMARK   18  A    between atoms: _42  and  _44
REMARK                            x       y       z     vdW  Elec       q    Type
REMARK                         _______ _______ _______ _____ _____    ______ ____
ROOT
ATOM      1  C   UNL     1      -3.341   8.748  28.500  0.00  0.00    +0.141 C 
ENDROOT
BRANCH   1   4
ATOM      2  C   UNL     1      -2.587   9.372  26.231  0.00  0.00    +0.401 C 
ATOM      3  O   UNL     1      -1.494   9.799  26.609  0.00  0.00    -0.226 OA
ATOM      4  N   UNL     1      -3.514   8.869  27.047  0.00  0.00    -0.279 N 
ATOM      5  H   UNL     1      -4.384   8.553  26.643  0.00  0.00    +0.152 HD
BRANCH   2   6
ATOM      6  O   UNL     1      -2.904   9.413  24.837  0.00  0.00    -0.444 OA
BRANCH   6   7
ATOM      7  C   UNL     1      -4.158   8.763  24.613  0.00  0.00    +0.292 C 
BRANCH   7   9
ATOM      8  N   UNL     1      -6.272   9.535  23.558  0.00  0.00    -0.131 NA
ATOM      9  C   UNL     1      -4.905   9.450  23.543  0.00  0.00    +0.120 A 
ATOM     10  C   UNL     1      -4.429  10.116  22.438  0.00  0.00    +0.138 A 
ATOM     11  N   UNL     1      -5.535  10.719  21.903  0.00  0.00    -0.240 N 
ATOM     12  N   UNL     1      -6.652  10.295  22.539  0.00  0.00    -0.064 NA
BRANCH  11  13
ATOM     13  C   UNL     1      -5.626  11.723  20.828  0.00  0.00    +0.169 C 
BRANCH  13  14
ATOM     14  C   UNL     1      -4.875  12.999  21.239  0.00  0.00    -0.019 A 
ATOM     15  C   UNL     1      -3.487  13.095  21.043  0.00  0.00    +0.006 A 
ATOM     16  C   UNL     1      -2.785  14.227  21.466  0.00  0.00    +0.000 A 
ATOM     17  C   UNL     1      -3.458  15.285  22.076  0.00  0.00    +0.000 A 
ATOM     18  C   UNL     1      -4.831  15.208  22.280  0.00  0.00    +0.000 A 
ATOM     19  C   UNL     1      -5.530  14.071  21.876  0.00  0.00    +0.006 A 
ENDBRANCH  13  14
BRANCH  13  20
ATOM     20  C   UNL     1      -5.239  11.159  19.454  0.00  0.00    -0.019 A 
ATOM     21  C   UNL     1      -5.348   9.785  19.174  0.00  0.00    +0.006 A 
ATOM     22  C   UNL     1      -4.992   9.276  17.921  0.00  0.00    +0.000 A 
ATOM     23  C   UNL     1      -4.544  10.132  16.920  0.00  0.00    +0.000 A 
ATOM     24  C   UNL     1      -4.481  11.499  17.156  0.00  0.00    +0.000 A 
ATOM     25  C   UNL     1      -4.842  12.008  18.402  0.00  0.00    +0.006 A 
ENDBRANCH  13  20
ENDBRANCH  11  13
ENDBRANCH   7   9
ENDBRANCH   6   7
ENDBRANCH   2   6
ENDBRANCH   1   4
BRANCH   1  26
ATOM     26  C   UNL     1      -4.484   9.406  29.265  0.00  0.00    +0.163 C 
BRANCH  26  27
ATOM     27  O   UNL     1      -4.652   8.768  30.542  0.00  0.00    -0.388 OA
ATOM     28  H   UNL     1      -4.731   9.437  31.227  0.00  0.00    +0.210 HD
ENDBRANCH  26  27
BRANCH  26  29
ATOM     29  C   UNL     1      -4.193  10.907  29.434  0.00  0.00    +0.175 C 
BRANCH  29  30
ATOM     30  C   UNL     1      -5.207  11.780  28.681  0.00  0.00    +0.176 C 
ATOM     31  O   UNL     1      -4.885  11.719  27.264  0.00  0.00    -0.332 OA
ATOM     32  C   UNL     1      -5.817  12.414  26.371  0.00  0.00    +0.277 C 
ATOM     33  C   UNL     1      -5.985  13.890  26.806  0.00  0.00    +0.110 C 
ATOM     34  C   UNL     1      -6.297  14.008  28.313  0.00  0.00    +0.143 C 
ATOM     35  C   UNL     1      -5.267  13.247  29.148  0.00  0.00    +0.133 C 
BRANCH  35  36
ATOM     36  N   UNL     1      -5.624  13.294  30.575  0.00  0.00    -0.308 N 
ATOM     37  H   UNL     1      -6.505  12.885  30.854  0.00  0.00    +0.149 HD
ATOM     38  C   UNL     1      -4.860  13.841  31.524  0.00  0.00    +0.210 C 
ATOM     39  C   UNL     1      -3.537  14.478  31.062  0.00  0.00    +0.109 C 
ATOM     40  O   UNL     1      -5.178  13.853  32.714  0.00  0.00    -0.276 OA
ENDBRANCH  35  36
BRANCH  32  41
ATOM     41  C   UNL     1      -7.194  11.717  26.370  0.00  0.00    +0.414 C 
ATOM     42  O   UNL     1      -8.217  12.367  26.155  0.00  0.00    -0.240 OA
ATOM     43  O   UNL     1      -7.282  10.507  26.583  0.00  0.00    -0.240 OA
ENDBRANCH  32  41
BRANCH  34  44
ATOM     44  O   UNL     1      -6.293  15.383  28.700  0.00  0.00    -0.390 OA
ATOM     45  H   UNL     1      -6.975  15.854  28.216  0.00  0.00    +0.210 HD
ENDBRANCH  34  44
BRANCH  32  46
ATOM     46  O   UNL     1      -5.258  12.392  25.033  0.00  0.00    -0.343 OA
ATOM     47  C   UNL     1      -3.887  12.855  24.935  0.00  0.00    +0.198 C 
ENDBRANCH  32  46
ENDBRANCH  29  30
BRANCH  29  48
ATOM     48  O   UNL     1      -2.854  11.206  28.992  0.00  0.00    -0.387 OA
ATOM     49  H   UNL     1      -2.773  11.002  28.057  0.00  0.00    +0.210 HD
ENDBRANCH  29  48
ENDBRANCH  26  29
ENDBRANCH   1  26
TORSDOF 16
