REMARK VINA RESULT:    -4.219      2.525      6.751
REMARK INTER + INTRA:         -10.712
REMARK INTER:                  -7.456
REMARK INTRA:                  -3.255
REMARK UNBOUND:                -3.040
REMARK  Name = lig_assembled_1.pdb
REMARK  18 active torsions:
REMARK  status: ('A' for Active; 'I' for Inactive)
REMARK    1  A    between atoms: _2  and  _9
REMARK    2  A    between atoms: _4  and  _15
REMARK    3  A    between atoms: _5  and  _9
REMARK    4  A    between atoms: _5  and  _10
REMARK    5  A    between atoms: _6  and  _7
REMARK    6  A    between atoms: _6  and  _15
REMARK    7  A    between atoms: _11  and  _31
REMARK    8  A    between atoms: _13  and  _19
REMARK    9  A    between atoms: _14  and  _18
REMARK   10  A    between atoms: _18  and  _19
REMARK   11  A    between atoms: _21  and  _22
REMARK   12  A    between atoms: _23  and  _24
REMARK   13  A    between atoms: _25  and  _27
REMARK   14  A    between atoms: _27  and  _28
REMARK   15  A    between atoms: _27  and  _29
REMARK   16  A    between atoms: _29  and  _30
REMARK   17  A    between atoms: _29  and  _31
REMARK   18  A    between atoms: _32  and  _34
REMARK                            x       y       z     vdW  Elec       q    Type
REMARK                         _______ _______ _______ _____ _____    ______ ____
ROOT
ATOM      1  C   UNL     1      -6.619  10.466  22.909  0.00  0.00    +0.175 C 
ENDROOT
BRANCH   1   2
ATOM      2  C   UNL     1      -5.271  11.105  23.274  0.00  0.00    +0.176 C 
ATOM      3  O   UNL     1      -5.317  11.474  24.680  0.00  0.00    -0.332 OA
ATOM      4  C   UNL     1      -4.070  12.008  25.236  0.00  0.00    +0.277 C 
ATOM      5  C   UNL     1      -3.573  13.209  24.395  0.00  0.00    +0.110 C 
ATOM      6  C   UNL     1      -3.537  12.874  22.889  0.00  0.00    +0.143 C 
ATOM      7  C   UNL     1      -4.883  12.325  22.418  0.00  0.00    +0.133 C 
BRANCH   7   8
ATOM      8  N   UNL     1      -4.811  11.928  21.002  0.00  0.00    -0.308 N 
ATOM      9  H   UNL     1      -4.058  11.315  20.722  0.00  0.00    +0.149 HD
ATOM     10  C   UNL     1      -5.675  12.325  20.064  0.00  0.00    +0.210 C 
ATOM     11  C   UNL     1      -6.795  13.280  20.518  0.00  0.00    +0.109 C 
ATOM     12  O   UNL     1      -5.598  11.965  18.889  0.00  0.00    -0.276 OA
ENDBRANCH   7   8
BRANCH   4  13
ATOM     13  C   UNL     1      -2.978  10.918  25.275  0.00  0.00    +0.414 C 
ATOM     14  O   UNL     1      -1.877  11.161  25.768  0.00  0.00    -0.240 OA
ATOM     15  O   UNL     1      -3.198   9.798  24.814  0.00  0.00    -0.240 OA
ENDBRANCH   4  13
BRANCH   4  16
ATOM     16  O   UNL     1      -4.343  12.474  26.583  0.00  0.00    -0.343 OA
ATOM     17  C   UNL     1      -5.605  12.030  27.141  0.00  0.00    +0.198 C 
ENDBRANCH   4  16
BRANCH   6  18
ATOM     18  O   UNL     1      -3.220  14.049  22.142  0.00  0.00    -0.390 OA
ATOM     19  H   UNL     1      -4.029  14.517  21.922  0.00  0.00    +0.210 HD
ENDBRANCH   6  18
ENDBRANCH   1   2
BRANCH   1  20
ATOM     20  O   UNL     1      -7.703  11.255  23.439  0.00  0.00    -0.387 OA
ATOM     21  H   UNL     1      -7.889  10.981  24.340  0.00  0.00    +0.210 HD
ENDBRANCH   1  20
BRANCH   1  22
ATOM     22  C   UNL     1      -6.726   9.015  23.411  0.00  0.00    +0.163 C 
BRANCH  22  23
ATOM     23  O   UNL     1      -6.261   8.904  24.766  0.00  0.00    -0.388 OA
ATOM     24  H   UNL     1      -6.532   8.058  25.129  0.00  0.00    +0.210 HD
ENDBRANCH  22  23
BRANCH  22  25
ATOM     25  C   UNL     1      -5.911   8.101  22.502  0.00  0.00    +0.141 C 
BRANCH  25  28
ATOM     26  C   UNL     1      -4.073   6.541  23.045  0.00  0.00    +0.401 C 
ATOM     27  O   UNL     1      -4.613   5.570  22.511  0.00  0.00    -0.226 OA
ATOM     28  N   UNL     1      -4.611   7.760  23.093  0.00  0.00    -0.279 N 
ATOM     29  H   UNL     1      -4.094   8.491  23.563  0.00  0.00    +0.152 HD
BRANCH  26  30
ATOM     30  O   UNL     1      -2.793   6.372  23.661  0.00  0.00    -0.444 OA
BRANCH  30  31
ATOM     31  C   UNL     1      -2.945   5.659  24.891  0.00  0.00    +0.292 C 
BRANCH  31  33
ATOM     32  N   UNL     1      -1.637   7.150  26.374  0.00  0.00    -0.131 NA
ATOM     33  C   UNL     1      -2.836   6.582  26.037  0.00  0.00    +0.120 A 
ATOM     34  C   UNL     1      -3.804   7.019  26.913  0.00  0.00    +0.137 A 
ATOM     35  N   UNL     1      -3.128   7.845  27.761  0.00  0.00    -0.249 N 
ATOM     36  N   UNL     1      -1.827   7.918  27.439  0.00  0.00    -0.065 NA
BRANCH  35  37
ATOM     37  C   UNL     1      -3.654   8.593  28.881  0.00  0.00    +0.173 C 
BRANCH  37  38
ATOM     38  C   UNL     1      -2.660   9.611  29.425  0.00  0.00    +0.179 C 
BRANCH  38  39
ATOM     39  O   UNL     1      -2.667  10.807  28.646  0.00  0.00    -0.393 OA
ATOM     40  H   UNL     1      -3.599  10.991  28.420  0.00  0.00    +0.209 HD
ENDBRANCH  38  39
ENDBRANCH  37  38
ENDBRANCH  35  37
ENDBRANCH  31  33
ENDBRANCH  30  31
ENDBRANCH  26  30
ENDBRANCH  25  28
ENDBRANCH  22  25
ENDBRANCH   1  22
TORSDOF 16
