REMARK VINA RESULT:    -4.999      1.654      2.632
REMARK INTER + INTRA:         -11.015
REMARK INTER:                  -7.777
REMARK INTRA:                  -3.239
REMARK UNBOUND:                -1.779
REMARK  Name = lig_assembled_14.pdb
REMARK  18 active torsions:
REMARK  status: ('A' for Active; 'I' for Inactive)
REMARK    1  A    between atoms: _2  and  _10
REMARK    2  A    between atoms: _3  and  _11
REMARK    3  A    between atoms: _5  and  _19
REMARK    4  A    between atoms: _7  and  _8
REMARK    5  A    between atoms: _7  and  _19
REMARK    6  A    between atoms: _10  and  _11
REMARK    7  A    between atoms: _15  and  _35
REMARK    8  A    between atoms: _17  and  _23
REMARK    9  A    between atoms: _18  and  _22
REMARK   10  A    between atoms: _22  and  _23
REMARK   11  A    between atoms: _25  and  _26
REMARK   12  A    between atoms: _27  and  _28
REMARK   13  A    between atoms: _29  and  _31
REMARK   14  A    between atoms: _31  and  _32
REMARK   15  A    between atoms: _31  and  _33
REMARK   16  A    between atoms: _33  and  _34
REMARK   17  A    between atoms: _33  and  _35
REMARK   18  A    between atoms: _36  and  _38
REMARK                            x       y       z     vdW  Elec       q    Type
REMARK                         _______ _______ _______ _____ _____    ______ ____
ROOT
ATOM      1  C   UNL     1      -5.551   8.090  24.732  0.00  0.00    +0.163 C 
ENDROOT
BRANCH   1   2
ATOM      2  O   UNL     1      -5.805   8.579  26.059  0.00  0.00    -0.388 OA
ATOM      3  H   UNL     1      -6.545   8.101  26.441  0.00  0.00    +0.210 HD
ENDBRANCH   1   2
BRANCH   1   4
ATOM      4  C   UNL     1      -5.862   9.167  23.679  0.00  0.00    +0.175 C 
BRANCH   4   5
ATOM      5  C   UNL     1      -4.881  10.346  23.751  0.00  0.00    +0.176 C 
ATOM      6  O   UNL     1      -5.278  11.192  24.866  0.00  0.00    -0.332 OA
ATOM      7  C   UNL     1      -4.388  12.319  25.155  0.00  0.00    +0.277 C 
ATOM      8  C   UNL     1      -4.182  13.186  23.889  0.00  0.00    +0.110 C 
ATOM      9  C   UNL     1      -3.789  12.327  22.669  0.00  0.00    +0.143 C 
ATOM     10  C   UNL     1      -4.781  11.182  22.461  0.00  0.00    +0.133 C 
BRANCH  10  11
ATOM     11  N   UNL     1      -4.348  10.320  21.350  0.00  0.00    -0.308 N 
ATOM     12  H   UNL     1      -3.456   9.853  21.435  0.00  0.00    +0.149 HD
ATOM     13  C   UNL     1      -5.057  10.115  20.236  0.00  0.00    +0.210 C 
ATOM     14  C   UNL     1      -6.399  10.862  20.126  0.00  0.00    +0.109 C 
ATOM     15  O   UNL     1      -4.676   9.376  19.328  0.00  0.00    -0.276 OA
ENDBRANCH  10  11
BRANCH   7  16
ATOM     16  C   UNL     1      -3.020  11.819  25.665  0.00  0.00    +0.414 C 
ATOM     17  O   UNL     1      -1.979  12.315  25.236  0.00  0.00    -0.240 OA
ATOM     18  O   UNL     1      -2.958  10.920  26.505  0.00  0.00    -0.240 OA
ENDBRANCH   7  16
BRANCH   9  19
ATOM     19  O   UNL     1      -3.758  13.141  21.496  0.00  0.00    -0.390 OA
ATOM     20  H   UNL     1      -3.890  12.591  20.720  0.00  0.00    +0.210 HD
ENDBRANCH   9  19
BRANCH   7  21
ATOM     21  O   UNL     1      -5.018  13.139  26.173  0.00  0.00    -0.343 OA
ATOM     22  C   UNL     1      -6.314  12.668  26.623  0.00  0.00    +0.198 C 
ENDBRANCH   7  21
ENDBRANCH   4   5
BRANCH   4  23
ATOM     23  O   UNL     1      -7.216   9.638  23.835  0.00  0.00    -0.387 OA
ATOM     24  H   UNL     1      -7.310  10.491  23.405  0.00  0.00    +0.210 HD
ENDBRANCH   4  23
ENDBRANCH   1   4
BRANCH   1  25
ATOM     25  C   UNL     1      -4.093   7.659  24.605  0.00  0.00    +0.141 C 
BRANCH  25  28
ATOM     26  C   UNL     1      -2.331   7.179  26.269  0.00  0.00    +0.401 C 
ATOM     27  O   UNL     1      -1.951   6.148  25.708  0.00  0.00    -0.226 OA
ATOM     28  N   UNL     1      -3.330   7.944  25.826  0.00  0.00    -0.279 N 
ATOM     29  H   UNL     1      -3.575   8.765  26.361  0.00  0.00    +0.152 HD
BRANCH  26  30
ATOM     30  O   UNL     1      -1.679   7.597  27.471  0.00  0.00    -0.444 OA
BRANCH  30  31
ATOM     31  C   UNL     1      -2.500   7.273  28.597  0.00  0.00    +0.292 C 
BRANCH  31  33
ATOM     32  N   UNL     1      -4.500   8.728  28.685  0.00  0.00    -0.131 NA
ATOM     33  C   UNL     1      -3.212   8.472  29.077  0.00  0.00    +0.120 A 
ATOM     34  C   UNL     1      -2.786   9.482  29.910  0.00  0.00    +0.137 A 
ATOM     35  N   UNL     1      -3.854  10.324  29.974  0.00  0.00    -0.250 N 
ATOM     36  N   UNL     1      -4.885   9.865  29.244  0.00  0.00    -0.065 NA
BRANCH  35  37
ATOM     37  C   UNL     1      -3.951  11.598  30.654  0.00  0.00    +0.160 C 
BRANCH  37  38
ATOM     38  C   UNL     1      -4.913  12.554  29.941  0.00  0.00    +0.107 C 
BRANCH  38  39
ATOM     39  N   UNL     1      -4.458  13.956  29.972  0.00  0.00    -0.301 NA
ATOM     40  C   UNL     1      -5.553  14.911  30.167  0.00  0.00    +0.084 C 
ATOM     41  C   UNL     1      -4.819  16.173  30.574  0.00  0.00    +0.017 C 
ATOM     42  C   UNL     1      -3.688  15.666  31.450  0.00  0.00    +0.017 C 
ATOM     43  C   UNL     1      -3.514  14.198  31.073  0.00  0.00    +0.084 C 
ENDBRANCH  38  39
ENDBRANCH  37  38
ENDBRANCH  35  37
ENDBRANCH  31  33
ENDBRANCH  30  31
ENDBRANCH  26  30
ENDBRANCH  25  28
ENDBRANCH   1  25
TORSDOF 16
