REMARK VINA RESULT:    -3.955      5.731     10.657
REMARK INTER + INTRA:         -11.333
REMARK INTER:                  -8.570
REMARK INTRA:                  -2.763
REMARK UNBOUND:                -3.793
REMARK  Name = lig_assembled_21.pdb
REMARK  20 active torsions:
REMARK  status: ('A' for Active; 'I' for Inactive)
REMARK    1  A    between atoms: _2  and  _9
REMARK    2  A    between atoms: _4  and  _23
REMARK    3  A    between atoms: _6  and  _7
REMARK    4  A    between atoms: _6  and  _23
REMARK    5  A    between atoms: _9  and  _10
REMARK    6  A    between atoms: _11  and  _18
REMARK    7  A    between atoms: _12  and  _13
REMARK    8  A    between atoms: _12  and  _18
REMARK    9  A    between atoms: _19  and  _39
REMARK   10  A    between atoms: _21  and  _27
REMARK   11  A    between atoms: _22  and  _26
REMARK   12  A    between atoms: _26  and  _27
REMARK   13  A    between atoms: _29  and  _30
REMARK   14  A    between atoms: _31  and  _32
REMARK   15  A    between atoms: _33  and  _35
REMARK   16  A    between atoms: _35  and  _36
REMARK   17  A    between atoms: _35  and  _37
REMARK   18  A    between atoms: _37  and  _38
REMARK   19  A    between atoms: _37  and  _39
REMARK   20  A    between atoms: _40  and  _42
REMARK                            x       y       z     vdW  Elec       q    Type
REMARK                         _______ _______ _______ _____ _____    ______ ____
ROOT
ATOM      1  C   UNL     1      -6.433   9.342  23.130  0.00  0.00    +0.163 C 
ENDROOT
BRANCH   1   2
ATOM      2  O   UNL     1      -7.039   9.565  24.414  0.00  0.00    -0.388 OA
ATOM      3  H   UNL     1      -7.990   9.452  24.343  0.00  0.00    +0.210 HD
ENDBRANCH   1   2
BRANCH   1   4
ATOM      4  C   UNL     1      -5.062   8.661  23.281  0.00  0.00    +0.175 C 
BRANCH   4   5
ATOM      5  C   UNL     1      -4.063   9.537  24.051  0.00  0.00    +0.176 C 
ATOM      6  O   UNL     1      -4.394   9.456  25.465  0.00  0.00    -0.332 OA
ATOM      7  C   UNL     1      -3.476  10.151  26.372  0.00  0.00    +0.277 C 
ATOM      8  C   UNL     1      -3.322  11.634  25.955  0.00  0.00    +0.110 C 
ATOM      9  C   UNL     1      -3.000  11.772  24.452  0.00  0.00    +0.143 C 
ATOM     10  C   UNL     1      -4.016  11.009  23.601  0.00  0.00    +0.133 C 
BRANCH  10  11
ATOM     11  N   UNL     1      -3.649  11.076  22.177  0.00  0.00    -0.308 N 
ATOM     12  H   UNL     1      -2.835  10.558  21.875  0.00  0.00    +0.149 HD
ATOM     13  C   UNL     1      -4.321  11.775  21.259  0.00  0.00    +0.210 C 
ATOM     14  C   UNL     1      -5.541  12.573  21.756  0.00  0.00    +0.109 C 
ATOM     15  O   UNL     1      -3.999  11.801  20.070  0.00  0.00    -0.276 OA
ENDBRANCH  10  11
BRANCH   7  16
ATOM     16  C   UNL     1      -2.091   9.470  26.376  0.00  0.00    +0.414 C 
ATOM     17  O   UNL     1      -1.066  10.150  26.376  0.00  0.00    -0.240 OA
ATOM     18  O   UNL     1      -2.000   8.241  26.379  0.00  0.00    -0.240 OA
ENDBRANCH   7  16
BRANCH   9  19
ATOM     19  O   UNL     1      -3.016  13.151  24.080  0.00  0.00    -0.390 OA
ATOM     20  H   UNL     1      -2.235  13.586  24.428  0.00  0.00    +0.210 HD
ENDBRANCH   9  19
BRANCH   7  21
ATOM     21  O   UNL     1      -4.045  10.108  27.706  0.00  0.00    -0.343 OA
ATOM     22  C   UNL     1      -4.000  11.363  28.431  0.00  0.00    +0.198 C 
ENDBRANCH   7  21
ENDBRANCH   4   5
BRANCH   4  23
ATOM     23  O   UNL     1      -4.530   8.323  21.984  0.00  0.00    -0.387 OA
ATOM     24  H   UNL     1      -5.029   8.781  21.304  0.00  0.00    +0.210 HD
ENDBRANCH   4  23
ENDBRANCH   1   4
BRANCH   1  25
ATOM     25  C   UNL     1      -7.342   8.472  22.268  0.00  0.00    +0.141 C 
BRANCH  25  28
ATOM     26  C   UNL     1      -7.090   8.642  19.816  0.00  0.00    +0.401 C 
ATOM     27  O   UNL     1      -6.324   7.679  19.733  0.00  0.00    -0.226 OA
ATOM     28  N   UNL     1      -7.608   9.086  20.961  0.00  0.00    -0.279 N 
ATOM     29  H   UNL     1      -8.219   9.891  20.929  0.00  0.00    +0.152 HD
BRANCH  26  30
ATOM     30  O   UNL     1      -7.454   9.344  18.624  0.00  0.00    -0.444 OA
BRANCH  30  31
ATOM     31  C   UNL     1      -6.968  10.688  18.694  0.00  0.00    +0.292 C 
BRANCH  31  33
ATOM     32  N   UNL     1      -6.320  12.040  16.730  0.00  0.00    -0.131 NA
ATOM     33  C   UNL     1      -6.084  10.970  17.548  0.00  0.00    +0.120 A 
ATOM     34  C   UNL     1      -4.946  10.322  17.123  0.00  0.00    +0.137 A 
ATOM     35  N   UNL     1      -4.484  11.100  16.096  0.00  0.00    -0.247 N 
ATOM     36  N   UNL     1      -5.337  12.109  15.844  0.00  0.00    -0.065 NA
BRANCH  35  37
ATOM     37  C   UNL     1      -3.206  10.943  15.410  0.00  0.00    +0.184 C 
BRANCH  37  38
ATOM     38  C   UNL     1      -3.009   9.635  14.683  0.00  0.00    +0.016 A 
ATOM     39  C   UNL     1      -3.317   9.490  13.318  0.00  0.00    +0.137 A 
ATOM     40  C   UNL     1      -3.123   8.273  12.663  0.00  0.00    +0.047 A 
ATOM     41  C   UNL     1      -2.602   7.185  13.364  0.00  0.00    +0.004 A 
ATOM     42  C   UNL     1      -2.304   7.305  14.720  0.00  0.00    +0.001 A 
ATOM     43  C   UNL     1      -2.503   8.521  15.375  0.00  0.00    +0.009 A 
BRANCH  39  44
ATOM     44  O   UNL     1      -3.905  10.604  12.674  0.00  0.00    -0.426 OA
BRANCH  44  45
ATOM     45  C   UNL     1      -3.196  11.426  11.797  0.00  0.00    +0.309 C 
ATOM     46  O   UNL     1      -2.000  11.377  11.541  0.00  0.00    -0.251 OA
ATOM     47  C   UNL     1      -4.155  12.367  11.129  0.00  0.00    +0.136 C 
ENDBRANCH  44  45
ENDBRANCH  39  44
ENDBRANCH  37  38
ENDBRANCH  35  37
ENDBRANCH  31  33
ENDBRANCH  30  31
ENDBRANCH  26  30
ENDBRANCH  25  28
ENDBRANCH   1  25
TORSDOF 17
