REMARK VINA RESULT:    -5.144      8.676     12.107
REMARK INTER + INTRA:         -10.739
REMARK INTER:                  -8.232
REMARK INTRA:                  -2.507
REMARK UNBOUND:                -1.837
REMARK  Name = lig_assembled_2.pdb
REMARK  16 active torsions:
REMARK  status: ('A' for Active; 'I' for Inactive)
REMARK    1  A    between atoms: _2  and  _9
REMARK    2  A    between atoms: _4  and  _18
REMARK    3  A    between atoms: _6  and  _7
REMARK    4  A    between atoms: _6  and  _18
REMARK    5  A    between atoms: _14  and  _34
REMARK    6  A    between atoms: _16  and  _22
REMARK    7  A    between atoms: _17  and  _21
REMARK    8  A    between atoms: _21  and  _22
REMARK    9  A    between atoms: _24  and  _25
REMARK   10  A    between atoms: _26  and  _27
REMARK   11  A    between atoms: _28  and  _30
REMARK   12  A    between atoms: _30  and  _31
REMARK   13  A    between atoms: _30  and  _32
REMARK   14  A    between atoms: _32  and  _33
REMARK   15  A    between atoms: _32  and  _34
REMARK   16  A    between atoms: _35  and  _37
REMARK                            x       y       z     vdW  Elec       q    Type
REMARK                         _______ _______ _______ _____ _____    ______ ____
ROOT
ATOM      1  C   UNL     1      -3.075  11.553  25.710  0.00  0.00    +0.163 C 
ENDROOT
BRANCH   1   2
ATOM      2  O   UNL     1      -2.011  12.375  25.204  0.00  0.00    -0.388 OA
ATOM      3  H   UNL     1      -1.550  12.790  25.937  0.00  0.00    +0.210 HD
ENDBRANCH   1   2
BRANCH   1   4
ATOM      4  C   UNL     1      -2.502  10.417  26.552  0.00  0.00    +0.141 C 
BRANCH   4   7
ATOM      5  C   UNL     1      -3.040   9.223  28.647  0.00  0.00    +0.401 C 
ATOM      6  O   UNL     1      -2.219   8.323  28.455  0.00  0.00    -0.226 OA
ATOM      7  N   UNL     1      -3.243  10.238  27.807  0.00  0.00    -0.279 N 
ATOM      8  H   UNL     1      -3.946  10.923  28.047  0.00  0.00    +0.152 HD
BRANCH   5   9
ATOM      9  O   UNL     1      -3.836   9.195  29.834  0.00  0.00    -0.444 OA
BRANCH   9  10
ATOM     10  C   UNL     1      -2.991   9.333  30.980  0.00  0.00    +0.292 C 
BRANCH  10  12
ATOM     11  N   UNL     1      -1.944  11.192  32.232  0.00  0.00    -0.131 NA
ATOM     12  C   UNL     1      -2.932  10.745  31.405  0.00  0.00    +0.121 A 
ATOM     13  C   UNL     1      -3.762  11.795  31.086  0.00  0.00    +0.143 A 
ATOM     14  N   UNL     1      -3.217  12.885  31.726  0.00  0.00    -0.220 N 
ATOM     15  N   UNL     1      -2.127  12.491  32.428  0.00  0.00    -0.060 NA
BRANCH  14  16
ATOM     16  C   UNL     1      -3.640  14.239  31.689  0.00  0.00    +0.067 A 
ATOM     17  C   UNL     1      -4.394  14.730  30.613  0.00  0.00    +0.029 A 
ATOM     18  C   UNL     1      -4.769  16.078  30.578  0.00  0.00    +0.022 A 
ATOM     19  C   UNL     1      -4.395  16.934  31.612  0.00  0.00    +0.041 A 
ATOM     20 CL   UNL     1      -4.840  18.594  31.547  0.00  0.00    -0.084 Cl
ATOM     21  C   UNL     1      -3.659  16.453  32.691  0.00  0.00    +0.022 A 
ATOM     22  C   UNL     1      -3.282  15.108  32.734  0.00  0.00    +0.029 A 
ENDBRANCH  14  16
ENDBRANCH  10  12
ENDBRANCH   9  10
ENDBRANCH   5   9
ENDBRANCH   4   7
ENDBRANCH   1   4
BRANCH   1  23
ATOM     23  C   UNL     1      -3.914  10.968  24.560  0.00  0.00    +0.175 C 
BRANCH  23  24
ATOM     24  C   UNL     1      -4.862  12.010  23.949  0.00  0.00    +0.176 C 
ATOM     25  O   UNL     1      -4.057  12.971  23.214  0.00  0.00    -0.332 OA
ATOM     26  C   UNL     1      -4.806  13.988  22.470  0.00  0.00    +0.277 C 
ATOM     27  C   UNL     1      -5.785  14.735  23.409  0.00  0.00    +0.110 C 
ATOM     28  C   UNL     1      -6.641  13.753  24.236  0.00  0.00    +0.143 C 
ATOM     29  C   UNL     1      -5.761  12.737  24.966  0.00  0.00    +0.133 C 
BRANCH  29  30
ATOM     30  N   UNL     1      -6.592  11.755  25.680  0.00  0.00    -0.308 N 
ATOM     31  H   UNL     1      -7.126  11.098  25.127  0.00  0.00    +0.149 HD
ATOM     32  C   UNL     1      -6.687  11.673  27.009  0.00  0.00    +0.210 C 
ATOM     33  C   UNL     1      -5.882  12.705  27.823  0.00  0.00    +0.109 C 
ATOM     34  O   UNL     1      -7.379  10.830  27.580  0.00  0.00    -0.276 OA
ENDBRANCH  29  30
BRANCH  26  35
ATOM     35  C   UNL     1      -5.594  13.347  21.309  0.00  0.00    +0.414 C 
ATOM     36  O   UNL     1      -6.661  13.835  20.939  0.00  0.00    -0.240 OA
ATOM     37  O   UNL     1      -5.163  12.342  20.742  0.00  0.00    -0.240 OA
ENDBRANCH  26  35
BRANCH  28  38
ATOM     38  O   UNL     1      -7.417  14.477  25.192  0.00  0.00    -0.390 OA
ATOM     39  H   UNL     1      -7.648  15.337  24.833  0.00  0.00    +0.210 HD
ENDBRANCH  28  38
BRANCH  26  40
ATOM     40  O   UNL     1      -3.856  14.950  21.943  0.00  0.00    -0.343 OA
ATOM     41  C   UNL     1      -4.260  16.337  22.059  0.00  0.00    +0.198 C 
ENDBRANCH  26  40
ENDBRANCH  23  24
BRANCH  23  42
ATOM     42  O   UNL     1      -4.661   9.825  25.022  0.00  0.00    -0.387 OA
ATOM     43  H   UNL     1      -4.068   9.210  25.460  0.00  0.00    +0.210 HD
ENDBRANCH  23  42
ENDBRANCH   1  23
TORSDOF 14
