REMARK VINA RESULT:    -4.655      2.374      5.346
REMARK INTER + INTRA:         -11.921
REMARK INTER:                  -7.724
REMARK INTRA:                  -4.197
REMARK UNBOUND:                -3.048
REMARK  Name = lig_assembled_50.pdb
REMARK  20 active torsions:
REMARK  status: ('A' for Active; 'I' for Inactive)
REMARK    1  A    between atoms: _2  and  _9
REMARK    2  A    between atoms: _4  and  _17
REMARK    3  A    between atoms: _5  and  _10
REMARK    4  A    between atoms: _5  and  _11
REMARK    5  A    between atoms: _6  and  _7
REMARK    6  A    between atoms: _6  and  _17
REMARK    7  A    between atoms: _9  and  _10
REMARK    8  A    between atoms: _10  and  _12
REMARK    9  A    between atoms: _13  and  _33
REMARK   10  A    between atoms: _15  and  _21
REMARK   11  A    between atoms: _16  and  _20
REMARK   12  A    between atoms: _20  and  _21
REMARK   13  A    between atoms: _23  and  _24
REMARK   14  A    between atoms: _25  and  _26
REMARK   15  A    between atoms: _27  and  _29
REMARK   16  A    between atoms: _29  and  _30
REMARK   17  A    between atoms: _29  and  _31
REMARK   18  A    between atoms: _31  and  _32
REMARK   19  A    between atoms: _31  and  _33
REMARK   20  A    between atoms: _34  and  _36
REMARK                            x       y       z     vdW  Elec       q    Type
REMARK                         _______ _______ _______ _____ _____    ______ ____
ROOT
ATOM      1  C   UNL     1      -3.010  11.528  23.303  0.00  0.00    +0.163 C 
ENDROOT
BRANCH   1   2
ATOM      2  O   UNL     1      -2.315  11.874  24.512  0.00  0.00    -0.388 OA
ATOM      3  H   UNL     1      -2.375  11.147  25.136  0.00  0.00    +0.210 HD
ENDBRANCH   1   2
BRANCH   1   4
ATOM      4  C   UNL     1      -3.835  10.243  23.491  0.00  0.00    +0.175 C 
BRANCH   4   5
ATOM      5  C   UNL     1      -3.842   9.770  24.952  0.00  0.00    +0.176 C 
ATOM      6  O   UNL     1      -2.843   8.722  25.087  0.00  0.00    -0.332 OA
ATOM      7  C   UNL     1      -2.633   8.218  26.448  0.00  0.00    +0.277 C 
ATOM      8  C   UNL     1      -3.973   7.746  27.063  0.00  0.00    +0.110 C 
ATOM      9  C   UNL     1      -5.075   8.815  26.915  0.00  0.00    +0.143 C 
ATOM     10  C   UNL     1      -5.207   9.270  25.461  0.00  0.00    +0.133 C 
BRANCH  10  11
ATOM     11  N   UNL     1      -6.199  10.350  25.346  0.00  0.00    -0.308 N 
ATOM     12  H   UNL     1      -6.021  11.210  25.847  0.00  0.00    +0.149 HD
ATOM     13  C   UNL     1      -7.321  10.269  24.625  0.00  0.00    +0.210 C 
ATOM     14  C   UNL     1      -7.576   8.937  23.895  0.00  0.00    +0.109 C 
ATOM     15  O   UNL     1      -8.127  11.196  24.536  0.00  0.00    -0.276 OA
ENDBRANCH  10  11
BRANCH   7  16
ATOM     16  C   UNL     1      -2.009   9.308  27.344  0.00  0.00    +0.414 C 
ATOM     17  O   UNL     1      -2.289   9.362  28.541  0.00  0.00    -0.240 OA
ATOM     18  O   UNL     1      -1.227  10.133  26.871  0.00  0.00    -0.240 OA
ENDBRANCH   7  16
BRANCH   9  19
ATOM     19  O   UNL     1      -6.325   8.283  27.356  0.00  0.00    -0.390 OA
ATOM     20  H   UNL     1      -6.175   7.460  27.826  0.00  0.00    +0.210 HD
ENDBRANCH   9  19
BRANCH   7  21
ATOM     21  O   UNL     1      -1.738   7.079  26.371  0.00  0.00    -0.343 OA
ATOM     22  C   UNL     1      -2.077   5.974  27.247  0.00  0.00    +0.198 C 
ENDBRANCH   7  21
ENDBRANCH   4   5
BRANCH   4  23
ATOM     23  O   UNL     1      -3.332   9.200  22.633  0.00  0.00    -0.387 OA
ATOM     24  H   UNL     1      -3.151   9.561  21.762  0.00  0.00    +0.210 HD
ENDBRANCH   4  23
ENDBRANCH   1   4
BRANCH   1  25
ATOM     25  C   UNL     1      -3.932  12.669  22.887  0.00  0.00    +0.141 C 
BRANCH  25  28
ATOM     26  C   UNL     1      -5.647  13.920  24.152  0.00  0.00    +0.401 C 
ATOM     27  O   UNL     1      -6.518  13.783  23.291  0.00  0.00    -0.226 OA
ATOM     28  N   UNL     1      -4.408  13.438  24.044  0.00  0.00    -0.279 N 
ATOM     29  H   UNL     1      -3.761  13.611  24.800  0.00  0.00    +0.152 HD
BRANCH  26  30
ATOM     30  O   UNL     1      -5.959  14.641  25.347  0.00  0.00    -0.444 OA
BRANCH  30  31
ATOM     31  C   UNL     1      -6.610  13.769  26.275  0.00  0.00    +0.292 C 
BRANCH  31  33
ATOM     32  N   UNL     1      -4.578  12.533  26.976  0.00  0.00    -0.131 NA
ATOM     33  C   UNL     1      -5.658  13.312  27.308  0.00  0.00    +0.120 A 
ATOM     34  C   UNL     1      -5.640  13.551  28.667  0.00  0.00    +0.137 A 
ATOM     35  N   UNL     1      -4.537  12.887  29.099  0.00  0.00    -0.249 N 
ATOM     36  N   UNL     1      -3.891  12.290  28.080  0.00  0.00    -0.065 NA
BRANCH  35  37
ATOM     37  C   UNL     1      -4.036  12.763  30.450  0.00  0.00    +0.178 C 
BRANCH  37  38
ATOM     38  C   UNL     1      -4.154  11.350  31.032  0.00  0.00    +0.161 C 
BRANCH  38  39
ATOM     39  O   UNL     1      -4.614  10.394  30.073  0.00  0.00    -0.388 OA
ATOM     40  H   UNL     1      -5.584  10.490  29.978  0.00  0.00    +0.210 HD
ENDBRANCH  38  39
BRANCH  38  41
ATOM     41  C   UNL     1      -2.861  10.845  31.687  0.00  0.00    +0.189 C 
BRANCH  41  42
ATOM     42  O   UNL     1      -2.677   9.448  31.465  0.00  0.00    -0.392 OA
ATOM     43  H   UNL     1      -2.354   9.048  32.295  0.00  0.00    +0.210 HD
ENDBRANCH  41  42
ENDBRANCH  38  41
ENDBRANCH  37  38
ENDBRANCH  35  37
ENDBRANCH  31  33
ENDBRANCH  30  31
ENDBRANCH  26  30
ENDBRANCH  25  28
ENDBRANCH   1  25
TORSDOF 18
