REMARK VINA RESULT:    -5.230      4.188     10.338
REMARK INTER + INTRA:         -11.465
REMARK INTER:                  -8.878
REMARK INTRA:                  -2.586
REMARK UNBOUND:                -1.954
REMARK  Name = lig_assembled_60.pdb
REMARK  18 active torsions:
REMARK  status: ('A' for Active; 'I' for Inactive)
REMARK    1  A    between atoms: _2  and  _10
REMARK    2  A    between atoms: _3  and  _41
REMARK    3  A    between atoms: _5  and  _21
REMARK    4  A    between atoms: _7  and  _8
REMARK    5  A    between atoms: _7  and  _21
REMARK    6  A    between atoms: _13  and  _41
REMARK    7  A    between atoms: _17  and  _37
REMARK    8  A    between atoms: _19  and  _25
REMARK    9  A    between atoms: _20  and  _24
REMARK   10  A    between atoms: _24  and  _25
REMARK   11  A    between atoms: _27  and  _28
REMARK   12  A    between atoms: _29  and  _30
REMARK   13  A    between atoms: _31  and  _33
REMARK   14  A    between atoms: _33  and  _34
REMARK   15  A    between atoms: _33  and  _35
REMARK   16  A    between atoms: _35  and  _36
REMARK   17  A    between atoms: _35  and  _37
REMARK   18  A    between atoms: _38  and  _40
REMARK                            x       y       z     vdW  Elec       q    Type
REMARK                         _______ _______ _______ _____ _____    ______ ____
ROOT
ATOM      1  C   UNL     1      -7.398   8.522  22.624  0.00  0.00    +0.141 C 
ENDROOT
BRANCH   1   4
ATOM      2  C   UNL     1      -8.069   9.994  20.756  0.00  0.00    +0.401 C 
ATOM      3  O   UNL     1      -8.998  10.516  21.377  0.00  0.00    -0.226 OA
ATOM      4  N   UNL     1      -7.274   9.049  21.259  0.00  0.00    -0.279 N 
ATOM      5  H   UNL     1      -6.544   8.675  20.668  0.00  0.00    +0.152 HD
BRANCH   2   6
ATOM      6  O   UNL     1      -7.814  10.408  19.412  0.00  0.00    -0.444 OA
BRANCH   6   7
ATOM      7  C   UNL     1      -7.347   9.293  18.648  0.00  0.00    +0.292 C 
BRANCH   7   9
ATOM      8  N   UNL     1      -5.022   8.992  17.852  0.00  0.00    -0.131 NA
ATOM      9  C   UNL     1      -6.196   9.687  17.815  0.00  0.00    +0.121 A 
ATOM     10  C   UNL     1      -6.079  10.717  16.910  0.00  0.00    +0.143 A 
ATOM     11  N   UNL     1      -4.813  10.589  16.386  0.00  0.00    -0.220 N 
ATOM     12  N   UNL     1      -4.184   9.551  16.989  0.00  0.00    -0.060 NA
BRANCH  11  13
ATOM     13  C   UNL     1      -4.203  11.344  15.351  0.00  0.00    +0.067 A 
ATOM     14  C   UNL     1      -3.606  10.701  14.254  0.00  0.00    +0.030 A 
ATOM     15  C   UNL     1      -2.948  11.450  13.277  0.00  0.00    +0.030 A 
ATOM     16  C   UNL     1      -2.897  12.842  13.386  0.00  0.00    +0.105 A 
ATOM     17  C   UNL     1      -3.501  13.494  14.465  0.00  0.00    +0.030 A 
ATOM     18  C   UNL     1      -4.160  12.744  15.443  0.00  0.00    +0.030 A 
BRANCH  16  19
ATOM     19  S   UNL     1      -1.993  13.771  12.183  0.00  0.00    +0.056 S 
ATOM     20  O   UNL     1      -2.852  14.062  11.060  0.00  0.00    -0.153 OA
ATOM     21  O   UNL     1      -1.223  14.792  12.857  0.00  0.00    -0.153 OA
BRANCH  19  22
ATOM     22  N   UNL     1      -0.884  12.637  11.639  0.00  0.00    -0.204 NA
ATOM     23  H   UNL     1      -0.112  12.562  12.302  0.00  0.00    +0.144 HD
ATOM     24  H   UNL     1      -0.591  12.869  10.689  0.00  0.00    +0.144 HD
ENDBRANCH  19  22
ENDBRANCH  16  19
ENDBRANCH  11  13
ENDBRANCH   7   9
ENDBRANCH   6   7
ENDBRANCH   2   6
ENDBRANCH   1   4
BRANCH   1  25
ATOM     25  C   UNL     1      -6.457   9.229  23.594  0.00  0.00    +0.163 C 
BRANCH  25  26
ATOM     26  O   UNL     1      -7.044   9.271  24.905  0.00  0.00    -0.388 OA
ATOM     27  H   UNL     1      -6.623   9.962  25.423  0.00  0.00    +0.210 HD
ENDBRANCH  25  26
BRANCH  25  28
ATOM     28  C   UNL     1      -5.103   8.500  23.621  0.00  0.00    +0.175 C 
BRANCH  28  29
ATOM     29  C   UNL     1      -4.001   9.350  24.270  0.00  0.00    +0.176 C 
ATOM     30  O   UNL     1      -4.281   9.432  25.695  0.00  0.00    -0.332 OA
ATOM     31  C   UNL     1      -3.270  10.123  26.501  0.00  0.00    +0.277 C 
ATOM     32  C   UNL     1      -3.004  11.540  25.937  0.00  0.00    +0.110 C 
ATOM     33  C   UNL     1      -2.732  11.506  24.418  0.00  0.00    +0.143 C 
ATOM     34  C   UNL     1      -3.844  10.762  23.678  0.00  0.00    +0.133 C 
BRANCH  34  35
ATOM     35  N   UNL     1      -3.530  10.662  22.244  0.00  0.00    -0.308 N 
ATOM     36  H   UNL     1      -2.750  10.081  21.971  0.00  0.00    +0.149 HD
ATOM     37  C   UNL     1      -4.209  11.288  21.279  0.00  0.00    +0.210 C 
ATOM     38  C   UNL     1      -5.376  12.186  21.729  0.00  0.00    +0.109 C 
ATOM     39  O   UNL     1      -3.933  11.173  20.084  0.00  0.00    -0.276 OA
ENDBRANCH  34  35
BRANCH  31  40
ATOM     40  C   UNL     1      -1.952   9.322  26.527  0.00  0.00    +0.414 C 
ATOM     41  O   UNL     1      -0.870   9.909  26.549  0.00  0.00    -0.240 OA
ATOM     42  O   UNL     1      -1.969   8.091  26.527  0.00  0.00    -0.240 OA
ENDBRANCH  31  40
BRANCH  33  43
ATOM     43  O   UNL     1      -2.642  12.840  23.915  0.00  0.00    -0.390 OA
ATOM     44  H   UNL     1      -2.216  12.831  23.055  0.00  0.00    +0.210 HD
ENDBRANCH  33  43
BRANCH  31  45
ATOM     45  O   UNL     1      -3.787  10.257  27.850  0.00  0.00    -0.343 OA
ATOM     46  C   UNL     1      -4.964   9.461  28.137  0.00  0.00    +0.198 C 
ENDBRANCH  31  45
ENDBRANCH  28  29
BRANCH  28  47
ATOM     47  O   UNL     1      -4.716   8.121  22.285  0.00  0.00    -0.387 OA
ATOM     48  H   UNL     1      -5.467   8.219  21.694  0.00  0.00    +0.210 HD
ENDBRANCH  28  47
ENDBRANCH  25  28
ENDBRANCH   1  25
TORSDOF 16
