REMARK VINA RESULT:    -3.762      2.115      2.590
REMARK INTER + INTRA:         -10.949
REMARK INTER:                  -7.217
REMARK INTRA:                  -3.732
REMARK UNBOUND:                -4.108
REMARK  Name = lig_assembled_53.pdb
REMARK  18 active torsions:
REMARK  status: ('A' for Active; 'I' for Inactive)
REMARK    1  A    between atoms: _2  and  _9
REMARK    2  A    between atoms: _4  and  _16
REMARK    3  A    between atoms: _5  and  _9
REMARK    4  A    between atoms: _5  and  _10
REMARK    5  A    between atoms: _6  and  _7
REMARK    6  A    between atoms: _6  and  _16
REMARK    7  A    between atoms: _12  and  _32
REMARK    8  A    between atoms: _14  and  _20
REMARK    9  A    between atoms: _15  and  _19
REMARK   10  A    between atoms: _19  and  _20
REMARK   11  A    between atoms: _22  and  _23
REMARK   12  A    between atoms: _24  and  _25
REMARK   13  A    between atoms: _26  and  _28
REMARK   14  A    between atoms: _28  and  _29
REMARK   15  A    between atoms: _28  and  _30
REMARK   16  A    between atoms: _30  and  _31
REMARK   17  A    between atoms: _30  and  _32
REMARK   18  A    between atoms: _33  and  _35
REMARK                            x       y       z     vdW  Elec       q    Type
REMARK                         _______ _______ _______ _____ _____    ______ ____
ROOT
ATOM      1  C   UNL     1      -4.988  12.026  25.753  0.00  0.00    +0.175 C 
ENDROOT
BRANCH   1   2
ATOM      2  C   UNL     1      -4.194  11.234  26.803  0.00  0.00    +0.176 C 
ATOM      3  O   UNL     1      -4.179   9.839  26.394  0.00  0.00    -0.332 OA
ATOM      4  C   UNL     1      -3.372   8.942  27.227  0.00  0.00    +0.277 C 
ATOM      5  C   UNL     1      -3.802   9.048  28.710  0.00  0.00    +0.110 C 
ATOM      6  C   UNL     1      -3.864  10.516  29.182  0.00  0.00    +0.143 C 
ATOM      7  C   UNL     1      -4.727  11.359  28.243  0.00  0.00    +0.133 C 
BRANCH   7   8
ATOM      8  N   UNL     1      -4.707  12.772  28.653  0.00  0.00    -0.308 N 
ATOM      9  H   UNL     1      -3.818  13.252  28.646  0.00  0.00    +0.149 HD
ATOM     10  C   UNL     1      -5.786  13.460  29.035  0.00  0.00    +0.210 C 
ATOM     11  C   UNL     1      -7.121  12.691  29.061  0.00  0.00    +0.109 C 
ATOM     12  O   UNL     1      -5.742  14.647  29.360  0.00  0.00    -0.276 OA
ENDBRANCH   7   8
BRANCH   4  13
ATOM     13  C   UNL     1      -1.872   9.281  27.100  0.00  0.00    +0.414 C 
ATOM     14  O   UNL     1      -1.454   9.886  26.113  0.00  0.00    -0.240 OA
ATOM     15  O   UNL     1      -1.080   8.950  27.983  0.00  0.00    -0.240 OA
ENDBRANCH   4  13
BRANCH   4  16
ATOM     16  O   UNL     1      -3.605   7.582  26.778  0.00  0.00    -0.343 OA
ATOM     17  C   UNL     1      -3.862   7.441  25.358  0.00  0.00    +0.198 C 
ENDBRANCH   4  16
BRANCH   6  18
ATOM     18  O   UNL     1      -4.408  10.575  30.501  0.00  0.00    -0.390 OA
ATOM     19  H   UNL     1      -3.715  10.809  31.124  0.00  0.00    +0.210 HD
ENDBRANCH   6  18
ENDBRANCH   1   2
BRANCH   1  20
ATOM     20  O   UNL     1      -5.456  11.143  24.715  0.00  0.00    -0.387 OA
ATOM     21  H   UNL     1      -6.275  10.726  24.993  0.00  0.00    +0.210 HD
ENDBRANCH   1  20
BRANCH   1  22
ATOM     22  C   UNL     1      -4.160  13.170  25.143  0.00  0.00    +0.163 C 
BRANCH  22  23
ATOM     23  O   UNL     1      -4.894  13.837  24.103  0.00  0.00    -0.388 OA
ATOM     24  H   UNL     1      -4.493  14.691  23.926  0.00  0.00    +0.210 HD
ENDBRANCH  22  23
BRANCH  22  25
ATOM     25  C   UNL     1      -2.854  12.612  24.585  0.00  0.00    +0.141 C 
BRANCH  25  28
ATOM     26  C   UNL     1      -3.069  11.179  22.584  0.00  0.00    +0.401 C 
ATOM     27  O   UNL     1      -3.134  10.129  23.227  0.00  0.00    -0.226 OA
ATOM     28  N   UNL     1      -2.931  12.385  23.137  0.00  0.00    -0.279 N 
ATOM     29  H   UNL     1      -2.877  13.187  22.525  0.00  0.00    +0.152 HD
BRANCH  26  30
ATOM     30  O   UNL     1      -3.137  11.124  21.157  0.00  0.00    -0.444 OA
BRANCH  30  31
ATOM     31  C   UNL     1      -4.159  12.011  20.693  0.00  0.00    +0.292 C 
BRANCH  31  33
ATOM     32  N   UNL     1      -6.198  12.412  22.042  0.00  0.00    -0.131 NA
ATOM     33  C   UNL     1      -5.476  11.597  21.212  0.00  0.00    +0.120 A 
ATOM     34  C   UNL     1      -6.182  10.435  20.997  0.00  0.00    +0.137 A 
ATOM     35  N   UNL     1      -7.293  10.572  21.774  0.00  0.00    -0.241 N 
ATOM     36  N   UNL     1      -7.320  11.783  22.364  0.00  0.00    -0.065 NA
BRANCH  35  37
ATOM     37  C   UNL     1      -8.452   9.713  21.912  0.00  0.00    +0.265 C 
BRANCH  37  38
ATOM     38  C   UNL     1      -8.474   8.856  23.148  0.00  0.00    +0.326 C 
ATOM     39  O   UNL     1      -8.953   7.736  23.253  0.00  0.00    -0.249 OA
BRANCH  38  40
ATOM     40  O   UNL     1      -7.896   9.468  24.216  0.00  0.00    -0.479 OA
ATOM     41  H   UNL     1      -8.102  10.416  24.327  0.00  0.00    +0.295 HD
ENDBRANCH  38  40
ENDBRANCH  37  38
ENDBRANCH  35  37
ENDBRANCH  31  33
ENDBRANCH  30  31
ENDBRANCH  26  30
ENDBRANCH  25  28
ENDBRANCH  22  25
ENDBRANCH   1  22
TORSDOF 16
