REMARK VINA RESULT:    -4.356      2.813      5.522
REMARK INTER + INTRA:         -11.472
REMARK INTER:                  -7.662
REMARK INTRA:                  -3.810
REMARK UNBOUND:                -3.679
REMARK  Name = lig_assembled_0.pdb
REMARK  17 active torsions:
REMARK  status: ('A' for Active; 'I' for Inactive)
REMARK    1  A    between atoms: _2  and  _10
REMARK    2  A    between atoms: _5  and  _21
REMARK    3  A    between atoms: _7  and  _8
REMARK    4  A    between atoms: _7  and  _21
REMARK    5  A    between atoms: _11  and  _12
REMARK    6  A    between atoms: _17  and  _37
REMARK    7  A    between atoms: _19  and  _25
REMARK    8  A    between atoms: _20  and  _24
REMARK    9  A    between atoms: _24  and  _25
REMARK   10  A    between atoms: _27  and  _28
REMARK   11  A    between atoms: _29  and  _30
REMARK   12  A    between atoms: _31  and  _33
REMARK   13  A    between atoms: _33  and  _34
REMARK   14  A    between atoms: _33  and  _35
REMARK   15  A    between atoms: _35  and  _36
REMARK   16  A    between atoms: _35  and  _37
REMARK   17  A    between atoms: _38  and  _40
REMARK                            x       y       z     vdW  Elec       q    Type
REMARK                         _______ _______ _______ _____ _____    ______ ____
ROOT
ATOM      1  C   UNL     1      -2.936  11.830  24.100  0.00  0.00    +0.163 C 
ENDROOT
BRANCH   1   2
ATOM      2  O   UNL     1      -2.095  11.701  25.258  0.00  0.00    -0.388 OA
ATOM      3  H   UNL     1      -1.767  10.800  25.317  0.00  0.00    +0.210 HD
ENDBRANCH   1   2
BRANCH   1   4
ATOM      4  C   UNL     1      -3.745  13.120  24.183  0.00  0.00    +0.141 C 
BRANCH   4   7
ATOM      5  C   UNL     1      -5.984  13.463  25.170  0.00  0.00    +0.401 C 
ATOM      6  O   UNL     1      -6.485  13.879  24.124  0.00  0.00    -0.226 OA
ATOM      7  N   UNL     1      -4.709  13.092  25.290  0.00  0.00    -0.279 N 
ATOM      8  H   UNL     1      -4.387  12.773  26.194  0.00  0.00    +0.152 HD
BRANCH   5   9
ATOM      9  O   UNL     1      -6.799  13.367  26.341  0.00  0.00    -0.444 OA
BRANCH   9  10
ATOM     10  C   UNL     1      -6.113  13.953  27.451  0.00  0.00    +0.292 C 
BRANCH  10  12
ATOM     11  N   UNL     1      -5.661  11.635  28.165  0.00  0.00    -0.131 NA
ATOM     12  C   UNL     1      -5.868  12.940  28.495  0.00  0.00    +0.121 A 
ATOM     13  C   UNL     1      -5.780  13.079  29.862  0.00  0.00    +0.143 A 
ATOM     14  N   UNL     1      -5.609  11.801  30.343  0.00  0.00    -0.219 N 
ATOM     15  N   UNL     1      -5.454  10.959  29.284  0.00  0.00    -0.060 NA
BRANCH  14  16
ATOM     16  C   UNL     1      -5.465  11.319  31.674  0.00  0.00    +0.079 A 
ATOM     17  C   UNL     1      -4.237  10.977  32.277  0.00  0.00    +0.062 A 
ATOM     18  C   UNL     1      -4.245  10.470  33.595  0.00  0.00    +0.015 A 
ATOM     19  C   UNL     1      -5.436  10.290  34.298  0.00  0.00    +0.001 A 
ATOM     20  C   UNL     1      -6.643  10.641  33.710  0.00  0.00    +0.002 A 
ATOM     21  C   UNL     1      -6.658  11.161  32.416  0.00  0.00    +0.028 A 
BRANCH  17  22
ATOM     22  C   UNL     1      -2.904  11.287  31.690  0.00  0.00    +0.244 C 
ATOM     23  O   UNL     1      -1.975  11.704  32.364  0.00  0.00    -0.270 OA
ATOM     24  N   UNL     1      -2.729  11.050  30.353  0.00  0.00    -0.325 N 
ATOM     25  H   UNL     1      -1.805  11.215  29.972  0.00  0.00    +0.145 HD
ATOM     26  H   UNL     1      -3.441  10.693  29.732  0.00  0.00    +0.145 HD
ENDBRANCH  17  22
ENDBRANCH  14  16
ENDBRANCH  10  12
ENDBRANCH   9  10
ENDBRANCH   5   9
ENDBRANCH   4   7
ENDBRANCH   1   4
BRANCH   1  27
ATOM     27  C   UNL     1      -3.892  10.631  23.977  0.00  0.00    +0.175 C 
BRANCH  27  28
ATOM     28  C   UNL     1      -3.974   9.822  25.280  0.00  0.00    +0.176 C 
ATOM     29  O   UNL     1      -2.874   8.871  25.285  0.00  0.00    -0.332 OA
ATOM     30  C   UNL     1      -2.728   8.077  26.509  0.00  0.00    +0.277 C 
ATOM     31  C   UNL     1      -4.053   7.347  26.841  0.00  0.00    +0.110 C 
ATOM     32  C   UNL     1      -5.257   8.312  26.816  0.00  0.00    +0.143 C 
ATOM     33  C   UNL     1      -5.310   9.089  25.500  0.00  0.00    +0.133 C 
BRANCH  33  34
ATOM     34  N   UNL     1      -6.409  10.067  25.523  0.00  0.00    -0.308 N 
ATOM     35  H   UNL     1      -6.380  10.792  26.225  0.00  0.00    +0.149 HD
ATOM     36  C   UNL     1      -7.443  10.057  24.677  0.00  0.00    +0.210 C 
ATOM     37  C   UNL     1      -7.472   8.923  23.636  0.00  0.00    +0.109 C 
ATOM     38  O   UNL     1      -8.342  10.898  24.711  0.00  0.00    -0.276 OA
ENDBRANCH  33  34
BRANCH  30  39
ATOM     39  C   UNL     1      -2.321   8.973  27.697  0.00  0.00    +0.414 C 
ATOM     40  O   UNL     1      -2.552   8.615  28.851  0.00  0.00    -0.240 OA
ATOM     41  O   UNL     1      -1.763  10.053  27.502  0.00  0.00    -0.240 OA
ENDBRANCH  30  39
BRANCH  32  42
ATOM     42  O   UNL     1      -6.469   7.574  26.977  0.00  0.00    -0.390 OA
ATOM     43  H   UNL     1      -7.161   7.974  26.445  0.00  0.00    +0.210 HD
ENDBRANCH  32  42
BRANCH  30  44
ATOM     44  O   UNL     1      -1.702   7.078  26.276  0.00  0.00    -0.343 OA
ATOM     45  C   UNL     1      -2.101   5.713  26.559  0.00  0.00    +0.198 C 
ENDBRANCH  30  44
ENDBRANCH  27  28
BRANCH  27  46
ATOM     46  O   UNL     1      -3.484   9.780  22.888  0.00  0.00    -0.387 OA
ATOM     47  H   UNL     1      -2.525   9.739  22.855  0.00  0.00    +0.210 HD
ENDBRANCH  27  46
ENDBRANCH   1  27
TORSDOF 15
