REMARK VINA RESULT:    -4.994      5.898     10.206
REMARK INTER + INTRA:         -10.814
REMARK INTER:                  -8.287
REMARK INTRA:                  -2.528
REMARK UNBOUND:                -2.170
REMARK  Name = lig_assembled_87.pdb
REMARK  17 active torsions:
REMARK  status: ('A' for Active; 'I' for Inactive)
REMARK    1  A    between atoms: _2  and  _10
REMARK    2  A    between atoms: _3  and  _13
REMARK    3  A    between atoms: _5  and  _21
REMARK    4  A    between atoms: _7  and  _8
REMARK    5  A    between atoms: _7  and  _21
REMARK    6  A    between atoms: _17  and  _37
REMARK    7  A    between atoms: _19  and  _25
REMARK    8  A    between atoms: _20  and  _24
REMARK    9  A    between atoms: _24  and  _25
REMARK   10  A    between atoms: _27  and  _28
REMARK   11  A    between atoms: _29  and  _30
REMARK   12  A    between atoms: _31  and  _33
REMARK   13  A    between atoms: _33  and  _34
REMARK   14  A    between atoms: _33  and  _35
REMARK   15  A    between atoms: _35  and  _36
REMARK   16  A    between atoms: _35  and  _37
REMARK   17  A    between atoms: _38  and  _40
REMARK                            x       y       z     vdW  Elec       q    Type
REMARK                         _______ _______ _______ _____ _____    ______ ____
ROOT
ATOM      1  C   UNL     1      -2.980  10.598  14.485  0.00  0.00    +0.163 C 
ENDROOT
BRANCH   1   2
ATOM      2  O   UNL     1      -2.189  10.292  13.326  0.00  0.00    -0.388 OA
ATOM      3  H   UNL     1      -2.664  10.556  12.534  0.00  0.00    +0.210 HD
ENDBRANCH   1   2
BRANCH   1   4
ATOM      4  C   UNL     1      -3.489   9.310  15.124  0.00  0.00    +0.141 C 
BRANCH   4   7
ATOM      5  C   UNL     1      -4.956   8.623  16.990  0.00  0.00    +0.401 C 
ATOM      6  O   UNL     1      -4.754   7.417  16.829  0.00  0.00    -0.226 OA
ATOM      7  N   UNL     1      -4.411   9.578  16.235  0.00  0.00    -0.279 N 
ATOM      8  H   UNL     1      -4.645  10.539  16.440  0.00  0.00    +0.152 HD
BRANCH   5   9
ATOM      9  O   UNL     1      -5.828   9.047  18.042  0.00  0.00    -0.444 OA
BRANCH   9  10
ATOM     10  C   UNL     1      -6.388  10.321  17.714  0.00  0.00    +0.292 C 
BRANCH  10  12
ATOM     11  N   UNL     1      -6.989  12.202  19.199  0.00  0.00    -0.131 NA
ATOM     12  C   UNL     1      -6.055  11.305  18.760  0.00  0.00    +0.120 A 
ATOM     13  C   UNL     1      -4.882  11.500  19.453  0.00  0.00    +0.137 A 
ATOM     14  N   UNL     1      -5.196  12.448  20.390  0.00  0.00    -0.248 N 
ATOM     15  N   UNL     1      -6.429  12.938  20.143  0.00  0.00    -0.065 NA
BRANCH  14  16
ATOM     16  C   UNL     1      -4.425  12.974  21.532  0.00  0.00    +0.112 C 
ATOM     17  C   UNL     1      -3.179  12.132  21.921  0.00  0.00    +0.045 C 
ATOM     18  C   UNL     1      -3.172  11.575  23.354  0.00  0.00    +0.059 C 
ATOM     19  C   UNL     1      -2.783  12.643  24.385  0.00  0.00    +0.020 C 
ATOM     20  C   UNL     1      -4.115  13.179  24.909  0.00  0.00    +0.020 C 
ATOM     21  C   UNL     1      -5.158  12.509  24.013  0.00  0.00    +0.059 C 
ATOM     22  N   UNL     1      -4.504  11.218  23.824  0.00  0.00    -0.299 NA
ATOM     23  C   UNL     1      -5.224  10.202  23.087  0.00  0.00    +0.105 C 
ATOM     24  C   UNL     1      -5.362  13.317  22.730  0.00  0.00    +0.045 C 
ENDBRANCH  14  16
ENDBRANCH  10  12
ENDBRANCH   9  10
ENDBRANCH   5   9
ENDBRANCH   4   7
ENDBRANCH   1   4
BRANCH   1  25
ATOM     25  C   UNL     1      -4.174  11.495  14.115  0.00  0.00    +0.175 C 
BRANCH  25  26
ATOM     26  C   UNL     1      -3.818  12.507  13.016  0.00  0.00    +0.176 C 
ATOM     27  O   UNL     1      -2.536  13.103  13.356  0.00  0.00    -0.332 OA
ATOM     28  C   UNL     1      -1.981  14.024  12.360  0.00  0.00    +0.277 C 
ATOM     29  C   UNL     1      -3.003  15.137  12.024  0.00  0.00    +0.110 C 
ATOM     30  C   UNL     1      -4.391  14.553  11.686  0.00  0.00    +0.143 C 
ATOM     31  C   UNL     1      -4.870  13.607  12.788  0.00  0.00    +0.133 C 
BRANCH  31  32
ATOM     32  N   UNL     1      -6.153  12.990  12.414  0.00  0.00    -0.308 N 
ATOM     33  H   UNL     1      -6.158  12.349  11.634  0.00  0.00    +0.149 HD
ATOM     34  C   UNL     1      -7.310  13.223  13.039  0.00  0.00    +0.210 C 
ATOM     35  C   UNL     1      -7.274  14.226  14.208  0.00  0.00    +0.109 C 
ATOM     36  O   UNL     1      -8.367  12.681  12.714  0.00  0.00    -0.276 OA
ENDBRANCH  31  32
BRANCH  28  37
ATOM     37  C   UNL     1      -1.598  13.269  11.070  0.00  0.00    +0.414 C 
ATOM     38  O   UNL     1      -1.044  12.172  11.135  0.00  0.00    -0.240 OA
ATOM     39  O   UNL     1      -1.843  13.756   9.966  0.00  0.00    -0.240 OA
ENDBRANCH  28  37
BRANCH  30  40
ATOM     40  O   UNL     1      -5.335  15.613  11.532  0.00  0.00    -0.390 OA
ATOM     41  H   UNL     1      -5.996  15.363  10.882  0.00  0.00    +0.210 HD
ENDBRANCH  30  40
BRANCH  28  42
ATOM     42  O   UNL     1      -0.800  14.645  12.931  0.00  0.00    -0.343 OA
ATOM     43  C   UNL     1      -0.450  15.933  12.364  0.00  0.00    +0.198 C 
ENDBRANCH  28  42
ENDBRANCH  25  26
BRANCH  25  44
ATOM     44  O   UNL     1      -4.660  12.182  15.285  0.00  0.00    -0.387 OA
ATOM     45  H   UNL     1      -4.415  13.110  15.237  0.00  0.00    +0.210 HD
ENDBRANCH  25  44
ENDBRANCH   1  25
TORSDOF 14
