REMARK VINA RESULT:    -4.771      3.556      5.947
REMARK INTER + INTRA:         -12.333
REMARK INTER:                 -10.126
REMARK INTRA:                  -2.207
REMARK UNBOUND:                -3.657
REMARK  Name = lig_assembled_88.pdb
REMARK  18 active torsions:
REMARK  status: ('A' for Active; 'I' for Inactive)
REMARK    1  A    between atoms: _2  and  _9
REMARK    2  A    between atoms: _4  and  _20
REMARK    3  A    between atoms: _5  and  _15
REMARK    4  A    between atoms: _6  and  _7
REMARK    5  A    between atoms: _6  and  _20
REMARK    6  A    between atoms: _9  and  _10
REMARK    7  A    between atoms: _16  and  _36
REMARK    8  A    between atoms: _18  and  _24
REMARK    9  A    between atoms: _19  and  _23
REMARK   10  A    between atoms: _23  and  _24
REMARK   11  A    between atoms: _26  and  _27
REMARK   12  A    between atoms: _28  and  _29
REMARK   13  A    between atoms: _30  and  _32
REMARK   14  A    between atoms: _32  and  _33
REMARK   15  A    between atoms: _32  and  _34
REMARK   16  A    between atoms: _34  and  _35
REMARK   17  A    between atoms: _34  and  _36
REMARK   18  A    between atoms: _37  and  _39
REMARK                            x       y       z     vdW  Elec       q    Type
REMARK                         _______ _______ _______ _____ _____    ______ ____
ROOT
ATOM      1  C   UNL     1      -4.718  11.477  21.113  0.00  0.00    +0.163 C 
ENDROOT
BRANCH   1   2
ATOM      2  O   UNL     1      -5.107  10.094  21.079  0.00  0.00    -0.388 OA
ATOM      3  H   UNL     1      -4.559   9.622  20.447  0.00  0.00    +0.210 HD
ENDBRANCH   1   2
BRANCH   1   4
ATOM      4  C   UNL     1      -3.383  11.654  21.856  0.00  0.00    +0.175 C 
BRANCH   4   5
ATOM      5  C   UNL     1      -3.586  11.892  23.360  0.00  0.00    +0.176 C 
ATOM      6  O   UNL     1      -4.023  10.640  23.956  0.00  0.00    -0.332 OA
ATOM      7  C   UNL     1      -4.167  10.648  25.415  0.00  0.00    +0.277 C 
ATOM      8  C   UNL     1      -5.107  11.796  25.859  0.00  0.00    +0.110 C 
ATOM      9  C   UNL     1      -4.700  13.143  25.225  0.00  0.00    +0.143 C 
ATOM     10  C   UNL     1      -4.577  13.019  23.706  0.00  0.00    +0.133 C 
BRANCH  10  11
ATOM     11  N   UNL     1      -4.105  14.285  23.123  0.00  0.00    -0.308 N 
ATOM     12  H   UNL     1      -3.153  14.565  23.311  0.00  0.00    +0.149 HD
ATOM     13  C   UNL     1      -4.853  15.087  22.360  0.00  0.00    +0.210 C 
ATOM     14  C   UNL     1      -6.307  14.645  22.113  0.00  0.00    +0.109 C 
ATOM     15  O   UNL     1      -4.426  16.134  21.873  0.00  0.00    -0.276 OA
ENDBRANCH  10  11
BRANCH   7  16
ATOM     16  C   UNL     1      -2.794  10.812  26.099  0.00  0.00    +0.414 C 
ATOM     17  O   UNL     1      -2.701  11.420  27.165  0.00  0.00    -0.240 OA
ATOM     18  O   UNL     1      -1.780  10.337  25.586  0.00  0.00    -0.240 OA
ENDBRANCH   7  16
BRANCH   7  19
ATOM     19  O   UNL     1      -4.764   9.388  25.814  0.00  0.00    -0.343 OA
ATOM     20  C   UNL     1      -5.058   8.477  24.725  0.00  0.00    +0.198 C 
ENDBRANCH   7  19
BRANCH   9  21
ATOM     21  O   UNL     1      -5.677  14.137  25.538  0.00  0.00    -0.390 OA
ATOM     22  H   UNL     1      -6.464  13.990  25.009  0.00  0.00    +0.210 HD
ENDBRANCH   9  21
ENDBRANCH   4   5
BRANCH   4  23
ATOM     23  O   UNL     1      -2.633  12.741  21.278  0.00  0.00    -0.387 OA
ATOM     24  H   UNL     1      -3.192  13.226  20.666  0.00  0.00    +0.210 HD
ENDBRANCH   4  23
ENDBRANCH   1   4
BRANCH   1  25
ATOM     25  C   UNL     1      -4.587  12.017  19.693  0.00  0.00    +0.141 C 
BRANCH  25  28
ATOM     26  C   UNL     1      -5.147  11.227  17.420  0.00  0.00    +0.401 C 
ATOM     27  O   UNL     1      -5.305  12.362  16.963  0.00  0.00    -0.226 OA
ATOM     28  N   UNL     1      -4.817  10.973  18.687  0.00  0.00    -0.279 N 
ATOM     29  H   UNL     1      -4.720  10.008  18.970  0.00  0.00    +0.152 HD
BRANCH  26  30
ATOM     30  O   UNL     1      -5.329  10.100  16.559  0.00  0.00    -0.444 OA
BRANCH  30  31
ATOM     31  C   UNL     1      -4.060   9.501  16.282  0.00  0.00    +0.292 C 
BRANCH  31  33
ATOM     32  N   UNL     1      -2.270   9.689  14.582  0.00  0.00    -0.131 NA
ATOM     33  C   UNL     1      -3.566   9.924  14.958  0.00  0.00    +0.120 A 
ATOM     34  C   UNL     1      -4.217  10.588  13.942  0.00  0.00    +0.137 A 
ATOM     35  N   UNL     1      -3.242  10.792  13.009  0.00  0.00    -0.247 N 
ATOM     36  N   UNL     1      -2.087  10.206  13.374  0.00  0.00    -0.065 NA
BRANCH  35  37
ATOM     37  C   UNL     1      -3.316  11.587  11.793  0.00  0.00    +0.184 C 
BRANCH  37  38
ATOM     38  C   UNL     1      -3.016  13.055  12.020  0.00  0.00    +0.017 A 
ATOM     39  C   UNL     1      -4.030  14.010  12.229  0.00  0.00    +0.024 A 
ATOM     40  C   UNL     1      -3.715  15.357  12.435  0.00  0.00    +0.019 A 
ATOM     41 BR   UNL     1      -5.107  16.617  12.663  0.00  0.00    -0.050 Br
ATOM     42  C   UNL     1      -2.391  15.782  12.471  0.00  0.00    +0.034 A 
ATOM     43  C   UNL     1      -1.376  14.842  12.313  0.00  0.00    +0.061 A 
ATOM     44 BR   UNL     1       0.427  15.419  12.400  0.00  0.00    -0.046 Br
ATOM     45  C   UNL     1      -1.686  13.492  12.095  0.00  0.00    +0.136 A 
BRANCH  45  46
ATOM     46  O   UNL     1      -0.695  12.556  11.953  0.00  0.00    -0.505 OA
ATOM     47  H   UNL     1      -0.729  12.228  11.035  0.00  0.00    +0.292 HD
ENDBRANCH  45  46
ENDBRANCH  37  38
ENDBRANCH  35  37
ENDBRANCH  31  33
ENDBRANCH  30  31
ENDBRANCH  26  30
ENDBRANCH  25  28
ENDBRANCH   1  25
TORSDOF 16
