REMARK VINA RESULT:    -5.133      2.156      2.828
REMARK INTER + INTRA:         -10.720
REMARK INTER:                  -8.139
REMARK INTRA:                  -2.581
REMARK UNBOUND:                -1.837
REMARK  Name = lig_assembled_2.pdb
REMARK  16 active torsions:
REMARK  status: ('A' for Active; 'I' for Inactive)
REMARK    1  A    between atoms: _2  and  _9
REMARK    2  A    between atoms: _4  and  _18
REMARK    3  A    between atoms: _6  and  _7
REMARK    4  A    between atoms: _6  and  _18
REMARK    5  A    between atoms: _14  and  _34
REMARK    6  A    between atoms: _16  and  _22
REMARK    7  A    between atoms: _17  and  _21
REMARK    8  A    between atoms: _21  and  _22
REMARK    9  A    between atoms: _24  and  _25
REMARK   10  A    between atoms: _26  and  _27
REMARK   11  A    between atoms: _28  and  _30
REMARK   12  A    between atoms: _30  and  _31
REMARK   13  A    between atoms: _30  and  _32
REMARK   14  A    between atoms: _32  and  _33
REMARK   15  A    between atoms: _32  and  _34
REMARK   16  A    between atoms: _35  and  _37
REMARK                            x       y       z     vdW  Elec       q    Type
REMARK                         _______ _______ _______ _____ _____    ______ ____
ROOT
ATOM      1  C   UNL     1      -3.359  10.260  13.125  0.00  0.00    +0.163 C 
ENDROOT
BRANCH   1   2
ATOM      2  O   UNL     1      -1.989   9.828  13.154  0.00  0.00    -0.388 OA
ATOM      3  H   UNL     1      -1.471  10.365  12.550  0.00  0.00    +0.210 HD
ENDBRANCH   1   2
BRANCH   1   4
ATOM      4  C   UNL     1      -4.281   9.096  13.473  0.00  0.00    +0.141 C 
BRANCH   4   7
ATOM      5  C   UNL     1      -6.418   9.815  14.485  0.00  0.00    +0.401 C 
ATOM      6  O   UNL     1      -6.983   9.980  13.401  0.00  0.00    -0.226 OA
ATOM      7  N   UNL     1      -5.153   9.409  14.611  0.00  0.00    -0.279 N 
ATOM      8  H   UNL     1      -4.775   9.312  15.543  0.00  0.00    +0.152 HD
BRANCH   5   9
ATOM      9  O   UNL     1      -7.140  10.071  15.692  0.00  0.00    -0.444 OA
BRANCH   9  10
ATOM     10  C   UNL     1      -6.508   9.392  16.780  0.00  0.00    +0.292 C 
BRANCH  10  12
ATOM     11  N   UNL     1      -6.491  11.662  17.765  0.00  0.00    -0.131 NA
ATOM     12  C   UNL     1      -6.088  10.359  17.812  0.00  0.00    +0.121 A 
ATOM     13  C   UNL     1      -5.299  10.173  18.924  0.00  0.00    +0.143 A 
ATOM     14  N   UNL     1      -5.270  11.399  19.549  0.00  0.00    -0.220 N 
ATOM     15  N   UNL     1      -5.985  12.289  18.818  0.00  0.00    -0.060 NA
BRANCH  14  16
ATOM     16  C   UNL     1      -4.649  11.757  20.774  0.00  0.00    +0.067 A 
ATOM     17  C   UNL     1      -3.668  10.938  21.351  0.00  0.00    +0.029 A 
ATOM     18  C   UNL     1      -3.095  11.290  22.578  0.00  0.00    +0.022 A 
ATOM     19  C   UNL     1      -3.497  12.455  23.227  0.00  0.00    +0.041 A 
ATOM     20 CL   UNL     1      -2.803  12.868  24.746  0.00  0.00    -0.084 Cl
ATOM     21  C   UNL     1      -4.460  13.283  22.656  0.00  0.00    +0.022 A 
ATOM     22  C   UNL     1      -5.036  12.938  21.429  0.00  0.00    +0.029 A 
ENDBRANCH  14  16
ENDBRANCH  10  12
ENDBRANCH   9  10
ENDBRANCH   5   9
ENDBRANCH   4   7
ENDBRANCH   1   4
BRANCH   1  23
ATOM     23  C   UNL     1      -3.732  10.815  11.739  0.00  0.00    +0.175 C 
BRANCH  23  24
ATOM     24  C   UNL     1      -3.159  12.220  11.506  0.00  0.00    +0.176 C 
ATOM     25  O   UNL     1      -1.773  12.076  11.091  0.00  0.00    -0.332 OA
ATOM     26  C   UNL     1      -1.090  13.318  10.720  0.00  0.00    +0.277 C 
ATOM     27  C   UNL     1      -1.187  14.353  11.868  0.00  0.00    +0.110 C 
ATOM     28  C   UNL     1      -2.638  14.518  12.364  0.00  0.00    +0.143 C 
ATOM     29  C   UNL     1      -3.254  13.164  12.720  0.00  0.00    +0.133 C 
BRANCH  29  30
ATOM     30  N   UNL     1      -4.664  13.325  13.109  0.00  0.00    -0.308 N 
ATOM     31  H   UNL     1      -5.331  13.542  12.382  0.00  0.00    +0.149 HD
ATOM     32  C   UNL     1      -5.118  13.203  14.359  0.00  0.00    +0.210 C 
ATOM     33  C   UNL     1      -4.072  12.898  15.447  0.00  0.00    +0.109 C 
ATOM     34  O   UNL     1      -6.308  13.329  14.653  0.00  0.00    -0.276 OA
ENDBRANCH  29  30
BRANCH  26  35
ATOM     35  C   UNL     1      -1.700  13.915   9.435  0.00  0.00    +0.414 C 
ATOM     36  O   UNL     1      -1.836  15.132   9.320  0.00  0.00    -0.240 OA
ATOM     37  O   UNL     1      -2.055  13.180   8.513  0.00  0.00    -0.240 OA
ENDBRANCH  26  35
BRANCH  28  38
ATOM     38  O   UNL     1      -2.660  15.362  13.516  0.00  0.00    -0.390 OA
ATOM     39  H   UNL     1      -2.051  15.021  14.175  0.00  0.00    +0.210 HD
ENDBRANCH  28  38
BRANCH  26  40
ATOM     40  O   UNL     1       0.311  13.011  10.498  0.00  0.00    -0.343 OA
ATOM     41  C   UNL     1       1.229  14.095  10.787  0.00  0.00    +0.198 C 
ENDBRANCH  26  40
ENDBRANCH  23  24
BRANCH  23  42
ATOM     42  O   UNL     1      -5.165  10.829  11.579  0.00  0.00    -0.387 OA
ATOM     43  H   UNL     1      -5.575  11.126  12.395  0.00  0.00    +0.210 HD
ENDBRANCH  23  42
ENDBRANCH   1  23
TORSDOF 14
