REMARK VINA RESULT:    -4.321      2.372      5.105
REMARK INTER + INTRA:         -10.410
REMARK INTER:                  -7.697
REMARK INTRA:                  -2.713
REMARK UNBOUND:                -2.299
REMARK  Name = lig_assembled_32.pdb
REMARK  19 active torsions:
REMARK  status: ('A' for Active; 'I' for Inactive)
REMARK    1  A    between atoms: _2  and  _9
REMARK    2  A    between atoms: _4  and  _17
REMARK    3  A    between atoms: _5  and  _10
REMARK    4  A    between atoms: _5  and  _11
REMARK    5  A    between atoms: _6  and  _7
REMARK    6  A    between atoms: _6  and  _17
REMARK    7  A    between atoms: _9  and  _10
REMARK    8  A    between atoms: _13  and  _33
REMARK    9  A    between atoms: _15  and  _21
REMARK   10  A    between atoms: _16  and  _20
REMARK   11  A    between atoms: _20  and  _21
REMARK   12  A    between atoms: _23  and  _24
REMARK   13  A    between atoms: _25  and  _26
REMARK   14  A    between atoms: _27  and  _29
REMARK   15  A    between atoms: _29  and  _30
REMARK   16  A    between atoms: _29  and  _31
REMARK   17  A    between atoms: _31  and  _32
REMARK   18  A    between atoms: _31  and  _33
REMARK   19  A    between atoms: _34  and  _36
REMARK                            x       y       z     vdW  Elec       q    Type
REMARK                         _______ _______ _______ _____ _____    ______ ____
ROOT
ATOM      1  C   UNL     1      -3.166  12.189  25.630  0.00  0.00    +0.163 C 
ENDROOT
BRANCH   1   2
ATOM      2  O   UNL     1      -2.991  13.017  24.468  0.00  0.00    -0.388 OA
ATOM      3  H   UNL     1      -2.074  13.294  24.407  0.00  0.00    +0.210 HD
ENDBRANCH   1   2
BRANCH   1   4
ATOM      4  C   UNL     1      -4.477  11.388  25.542  0.00  0.00    +0.175 C 
BRANCH   4   5
ATOM      5  C   UNL     1      -4.672  10.748  24.160  0.00  0.00    +0.176 C 
ATOM      6  O   UNL     1      -5.279  11.741  23.289  0.00  0.00    -0.332 OA
ATOM      7  C   UNL     1      -5.445  11.339  21.889  0.00  0.00    +0.277 C 
ATOM      8  C   UNL     1      -6.234  10.010  21.797  0.00  0.00    +0.110 C 
ATOM      9  C   UNL     1      -5.644   8.932  22.731  0.00  0.00    +0.143 C 
ATOM     10  C   UNL     1      -5.512   9.458  24.161  0.00  0.00    +0.133 C 
BRANCH  10  11
ATOM     11  N   UNL     1      -4.869   8.452  25.022  0.00  0.00    -0.308 N 
ATOM     12  H   UNL     1      -3.909   8.207  24.824  0.00  0.00    +0.149 HD
ATOM     13  C   UNL     1      -5.471   7.844  26.047  0.00  0.00    +0.210 C 
ATOM     14  C   UNL     1      -6.941   8.221  26.307  0.00  0.00    +0.109 C 
ATOM     15  O   UNL     1      -4.903   7.016  26.761  0.00  0.00    -0.276 OA
ENDBRANCH  10  11
BRANCH   7  16
ATOM     16  C   UNL     1      -4.074  11.174  21.201  0.00  0.00    +0.414 C 
ATOM     17  O   UNL     1      -3.126  11.887  21.528  0.00  0.00    -0.240 OA
ATOM     18  O   UNL     1      -3.916  10.327  20.321  0.00  0.00    -0.240 OA
ENDBRANCH   7  16
BRANCH   7  19
ATOM     19  O   UNL     1      -6.209  12.372  21.213  0.00  0.00    -0.343 OA
ATOM     20  C   UNL     1      -6.118  13.690  21.811  0.00  0.00    +0.198 C 
ENDBRANCH   7  19
BRANCH   9  21
ATOM     21  O   UNL     1      -6.487   7.779  22.729  0.00  0.00    -0.390 OA
ATOM     22  H   UNL     1      -6.042   7.057  22.280  0.00  0.00    +0.210 HD
ENDBRANCH   9  21
ENDBRANCH   4   5
BRANCH   4  23
ATOM     23  O   UNL     1      -5.598  12.236  25.860  0.00  0.00    -0.387 OA
ATOM     24  H   UNL     1      -6.117  12.392  25.067  0.00  0.00    +0.210 HD
ENDBRANCH   4  23
ENDBRANCH   1   4
BRANCH   1  25
ATOM     25  C   UNL     1      -1.990  11.227  25.767  0.00  0.00    +0.141 C 
BRANCH  25  28
ATOM     26  C   UNL     1      -1.939   9.254  27.253  0.00  0.00    +0.401 C 
ATOM     27  O   UNL     1      -1.942   8.439  26.327  0.00  0.00    -0.226 OA
ATOM     28  N   UNL     1      -1.966  10.576  27.082  0.00  0.00    -0.279 N 
ATOM     29  H   UNL     1      -1.971  11.163  27.905  0.00  0.00    +0.152 HD
BRANCH  26  30
ATOM     30  O   UNL     1      -1.908   8.774  28.599  0.00  0.00    -0.444 OA
BRANCH  30  31
ATOM     31  C   UNL     1      -3.235   8.763  29.133  0.00  0.00    +0.292 C 
BRANCH  31  33
ATOM     32  N   UNL     1      -2.640  10.161  31.087  0.00  0.00    -0.131 NA
ATOM     33  C   UNL     1      -3.448   9.935  30.003  0.00  0.00    +0.120 A 
ATOM     34  C   UNL     1      -4.392  10.935  29.929  0.00  0.00    +0.137 A 
ATOM     35  N   UNL     1      -4.113  11.727  31.000  0.00  0.00    -0.251 N 
ATOM     36  N   UNL     1      -3.060  11.262  31.694  0.00  0.00    -0.065 NA
BRANCH  35  37
ATOM     37  C   UNL     1      -4.789  12.932  31.424  0.00  0.00    +0.156 C 
BRANCH  37  38
ATOM     38  C   UNL     1      -4.417  14.129  30.560  0.00  0.00    +0.143 C 
BRANCH  38  39
ATOM     39  C   UNL     1      -3.194  14.805  31.112  0.00  0.00    +0.306 C 
ATOM     40  O   UNL     1      -3.206  15.809  31.805  0.00  0.00    -0.251 OA
BRANCH  39  41
ATOM     41  O   UNL     1      -2.048  14.190  30.746  0.00  0.00    -0.481 OA
ATOM     42  H   UNL     1      -2.178  13.379  30.217  0.00  0.00    +0.295 HD
ENDBRANCH  39  41
ENDBRANCH  38  39
ENDBRANCH  37  38
ENDBRANCH  35  37
ENDBRANCH  31  33
ENDBRANCH  30  31
ENDBRANCH  26  30
ENDBRANCH  25  28
ENDBRANCH   1  25
TORSDOF 17
