REMARK VINA RESULT:    -4.417      4.288     10.633
REMARK INTER + INTRA:         -12.260
REMARK INTER:                  -8.563
REMARK INTRA:                  -3.696
REMARK UNBOUND:                -3.581
REMARK  Name = lig_assembled_31.pdb
REMARK  20 active torsions:
REMARK  status: ('A' for Active; 'I' for Inactive)
REMARK    1  A    between atoms: _2  and  _11
REMARK    2  A    between atoms: _3  and  _12
REMARK    3  A    between atoms: _4  and  _14
REMARK    4  A    between atoms: _6  and  _24
REMARK    5  A    between atoms: _8  and  _9
REMARK    6  A    between atoms: _8  and  _24
REMARK    7  A    between atoms: _11  and  _12
REMARK    8  A    between atoms: _14  and  _15
REMARK    9  A    between atoms: _20  and  _40
REMARK   10  A    between atoms: _22  and  _28
REMARK   11  A    between atoms: _23  and  _27
REMARK   12  A    between atoms: _27  and  _28
REMARK   13  A    between atoms: _30  and  _31
REMARK   14  A    between atoms: _32  and  _33
REMARK   15  A    between atoms: _34  and  _36
REMARK   16  A    between atoms: _36  and  _37
REMARK   17  A    between atoms: _36  and  _38
REMARK   18  A    between atoms: _38  and  _39
REMARK   19  A    between atoms: _38  and  _40
REMARK   20  A    between atoms: _41  and  _43
REMARK                            x       y       z     vdW  Elec       q    Type
REMARK                         _______ _______ _______ _____ _____    ______ ____
ROOT
ATOM      1  C   UNL     1      -4.338  14.193  22.466  0.00  0.00    +0.401 C 
ATOM      2  O   UNL     1      -3.564  15.147  22.364  0.00  0.00    -0.226 OA
ATOM      3  N   UNL     1      -4.167  13.182  23.319  0.00  0.00    -0.279 N 
ATOM      4  H   UNL     1      -4.863  12.449  23.335  0.00  0.00    +0.152 HD
ENDROOT
BRANCH   1   5
ATOM      5  O   UNL     1      -5.500  14.149  21.634  0.00  0.00    -0.444 OA
BRANCH   5   6
ATOM      6  C   UNL     1      -6.117  12.864  21.741  0.00  0.00    +0.292 C 
BRANCH   6   8
ATOM      7  N   UNL     1      -4.586  11.514  20.341  0.00  0.00    -0.131 NA
ATOM      8  C   UNL     1      -5.828  12.052  20.542  0.00  0.00    +0.120 A 
ATOM      9  C   UNL     1      -6.645  11.700  19.491  0.00  0.00    +0.137 A 
ATOM     10  N   UNL     1      -5.837  10.958  18.682  0.00  0.00    -0.250 N 
ATOM     11  N   UNL     1      -4.603  10.843  19.196  0.00  0.00    -0.065 NA
BRANCH  10  12
ATOM     12  C   UNL     1      -6.166  10.337  17.415  0.00  0.00    +0.164 C 
BRANCH  12  13
ATOM     13  C   UNL     1      -4.969   9.607  16.828  0.00  0.00    +0.129 C 
BRANCH  13  14
ATOM     14  N   UNL     1      -3.910  10.476  16.330  0.00  0.00    -0.298 N 
ATOM     15  H   UNL     1      -3.389  11.068  16.961  0.00  0.00    +0.150 HD
ATOM     16  C   UNL     1      -3.912  10.806  15.000  0.00  0.00    +0.300 C 
ATOM     17  O   UNL     1      -4.706  10.322  14.197  0.00  0.00    -0.253 OA
ATOM     18  N   UNL     1      -2.945  11.692  14.639  0.00  0.00    -0.292 N 
ATOM     19  H   UNL     1      -2.319  12.120  15.307  0.00  0.00    +0.151 HD
BRANCH  18  20
ATOM     20  C   UNL     1      -2.860  12.097  13.256  0.00  0.00    +0.180 C 
BRANCH  20  21
ATOM     21  C   UNL     1      -2.528  13.534  13.083  0.00  0.00    +0.122 A 
ATOM     22  O   UNL     1      -1.463  13.879  12.298  0.00  0.00    -0.466 OA
ATOM     23  C   UNL     1      -1.389  15.239  12.315  0.00  0.00    +0.195 A 
ATOM     24  C   UNL     1      -2.386  15.773  13.098  0.00  0.00    +0.041 A 
ATOM     25  C   UNL     1      -3.122  14.673  13.595  0.00  0.00    +0.046 A 
ENDBRANCH  20  21
ENDBRANCH  18  20
ENDBRANCH  13  14
ENDBRANCH  12  13
ENDBRANCH  10  12
ENDBRANCH   6   8
ENDBRANCH   5   6
ENDBRANCH   1   5
BRANCH   3  26
ATOM     26  C   UNL     1      -3.024  13.072  24.234  0.00  0.00    +0.141 C 
BRANCH  26  27
ATOM     27  C   UNL     1      -2.726  11.622  24.600  0.00  0.00    +0.163 C 
BRANCH  27  28
ATOM     28  O   UNL     1      -2.764  11.458  26.027  0.00  0.00    -0.388 OA
ATOM     29  H   UNL     1      -3.015  10.556  26.240  0.00  0.00    +0.210 HD
ENDBRANCH  27  28
BRANCH  27  30
ATOM     30  C   UNL     1      -3.746  10.698  23.913  0.00  0.00    +0.175 C 
BRANCH  30  31
ATOM     31  C   UNL     1      -4.120   9.495  24.792  0.00  0.00    +0.176 C 
ATOM     32  O   UNL     1      -2.886   8.879  25.254  0.00  0.00    -0.332 OA
ATOM     33  C   UNL     1      -3.047   7.769  26.198  0.00  0.00    +0.277 C 
ATOM     34  C   UNL     1      -3.984   6.687  25.607  0.00  0.00    +0.110 C 
ATOM     35  C   UNL     1      -5.296   7.300  25.073  0.00  0.00    +0.143 C 
ATOM     36  C   UNL     1      -5.012   8.446  24.103  0.00  0.00    +0.133 C 
BRANCH  36  37
ATOM     37  N   UNL     1      -6.268   9.078  23.669  0.00  0.00    -0.308 N 
ATOM     38  H   UNL     1      -6.803   9.587  24.359  0.00  0.00    +0.149 HD
ATOM     39  C   UNL     1      -6.747   9.023  22.423  0.00  0.00    +0.210 C 
ATOM     40  C   UNL     1      -5.922   8.218  21.402  0.00  0.00    +0.109 C 
ATOM     41  O   UNL     1      -7.795   9.574  22.085  0.00  0.00    -0.276 OA
ENDBRANCH  36  37
BRANCH  33  42
ATOM     42  C   UNL     1      -3.621   8.271  27.539  0.00  0.00    +0.414 C 
ATOM     43  O   UNL     1      -3.432   9.432  27.899  0.00  0.00    -0.240 OA
ATOM     44  O   UNL     1      -4.274   7.515  28.260  0.00  0.00    -0.240 OA
ENDBRANCH  33  42
BRANCH  35  45
ATOM     45  O   UNL     1      -6.060   6.295  24.404  0.00  0.00    -0.390 OA
ATOM     46  H   UNL     1      -6.048   5.486  24.921  0.00  0.00    +0.210 HD
ENDBRANCH  35  45
BRANCH  33  47
ATOM     47  O   UNL     1      -1.743   7.173  26.417  0.00  0.00    -0.343 OA
ATOM     48  C   UNL     1      -1.709   5.726  26.339  0.00  0.00    +0.198 C 
ENDBRANCH  33  47
ENDBRANCH  30  31
BRANCH  30  49
ATOM     49  O   UNL     1      -3.231  10.246  22.645  0.00  0.00    -0.387 OA
ATOM     50  H   UNL     1      -3.777  10.592  21.935  0.00  0.00    +0.210 HD
ENDBRANCH  30  49
ENDBRANCH  27  30
ENDBRANCH  26  27
ENDBRANCH   3  26
TORSDOF 18
