REMARK VINA RESULT:    -5.114      6.082      8.900
REMARK INTER + INTRA:         -11.930
REMARK INTER:                 -10.028
REMARK INTRA:                  -1.902
REMARK UNBOUND:                -2.779
REMARK  Name = lig_assembled_39.pdb
REMARK  17 active torsions:
REMARK  status: ('A' for Active; 'I' for Inactive)
REMARK    1  A    between atoms: _2  and  _9
REMARK    2  A    between atoms: _4  and  _19
REMARK    3  A    between atoms: _6  and  _7
REMARK    4  A    between atoms: _6  and  _19
REMARK    5  A    between atoms: _9  and  _10
REMARK    6  A    between atoms: _15  and  _35
REMARK    7  A    between atoms: _17  and  _23
REMARK    8  A    between atoms: _18  and  _22
REMARK    9  A    between atoms: _22  and  _23
REMARK   10  A    between atoms: _25  and  _26
REMARK   11  A    between atoms: _27  and  _28
REMARK   12  A    between atoms: _29  and  _31
REMARK   13  A    between atoms: _31  and  _32
REMARK   14  A    between atoms: _31  and  _33
REMARK   15  A    between atoms: _33  and  _34
REMARK   16  A    between atoms: _33  and  _35
REMARK   17  A    between atoms: _36  and  _38
REMARK                            x       y       z     vdW  Elec       q    Type
REMARK                         _______ _______ _______ _____ _____    ______ ____
ROOT
ATOM      1  C   UNL     1      -3.972  11.516  21.906  0.00  0.00    +0.163 C 
ENDROOT
BRANCH   1   2
ATOM      2  O   UNL     1      -3.612  10.265  21.297  0.00  0.00    -0.388 OA
ATOM      3  H   UNL     1      -3.303  10.422  20.401  0.00  0.00    +0.210 HD
ENDBRANCH   1   2
BRANCH   1   4
ATOM      4  C   UNL     1      -4.044  12.610  20.846  0.00  0.00    +0.141 C 
BRANCH   4   7
ATOM      5  C   UNL     1      -5.594  12.060  19.001  0.00  0.00    +0.401 C 
ATOM      6  O   UNL     1      -6.590  12.496  19.583  0.00  0.00    -0.226 OA
ATOM      7  N   UNL     1      -4.365  12.068  19.520  0.00  0.00    -0.279 N 
ATOM      8  H   UNL     1      -3.613  11.678  18.969  0.00  0.00    +0.152 HD
BRANCH   5   9
ATOM      9  O   UNL     1      -5.742  11.504  17.692  0.00  0.00    -0.444 OA
BRANCH   9  10
ATOM     10  C   UNL     1      -4.545  10.810  17.330  0.00  0.00    +0.292 C 
BRANCH  10  12
ATOM     11  N   UNL     1      -2.885  10.811  15.494  0.00  0.00    -0.131 NA
ATOM     12  C   UNL     1      -3.958  11.398  16.112  0.00  0.00    +0.120 A 
ATOM     13  C   UNL     1      -4.331  12.518  15.403  0.00  0.00    +0.137 A 
ATOM     14  N   UNL     1      -3.499  12.510  14.322  0.00  0.00    -0.247 N 
ATOM     15  N   UNL     1      -2.592  11.519  14.412  0.00  0.00    -0.065 NA
BRANCH  14  16
ATOM     16  C   UNL     1      -3.555  13.362  13.143  0.00  0.00    +0.181 C 
BRANCH  16  17
ATOM     17  C   UNL     1      -2.184  13.766  12.631  0.00  0.00    -0.012 A 
ATOM     18  C   UNL     1      -1.470  14.828  13.223  0.00  0.00    +0.006 A 
ATOM     19  C   UNL     1      -0.211  15.213  12.757  0.00  0.00    +0.000 A 
ATOM     20  C   UNL     1       0.358  14.561  11.672  0.00  0.00    +0.001 A 
ATOM     21  C   UNL     1      -0.342  13.536  11.039  0.00  0.00    +0.015 A 
ATOM     22  C   UNL     1      -1.606  13.148  11.505  0.00  0.00    +0.023 A 
ATOM     23 BR   UNL     1      -2.491  11.778  10.526  0.00  0.00    -0.050 Br
ENDBRANCH  16  17
ENDBRANCH  14  16
ENDBRANCH  10  12
ENDBRANCH   9  10
ENDBRANCH   5   9
ENDBRANCH   4   7
ENDBRANCH   1   4
BRANCH   1  24
ATOM     24  C   UNL     1      -2.954  11.916  22.988  0.00  0.00    +0.175 C 
BRANCH  24  25
ATOM     25  C   UNL     1      -3.329  11.357  24.368  0.00  0.00    +0.176 C 
ATOM     26  O   UNL     1      -3.135   9.917  24.336  0.00  0.00    -0.332 OA
ATOM     27  C   UNL     1      -3.345   9.220  25.609  0.00  0.00    +0.277 C 
ATOM     28  C   UNL     1      -4.746   9.546  26.180  0.00  0.00    +0.110 C 
ATOM     29  C   UNL     1      -5.012  11.066  26.204  0.00  0.00    +0.143 C 
ATOM     30  C   UNL     1      -4.760  11.689  24.831  0.00  0.00    +0.133 C 
BRANCH  30  31
ATOM     31  N   UNL     1      -4.932  13.149  24.888  0.00  0.00    -0.308 N 
ATOM     32  H   UNL     1      -4.257  13.683  25.418  0.00  0.00    +0.149 HD
ATOM     33  C   UNL     1      -5.921  13.815  24.286  0.00  0.00    +0.210 C 
ATOM     34  C   UNL     1      -6.948  12.971  23.508  0.00  0.00    +0.109 C 
ATOM     35  O   UNL     1      -6.031  15.041  24.339  0.00  0.00    -0.276 OA
ENDBRANCH  30  31
BRANCH  27  36
ATOM     36  C   UNL     1      -2.264   9.619  26.635  0.00  0.00    +0.414 C 
ATOM     37  O   UNL     1      -2.576   9.868  27.799  0.00  0.00    -0.240 OA
ATOM     38  O   UNL     1      -1.081   9.692  26.300  0.00  0.00    -0.240 OA
ENDBRANCH  27  36
BRANCH  27  39
ATOM     39  O   UNL     1      -3.275   7.793  25.356  0.00  0.00    -0.343 OA
ATOM     40  C   UNL     1      -3.782   6.956  26.426  0.00  0.00    +0.198 C 
ENDBRANCH  27  39
BRANCH  29  41
ATOM     41  O   UNL     1      -6.364  11.313  26.593  0.00  0.00    -0.390 OA
ATOM     42  H   UNL     1      -6.932  10.630  26.229  0.00  0.00    +0.210 HD
ENDBRANCH  29  41
ENDBRANCH  24  25
BRANCH  24  43
ATOM     43  O   UNL     1      -2.831  13.351  23.049  0.00  0.00    -0.387 OA
ATOM     44  H   UNL     1      -2.791  13.707  22.158  0.00  0.00    +0.210 HD
ENDBRANCH  24  43
ENDBRANCH   1  24
TORSDOF 15
