REMARK VINA RESULT:    -4.340      2.147      2.754
REMARK INTER + INTRA:         -11.026
REMARK INTER:                  -8.055
REMARK INTRA:                  -2.970
REMARK UNBOUND:                -2.754
REMARK  Name = lig_assembled_19.pdb
REMARK  20 active torsions:
REMARK  status: ('A' for Active; 'I' for Inactive)
REMARK    1  A    between atoms: _2  and  _9
REMARK    2  A    between atoms: _4  and  _18
REMARK    3  A    between atoms: _5  and  _11
REMARK    4  A    between atoms: _6  and  _7
REMARK    5  A    between atoms: _6  and  _18
REMARK    6  A    between atoms: _9  and  _10
REMARK    7  A    between atoms: _10  and  _13
REMARK    8  A    between atoms: _11  and  _13
REMARK    9  A    between atoms: _14  and  _34
REMARK   10  A    between atoms: _16  and  _22
REMARK   11  A    between atoms: _17  and  _21
REMARK   12  A    between atoms: _21  and  _22
REMARK   13  A    between atoms: _24  and  _25
REMARK   14  A    between atoms: _26  and  _27
REMARK   15  A    between atoms: _28  and  _30
REMARK   16  A    between atoms: _30  and  _31
REMARK   17  A    between atoms: _30  and  _32
REMARK   18  A    between atoms: _32  and  _33
REMARK   19  A    between atoms: _32  and  _34
REMARK   20  A    between atoms: _35  and  _37
REMARK                            x       y       z     vdW  Elec       q    Type
REMARK                         _______ _______ _______ _____ _____    ______ ____
ROOT
ATOM      1  C   UNL     1      -5.614   8.087  24.871  0.00  0.00    +0.163 C 
ENDROOT
BRANCH   1   2
ATOM      2  O   UNL     1      -5.857   8.545  26.211  0.00  0.00    -0.388 OA
ATOM      3  H   UNL     1      -6.708   8.219  26.512  0.00  0.00    +0.210 HD
ENDBRANCH   1   2
BRANCH   1   4
ATOM      4  C   UNL     1      -5.935   9.188  23.846  0.00  0.00    +0.175 C 
BRANCH   4   5
ATOM      5  C   UNL     1      -4.932  10.349  23.912  0.00  0.00    +0.176 C 
ATOM      6  O   UNL     1      -5.305  11.199  25.031  0.00  0.00    -0.332 OA
ATOM      7  C   UNL     1      -4.391  12.310  25.315  0.00  0.00    +0.277 C 
ATOM      8  C   UNL     1      -4.181  13.175  24.048  0.00  0.00    +0.110 C 
ATOM      9  C   UNL     1      -3.814  12.311  22.823  0.00  0.00    +0.143 C 
ATOM     10  C   UNL     1      -4.828  11.185  22.622  0.00  0.00    +0.133 C 
BRANCH  10  11
ATOM     11  N   UNL     1      -4.421  10.318  21.506  0.00  0.00    -0.308 N 
ATOM     12  H   UNL     1      -3.536   9.836  21.582  0.00  0.00    +0.149 HD
ATOM     13  C   UNL     1      -5.144  10.125  20.400  0.00  0.00    +0.210 C 
ATOM     14  C   UNL     1      -6.476  10.893  20.304  0.00  0.00    +0.109 C 
ATOM     15  O   UNL     1      -4.784   9.381  19.487  0.00  0.00    -0.276 OA
ENDBRANCH  10  11
BRANCH   7  16
ATOM     16  C   UNL     1      -3.029  11.785  25.812  0.00  0.00    +0.414 C 
ATOM     17  O   UNL     1      -2.979  10.856  26.618  0.00  0.00    -0.240 OA
ATOM     18  O   UNL     1      -1.980  12.289  25.409  0.00  0.00    -0.240 OA
ENDBRANCH   7  16
BRANCH   9  19
ATOM     19  O   UNL     1      -3.779  13.127  21.652  0.00  0.00    -0.390 OA
ATOM     20  H   UNL     1      -3.256  13.914  21.824  0.00  0.00    +0.210 HD
ENDBRANCH   9  19
BRANCH   7  21
ATOM     21  O   UNL     1      -4.998  13.140  26.340  0.00  0.00    -0.343 OA
ATOM     22  C   UNL     1      -6.441  13.032  26.440  0.00  0.00    +0.198 C 
ENDBRANCH   7  21
ENDBRANCH   4   5
BRANCH   4  23
ATOM     23  O   UNL     1      -7.276   9.678  24.048  0.00  0.00    -0.387 OA
ATOM     24  H   UNL     1      -7.832   9.400  23.316  0.00  0.00    +0.210 HD
ENDBRANCH   4  23
ENDBRANCH   1   4
BRANCH   1  25
ATOM     25  C   UNL     1      -4.157   7.661  24.721  0.00  0.00    +0.141 C 
BRANCH  25  28
ATOM     26  C   UNL     1      -2.341   7.148  26.316  0.00  0.00    +0.401 C 
ATOM     27  O   UNL     1      -1.910   6.195  25.664  0.00  0.00    -0.226 OA
ATOM     28  N   UNL     1      -3.391   7.886  25.953  0.00  0.00    -0.279 N 
ATOM     29  H   UNL     1      -3.676   8.642  26.559  0.00  0.00    +0.152 HD
BRANCH  26  30
ATOM     30  O   UNL     1      -1.695   7.501  27.542  0.00  0.00    -0.444 OA
BRANCH  30  31
ATOM     31  C   UNL     1      -2.543   7.165  28.643  0.00  0.00    +0.292 C 
BRANCH  31  33
ATOM     32  N   UNL     1      -4.459   8.721  28.867  0.00  0.00    -0.131 NA
ATOM     33  C   UNL     1      -3.173   8.378  29.196  0.00  0.00    +0.120 A 
ATOM     34  C   UNL     1      -2.665   9.319  30.063  0.00  0.00    +0.137 A 
ATOM     35  N   UNL     1      -3.685  10.210  30.211  0.00  0.00    -0.248 N 
ATOM     36  N   UNL     1      -4.763   9.848  29.497  0.00  0.00    -0.065 NA
BRANCH  35  37
ATOM     37  C   UNL     1      -3.705  11.410  31.019  0.00  0.00    +0.186 C 
BRANCH  37  38
ATOM     38  C   UNL     1      -2.817  11.278  32.252  0.00  0.00    +0.255 C 
BRANCH  38  39
ATOM     39  O   UNL     1      -1.897  12.380  32.381  0.00  0.00    -0.463 OA
BRANCH  39  40
ATOM     40  C   UNL     1      -2.357  13.464  33.059  0.00  0.00    +0.304 C 
ATOM     41  O   UNL     1      -2.306  14.617  32.652  0.00  0.00    -0.251 OA
ATOM     42  C   UNL     1      -2.969  13.059  34.365  0.00  0.00    +0.136 C 
ENDBRANCH  39  40
ENDBRANCH  38  39
ENDBRANCH  37  38
ENDBRANCH  35  37
ENDBRANCH  31  33
ENDBRANCH  30  31
ENDBRANCH  26  30
ENDBRANCH  25  28
ENDBRANCH   1  25
TORSDOF 17
