REMARK VINA RESULT:    -3.754      3.214     10.677
REMARK INTER + INTRA:         -10.643
REMARK INTER:                  -7.260
REMARK INTRA:                  -3.383
REMARK UNBOUND:                -3.049
REMARK  Name = lig_assembled_45.pdb
REMARK  24 active torsions:
REMARK  status: ('A' for Active; 'I' for Inactive)
REMARK    1  A    between atoms: _2  and  _10
REMARK    2  A    between atoms: _3  and  _12
REMARK    3  A    between atoms: _3  and  _13
REMARK    4  A    between atoms: _3  and  _14
REMARK    5  A    between atoms: _3  and  _16
REMARK    6  A    between atoms: _5  and  _21
REMARK    7  A    between atoms: _6  and  _16
REMARK    8  A    between atoms: _7  and  _8
REMARK    9  A    between atoms: _7  and  _21
REMARK   10  A    between atoms: _10  and  _11
REMARK   11  A    between atoms: _11  and  _12
REMARK   12  A    between atoms: _14  and  _15
REMARK   13  A    between atoms: _17  and  _37
REMARK   14  A    between atoms: _19  and  _25
REMARK   15  A    between atoms: _20  and  _24
REMARK   16  A    between atoms: _24  and  _25
REMARK   17  A    between atoms: _27  and  _28
REMARK   18  A    between atoms: _29  and  _30
REMARK   19  A    between atoms: _31  and  _33
REMARK   20  A    between atoms: _33  and  _34
REMARK   21  A    between atoms: _33  and  _35
REMARK   22  A    between atoms: _35  and  _36
REMARK   23  A    between atoms: _35  and  _37
REMARK   24  A    between atoms: _38  and  _40
REMARK                            x       y       z     vdW  Elec       q    Type
REMARK                         _______ _______ _______ _____ _____    ______ ____
ROOT
ATOM      1  C   UNL     1      -4.857   8.141  22.525  0.00  0.00    +0.163 C 
ENDROOT
BRANCH   1   2
ATOM      2  O   UNL     1      -5.049   7.366  21.330  0.00  0.00    -0.388 OA
ATOM      3  H   UNL     1      -5.227   6.453  21.565  0.00  0.00    +0.210 HD
ENDBRANCH   1   2
BRANCH   1   4
ATOM      4  C   UNL     1      -5.588   9.492  22.428  0.00  0.00    +0.175 C 
BRANCH   4   5
ATOM      5  C   UNL     1      -4.734  10.650  22.965  0.00  0.00    +0.176 C 
ATOM      6  O   UNL     1      -5.129  10.895  24.343  0.00  0.00    -0.332 OA
ATOM      7  C   UNL     1      -4.343  11.905  25.057  0.00  0.00    +0.277 C 
ATOM      8  C   UNL     1      -4.333  13.239  24.271  0.00  0.00    +0.110 C 
ATOM      9  C   UNL     1      -3.949  13.025  22.792  0.00  0.00    +0.143 C 
ATOM     10  C   UNL     1      -4.827  11.952  22.147  0.00  0.00    +0.133 C 
BRANCH  10  11
ATOM     11  N   UNL     1      -4.396  11.695  20.764  0.00  0.00    -0.308 N 
ATOM     12  H   UNL     1      -3.447  11.380  20.617  0.00  0.00    +0.149 HD
ATOM     13  C   UNL     1      -5.175  11.851  19.691  0.00  0.00    +0.210 C 
ATOM     14  C   UNL     1      -6.608  12.357  19.947  0.00  0.00    +0.109 C 
ATOM     15  O   UNL     1      -4.791  11.614  18.545  0.00  0.00    -0.276 OA
ENDBRANCH  10  11
BRANCH   7  16
ATOM     16  C   UNL     1      -2.894  11.420  25.270  0.00  0.00    +0.414 C 
ATOM     17  O   UNL     1      -1.977  12.234  25.380  0.00  0.00    -0.240 OA
ATOM     18  O   UNL     1      -2.641  10.216  25.331  0.00  0.00    -0.240 OA
ENDBRANCH   7  16
BRANCH   9  19
ATOM     19  O   UNL     1      -4.099  14.250  22.073  0.00  0.00    -0.390 OA
ATOM     20  H   UNL     1      -4.981  14.295  21.697  0.00  0.00    +0.210 HD
ENDBRANCH   9  19
BRANCH   7  21
ATOM     21  O   UNL     1      -4.974  12.137  26.343  0.00  0.00    -0.343 OA
ATOM     22  C   UNL     1      -6.405  11.906  26.374  0.00  0.00    +0.198 C 
ENDBRANCH   7  21
ENDBRANCH   4   5
BRANCH   4  23
ATOM     23  O   UNL     1      -6.842   9.429  23.135  0.00  0.00    -0.387 OA
ATOM     24  H   UNL     1      -7.560   9.647  22.535  0.00  0.00    +0.210 HD
ENDBRANCH   4  23
ENDBRANCH   1   4
BRANCH   1  25
ATOM     25  C   UNL     1      -5.372   7.369  23.735  0.00  0.00    +0.141 C 
BRANCH  25  28
ATOM     26  C   UNL     1      -5.272   8.182  26.066  0.00  0.00    +0.401 C 
ATOM     27  O   UNL     1      -6.492   8.332  26.166  0.00  0.00    -0.226 OA
ATOM     28  N   UNL     1      -4.662   7.743  24.965  0.00  0.00    -0.279 N 
ATOM     29  H   UNL     1      -3.655   7.662  24.977  0.00  0.00    +0.152 HD
BRANCH  26  30
ATOM     30  O   UNL     1      -4.440   8.497  27.186  0.00  0.00    -0.444 OA
BRANCH  30  31
ATOM     31  C   UNL     1      -5.258   8.813  28.315  0.00  0.00    +0.292 C 
BRANCH  31  33
ATOM     32  N   UNL     1      -3.193   9.875  29.186  0.00  0.00    -0.131 NA
ATOM     33  C   UNL     1      -4.428   9.332  29.418  0.00  0.00    +0.120 A 
ATOM     34  C   UNL     1      -4.690   9.372  30.769  0.00  0.00    +0.137 A 
ATOM     35  N   UNL     1      -3.574   9.952  31.290  0.00  0.00    -0.251 N 
ATOM     36  N   UNL     1      -2.675  10.248  30.349  0.00  0.00    -0.065 NA
BRANCH  35  37
ATOM     37  C   UNL     1      -3.298  10.226  32.686  0.00  0.00    +0.150 C 
BRANCH  37  38
ATOM     38  C   UNL     1      -4.144  11.362  33.244  0.00  0.00    +0.074 C 
BRANCH  38  39
ATOM     39  C   UNL     1      -3.601  12.786  33.058  0.00  0.00    +0.134 C 
BRANCH  39  40
ATOM     40  N   UNL     1      -4.434  13.779  32.181  0.00  0.00    +0.241 N 
ATOM     41  C   UNL     1      -5.898  13.310  32.157  0.00  0.00    +0.192 C 
BRANCH  40  42
ATOM     42  C   UNL     1      -3.854  13.666  30.732  0.00  0.00    +0.129 C 
ATOM     43  C   UNL     1      -4.848  13.131  29.707  0.00  0.00    +0.060 C 
ENDBRANCH  40  42
BRANCH  40  44
ATOM     44  C   UNL     1      -4.387  15.246  32.646  0.00  0.00    +0.129 C 
ATOM     45  C   UNL     1      -3.929  16.225  31.577  0.00  0.00    +0.060 C 
ENDBRANCH  40  44
ENDBRANCH  39  40
ENDBRANCH  38  39
ENDBRANCH  37  38
ENDBRANCH  35  37
ENDBRANCH  31  33
ENDBRANCH  30  31
ENDBRANCH  26  30
ENDBRANCH  25  28
ENDBRANCH   1  25
TORSDOF 19
