REMARK VINA RESULT:    -4.703      3.434      6.540
REMARK INTER + INTRA:         -11.628
REMARK INTER:                  -8.921
REMARK INTRA:                  -2.706
REMARK UNBOUND:                -3.213
REMARK  Name = lig_assembled_46.pdb
REMARK  17 active torsions:
REMARK  status: ('A' for Active; 'I' for Inactive)
REMARK    1  A    between atoms: _2  and  _9
REMARK    2  A    between atoms: _4  and  _19
REMARK    3  A    between atoms: _6  and  _7
REMARK    4  A    between atoms: _6  and  _19
REMARK    5  A    between atoms: _9  and  _10
REMARK    6  A    between atoms: _15  and  _35
REMARK    7  A    between atoms: _17  and  _23
REMARK    8  A    between atoms: _18  and  _22
REMARK    9  A    between atoms: _22  and  _23
REMARK   10  A    between atoms: _25  and  _26
REMARK   11  A    between atoms: _27  and  _28
REMARK   12  A    between atoms: _29  and  _31
REMARK   13  A    between atoms: _31  and  _32
REMARK   14  A    between atoms: _31  and  _33
REMARK   15  A    between atoms: _33  and  _34
REMARK   16  A    between atoms: _33  and  _35
REMARK   17  A    between atoms: _36  and  _38
REMARK                            x       y       z     vdW  Elec       q    Type
REMARK                         _______ _______ _______ _____ _____    ______ ____
ROOT
ATOM      1  C   UNL     1      -3.284  10.316  30.929  0.00  0.00    +0.163 C 
ENDROOT
BRANCH   1   2
ATOM      2  O   UNL     1      -2.189  11.097  31.434  0.00  0.00    -0.388 OA
ATOM      3  H   UNL     1      -2.438  12.024  31.452  0.00  0.00    +0.210 HD
ENDBRANCH   1   2
BRANCH   1   4
ATOM      4  C   UNL     1      -2.755   9.086  30.199  0.00  0.00    +0.141 C 
BRANCH   4   7
ATOM      5  C   UNL     1      -2.087   8.471  27.901  0.00  0.00    +0.401 C 
ATOM      6  O   UNL     1      -1.449   7.476  28.252  0.00  0.00    -0.226 OA
ATOM      7  N   UNL     1      -2.724   9.284  28.745  0.00  0.00    -0.279 N 
ATOM      8  H   UNL     1      -3.213  10.081  28.362  0.00  0.00    +0.152 HD
BRANCH   5   9
ATOM      9  O   UNL     1      -2.159   8.795  26.510  0.00  0.00    -0.444 OA
BRANCH   9  10
ATOM     10  C   UNL     1      -2.940   9.981  26.335  0.00  0.00    +0.292 C 
BRANCH  10  12
ATOM     11  N   UNL     1      -3.423   9.437  23.970  0.00  0.00    -0.131 NA
ATOM     12  C   UNL     1      -3.009  10.344  24.907  0.00  0.00    +0.120 A 
ATOM     13  C   UNL     1      -2.746  11.546  24.287  0.00  0.00    +0.137 A 
ATOM     14  N   UNL     1      -3.075  11.323  22.980  0.00  0.00    -0.247 N 
ATOM     15  N   UNL     1      -3.469  10.049  22.791  0.00  0.00    -0.065 NA
BRANCH  14  16
ATOM     16  C   UNL     1      -3.278  12.313  21.936  0.00  0.00    +0.180 C 
BRANCH  16  17
ATOM     17  C   UNL     1      -4.366  13.310  22.248  0.00  0.00    -0.026 A 
ATOM     18  C   UNL     1      -5.697  12.896  22.419  0.00  0.00    +0.005 A 
ATOM     19  C   UNL     1      -6.680  13.812  22.802  0.00  0.00    +0.000 A 
ATOM     20  C   UNL     1      -6.347  15.146  23.021  0.00  0.00    +0.000 A 
ATOM     21  C   UNL     1      -5.032  15.571  22.847  0.00  0.00    +0.000 A 
ATOM     22  C   UNL     1      -4.046  14.659  22.464  0.00  0.00    +0.005 A 
ENDBRANCH  16  17
ENDBRANCH  14  16
ENDBRANCH  10  12
ENDBRANCH   9  10
ENDBRANCH   5   9
ENDBRANCH   4   7
ENDBRANCH   1   4
BRANCH   1  23
ATOM     23  C   UNL     1      -4.157  11.146  29.972  0.00  0.00    +0.175 C 
BRANCH  23  24
ATOM     24  C   UNL     1      -4.262  12.613  30.412  0.00  0.00    +0.176 C 
ATOM     25  O   UNL     1      -4.369  12.640  31.862  0.00  0.00    -0.332 OA
ATOM     26  C   UNL     1      -4.372  13.972  32.473  0.00  0.00    +0.277 C 
ATOM     27  C   UNL     1      -5.485  14.850  31.851  0.00  0.00    +0.110 C 
ATOM     28  C   UNL     1      -5.432  14.828  30.309  0.00  0.00    +0.143 C 
ATOM     29  C   UNL     1      -5.429  13.394  29.780  0.00  0.00    +0.133 C 
BRANCH  29  30
ATOM     30  N   UNL     1      -5.291  13.385  28.315  0.00  0.00    -0.308 N 
ATOM     31  H   UNL     1      -4.405  13.674  27.923  0.00  0.00    +0.149 HD
ATOM     32  C   UNL     1      -6.258  13.019  27.470  0.00  0.00    +0.210 C 
ATOM     33  C   UNL     1      -7.604  12.609  28.097  0.00  0.00    +0.109 C 
ATOM     34  O   UNL     1      -6.109  13.008  26.247  0.00  0.00    -0.276 OA
ENDBRANCH  29  30
BRANCH  26  35
ATOM     35  C   UNL     1      -3.005  14.663  32.287  0.00  0.00    +0.414 C 
ATOM     36  O   UNL     1      -2.934  15.890  32.226  0.00  0.00    -0.240 OA
ATOM     37  O   UNL     1      -1.975  13.994  32.198  0.00  0.00    -0.240 OA
ENDBRANCH  26  35
BRANCH  26  38
ATOM     38  O   UNL     1      -4.651  13.815  33.889  0.00  0.00    -0.343 OA
ATOM     39  C   UNL     1      -5.541  12.720  34.220  0.00  0.00    +0.198 C 
ENDBRANCH  26  38
BRANCH  28  40
ATOM     40  O   UNL     1      -6.560  15.524  29.778  0.00  0.00    -0.390 OA
ATOM     41  H   UNL     1      -7.295  14.914  29.678  0.00  0.00    +0.210 HD
ENDBRANCH  28  40
ENDBRANCH  23  24
BRANCH  23  42
ATOM     42  O   UNL     1      -5.472  10.563  29.868  0.00  0.00    -0.387 OA
ATOM     43  H   UNL     1      -5.671  10.384  28.946  0.00  0.00    +0.210 HD
ENDBRANCH  23  42
ENDBRANCH   1  23
TORSDOF 15
