REMARK VINA RESULT:    -4.997      3.467      4.998
REMARK INTER + INTRA:         -11.699
REMARK INTER:                  -8.374
REMARK INTRA:                  -3.325
REMARK UNBOUND:                -2.759
REMARK  Name = lig_assembled_38.pdb
REMARK  17 active torsions:
REMARK  status: ('A' for Active; 'I' for Inactive)
REMARK    1  A    between atoms: _2  and  _9
REMARK    2  A    between atoms: _4  and  _19
REMARK    3  A    between atoms: _6  and  _7
REMARK    4  A    between atoms: _6  and  _19
REMARK    5  A    between atoms: _9  and  _10
REMARK    6  A    between atoms: _15  and  _35
REMARK    7  A    between atoms: _17  and  _23
REMARK    8  A    between atoms: _18  and  _22
REMARK    9  A    between atoms: _22  and  _23
REMARK   10  A    between atoms: _25  and  _26
REMARK   11  A    between atoms: _27  and  _28
REMARK   12  A    between atoms: _29  and  _31
REMARK   13  A    between atoms: _31  and  _32
REMARK   14  A    between atoms: _31  and  _33
REMARK   15  A    between atoms: _33  and  _34
REMARK   16  A    between atoms: _33  and  _35
REMARK   17  A    between atoms: _36  and  _38
REMARK                            x       y       z     vdW  Elec       q    Type
REMARK                         _______ _______ _______ _____ _____    ______ ____
ROOT
ATOM      1  C   UNL     1      -4.085  13.053  25.001  0.00  0.00    +0.163 C 
ENDROOT
BRANCH   1   2
ATOM      2  O   UNL     1      -4.880  13.856  24.114  0.00  0.00    -0.388 OA
ATOM      3  H   UNL     1      -5.648  13.355  23.829  0.00  0.00    +0.210 HD
ENDBRANCH   1   2
BRANCH   1   4
ATOM      4  C   UNL     1      -3.003  12.320  24.214  0.00  0.00    +0.141 C 
BRANCH   4   7
ATOM      5  C   UNL     1      -3.290  11.116  22.075  0.00  0.00    +0.401 C 
ATOM      6  O   UNL     1      -2.978  10.019  22.543  0.00  0.00    -0.226 OA
ATOM      7  N   UNL     1      -3.323  12.246  22.783  0.00  0.00    -0.279 N 
ATOM      8  H   UNL     1      -3.583  13.099  22.308  0.00  0.00    +0.152 HD
BRANCH   5   9
ATOM      9  O   UNL     1      -3.638  11.208  20.691  0.00  0.00    -0.444 OA
BRANCH   9  10
ATOM     10  C   UNL     1      -4.964  10.707  20.498  0.00  0.00    +0.292 C 
BRANCH  10  12
ATOM     11  N   UNL     1      -6.444  11.675  22.232  0.00  0.00    -0.131 NA
ATOM     12  C   UNL     1      -5.959  11.699  20.951  0.00  0.00    +0.120 A 
ATOM     13  C   UNL     1      -6.520  12.760  20.277  0.00  0.00    +0.137 A 
ATOM     14  N   UNL     1      -7.294  13.377  21.218  0.00  0.00    -0.247 N 
ATOM     15  N   UNL     1      -7.255  12.712  22.388  0.00  0.00    -0.065 NA
BRANCH  14  16
ATOM     16  C   UNL     1      -7.891  14.699  21.146  0.00  0.00    +0.180 C 
BRANCH  16  17
ATOM     17  C   UNL     1      -7.180  15.727  21.992  0.00  0.00    -0.025 A 
ATOM     18  C   UNL     1      -7.702  16.125  23.233  0.00  0.00    +0.005 A 
ATOM     19  C   UNL     1      -6.993  17.009  24.052  0.00  0.00    +0.001 A 
ATOM     20  C   UNL     1      -5.757  17.506  23.642  0.00  0.00    +0.015 A 
ATOM     21  C   UNL     1      -5.239  17.123  22.408  0.00  0.00    +0.018 A 
ATOM     22 BR   UNL     1      -3.557  17.787  21.852  0.00  0.00    -0.050 Br
ATOM     23  C   UNL     1      -5.939  16.241  21.584  0.00  0.00    +0.020 A 
ENDBRANCH  16  17
ENDBRANCH  14  16
ENDBRANCH  10  12
ENDBRANCH   9  10
ENDBRANCH   5   9
ENDBRANCH   4   7
ENDBRANCH   1   4
BRANCH   1  24
ATOM     24  C   UNL     1      -4.958  12.030  25.749  0.00  0.00    +0.175 C 
BRANCH  24  25
ATOM     25  C   UNL     1      -4.159  11.249  26.802  0.00  0.00    +0.176 C 
ATOM     26  O   UNL     1      -4.123   9.854  26.391  0.00  0.00    -0.332 OA
ATOM     27  C   UNL     1      -3.308   8.968  27.228  0.00  0.00    +0.277 C 
ATOM     28  C   UNL     1      -3.748   9.067  28.709  0.00  0.00    +0.110 C 
ATOM     29  C   UNL     1      -3.831  10.533  29.182  0.00  0.00    +0.143 C 
ATOM     30  C   UNL     1      -4.701  11.365  28.239  0.00  0.00    +0.133 C 
BRANCH  30  31
ATOM     31  N   UNL     1      -4.702  12.778  28.651  0.00  0.00    -0.308 N 
ATOM     32  H   UNL     1      -3.824  13.277  28.625  0.00  0.00    +0.149 HD
ATOM     33  C   UNL     1      -5.788  13.442  29.056  0.00  0.00    +0.210 C 
ATOM     34  C   UNL     1      -7.105  12.646  29.108  0.00  0.00    +0.109 C 
ATOM     35  O   UNL     1      -5.762  14.630  29.381  0.00  0.00    -0.276 OA
ENDBRANCH  30  31
BRANCH  27  36
ATOM     36  C   UNL     1      -1.812   9.327  27.109  0.00  0.00    +0.414 C 
ATOM     37  O   UNL     1      -1.027   9.020  28.006  0.00  0.00    -0.240 OA
ATOM     38  O   UNL     1      -1.390   9.924  26.118  0.00  0.00    -0.240 OA
ENDBRANCH  27  36
BRANCH  27  39
ATOM     39  O   UNL     1      -3.520   7.605  26.777  0.00  0.00    -0.343 OA
ATOM     40  C   UNL     1      -3.928   7.475  25.392  0.00  0.00    +0.198 C 
ENDBRANCH  27  39
BRANCH  29  41
ATOM     41  O   UNL     1      -4.383  10.584  30.498  0.00  0.00    -0.390 OA
ATOM     42  H   UNL     1      -3.889   9.997  31.076  0.00  0.00    +0.210 HD
ENDBRANCH  29  41
ENDBRANCH  24  25
BRANCH  24  43
ATOM     43  O   UNL     1      -5.569  11.120  24.812  0.00  0.00    -0.387 OA
ATOM     44  H   UNL     1      -6.206  10.568  25.272  0.00  0.00    +0.210 HD
ENDBRANCH  24  43
ENDBRANCH   1  24
TORSDOF 15
