REMARK VINA RESULT:    -5.499      2.448      6.328
REMARK INTER + INTRA:         -12.177
REMARK INTER:                  -8.144
REMARK INTRA:                  -4.033
REMARK UNBOUND:                -1.695
REMARK  Name = lig_assembled_12.pdb
REMARK  19 active torsions:
REMARK  status: ('A' for Active; 'I' for Inactive)
REMARK    1  A    between atoms: _2  and  _9
REMARK    2  A    between atoms: _4  and  _21
REMARK    3  A    between atoms: _6  and  _7
REMARK    4  A    between atoms: _6  and  _21
REMARK    5  A    between atoms: _9  and  _16
REMARK    6  A    between atoms: _10  and  _11
REMARK    7  A    between atoms: _10  and  _16
REMARK    8  A    between atoms: _17  and  _37
REMARK    9  A    between atoms: _19  and  _25
REMARK   10  A    between atoms: _20  and  _24
REMARK   11  A    between atoms: _24  and  _25
REMARK   12  A    between atoms: _27  and  _28
REMARK   13  A    between atoms: _29  and  _30
REMARK   14  A    between atoms: _31  and  _33
REMARK   15  A    between atoms: _33  and  _34
REMARK   16  A    between atoms: _33  and  _35
REMARK   17  A    between atoms: _35  and  _36
REMARK   18  A    between atoms: _35  and  _37
REMARK   19  A    between atoms: _38  and  _40
REMARK                            x       y       z     vdW  Elec       q    Type
REMARK                         _______ _______ _______ _____ _____    ______ ____
ROOT
ATOM      1  C   UNL     1      -2.884  11.129  22.531  0.00  0.00    +0.163 C 
ENDROOT
BRANCH   1   2
ATOM      2  O   UNL     1      -2.549  12.001  23.623  0.00  0.00    -0.388 OA
ATOM      3  H   UNL     1      -2.626  12.915  23.339  0.00  0.00    +0.210 HD
ENDBRANCH   1   2
BRANCH   1   4
ATOM      4  C   UNL     1      -3.911  10.070  22.967  0.00  0.00    +0.175 C 
BRANCH   4   5
ATOM      5  C   UNL     1      -3.961   9.909  24.494  0.00  0.00    +0.176 C 
ATOM      6  O   UNL     1      -2.979   8.904  24.870  0.00  0.00    -0.332 OA
ATOM      7  C   UNL     1      -2.810   8.691  26.310  0.00  0.00    +0.277 C 
ATOM      8  C   UNL     1      -4.172   8.365  26.972  0.00  0.00    +0.110 C 
ATOM      9  C   UNL     1      -5.257   9.389  26.576  0.00  0.00    +0.143 C 
ATOM     10  C   UNL     1      -5.345   9.535  25.057  0.00  0.00    +0.133 C 
BRANCH  10  11
ATOM     11  N   UNL     1      -6.320  10.575  24.695  0.00  0.00    -0.308 N 
ATOM     12  H   UNL     1      -6.145  11.517  25.014  0.00  0.00    +0.149 HD
ATOM     13  C   UNL     1      -7.422  10.355  23.973  0.00  0.00    +0.210 C 
ATOM     14  C   UNL     1      -7.675   8.903  23.524  0.00  0.00    +0.109 C 
ATOM     15  O   UNL     1      -8.214  11.249  23.672  0.00  0.00    -0.276 OA
ENDBRANCH  10  11
BRANCH   7  16
ATOM     16  C   UNL     1      -2.196   9.938  26.980  0.00  0.00    +0.414 C 
ATOM     17  O   UNL     1      -1.828  10.891  26.295  0.00  0.00    -0.240 OA
ATOM     18  O   UNL     1      -2.070   9.991  28.204  0.00  0.00    -0.240 OA
ENDBRANCH   7  16
BRANCH   9  19
ATOM     19  O   UNL     1      -6.524   8.968  27.083  0.00  0.00    -0.390 OA
ATOM     20  H   UNL     1      -7.065   9.738  27.272  0.00  0.00    +0.210 HD
ENDBRANCH   9  19
BRANCH   7  21
ATOM     21  O   UNL     1      -1.929   7.553  26.495  0.00  0.00    -0.343 OA
ATOM     22  C   UNL     1      -2.548   6.259  26.289  0.00  0.00    +0.198 C 
ENDBRANCH   7  21
ENDBRANCH   4   5
BRANCH   4  23
ATOM     23  O   UNL     1      -3.615   8.805  22.343  0.00  0.00    -0.387 OA
ATOM     24  H   UNL     1      -4.420   8.288  22.271  0.00  0.00    +0.210 HD
ENDBRANCH   4  23
ENDBRANCH   1   4
BRANCH   1  25
ATOM     25  C   UNL     1      -3.450  11.941  21.371  0.00  0.00    +0.141 C 
BRANCH  25  28
ATOM     26  C   UNL     1      -5.378  13.432  21.779  0.00  0.00    +0.401 C 
ATOM     27  O   UNL     1      -6.208  12.635  21.336  0.00  0.00    -0.226 OA
ATOM     28  N   UNL     1      -4.067  13.192  21.828  0.00  0.00    -0.279 N 
ATOM     29  H   UNL     1      -3.464  13.913  22.200  0.00  0.00    +0.152 HD
BRANCH  26  30
ATOM     30  O   UNL     1      -5.824  14.698  22.272  0.00  0.00    -0.444 OA
BRANCH  30  31
ATOM     31  C   UNL     1      -6.866  14.497  23.231  0.00  0.00    +0.292 C 
BRANCH  31  33
ATOM     32  N   UNL     1      -5.117  13.362  24.573  0.00  0.00    -0.131 NA
ATOM     33  C   UNL     1      -6.303  14.049  24.518  0.00  0.00    +0.120 A 
ATOM     34  C   UNL     1      -6.791  14.204  25.794  0.00  0.00    +0.139 A 
ATOM     35  N   UNL     1      -5.876  13.567  26.578  0.00  0.00    -0.226 N 
ATOM     36  N   UNL     1      -4.858  13.082  25.844  0.00  0.00    -0.063 NA
BRANCH  35  37
ATOM     37  C   UNL     1      -5.868  13.419  28.024  0.00  0.00    +0.305 C 
BRANCH  37  38
ATOM     38  O   UNL     1      -4.766  12.598  28.404  0.00  0.00    -0.353 OA
BRANCH  38  39
ATOM     39  C   UNL     1      -4.346  12.866  29.735  0.00  0.00    +0.197 C 
BRANCH  39  40
ATOM     40  C   UNL     1      -4.116  11.542  30.412  0.00  0.00    -0.022 A 
ATOM     41  C   UNL     1      -3.139  11.411  31.408  0.00  0.00    +0.006 A 
ATOM     42  C   UNL     1      -2.899  10.174  32.007  0.00  0.00    +0.000 A 
ATOM     43  C   UNL     1      -3.627   9.054  31.611  0.00  0.00    +0.000 A 
ATOM     44  C   UNL     1      -4.593   9.168  30.614  0.00  0.00    +0.000 A 
ATOM     45  C   UNL     1      -4.835  10.405  30.014  0.00  0.00    +0.006 A 
ENDBRANCH  39  40
ENDBRANCH  38  39
ENDBRANCH  37  38
ENDBRANCH  35  37
ENDBRANCH  31  33
ENDBRANCH  30  31
ENDBRANCH  26  30
ENDBRANCH  25  28
ENDBRANCH   1  25
TORSDOF 17
