REMARK VINA RESULT:    -4.773      7.295     12.459
REMARK INTER + INTRA:         -11.418
REMARK INTER:                  -8.036
REMARK INTRA:                  -3.382
REMARK UNBOUND:                -2.598
REMARK  Name = lig_assembled_67.pdb
REMARK  18 active torsions:
REMARK  status: ('A' for Active; 'I' for Inactive)
REMARK    1  A    between atoms: _2  and  _9
REMARK    2  A    between atoms: _4  and  _19
REMARK    3  A    between atoms: _6  and  _7
REMARK    4  A    between atoms: _6  and  _19
REMARK    5  A    between atoms: _9  and  _10
REMARK    6  A    between atoms: _10  and  _11
REMARK    7  A    between atoms: _15  and  _35
REMARK    8  A    between atoms: _17  and  _23
REMARK    9  A    between atoms: _18  and  _22
REMARK   10  A    between atoms: _22  and  _23
REMARK   11  A    between atoms: _25  and  _26
REMARK   12  A    between atoms: _27  and  _28
REMARK   13  A    between atoms: _29  and  _31
REMARK   14  A    between atoms: _31  and  _32
REMARK   15  A    between atoms: _31  and  _33
REMARK   16  A    between atoms: _33  and  _34
REMARK   17  A    between atoms: _33  and  _35
REMARK   18  A    between atoms: _36  and  _38
REMARK                            x       y       z     vdW  Elec       q    Type
REMARK                         _______ _______ _______ _____ _____    ______ ____
ROOT
ATOM      1  C   UNL     1      -1.782   8.427  13.490  0.00  0.00    +0.163 C 
ENDROOT
BRANCH   1   2
ATOM      2  O   UNL     1      -2.131   8.110  12.132  0.00  0.00    -0.388 OA
ATOM      3  H   UNL     1      -2.839   7.462  12.126  0.00  0.00    +0.210 HD
ENDBRANCH   1   2
BRANCH   1   4
ATOM      4  C   UNL     1      -2.804   9.396  14.108  0.00  0.00    +0.175 C 
BRANCH   4   5
ATOM      5  C   UNL     1      -3.124  10.572  13.174  0.00  0.00    +0.176 C 
ATOM      6  O   UNL     1      -1.879  11.013  12.567  0.00  0.00    -0.332 OA
ATOM      7  C   UNL     1      -2.004  12.068  11.557  0.00  0.00    +0.277 C 
ATOM      8  C   UNL     1      -2.762  13.287  12.139  0.00  0.00    +0.110 C 
ATOM      9  C   UNL     1      -4.079  12.864  12.823  0.00  0.00    +0.143 C 
ATOM     10  C   UNL     1      -3.833  11.759  13.852  0.00  0.00    +0.133 C 
BRANCH  10  11
ATOM     11  N   UNL     1      -5.106  11.305  14.434  0.00  0.00    -0.308 N 
ATOM     12  H   UNL     1      -5.753  10.818  13.830  0.00  0.00    +0.149 HD
ATOM     13  C   UNL     1      -5.461  11.493  15.708  0.00  0.00    +0.210 C 
ATOM     14  C   UNL     1      -4.463  12.260  16.595  0.00  0.00    +0.109 C 
ATOM     15  O   UNL     1      -6.527  11.087  16.172  0.00  0.00    -0.276 OA
ENDBRANCH  10  11
BRANCH   7  16
ATOM     16  C   UNL     1      -2.746  11.546  10.310  0.00  0.00    +0.414 C 
ATOM     17  O   UNL     1      -2.735  10.346  10.038  0.00  0.00    -0.240 OA
ATOM     18  O   UNL     1      -3.356  12.325   9.575  0.00  0.00    -0.240 OA
ENDBRANCH   7  16
BRANCH   9  19
ATOM     19  O   UNL     1      -4.668  13.991  13.474  0.00  0.00    -0.390 OA
ATOM     20  H   UNL     1      -5.171  14.502  12.836  0.00  0.00    +0.210 HD
ENDBRANCH   9  19
BRANCH   7  21
ATOM     21  O   UNL     1      -0.668  12.496  11.187  0.00  0.00    -0.343 OA
ATOM     22  C   UNL     1      -0.386  13.898  11.425  0.00  0.00    +0.198 C 
ENDBRANCH   7  21
ENDBRANCH   4   5
BRANCH   4  23
ATOM     23  O   UNL     1      -2.321   9.886  15.375  0.00  0.00    -0.387 OA
ATOM     24  H   UNL     1      -1.459  10.291  15.255  0.00  0.00    +0.210 HD
ENDBRANCH   4  23
ENDBRANCH   1   4
BRANCH   1  25
ATOM     25  C   UNL     1      -1.719   7.152  14.324  0.00  0.00    +0.141 C 
BRANCH  25  28
ATOM     26  C   UNL     1      -3.963   6.117  14.340  0.00  0.00    +0.401 C 
ATOM     27  O   UNL     1      -3.859   5.650  13.204  0.00  0.00    -0.226 OA
ATOM     28  N   UNL     1      -3.014   6.837  14.940  0.00  0.00    -0.279 N 
ATOM     29  H   UNL     1      -3.196   7.185  15.871  0.00  0.00    +0.152 HD
BRANCH  26  30
ATOM     30  O   UNL     1      -5.166   5.888  15.077  0.00  0.00    -0.444 OA
BRANCH  30  31
ATOM     31  C   UNL     1      -5.931   7.096  15.130  0.00  0.00    +0.292 C 
BRANCH  31  33
ATOM     32  N   UNL     1      -4.676   8.239  16.931  0.00  0.00    -0.131 NA
ATOM     33  C   UNL     1      -5.850   7.698  16.474  0.00  0.00    +0.120 A 
ATOM     34  C   UNL     1      -6.814   7.833  17.447  0.00  0.00    +0.137 A 
ATOM     35  N   UNL     1      -6.166   8.458  18.468  0.00  0.00    -0.251 N 
ATOM     36  N   UNL     1      -4.882   8.699  18.158  0.00  0.00    -0.065 NA
BRANCH  35  37
ATOM     37  C   UNL     1      -6.698   8.866  19.750  0.00  0.00    +0.150 C 
BRANCH  37  38
ATOM     38  C   UNL     1      -5.679   8.796  20.885  0.00  0.00    +0.084 C 
BRANCH  38  39
ATOM     39  C   UNL     1      -5.183  10.171  21.307  0.00  0.00    +0.252 C 
ATOM     40  O   UNL     1      -5.049  10.232  22.732  0.00  0.00    -0.349 OA
ATOM     41  C   UNL     1      -4.000  11.179  22.920  0.00  0.00    +0.191 C 
ATOM     42  C   UNL     1      -3.072  10.902  21.765  0.00  0.00    +0.191 C 
ATOM     43  O   UNL     1      -3.917  10.453  20.704  0.00  0.00    -0.349 OA
ENDBRANCH  38  39
ENDBRANCH  37  38
ENDBRANCH  35  37
ENDBRANCH  31  33
ENDBRANCH  30  31
ENDBRANCH  26  30
ENDBRANCH  25  28
ENDBRANCH   1  25
TORSDOF 16
