REMARK VINA RESULT:    -3.503      2.102      5.342
REMARK INTER + INTRA:         -10.477
REMARK INTER:                  -6.369
REMARK INTRA:                  -4.108
REMARK UNBOUND:                -4.108
REMARK  Name = lig_assembled_53.pdb
REMARK  18 active torsions:
REMARK  status: ('A' for Active; 'I' for Inactive)
REMARK    1  A    between atoms: _2  and  _9
REMARK    2  A    between atoms: _4  and  _16
REMARK    3  A    between atoms: _5  and  _9
REMARK    4  A    between atoms: _5  and  _10
REMARK    5  A    between atoms: _6  and  _7
REMARK    6  A    between atoms: _6  and  _16
REMARK    7  A    between atoms: _12  and  _32
REMARK    8  A    between atoms: _14  and  _20
REMARK    9  A    between atoms: _15  and  _19
REMARK   10  A    between atoms: _19  and  _20
REMARK   11  A    between atoms: _22  and  _23
REMARK   12  A    between atoms: _24  and  _25
REMARK   13  A    between atoms: _26  and  _28
REMARK   14  A    between atoms: _28  and  _29
REMARK   15  A    between atoms: _28  and  _30
REMARK   16  A    between atoms: _30  and  _31
REMARK   17  A    between atoms: _30  and  _32
REMARK   18  A    between atoms: _33  and  _35
REMARK                            x       y       z     vdW  Elec       q    Type
REMARK                         _______ _______ _______ _____ _____    ______ ____
ROOT
ATOM      1  C   UNL     1      -5.422  10.427  25.940  0.00  0.00    +0.175 C 
ENDROOT
BRANCH   1   2
ATOM      2  C   UNL     1      -5.466  10.967  27.377  0.00  0.00    +0.176 C 
ATOM      3  O   UNL     1      -6.030  12.307  27.334  0.00  0.00    -0.332 OA
ATOM      4  C   UNL     1      -6.249  12.945  28.636  0.00  0.00    +0.277 C 
ATOM      5  C   UNL     1      -4.938  12.955  29.460  0.00  0.00    +0.110 C 
ATOM      6  C   UNL     1      -4.285  11.558  29.508  0.00  0.00    +0.143 C 
ATOM      7  C   UNL     1      -4.107  10.987  28.101  0.00  0.00    +0.133 C 
BRANCH   7   8
ATOM      8  N   UNL     1      -3.565   9.620  28.164  0.00  0.00    -0.308 N 
ATOM      9  H   UNL     1      -4.062   8.941  28.722  0.00  0.00    +0.149 HD
ATOM     10  C   UNL     1      -2.458   9.220  27.531  0.00  0.00    +0.210 C 
ATOM     11  C   UNL     1      -1.709  10.286  26.710  0.00  0.00    +0.109 C 
ATOM     12  O   UNL     1      -2.035   8.065  27.591  0.00  0.00    -0.276 OA
ENDBRANCH   7   8
BRANCH   4  13
ATOM     13  C   UNL     1      -7.350  12.210  29.427  0.00  0.00    +0.414 C 
ATOM     14  O   UNL     1      -8.317  11.726  28.840  0.00  0.00    -0.240 OA
ATOM     15  O   UNL     1      -7.272  12.101  30.651  0.00  0.00    -0.240 OA
ENDBRANCH   4  13
BRANCH   4  16
ATOM     16  O   UNL     1      -6.651  14.319  28.400  0.00  0.00    -0.343 OA
ATOM     17  C   UNL     1      -6.192  15.271  29.393  0.00  0.00    +0.198 C 
ENDBRANCH   4  16
BRANCH   6  18
ATOM     18  O   UNL     1      -3.010  11.643  30.146  0.00  0.00    -0.390 OA
ATOM     19  H   UNL     1      -2.418  12.175  29.609  0.00  0.00    +0.210 HD
ENDBRANCH   6  18
ENDBRANCH   1   2
BRANCH   1  20
ATOM     20  O   UNL     1      -6.021  11.375  25.034  0.00  0.00    -0.387 OA
ATOM     21  H   UNL     1      -5.373  12.042  24.793  0.00  0.00    +0.210 HD
ENDBRANCH   1  20
BRANCH   1  22
ATOM     22  C   UNL     1      -6.117   9.061  25.813  0.00  0.00    +0.163 C 
BRANCH  22  23
ATOM     23  O   UNL     1      -6.179   8.396  27.086  0.00  0.00    -0.388 OA
ATOM     24  H   UNL     1      -7.090   8.162  27.281  0.00  0.00    +0.210 HD
ENDBRANCH  22  23
BRANCH  22  25
ATOM     25  C   UNL     1      -5.362   8.196  24.809  0.00  0.00    +0.141 C 
BRANCH  25  28
ATOM     26  C   UNL     1      -4.063   8.835  22.806  0.00  0.00    +0.401 C 
ATOM     27  O   UNL     1      -4.668   8.068  22.054  0.00  0.00    -0.226 OA
ATOM     28  N   UNL     1      -4.317   8.955  24.110  0.00  0.00    -0.279 N 
ATOM     29  H   UNL     1      -3.760   9.605  24.647  0.00  0.00    +0.152 HD
BRANCH  26  30
ATOM     30  O   UNL     1      -3.018   9.651  22.272  0.00  0.00    -0.444 OA
BRANCH  30  31
ATOM     31  C   UNL     1      -3.583  10.661  21.431  0.00  0.00    +0.292 C 
BRANCH  31  33
ATOM     32  N   UNL     1      -3.320  12.079  23.445  0.00  0.00    -0.131 NA
ATOM     33  C   UNL     1      -3.876  11.878  22.211  0.00  0.00    +0.120 A 
ATOM     34  C   UNL     1      -4.681  12.951  21.900  0.00  0.00    +0.137 A 
ATOM     35  N   UNL     1      -4.626  13.740  23.009  0.00  0.00    -0.241 N 
ATOM     36  N   UNL     1      -3.769  13.233  23.918  0.00  0.00    -0.065 NA
BRANCH  35  37
ATOM     37  C   UNL     1      -5.201  15.046  23.260  0.00  0.00    +0.265 C 
BRANCH  37  38
ATOM     38  C   UNL     1      -6.308  15.077  24.278  0.00  0.00    +0.326 C 
ATOM     39  O   UNL     1      -7.348  15.716  24.208  0.00  0.00    -0.249 OA
BRANCH  38  40
ATOM     40  O   UNL     1      -6.041  14.301  25.361  0.00  0.00    -0.479 OA
ATOM     41  H   UNL     1      -5.823  14.778  26.185  0.00  0.00    +0.295 HD
ENDBRANCH  38  40
ENDBRANCH  37  38
ENDBRANCH  35  37
ENDBRANCH  31  33
ENDBRANCH  30  31
ENDBRANCH  26  30
ENDBRANCH  25  28
ENDBRANCH  22  25
ENDBRANCH   1  22
TORSDOF 16
