REMARK VINA RESULT:    -5.085      4.587      7.730
REMARK INTER + INTRA:         -11.687
REMARK INTER:                  -9.016
REMARK INTRA:                  -2.671
REMARK UNBOUND:                -2.589
REMARK  Name = lig_assembled_82.pdb
REMARK  19 active torsions:
REMARK  status: ('A' for Active; 'I' for Inactive)
REMARK    1  A    between atoms: _2  and  _9
REMARK    2  A    between atoms: _4  and  _22
REMARK    3  A    between atoms: _5  and  _16
REMARK    4  A    between atoms: _6  and  _7
REMARK    5  A    between atoms: _6  and  _22
REMARK    6  A    between atoms: _9  and  _10
REMARK    7  A    between atoms: _16  and  _17
REMARK    8  A    between atoms: _18  and  _38
REMARK    9  A    between atoms: _20  and  _26
REMARK   10  A    between atoms: _21  and  _25
REMARK   11  A    between atoms: _25  and  _26
REMARK   12  A    between atoms: _28  and  _29
REMARK   13  A    between atoms: _30  and  _31
REMARK   14  A    between atoms: _32  and  _34
REMARK   15  A    between atoms: _34  and  _35
REMARK   16  A    between atoms: _34  and  _36
REMARK   17  A    between atoms: _36  and  _37
REMARK   18  A    between atoms: _36  and  _38
REMARK   19  A    between atoms: _39  and  _41
REMARK                            x       y       z     vdW  Elec       q    Type
REMARK                         _______ _______ _______ _____ _____    ______ ____
ROOT
ATOM      1  C   UNL     1      -4.868   7.321  23.644  0.00  0.00    +0.163 C 
ENDROOT
BRANCH   1   2
ATOM      2  O   UNL     1      -3.606   6.959  24.229  0.00  0.00    -0.388 OA
ATOM      3  H   UNL     1      -2.892   7.311  23.692  0.00  0.00    +0.210 HD
ENDBRANCH   1   2
BRANCH   1   4
ATOM      4  C   UNL     1      -5.065   6.579  22.326  0.00  0.00    +0.141 C 
BRANCH   4   7
ATOM      5  C   UNL     1      -6.280   7.175  20.259  0.00  0.00    +0.401 C 
ATOM      6  O   UNL     1      -5.347   6.873  19.511  0.00  0.00    -0.226 OA
ATOM      7  N   UNL     1      -6.233   7.075  21.588  0.00  0.00    -0.279 N 
ATOM      8  H   UNL     1      -7.046   7.356  22.117  0.00  0.00    +0.152 HD
BRANCH   5   9
ATOM      9  O   UNL     1      -7.495   7.668  19.689  0.00  0.00    -0.444 OA
BRANCH   9  10
ATOM     10  C   UNL     1      -7.756   8.983  20.185  0.00  0.00    +0.292 C 
BRANCH  10  12
ATOM     11  N   UNL     1      -7.211  11.294  19.488  0.00  0.00    -0.131 NA
ATOM     12  C   UNL     1      -7.503   9.993  19.153  0.00  0.00    +0.120 A 
ATOM     13  C   UNL     1      -7.509   9.888  17.774  0.00  0.00    +0.137 A 
ATOM     14  N   UNL     1      -7.345  11.173  17.340  0.00  0.00    -0.247 N 
ATOM     15  N   UNL     1      -7.077  11.996  18.372  0.00  0.00    -0.065 NA
BRANCH  14  16
ATOM     16  C   UNL     1      -7.517  11.708  15.987  0.00  0.00    +0.176 C 
BRANCH  16  17
ATOM     17  C   UNL     1      -6.209  12.108  15.350  0.00  0.00    -0.049 C 
ATOM     18  C   UNL     1      -4.972  11.394  15.793  0.00  0.00    +0.023 C 
ATOM     19  C   UNL     1      -3.839  11.093  14.711  0.00  0.00    -0.025 C 
ATOM     20  C   UNL     1      -3.934  10.776  13.213  0.00  0.00    +0.012 C 
ATOM     21  C   UNL     1      -3.550  12.655  14.903  0.00  0.00    -0.000 C 
ATOM     22  C   UNL     1      -4.580  13.599  14.206  0.00  0.00    +0.031 C 
ATOM     23  C   UNL     1      -3.021   9.938  15.340  0.00  0.00    +0.012 C 
ATOM     24  C   UNL     1      -3.950  12.444  16.388  0.00  0.00    +0.012 C 
ATOM     25  C   UNL     1      -5.997  13.167  14.546  0.00  0.00    -0.025 C 
ENDBRANCH  16  17
ENDBRANCH  14  16
ENDBRANCH  10  12
ENDBRANCH   9  10
ENDBRANCH   5   9
ENDBRANCH   4   7
ENDBRANCH   1   4
BRANCH   1  26
ATOM     26  C   UNL     1      -4.945   8.837  23.397  0.00  0.00    +0.175 C 
BRANCH  26  27
ATOM     27  C   UNL     1      -3.877   9.606  24.188  0.00  0.00    +0.176 C 
ATOM     28  O   UNL     1      -4.218   9.522  25.599  0.00  0.00    -0.332 OA
ATOM     29  C   UNL     1      -3.246  10.115  26.523  0.00  0.00    +0.277 C 
ATOM     30  C   UNL     1      -2.964  11.588  26.140  0.00  0.00    +0.110 C 
ATOM     31  C   UNL     1      -2.628  11.732  24.641  0.00  0.00    +0.143 C 
ATOM     32  C   UNL     1      -3.703  11.079  23.772  0.00  0.00    +0.133 C 
BRANCH  32  33
ATOM     33  N   UNL     1      -3.328  11.146  22.351  0.00  0.00    -0.308 N 
ATOM     34  H   UNL     1      -2.519  10.620  22.051  0.00  0.00    +0.149 HD
ATOM     35  C   UNL     1      -3.986  11.858  21.431  0.00  0.00    +0.210 C 
ATOM     36  C   UNL     1      -5.198  12.670  21.925  0.00  0.00    +0.109 C 
ATOM     37  O   UNL     1      -3.657  11.884  20.245  0.00  0.00    -0.276 OA
ENDBRANCH  32  33
BRANCH  29  38
ATOM     38  C   UNL     1      -1.926   9.317  26.513  0.00  0.00    +0.414 C 
ATOM     39  O   UNL     1      -1.942   8.091  26.411  0.00  0.00    -0.240 OA
ATOM     40  O   UNL     1      -0.844   9.900  26.606  0.00  0.00    -0.240 OA
ENDBRANCH  29  38
BRANCH  29  41
ATOM     41  O   UNL     1      -3.821  10.090  27.855  0.00  0.00    -0.343 OA
ATOM     42  C   UNL     1      -3.775  11.354  28.565  0.00  0.00    +0.198 C 
ENDBRANCH  29  41
BRANCH  31  43
ATOM     43  O   UNL     1      -2.525  13.116  24.301  0.00  0.00    -0.390 OA
ATOM     44  H   UNL     1      -3.146  13.623  24.830  0.00  0.00    +0.210 HD
ENDBRANCH  31  43
ENDBRANCH  26  27
BRANCH  26  45
ATOM     45  O   UNL     1      -6.259   9.328  23.729  0.00  0.00    -0.387 OA
ATOM     46  H   UNL     1      -6.181  10.065  24.340  0.00  0.00    +0.210 HD
ENDBRANCH  26  45
ENDBRANCH   1  26
TORSDOF 15
