REMARK VINA RESULT:    -4.539      3.977      6.135
REMARK INTER + INTRA:         -11.229
REMARK INTER:                  -8.385
REMARK INTRA:                  -2.845
REMARK UNBOUND:                -3.373
REMARK  Name = lig_assembled_27.pdb
REMARK  16 active torsions:
REMARK  status: ('A' for Active; 'I' for Inactive)
REMARK    1  A    between atoms: _2  and  _9
REMARK    2  A    between atoms: _4  and  _18
REMARK    3  A    between atoms: _6  and  _7
REMARK    4  A    between atoms: _6  and  _18
REMARK    5  A    between atoms: _14  and  _34
REMARK    6  A    between atoms: _16  and  _22
REMARK    7  A    between atoms: _17  and  _21
REMARK    8  A    between atoms: _21  and  _22
REMARK    9  A    between atoms: _24  and  _25
REMARK   10  A    between atoms: _26  and  _27
REMARK   11  A    between atoms: _28  and  _30
REMARK   12  A    between atoms: _30  and  _31
REMARK   13  A    between atoms: _30  and  _32
REMARK   14  A    between atoms: _32  and  _33
REMARK   15  A    between atoms: _32  and  _34
REMARK   16  A    between atoms: _35  and  _37
REMARK                            x       y       z     vdW  Elec       q    Type
REMARK                         _______ _______ _______ _____ _____    ______ ____
ROOT
ATOM      1  C   UNL     1      -5.248   7.451  24.045  0.00  0.00    +0.163 C 
ENDROOT
BRANCH   1   2
ATOM      2  O   UNL     1      -4.031   6.949  24.621  0.00  0.00    -0.388 OA
ATOM      3  H   UNL     1      -3.859   6.066  24.287  0.00  0.00    +0.210 HD
ENDBRANCH   1   2
BRANCH   1   4
ATOM      4  C   UNL     1      -5.698   6.545  22.904  0.00  0.00    +0.141 C 
BRANCH   4   7
ATOM      5  C   UNL     1      -6.391   7.236  20.635  0.00  0.00    +0.401 C 
ATOM      6  O   UNL     1      -5.470   6.641  20.071  0.00  0.00    -0.226 OA
ATOM      7  N   UNL     1      -6.570   7.250  21.957  0.00  0.00    -0.279 N 
ATOM      8  H   UNL     1      -7.350   7.775  22.327  0.00  0.00    +0.152 HD
BRANCH   5   9
ATOM      9  O   UNL     1      -7.333   7.966  19.845  0.00  0.00    -0.444 OA
BRANCH   9  10
ATOM     10  C   UNL     1      -7.364   9.329  20.276  0.00  0.00    +0.292 C 
BRANCH  10  12
ATOM     11  N   UNL     1      -7.153  11.523  19.151  0.00  0.00    -0.131 NA
ATOM     12  C   UNL     1      -6.796  10.208  19.237  0.00  0.00    +0.121 A 
ATOM     13  C   UNL     1      -5.885   9.925  18.247  0.00  0.00    +0.143 A 
ATOM     14  N   UNL     1      -5.705  11.113  17.576  0.00  0.00    -0.220 N 
ATOM     15  N   UNL     1      -6.489  12.066  18.139  0.00  0.00    -0.060 NA
BRANCH  14  16
ATOM     16  C   UNL     1      -4.863  11.390  16.469  0.00  0.00    +0.068 A 
ATOM     17  C   UNL     1      -3.847  10.485  16.124  0.00  0.00    +0.028 A 
ATOM     18  C   UNL     1      -3.009  10.749  15.037  0.00  0.00    +0.003 A 
ATOM     19  C   UNL     1      -3.178  11.914  14.291  0.00  0.00    +0.020 A 
ATOM     20  C   UNL     1      -4.187  12.811  14.631  0.00  0.00    +0.043 A 
ATOM     21 CL   UNL     1      -4.396  14.249  13.708  0.00  0.00    -0.083 Cl
ATOM     22  C   UNL     1      -5.031  12.559  15.714  0.00  0.00    +0.047 A 
ENDBRANCH  14  16
ENDBRANCH  10  12
ENDBRANCH   9  10
ENDBRANCH   5   9
ENDBRANCH   4   7
ENDBRANCH   1   4
BRANCH   1  23
ATOM     23  C   UNL     1      -5.058   8.884  23.519  0.00  0.00    +0.175 C 
BRANCH  23  24
ATOM     24  C   UNL     1      -3.949   9.634  24.272  0.00  0.00    +0.176 C 
ATOM     25  O   UNL     1      -4.266   9.593  25.691  0.00  0.00    -0.332 OA
ATOM     26  C   UNL     1      -3.257  10.172  26.583  0.00  0.00    +0.277 C 
ATOM     27  C   UNL     1      -2.933  11.627  26.161  0.00  0.00    +0.110 C 
ATOM     28  C   UNL     1      -2.621  11.726  24.653  0.00  0.00    +0.143 C 
ATOM     29  C   UNL     1      -3.733  11.090  23.819  0.00  0.00    +0.133 C 
BRANCH  29  30
ATOM     30  N   UNL     1      -3.384  11.113  22.390  0.00  0.00    -0.308 N 
ATOM     31  H   UNL     1      -2.597  10.555  22.088  0.00  0.00    +0.149 HD
ATOM     32  C   UNL     1      -4.038  11.822  21.466  0.00  0.00    +0.210 C 
ATOM     33  C   UNL     1      -5.215  12.682  21.963  0.00  0.00    +0.109 C 
ATOM     34  O   UNL     1      -3.731  11.811  20.274  0.00  0.00    -0.276 OA
ENDBRANCH  29  30
BRANCH  26  35
ATOM     35  C   UNL     1      -1.964   9.330  26.566  0.00  0.00    +0.414 C 
ATOM     36  O   UNL     1      -0.867   9.878  26.663  0.00  0.00    -0.240 OA
ATOM     37  O   UNL     1      -2.019   8.105  26.456  0.00  0.00    -0.240 OA
ENDBRANCH  26  35
BRANCH  28  38
ATOM     38  O   UNL     1      -2.478  13.097  24.280  0.00  0.00    -0.390 OA
ATOM     39  H   UNL     1      -3.317  13.430  23.954  0.00  0.00    +0.210 HD
ENDBRANCH  28  38
BRANCH  26  40
ATOM     40  O   UNL     1      -3.806  10.197  27.926  0.00  0.00    -0.343 OA
ATOM     41  C   UNL     1      -3.930  11.518  28.512  0.00  0.00    +0.198 C 
ENDBRANCH  26  40
ENDBRANCH  23  24
BRANCH  23  42
ATOM     42  O   UNL     1      -6.298   9.614  23.605  0.00  0.00    -0.387 OA
ATOM     43  H   UNL     1      -6.561   9.692  24.525  0.00  0.00    +0.210 HD
ENDBRANCH  23  42
ENDBRANCH   1  23
TORSDOF 14
