REMARK VINA RESULT:    -4.362      4.040     10.108
REMARK INTER + INTRA:         -10.564
REMARK INTER:                  -7.805
REMARK INTRA:                  -2.759
REMARK UNBOUND:                -2.759
REMARK  Name = lig_assembled_38.pdb
REMARK  17 active torsions:
REMARK  status: ('A' for Active; 'I' for Inactive)
REMARK    1  A    between atoms: _2  and  _9
REMARK    2  A    between atoms: _4  and  _19
REMARK    3  A    between atoms: _6  and  _7
REMARK    4  A    between atoms: _6  and  _19
REMARK    5  A    between atoms: _9  and  _10
REMARK    6  A    between atoms: _15  and  _35
REMARK    7  A    between atoms: _17  and  _23
REMARK    8  A    between atoms: _18  and  _22
REMARK    9  A    between atoms: _22  and  _23
REMARK   10  A    between atoms: _25  and  _26
REMARK   11  A    between atoms: _27  and  _28
REMARK   12  A    between atoms: _29  and  _31
REMARK   13  A    between atoms: _31  and  _32
REMARK   14  A    between atoms: _31  and  _33
REMARK   15  A    between atoms: _33  and  _34
REMARK   16  A    between atoms: _33  and  _35
REMARK   17  A    between atoms: _36  and  _38
REMARK                            x       y       z     vdW  Elec       q    Type
REMARK                         _______ _______ _______ _____ _____    ______ ____
ROOT
ATOM      1  C   UNL     1      -4.264   8.234  24.549  0.00  0.00    +0.163 C 
ENDROOT
BRANCH   1   2
ATOM      2  O   UNL     1      -3.905   7.716  23.258  0.00  0.00    -0.388 OA
ATOM      3  H   UNL     1      -3.030   8.031  23.018  0.00  0.00    +0.210 HD
ENDBRANCH   1   2
BRANCH   1   4
ATOM      4  C   UNL     1      -4.631   7.088  25.487  0.00  0.00    +0.141 C 
BRANCH   4   7
ATOM      5  C   UNL     1      -2.804   6.840  27.132  0.00  0.00    +0.401 C 
ATOM      6  O   UNL     1      -2.048   6.263  26.347  0.00  0.00    -0.226 OA
ATOM      7  N   UNL     1      -4.032   7.255  26.817  0.00  0.00    -0.279 N 
ATOM      8  H   UNL     1      -4.580   7.710  27.533  0.00  0.00    +0.152 HD
BRANCH   5   9
ATOM      9  O   UNL     1      -2.360   7.086  28.469  0.00  0.00    -0.444 OA
BRANCH   9  10
ATOM     10  C   UNL     1      -3.343   6.611  29.393  0.00  0.00    +0.292 C 
BRANCH  10  12
ATOM     11  N   UNL     1      -4.823   7.604  31.114  0.00  0.00    -0.131 NA
ATOM     12  C   UNL     1      -3.663   7.656  30.385  0.00  0.00    +0.120 A 
ATOM     13  C   UNL     1      -2.935   8.758  30.776  0.00  0.00    +0.137 A 
ATOM     14  N   UNL     1      -3.677   9.303  31.784  0.00  0.00    -0.247 N 
ATOM     15  N   UNL     1      -4.818   8.614  31.973  0.00  0.00    -0.065 NA
BRANCH  14  16
ATOM     16  C   UNL     1      -3.263  10.310  32.745  0.00  0.00    +0.180 C 
BRANCH  16  17
ATOM     17  C   UNL     1      -3.299  11.715  32.196  0.00  0.00    -0.025 A 
ATOM     18  C   UNL     1      -2.288  12.637  32.509  0.00  0.00    +0.005 A 
ATOM     19  C   UNL     1      -2.279  13.909  31.926  0.00  0.00    +0.001 A 
ATOM     20  C   UNL     1      -3.278  14.273  31.025  0.00  0.00    +0.015 A 
ATOM     21  C   UNL     1      -4.289  13.368  30.718  0.00  0.00    +0.018 A 
ATOM     22 BR   UNL     1      -5.641  13.854  29.489  0.00  0.00    -0.050 Br
ATOM     23  C   UNL     1      -4.306  12.096  31.295  0.00  0.00    +0.020 A 
ENDBRANCH  16  17
ENDBRANCH  14  16
ENDBRANCH  10  12
ENDBRANCH   9  10
ENDBRANCH   5   9
ENDBRANCH   4   7
ENDBRANCH   1   4
BRANCH   1  24
ATOM     24  C   UNL     1      -5.449   9.209  24.441  0.00  0.00    +0.175 C 
BRANCH  24  25
ATOM     25  C   UNL     1      -5.027  10.569  23.867  0.00  0.00    +0.176 C 
ATOM     26  O   UNL     1      -4.835  10.410  22.435  0.00  0.00    -0.332 OA
ATOM     27  C   UNL     1      -4.529  11.638  21.695  0.00  0.00    +0.277 C 
ATOM     28  C   UNL     1      -3.300  12.350  22.312  0.00  0.00    +0.110 C 
ATOM     29  C   UNL     1      -3.445  12.514  23.840  0.00  0.00    +0.143 C 
ATOM     30  C   UNL     1      -3.765  11.176  24.508  0.00  0.00    +0.133 C 
BRANCH  30  31
ATOM     31  N   UNL     1      -3.986  11.360  25.951  0.00  0.00    -0.308 N 
ATOM     32  H   UNL     1      -4.829  11.833  26.242  0.00  0.00    +0.149 HD
ATOM     33  C   UNL     1      -3.144  10.942  26.900  0.00  0.00    +0.210 C 
ATOM     34  C   UNL     1      -1.855  10.247  26.423  0.00  0.00    +0.109 C 
ATOM     35  O   UNL     1      -3.363  11.097  28.102  0.00  0.00    -0.276 OA
ENDBRANCH  30  31
BRANCH  27  36
ATOM     36  C   UNL     1      -5.738  12.597  21.704  0.00  0.00    +0.414 C 
ATOM     37  O   UNL     1      -6.880  12.154  21.826  0.00  0.00    -0.240 OA
ATOM     38  O   UNL     1      -5.572  13.812  21.589  0.00  0.00    -0.240 OA
ENDBRANCH  27  36
BRANCH  27  39
ATOM     39  O   UNL     1      -4.207  11.271  20.329  0.00  0.00    -0.343 OA
ATOM     40  C   UNL     1      -4.892  10.094  19.833  0.00  0.00    +0.198 C 
ENDBRANCH  27  39
BRANCH  29  41
ATOM     41  O   UNL     1      -2.231  13.033  24.386  0.00  0.00    -0.390 OA
ATOM     42  H   UNL     1      -1.689  12.310  24.709  0.00  0.00    +0.210 HD
ENDBRANCH  29  41
ENDBRANCH  24  25
BRANCH  24  43
ATOM     43  O   UNL     1      -6.067   9.384  25.732  0.00  0.00    -0.387 OA
ATOM     44  H   UNL     1      -6.862   9.914  25.637  0.00  0.00    +0.210 HD
ENDBRANCH  24  43
ENDBRANCH   1  24
TORSDOF 15
