REMARK VINA RESULT:    -4.736      3.693      9.402
REMARK INTER + INTRA:         -11.587
REMARK INTER:                  -8.240
REMARK INTRA:                  -3.348
REMARK UNBOUND:                -2.560
REMARK  Name = lig_assembled_18.pdb
REMARK  19 active torsions:
REMARK  status: ('A' for Active; 'I' for Inactive)
REMARK    1  A    between atoms: _2  and  _10
REMARK    2  A    between atoms: _3  and  _12
REMARK    3  A    between atoms: _5  and  _21
REMARK    4  A    between atoms: _7  and  _8
REMARK    5  A    between atoms: _7  and  _21
REMARK    6  A    between atoms: _10  and  _11
REMARK    7  A    between atoms: _12  and  _13
REMARK    8  A    between atoms: _17  and  _37
REMARK    9  A    between atoms: _19  and  _25
REMARK   10  A    between atoms: _20  and  _24
REMARK   11  A    between atoms: _24  and  _25
REMARK   12  A    between atoms: _27  and  _28
REMARK   13  A    between atoms: _29  and  _30
REMARK   14  A    between atoms: _31  and  _33
REMARK   15  A    between atoms: _33  and  _34
REMARK   16  A    between atoms: _33  and  _35
REMARK   17  A    between atoms: _35  and  _36
REMARK   18  A    between atoms: _35  and  _37
REMARK   19  A    between atoms: _38  and  _40
REMARK                            x       y       z     vdW  Elec       q    Type
REMARK                         _______ _______ _______ _____ _____    ______ ____
ROOT
ATOM      1  C   UNL     1      -4.643  10.305  25.352  0.00  0.00    +0.163 C 
ENDROOT
BRANCH   1   2
ATOM      2  O   UNL     1      -5.101   9.945  24.038  0.00  0.00    -0.388 OA
ATOM      3  H   UNL     1      -6.044  10.113  23.970  0.00  0.00    +0.210 HD
ENDBRANCH   1   2
BRANCH   1   4
ATOM      4  C   UNL     1      -3.164   9.927  25.543  0.00  0.00    +0.175 C 
BRANCH   4   5
ATOM      5  C   UNL     1      -2.998   8.635  26.356  0.00  0.00    +0.176 C 
ATOM      6  O   UNL     1      -3.438   7.525  25.526  0.00  0.00    -0.332 OA
ATOM      7  C   UNL     1      -3.252   6.190  26.103  0.00  0.00    +0.277 C 
ATOM      8  C   UNL     1      -3.925   6.103  27.495  0.00  0.00    +0.110 C 
ATOM      9  C   UNL     1      -3.512   7.281  28.402  0.00  0.00    +0.143 C 
ATOM     10  C   UNL     1      -3.744   8.621  27.703  0.00  0.00    +0.133 C 
BRANCH  10  11
ATOM     11  N   UNL     1      -3.266   9.730  28.542  0.00  0.00    -0.308 N 
ATOM     12  H   UNL     1      -2.268   9.834  28.663  0.00  0.00    +0.149 HD
ATOM     13  C   UNL     1      -4.064  10.609  29.154  0.00  0.00    +0.210 C 
ATOM     14  C   UNL     1      -5.580  10.409  28.971  0.00  0.00    +0.109 C 
ATOM     15  O   UNL     1      -3.634  11.538  29.839  0.00  0.00    -0.276 OA
ENDBRANCH  10  11
BRANCH   7  16
ATOM     16  C   UNL     1      -1.752   5.855  26.234  0.00  0.00    +0.414 C 
ATOM     17  O   UNL     1      -1.317   5.352  27.269  0.00  0.00    -0.240 OA
ATOM     18  O   UNL     1      -0.977   6.088  25.305  0.00  0.00    -0.240 OA
ENDBRANCH   7  16
BRANCH   7  19
ATOM     19  O   UNL     1      -3.892   5.229  25.225  0.00  0.00    -0.343 OA
ATOM     20  C   UNL     1      -4.197   5.722  23.895  0.00  0.00    +0.198 C 
ENDBRANCH   7  19
BRANCH   9  21
ATOM     21  O   UNL     1      -4.267   7.245  29.613  0.00  0.00    -0.390 OA
ATOM     22  H   UNL     1      -5.118   7.667  29.473  0.00  0.00    +0.210 HD
ENDBRANCH   9  21
ENDBRANCH   4   5
BRANCH   4  23
ATOM     23  O   UNL     1      -2.453  11.009  26.178  0.00  0.00    -0.387 OA
ATOM     24  H   UNL     1      -2.541  11.805  25.648  0.00  0.00    +0.210 HD
ENDBRANCH   4  23
ENDBRANCH   1   4
BRANCH   1  25
ATOM     25  C   UNL     1      -4.819  11.804  25.574  0.00  0.00    +0.141 C 
BRANCH  25  28
ATOM     26  C   UNL     1      -3.844  13.173  23.763  0.00  0.00    +0.401 C 
ATOM     27  O   UNL     1      -2.721  13.216  24.272  0.00  0.00    -0.226 OA
ATOM     28  N   UNL     1      -4.885  12.541  24.306  0.00  0.00    -0.279 N 
ATOM     29  H   UNL     1      -5.768  12.570  23.817  0.00  0.00    +0.152 HD
BRANCH  26  30
ATOM     30  O   UNL     1      -4.067  13.838  22.517  0.00  0.00    -0.444 OA
BRANCH  30  31
ATOM     31  C   UNL     1      -3.331  13.178  21.484  0.00  0.00    +0.292 C 
BRANCH  31  33
ATOM     32  N   UNL     1      -3.365  10.701  21.373  0.00  0.00    -0.131 NA
ATOM     33  C   UNL     1      -3.979  11.901  21.128  0.00  0.00    +0.120 A 
ATOM     34  C   UNL     1      -5.200  11.667  20.539  0.00  0.00    +0.137 A 
ATOM     35  N   UNL     1      -5.286  10.308  20.478  0.00  0.00    -0.242 N 
ATOM     36  N   UNL     1      -4.170   9.730  20.962  0.00  0.00    -0.065 NA
BRANCH  35  37
ATOM     37  C   UNL     1      -6.317   9.495  19.880  0.00  0.00    +0.240 C 
BRANCH  37  38
ATOM     38  C   UNL     1      -6.142   9.357  18.385  0.00  0.00    +0.235 C 
ATOM     39  O   UNL     1      -7.098   9.221  17.624  0.00  0.00    -0.274 OA
ATOM     40  N   UNL     1      -4.840   9.452  17.935  0.00  0.00    -0.309 N 
ATOM     41  H   UNL     1      -4.071   9.396  18.588  0.00  0.00    +0.149 HD
BRANCH  40  42
ATOM     42  C   UNL     1      -4.518   9.355  16.526  0.00  0.00    +0.146 C 
BRANCH  42  43
ATOM     43  C   UNL     1      -4.540  10.717  15.911  0.00  0.00    +0.007 A 
ATOM     44  S   UNL     1      -5.382  11.003  14.446  0.00  0.00    -0.100 S 
ATOM     45  C   UNL     1      -4.889  12.640  14.406  0.00  0.00    +0.045 A 
ATOM     46  C   UNL     1      -4.112  12.973  15.493  0.00  0.00    +0.008 A 
ATOM     47  C   UNL     1      -3.917  11.864  16.366  0.00  0.00    +0.013 A 
ENDBRANCH  42  43
ENDBRANCH  40  42
ENDBRANCH  37  38
ENDBRANCH  35  37
ENDBRANCH  31  33
ENDBRANCH  30  31
ENDBRANCH  26  30
ENDBRANCH  25  28
ENDBRANCH   1  25
TORSDOF 17
