REMARK VINA RESULT:    -5.104      3.375      5.267
REMARK INTER + INTRA:         -11.210
REMARK INTER:                  -7.841
REMARK INTRA:                  -3.369
REMARK UNBOUND:                -1.779
REMARK  Name = lig_assembled_14.pdb
REMARK  18 active torsions:
REMARK  status: ('A' for Active; 'I' for Inactive)
REMARK    1  A    between atoms: _2  and  _10
REMARK    2  A    between atoms: _3  and  _11
REMARK    3  A    between atoms: _5  and  _19
REMARK    4  A    between atoms: _7  and  _8
REMARK    5  A    between atoms: _7  and  _19
REMARK    6  A    between atoms: _10  and  _11
REMARK    7  A    between atoms: _15  and  _35
REMARK    8  A    between atoms: _17  and  _23
REMARK    9  A    between atoms: _18  and  _22
REMARK   10  A    between atoms: _22  and  _23
REMARK   11  A    between atoms: _25  and  _26
REMARK   12  A    between atoms: _27  and  _28
REMARK   13  A    between atoms: _29  and  _31
REMARK   14  A    between atoms: _31  and  _32
REMARK   15  A    between atoms: _31  and  _33
REMARK   16  A    between atoms: _33  and  _34
REMARK   17  A    between atoms: _33  and  _35
REMARK   18  A    between atoms: _36  and  _38
REMARK                            x       y       z     vdW  Elec       q    Type
REMARK                         _______ _______ _______ _____ _____    ______ ____
ROOT
ATOM      1  C   UNL     1      -3.906  13.932  22.200  0.00  0.00    +0.163 C 
ENDROOT
BRANCH   1   2
ATOM      2  O   UNL     1      -3.224  15.192  22.094  0.00  0.00    -0.388 OA
ATOM      3  H   UNL     1      -2.326  15.099  22.422  0.00  0.00    +0.210 HD
ENDBRANCH   1   2
BRANCH   1   4
ATOM      4  C   UNL     1      -5.346  14.039  21.667  0.00  0.00    +0.175 C 
BRANCH   4   5
ATOM      5  C   UNL     1      -6.172  15.077  22.440  0.00  0.00    +0.176 C 
ATOM      6  O   UNL     1      -5.689  16.398  22.071  0.00  0.00    -0.332 OA
ATOM      7  C   UNL     1      -6.436  17.526  22.635  0.00  0.00    +0.277 C 
ATOM      8  C   UNL     1      -6.511  17.409  24.177  0.00  0.00    +0.110 C 
ATOM      9  C   UNL     1      -6.990  16.010  24.619  0.00  0.00    +0.143 C 
ATOM     10  C   UNL     1      -6.146  14.911  23.971  0.00  0.00    +0.133 C 
BRANCH  10  11
ATOM     11  N   UNL     1      -6.666  13.583  24.330  0.00  0.00    -0.308 N 
ATOM     12  H   UNL     1      -7.592  13.336  24.010  0.00  0.00    +0.149 HD
ATOM     13  C   UNL     1      -5.995  12.682  25.053  0.00  0.00    +0.210 C 
ATOM     14  C   UNL     1      -4.597  13.098  25.548  0.00  0.00    +0.109 C 
ATOM     15  O   UNL     1      -6.450  11.570  25.326  0.00  0.00    -0.276 OA
ENDBRANCH  10  11
BRANCH   7  16
ATOM     16  C   UNL     1      -7.863  17.584  22.052  0.00  0.00    +0.414 C 
ATOM     17  O   UNL     1      -8.051  17.391  20.851  0.00  0.00    -0.240 OA
ATOM     18  O   UNL     1      -8.827  17.823  22.782  0.00  0.00    -0.240 OA
ENDBRANCH   7  16
BRANCH   9  19
ATOM     19  O   UNL     1      -6.900  15.896  26.040  0.00  0.00    -0.390 OA
ATOM     20  H   UNL     1      -7.485  15.198  26.343  0.00  0.00    +0.210 HD
ENDBRANCH   9  19
BRANCH   7  21
ATOM     21  O   UNL     1      -5.724  18.746  22.304  0.00  0.00    -0.343 OA
ATOM     22  C   UNL     1      -4.606  18.575  21.397  0.00  0.00    +0.198 C 
ENDBRANCH   7  21
ENDBRANCH   4   5
BRANCH   4  23
ATOM     23  O   UNL     1      -5.991  12.751  21.719  0.00  0.00    -0.387 OA
ATOM     24  H   UNL     1      -6.392  12.628  22.583  0.00  0.00    +0.210 HD
ENDBRANCH   4  23
ENDBRANCH   1   4
BRANCH   1  25
ATOM     25  C   UNL     1      -3.151  12.863  21.417  0.00  0.00    +0.141 C 
BRANCH  25  28
ATOM     26  C   UNL     1      -3.483  10.479  21.976  0.00  0.00    +0.401 C 
ATOM     27  O   UNL     1      -4.275  10.276  21.053  0.00  0.00    -0.226 OA
ATOM     28  N   UNL     1      -2.914  11.659  22.224  0.00  0.00    -0.279 N 
ATOM     29  H   UNL     1      -2.284  11.729  23.010  0.00  0.00    +0.152 HD
BRANCH  26  30
ATOM     30  O   UNL     1      -3.142   9.399  22.849  0.00  0.00    -0.444 OA
BRANCH  30  31
ATOM     31  C   UNL     1      -4.105   9.314  23.903  0.00  0.00    +0.292 C 
BRANCH  31  33
ATOM     32  N   UNL     1      -2.277  10.321  25.233  0.00  0.00    -0.131 NA
ATOM     33  C   UNL     1      -3.492   9.688  25.191  0.00  0.00    +0.120 A 
ATOM     34  C   UNL     1      -3.945   9.495  26.477  0.00  0.00    +0.137 A 
ATOM     35  N   UNL     1      -2.956  10.019  27.252  0.00  0.00    -0.250 N 
ATOM     36  N   UNL     1      -1.959  10.522  26.503  0.00  0.00    -0.065 NA
BRANCH  35  37
ATOM     37  C   UNL     1      -2.860  10.029  28.696  0.00  0.00    +0.160 C 
BRANCH  37  38
ATOM     38  C   UNL     1      -4.139  10.563  29.350  0.00  0.00    +0.107 C 
BRANCH  38  39
ATOM     39  N   UNL     1      -4.384  11.986  29.056  0.00  0.00    -0.301 NA
ATOM     40  C   UNL     1      -5.809  12.315  28.950  0.00  0.00    +0.084 C 
ATOM     41  C   UNL     1      -5.807  13.825  29.070  0.00  0.00    +0.017 C 
ATOM     42  C   UNL     1      -4.730  14.106  30.102  0.00  0.00    +0.017 C 
ATOM     43  C   UNL     1      -3.848  12.860  30.110  0.00  0.00    +0.084 C 
ENDBRANCH  38  39
ENDBRANCH  37  38
ENDBRANCH  35  37
ENDBRANCH  31  33
ENDBRANCH  30  31
ENDBRANCH  26  30
ENDBRANCH  25  28
ENDBRANCH   1  25
TORSDOF 16
