REMARK VINA RESULT:    -4.474      2.282      5.361
REMARK INTER + INTRA:         -10.853
REMARK INTER:                  -8.363
REMARK INTRA:                  -2.490
REMARK UNBOUND:                -2.848
REMARK  Name = lig_assembled_63.pdb
REMARK  17 active torsions:
REMARK  status: ('A' for Active; 'I' for Inactive)
REMARK    1  A    between atoms: _2  and  _11
REMARK    2  A    between atoms: _6  and  _20
REMARK    3  A    between atoms: _7  and  _15
REMARK    4  A    between atoms: _8  and  _9
REMARK    5  A    between atoms: _8  and  _20
REMARK    6  A    between atoms: _16  and  _36
REMARK    7  A    between atoms: _18  and  _24
REMARK    8  A    between atoms: _19  and  _23
REMARK    9  A    between atoms: _23  and  _24
REMARK   10  A    between atoms: _26  and  _27
REMARK   11  A    between atoms: _28  and  _29
REMARK   12  A    between atoms: _30  and  _32
REMARK   13  A    between atoms: _32  and  _33
REMARK   14  A    between atoms: _32  and  _34
REMARK   15  A    between atoms: _34  and  _35
REMARK   16  A    between atoms: _34  and  _36
REMARK   17  A    between atoms: _37  and  _39
REMARK                            x       y       z     vdW  Elec       q    Type
REMARK                         _______ _______ _______ _____ _____    ______ ____
ROOT
ATOM      1  C   UNL     1      -2.613  10.816  26.605  0.00  0.00    +0.163 C 
ENDROOT
BRANCH   1   2
ATOM      2  O   UNL     1      -2.118  10.211  25.399  0.00  0.00    -0.388 OA
ATOM      3  H   UNL     1      -1.173  10.364  25.328  0.00  0.00    +0.210 HD
ENDBRANCH   1   2
BRANCH   1   4
ATOM      4  C   UNL     1      -2.195   9.986  27.815  0.00  0.00    +0.141 C 
BRANCH   4   7
ATOM      5  C   UNL     1      -3.121   9.438  30.039  0.00  0.00    +0.401 C 
ATOM      6  O   UNL     1      -2.483   8.388  30.150  0.00  0.00    -0.226 OA
ATOM      7  N   UNL     1      -3.052  10.244  28.978  0.00  0.00    -0.279 N 
ATOM      8  H   UNL     1      -3.621  11.078  28.975  0.00  0.00    +0.152 HD
BRANCH   5   9
ATOM      9  O   UNL     1      -3.997   9.834  31.097  0.00  0.00    -0.444 OA
BRANCH   9  10
ATOM     10  C   UNL     1      -3.225  10.289  32.212  0.00  0.00    +0.292 C 
BRANCH  10  12
ATOM     11  N   UNL     1      -1.743  12.265  32.277  0.00  0.00    -0.131 NA
ATOM     12  C   UNL     1      -2.994  11.743  32.118  0.00  0.00    +0.121 A 
ATOM     13  C   UNL     1      -3.881  12.769  31.896  0.00  0.00    +0.145 A 
ATOM     14  N   UNL     1      -3.121  13.919  31.965  0.00  0.00    -0.200 N 
ATOM     15  N   UNL     1      -1.829  13.585  32.174  0.00  0.00    -0.059 NA
BRANCH  14  16
ATOM     16  C   UNL     1      -3.604  15.260  31.895  0.00  0.00    +0.173 A 
ATOM     17  C   UNL     1      -4.494  15.683  30.904  0.00  0.00    +0.096 A 
ATOM     18  C   UNL     1      -4.828  17.048  30.869  0.00  0.00    +0.024 A 
ATOM     19  C   UNL     1      -4.305  17.929  31.811  0.00  0.00    +0.021 A 
ATOM     20  C   UNL     1      -3.463  17.419  32.778  0.00  0.00    +0.113 A 
ATOM     21  N   UNL     1      -3.102  16.119  32.838  0.00  0.00    -0.235 NA
BRANCH  17  22
ATOM     22  C   UNL     1      -5.115  14.839  29.926  0.00  0.00    +0.103 C 
ATOM     23  N   UNL     1      -5.663  14.244  29.094  0.00  0.00    -0.191 NA
ENDBRANCH  17  22
ENDBRANCH  14  16
ENDBRANCH  10  12
ENDBRANCH   9  10
ENDBRANCH   5   9
ENDBRANCH   4   7
ENDBRANCH   1   4
BRANCH   1  24
ATOM     24  C   UNL     1      -4.146  10.938  26.571  0.00  0.00    +0.175 C 
BRANCH  24  25
ATOM     25  C   UNL     1      -4.687  11.017  25.136  0.00  0.00    +0.176 C 
ATOM     26  O   UNL     1      -3.869  11.967  24.401  0.00  0.00    -0.332 OA
ATOM     27  C   UNL     1      -4.175  12.095  22.972  0.00  0.00    +0.277 C 
ATOM     28  C   UNL     1      -5.673  12.426  22.767  0.00  0.00    +0.110 C 
ATOM     29  C   UNL     1      -6.583  11.461  23.557  0.00  0.00    +0.143 C 
ATOM     30  C   UNL     1      -6.174  11.403  25.029  0.00  0.00    +0.133 C 
BRANCH  30  31
ATOM     31  N   UNL     1      -6.992  10.416  25.752  0.00  0.00    -0.308 N 
ATOM     32  H   UNL     1      -6.877   9.441  25.511  0.00  0.00    +0.149 HD
ATOM     33  C   UNL     1      -7.875  10.723  26.706  0.00  0.00    +0.210 C 
ATOM     34  C   UNL     1      -8.045  12.219  27.032  0.00  0.00    +0.109 C 
ATOM     35  O   UNL     1      -8.535   9.874  27.305  0.00  0.00    -0.276 OA
ENDBRANCH  30  31
BRANCH  27  36
ATOM     36  C   UNL     1      -3.827  10.793  22.220  0.00  0.00    +0.414 C 
ATOM     37  O   UNL     1      -3.036   9.987  22.709  0.00  0.00    -0.240 OA
ATOM     38  O   UNL     1      -4.336  10.549  21.126  0.00  0.00    -0.240 OA
ENDBRANCH  27  36
BRANCH  27  39
ATOM     39  O   UNL     1      -3.387  13.191  22.441  0.00  0.00    -0.343 OA
ATOM     40  C   UNL     1      -4.134  14.401  22.159  0.00  0.00    +0.198 C 
ENDBRANCH  27  39
BRANCH  29  41
ATOM     41  O   UNL     1      -7.941  11.893  23.462  0.00  0.00    -0.390 OA
ATOM     42  H   UNL     1      -8.504  11.140  23.265  0.00  0.00    +0.210 HD
ENDBRANCH  29  41
ENDBRANCH  24  25
BRANCH  24  43
ATOM     43  O   UNL     1      -4.569  12.092  27.325  0.00  0.00    -0.387 OA
ATOM     44  H   UNL     1      -4.268  12.890  26.885  0.00  0.00    +0.210 HD
ENDBRANCH  24  43
ENDBRANCH   1  24
TORSDOF 15
