REMARK VINA RESULT:    -5.443      4.499      9.234
REMARK INTER + INTRA:         -12.447
REMARK INTER:                  -9.791
REMARK INTRA:                  -2.656
REMARK UNBOUND:                -2.389
REMARK  Name = lig_assembled_92.pdb
REMARK  18 active torsions:
REMARK  status: ('A' for Active; 'I' for Inactive)
REMARK    1  A    between atoms: _2  and  _11
REMARK    2  A    between atoms: _3  and  _46
REMARK    3  A    between atoms: _6  and  _25
REMARK    4  A    between atoms: _8  and  _9
REMARK    5  A    between atoms: _8  and  _25
REMARK    6  A    between atoms: _14  and  _46
REMARK    7  A    between atoms: _21  and  _41
REMARK    8  A    between atoms: _23  and  _29
REMARK    9  A    between atoms: _24  and  _28
REMARK   10  A    between atoms: _28  and  _29
REMARK   11  A    between atoms: _31  and  _32
REMARK   12  A    between atoms: _33  and  _34
REMARK   13  A    between atoms: _35  and  _37
REMARK   14  A    between atoms: _37  and  _38
REMARK   15  A    between atoms: _37  and  _39
REMARK   16  A    between atoms: _39  and  _40
REMARK   17  A    between atoms: _39  and  _41
REMARK   18  A    between atoms: _42  and  _44
REMARK                            x       y       z     vdW  Elec       q    Type
REMARK                         _______ _______ _______ _____ _____    ______ ____
ROOT
ATOM      1  C   UNL     1      -7.128  11.882  16.206  0.00  0.00    +0.401 C 
ATOM      2  O   UNL     1      -7.358  12.777  15.389  0.00  0.00    -0.226 OA
ATOM      3  N   UNL     1      -7.441  10.600  16.016  0.00  0.00    -0.279 N 
ATOM      4  H   UNL     1      -7.203   9.938  16.741  0.00  0.00    +0.152 HD
ENDROOT
BRANCH   3   5
ATOM      5  C   UNL     1      -8.113  10.096  14.811  0.00  0.00    +0.141 C 
BRANCH   5   6
ATOM      6  C   UNL     1      -7.115   9.613  13.764  0.00  0.00    +0.163 C 
BRANCH   6   7
ATOM      7  O   UNL     1      -6.307  10.711  13.310  0.00  0.00    -0.388 OA
ATOM      8  H   UNL     1      -5.737  11.006  14.024  0.00  0.00    +0.210 HD
ENDBRANCH   6   7
BRANCH   6   9
ATOM      9  C   UNL     1      -6.240   8.498  14.363  0.00  0.00    +0.175 C 
BRANCH   9  10
ATOM     10  C   UNL     1      -4.742   8.815  14.249  0.00  0.00    +0.176 C 
ATOM     11  O   UNL     1      -4.416   8.936  12.837  0.00  0.00    -0.332 OA
ATOM     12  C   UNL     1      -3.041   9.343  12.537  0.00  0.00    +0.277 C 
ATOM     13  C   UNL     1      -2.032   8.393  13.226  0.00  0.00    +0.110 C 
ATOM     14  C   UNL     1      -2.356   8.207  14.723  0.00  0.00    +0.143 C 
ATOM     15  C   UNL     1      -3.813   7.786  14.921  0.00  0.00    +0.133 C 
BRANCH  15  16
ATOM     16  N   UNL     1      -4.133   7.697  16.355  0.00  0.00    -0.308 N 
ATOM     17  H   UNL     1      -4.103   8.548  16.899  0.00  0.00    +0.149 HD
ATOM     18  C   UNL     1      -4.462   6.566  16.983  0.00  0.00    +0.210 C 
ATOM     19  C   UNL     1      -4.475   5.282  16.132  0.00  0.00    +0.109 C 
ATOM     20  O   UNL     1      -4.740   6.523  18.182  0.00  0.00    -0.276 OA
ENDBRANCH  15  16
BRANCH  12  21
ATOM     21  C   UNL     1      -2.785  10.792  13.002  0.00  0.00    +0.414 C 
ATOM     22  O   UNL     1      -3.579  11.350  13.758  0.00  0.00    -0.240 OA
ATOM     23  O   UNL     1      -1.785  11.402  12.622  0.00  0.00    -0.240 OA
ENDBRANCH  12  21
BRANCH  14  24
ATOM     24  O   UNL     1      -1.499   7.211  15.282  0.00  0.00    -0.390 OA
ATOM     25  H   UNL     1      -0.584   7.435  15.098  0.00  0.00    +0.210 HD
ENDBRANCH  14  24
BRANCH  12  26
ATOM     26  O   UNL     1      -2.849   9.251  11.101  0.00  0.00    -0.343 OA
ATOM     27  C   UNL     1      -3.942   9.770  10.303  0.00  0.00    +0.198 C 
ENDBRANCH  12  26
ENDBRANCH   9  10
BRANCH   9  28
ATOM     28  O   UNL     1      -6.532   7.239  13.723  0.00  0.00    -0.387 OA
ATOM     29  H   UNL     1      -5.833   7.028  13.099  0.00  0.00    +0.210 HD
ENDBRANCH   9  28
ENDBRANCH   6   9
ENDBRANCH   5   6
ENDBRANCH   3   5
BRANCH   1  30
ATOM     30  O   UNL     1      -6.483  12.216  17.438  0.00  0.00    -0.444 OA
BRANCH  30  31
ATOM     31  C   UNL     1      -5.181  11.626  17.471  0.00  0.00    +0.292 C 
BRANCH  31  33
ATOM     32  N   UNL     1      -4.991   9.622  18.917  0.00  0.00    -0.131 NA
ATOM     33  C   UNL     1      -4.942  10.979  18.774  0.00  0.00    +0.121 A 
ATOM     34  C   UNL     1      -4.642  11.547  19.990  0.00  0.00    +0.143 A 
ATOM     35  N   UNL     1      -4.484  10.486  20.851  0.00  0.00    -0.220 N 
ATOM     36  N   UNL     1      -4.717   9.330  20.184  0.00  0.00    -0.060 NA
BRANCH  35  37
ATOM     37  C   UNL     1      -4.103  10.510  22.216  0.00  0.00    +0.067 A 
ATOM     38  C   UNL     1      -4.658   9.594  23.124  0.00  0.00    +0.030 A 
ATOM     39  C   UNL     1      -4.326   9.659  24.477  0.00  0.00    +0.031 A 
ATOM     40  C   UNL     1      -3.429  10.630  24.927  0.00  0.00    +0.109 A 
ATOM     41  C   UNL     1      -2.860  11.542  24.034  0.00  0.00    +0.031 A 
ATOM     42  C   UNL     1      -3.190  11.475  22.675  0.00  0.00    +0.030 A 
BRANCH  40  43
ATOM     43  S   UNL     1      -3.149  10.778  26.671  0.00  0.00    +0.074 S 
ATOM     44  O   UNL     1      -2.762  12.150  26.936  0.00  0.00    -0.150 OA
ATOM     45  O   UNL     1      -4.269  10.193  27.370  0.00  0.00    -0.150 OA
BRANCH  43  46
ATOM     46  N   UNL     1      -1.747   9.872  26.924  0.00  0.00    -0.194 N 
ATOM     47  H   UNL     1      -1.218  10.362  27.640  0.00  0.00    +0.176 HD
ATOM     48  C   UNL     1      -2.033   8.531  27.254  0.00  0.00    +0.177 A 
ATOM     49  S   UNL     1      -2.058   7.963  28.866  0.00  0.00    -0.059 S 
ATOM     50  C   UNL     1      -2.325   6.373  28.276  0.00  0.00    +0.068 A 
ATOM     51  C   UNL     1      -2.296   6.384  26.897  0.00  0.00    +0.120 A 
ATOM     52  N   UNL     1      -2.161   7.630  26.312  0.00  0.00    -0.232 NA
ENDBRANCH  43  46
ENDBRANCH  40  43
ENDBRANCH  35  37
ENDBRANCH  31  33
ENDBRANCH  30  31
ENDBRANCH   1  30
TORSDOF 16
