REMARK VINA RESULT:    -5.177      6.596     12.058
REMARK INTER + INTRA:         -11.955
REMARK INTER:                  -9.423
REMARK INTRA:                  -2.532
REMARK UNBOUND:                -2.389
REMARK  Name = lig_assembled_92.pdb
REMARK  18 active torsions:
REMARK  status: ('A' for Active; 'I' for Inactive)
REMARK    1  A    between atoms: _2  and  _11
REMARK    2  A    between atoms: _3  and  _46
REMARK    3  A    between atoms: _6  and  _25
REMARK    4  A    between atoms: _8  and  _9
REMARK    5  A    between atoms: _8  and  _25
REMARK    6  A    between atoms: _14  and  _46
REMARK    7  A    between atoms: _21  and  _41
REMARK    8  A    between atoms: _23  and  _29
REMARK    9  A    between atoms: _24  and  _28
REMARK   10  A    between atoms: _28  and  _29
REMARK   11  A    between atoms: _31  and  _32
REMARK   12  A    between atoms: _33  and  _34
REMARK   13  A    between atoms: _35  and  _37
REMARK   14  A    between atoms: _37  and  _38
REMARK   15  A    between atoms: _37  and  _39
REMARK   16  A    between atoms: _39  and  _40
REMARK   17  A    between atoms: _39  and  _41
REMARK   18  A    between atoms: _42  and  _44
REMARK                            x       y       z     vdW  Elec       q    Type
REMARK                         _______ _______ _______ _____ _____    ______ ____
ROOT
ATOM      1  C   UNL     1      -6.026   9.123  20.994  0.00  0.00    +0.401 C 
ATOM      2  O   UNL     1      -4.842   9.349  21.251  0.00  0.00    -0.226 OA
ATOM      3  N   UNL     1      -6.893   8.608  21.867  0.00  0.00    -0.279 N 
ATOM      4  H   UNL     1      -7.847   8.468  21.566  0.00  0.00    +0.152 HD
ENDROOT
BRANCH   3   5
ATOM      5  C   UNL     1      -6.539   8.234  23.242  0.00  0.00    +0.141 C 
BRANCH   5   6
ATOM      6  C   UNL     1      -7.298   9.064  24.271  0.00  0.00    +0.163 C 
BRANCH   6   7
ATOM      7  O   UNL     1      -7.384   8.349  25.514  0.00  0.00    -0.388 OA
ATOM      8  H   UNL     1      -6.532   7.954  25.716  0.00  0.00    +0.210 HD
ENDBRANCH   6   7
BRANCH   6   9
ATOM      9  C   UNL     1      -6.590  10.417  24.463  0.00  0.00    +0.175 C 
BRANCH   9  10
ATOM     10  C   UNL     1      -5.117  10.246  24.863  0.00  0.00    +0.176 C 
ATOM     11  O   UNL     1      -5.075   9.881  26.270  0.00  0.00    -0.332 OA
ATOM     12  C   UNL     1      -3.746   9.572  26.805  0.00  0.00    +0.277 C 
ATOM     13  C   UNL     1      -2.769  10.744  26.539  0.00  0.00    +0.110 C 
ATOM     14  C   UNL     1      -2.802  11.189  25.062  0.00  0.00    +0.143 C 
ATOM     15  C   UNL     1      -4.233  11.482  24.609  0.00  0.00    +0.133 C 
BRANCH  15  16
ATOM     16  N   UNL     1      -4.261  11.821  23.178  0.00  0.00    -0.308 N 
ATOM     17  H   UNL     1      -4.011  11.098  22.517  0.00  0.00    +0.149 HD
ATOM     18  C   UNL     1      -4.596  13.020  22.695  0.00  0.00    +0.210 C 
ATOM     19  C   UNL     1      -4.947  14.107  23.728  0.00  0.00    +0.109 C 
ATOM     20  O   UNL     1      -4.625  13.271  21.489  0.00  0.00    -0.276 OA
ENDBRANCH  15  16
BRANCH  12  21
ATOM     21  C   UNL     1      -3.187   8.281  26.170  0.00  0.00    +0.414 C 
ATOM     22  O   UNL     1      -3.950   7.450  25.679  0.00  0.00    -0.240 OA
ATOM     23  O   UNL     1      -1.973   8.072  26.148  0.00  0.00    -0.240 OA
ENDBRANCH  12  21
BRANCH  14  24
ATOM     24  O   UNL     1      -2.006  12.363  24.895  0.00  0.00    -0.390 OA
ATOM     25  H   UNL     1      -1.297  12.183  24.274  0.00  0.00    +0.210 HD
ENDBRANCH  14  24
BRANCH  12  26
ATOM     26  O   UNL     1      -3.869   9.395  28.240  0.00  0.00    -0.343 OA
ATOM     27  C   UNL     1      -2.826  10.024  29.026  0.00  0.00    +0.198 C 
ENDBRANCH  12  26
ENDBRANCH   9  10
BRANCH   9  28
ATOM     28  O   UNL     1      -7.284  11.205  25.450  0.00  0.00    -0.387 OA
ATOM     29  H   UNL     1      -6.669  11.817  25.862  0.00  0.00    +0.210 HD
ENDBRANCH   9  28
ENDBRANCH   6   9
ENDBRANCH   5   6
ENDBRANCH   3   5
BRANCH   1  30
ATOM     30  O   UNL     1      -6.524   9.427  19.689  0.00  0.00    -0.444 OA
BRANCH  30  31
ATOM     31  C   UNL     1      -5.623   8.918  18.703  0.00  0.00    +0.292 C 
BRANCH  31  33
ATOM     32  N   UNL     1      -5.337  11.310  18.120  0.00  0.00    -0.131 NA
ATOM     33  C   UNL     1      -5.204   9.994  17.785  0.00  0.00    +0.121 A 
ATOM     34  C   UNL     1      -4.639   9.904  16.535  0.00  0.00    +0.143 A 
ATOM     35  N   UNL     1      -4.414  11.206  16.150  0.00  0.00    -0.220 N 
ATOM     36  N   UNL     1      -4.861  12.042  17.119  0.00  0.00    -0.060 NA
BRANCH  35  37
ATOM     37  C   UNL     1      -3.788  11.680  14.970  0.00  0.00    +0.067 A 
ATOM     38  C   UNL     1      -3.723  13.057  14.704  0.00  0.00    +0.030 A 
ATOM     39  C   UNL     1      -3.160  13.516  13.515  0.00  0.00    +0.031 A 
ATOM     40  C   UNL     1      -2.649  12.603  12.590  0.00  0.00    +0.109 A 
ATOM     41  C   UNL     1      -2.697  11.230  12.844  0.00  0.00    +0.031 A 
ATOM     42  C   UNL     1      -3.259  10.769  14.041  0.00  0.00    +0.030 A 
BRANCH  40  43
ATOM     43  S   UNL     1      -2.080  13.214  11.025  0.00  0.00    +0.074 S 
ATOM     44  O   UNL     1      -2.443  12.236  10.017  0.00  0.00    -0.150 OA
ATOM     45  O   UNL     1      -2.501  14.588  10.886  0.00  0.00    -0.150 OA
BRANCH  43  46
ATOM     46  N   UNL     1      -0.399  13.111  11.149  0.00  0.00    -0.194 N 
ATOM     47  H   UNL     1      -0.091  12.550  10.360  0.00  0.00    +0.176 HD
ATOM     48  C   UNL     1       0.208  14.383  11.207  0.00  0.00    +0.177 A 
ATOM     49  S   UNL     1       0.883  15.147   9.836  0.00  0.00    -0.059 S 
ATOM     50  C   UNL     1       1.433  16.421  10.846  0.00  0.00    +0.068 A 
ATOM     51  C   UNL     1       1.129  16.130  12.159  0.00  0.00    +0.120 A 
ATOM     52  N   UNL     1       0.396  14.974  12.361  0.00  0.00    -0.232 NA
ENDBRANCH  43  46
ENDBRANCH  40  43
ENDBRANCH  35  37
ENDBRANCH  31  33
ENDBRANCH  30  31
ENDBRANCH   1  30
TORSDOF 16
