REMARK VINA RESULT:    -4.875      1.745      2.134
REMARK INTER + INTRA:         -11.625
REMARK INTER:                  -8.239
REMARK INTRA:                  -3.386
REMARK UNBOUND:                -2.903
REMARK  Name = lig_assembled_69.pdb
REMARK  18 active torsions:
REMARK  status: ('A' for Active; 'I' for Inactive)
REMARK    1  A    between atoms: _2  and  _9
REMARK    2  A    between atoms: _4  and  _21
REMARK    3  A    between atoms: _6  and  _7
REMARK    4  A    between atoms: _6  and  _21
REMARK    5  A    between atoms: _11  and  _16
REMARK    6  A    between atoms: _14  and  _15
REMARK    7  A    between atoms: _17  and  _37
REMARK    8  A    between atoms: _19  and  _25
REMARK    9  A    between atoms: _20  and  _24
REMARK   10  A    between atoms: _24  and  _25
REMARK   11  A    between atoms: _27  and  _28
REMARK   12  A    between atoms: _29  and  _30
REMARK   13  A    between atoms: _31  and  _33
REMARK   14  A    between atoms: _33  and  _34
REMARK   15  A    between atoms: _33  and  _35
REMARK   16  A    between atoms: _35  and  _36
REMARK   17  A    between atoms: _35  and  _37
REMARK   18  A    between atoms: _38  and  _40
REMARK                            x       y       z     vdW  Elec       q    Type
REMARK                         _______ _______ _______ _____ _____    ______ ____
ROOT
ATOM      1  C   UNL     1      -2.911   9.294  30.887  0.00  0.00    +0.163 C 
ENDROOT
BRANCH   1   2
ATOM      2  O   UNL     1      -2.830   9.773  29.534  0.00  0.00    -0.388 OA
ATOM      3  H   UNL     1      -3.653   9.583  29.077  0.00  0.00    +0.210 HD
ENDBRANCH   1   2
BRANCH   1   4
ATOM      4  C   UNL     1      -4.095   9.939  31.628  0.00  0.00    +0.175 C 
BRANCH   4   5
ATOM      5  C   UNL     1      -4.167  11.455  31.394  0.00  0.00    +0.176 C 
ATOM      6  O   UNL     1      -4.069  12.112  32.687  0.00  0.00    -0.332 OA
ATOM      7  C   UNL     1      -4.014  13.577  32.651  0.00  0.00    +0.277 C 
ATOM      8  C   UNL     1      -5.222  14.144  31.866  0.00  0.00    +0.110 C 
ATOM      9  C   UNL     1      -5.386  13.453  30.496  0.00  0.00    +0.143 C 
ATOM     10  C   UNL     1      -5.429  11.933  30.651  0.00  0.00    +0.133 C 
BRANCH  10  11
ATOM     11  N   UNL     1      -5.498  11.282  29.333  0.00  0.00    -0.308 N 
ATOM     12  H   UNL     1      -4.757  11.472  28.673  0.00  0.00    +0.149 HD
ATOM     13  C   UNL     1      -6.477  10.458  28.951  0.00  0.00    +0.210 C 
ATOM     14  C   UNL     1      -7.606  10.209  29.969  0.00  0.00    +0.109 C 
ATOM     15  O   UNL     1      -6.502   9.916  27.845  0.00  0.00    -0.276 OA
ENDBRANCH  10  11
BRANCH   7  16
ATOM     16  C   UNL     1      -2.702  14.059  31.998  0.00  0.00    +0.414 C 
ATOM     17  O   UNL     1      -1.668  13.403  32.125  0.00  0.00    -0.240 OA
ATOM     18  O   UNL     1      -2.677  15.103  31.345  0.00  0.00    -0.240 OA
ENDBRANCH   7  16
BRANCH   7  19
ATOM     19  O   UNL     1      -4.087  14.062  34.017  0.00  0.00    -0.343 OA
ATOM     20  C   UNL     1      -4.910  15.241  34.204  0.00  0.00    +0.198 C 
ENDBRANCH   7  19
BRANCH   9  21
ATOM     21  O   UNL     1      -6.593  13.897  29.875  0.00  0.00    -0.390 OA
ATOM     22  H   UNL     1      -7.067  14.478  30.474  0.00  0.00    +0.210 HD
ENDBRANCH   9  21
ENDBRANCH   4   5
BRANCH   4  23
ATOM     23  O   UNL     1      -4.009   9.658  33.040  0.00  0.00    -0.387 OA
ATOM     24  H   UNL     1      -3.895   8.714  33.172  0.00  0.00    +0.210 HD
ENDBRANCH   4  23
ENDBRANCH   1   4
BRANCH   1  25
ATOM     25  C   UNL     1      -3.071   7.777  30.894  0.00  0.00    +0.141 C 
BRANCH  25  28
ATOM     26  C   UNL     1      -3.563   6.582  28.789  0.00  0.00    +0.401 C 
ATOM     27  O   UNL     1      -4.765   6.454  29.032  0.00  0.00    -0.226 OA
ATOM     28  N   UNL     1      -2.696   7.181  29.606  0.00  0.00    -0.279 N 
ATOM     29  H   UNL     1      -1.727   7.227  29.323  0.00  0.00    +0.152 HD
BRANCH  26  30
ATOM     30  O   UNL     1      -3.043   6.058  27.564  0.00  0.00    -0.444 OA
BRANCH  30  31
ATOM     31  C   UNL     1      -3.709   6.676  26.459  0.00  0.00    +0.292 C 
BRANCH  31  33
ATOM     32  N   UNL     1      -1.971   8.404  26.781  0.00  0.00    -0.131 NA
ATOM     33  C   UNL     1      -3.156   8.021  26.212  0.00  0.00    +0.120 A 
ATOM     34  C   UNL     1      -3.651   9.061  25.458  0.00  0.00    +0.137 A 
ATOM     35  N   UNL     1      -2.729  10.052  25.620  0.00  0.00    -0.248 N 
ATOM     36  N   UNL     1      -1.722   9.652  26.415  0.00  0.00    -0.065 NA
BRANCH  35  37
ATOM     37  C   UNL     1      -2.768  11.414  25.091  0.00  0.00    +0.114 C 
ATOM     38  C   UNL     1      -3.431  12.382  26.079  0.00  0.00    +0.062 C 
ATOM     39  C   UNL     1      -4.958  12.456  26.033  0.00  0.00    +0.139 C 
ATOM     40  C   UNL     1      -5.561  13.110  24.821  0.00  0.00    +0.002 C 
ATOM     41  C   UNL     1      -5.015  13.295  23.609  0.00  0.00    +0.002 C 
ATOM     42  C   UNL     1      -3.709  12.765  23.100  0.00  0.00    +0.139 C 
ATOM     43  C   UNL     1      -3.319  11.402  23.658  0.00  0.00    +0.062 C 
BRANCH  39  44
ATOM     44  O   UNL     1      -5.373  13.257  27.146  0.00  0.00    -0.388 OA
ATOM     45  H   UNL     1      -6.252  12.943  27.418  0.00  0.00    +0.210 HD
ENDBRANCH  39  44
BRANCH  42  46
ATOM     46  O   UNL     1      -2.686  13.716  23.351  0.00  0.00    -0.388 OA
ATOM     47  H   UNL     1      -2.312  13.974  22.490  0.00  0.00    +0.210 HD
ENDBRANCH  42  46
ENDBRANCH  35  37
ENDBRANCH  31  33
ENDBRANCH  30  31
ENDBRANCH  26  30
ENDBRANCH  25  28
ENDBRANCH   1  25
TORSDOF 16
