REMARK VINA RESULT:    -3.679      2.683      7.565
REMARK INTER + INTRA:         -10.411
REMARK INTER:                  -6.798
REMARK INTRA:                  -3.613
REMARK UNBOUND:                -3.721
REMARK  Name = lig_assembled_35.pdb
REMARK  19 active torsions:
REMARK  status: ('A' for Active; 'I' for Inactive)
REMARK    1  A    between atoms: _2  and  _9
REMARK    2  A    between atoms: _4  and  _17
REMARK    3  A    between atoms: _5  and  _9
REMARK    4  A    between atoms: _5  and  _11
REMARK    5  A    between atoms: _6  and  _7
REMARK    6  A    between atoms: _6  and  _17
REMARK    7  A    between atoms: _9  and  _10
REMARK    8  A    between atoms: _13  and  _33
REMARK    9  A    between atoms: _15  and  _21
REMARK   10  A    between atoms: _16  and  _20
REMARK   11  A    between atoms: _20  and  _21
REMARK   12  A    between atoms: _23  and  _24
REMARK   13  A    between atoms: _25  and  _26
REMARK   14  A    between atoms: _27  and  _29
REMARK   15  A    between atoms: _29  and  _30
REMARK   16  A    between atoms: _29  and  _31
REMARK   17  A    between atoms: _31  and  _32
REMARK   18  A    between atoms: _31  and  _33
REMARK   19  A    between atoms: _34  and  _36
REMARK                            x       y       z     vdW  Elec       q    Type
REMARK                         _______ _______ _______ _____ _____    ______ ____
ROOT
ATOM      1  C   UNL     1      -7.664  14.327  26.371  0.00  0.00    +0.163 C 
ENDROOT
BRANCH   1   2
ATOM      2  O   UNL     1      -7.889  15.654  25.869  0.00  0.00    -0.388 OA
ATOM      3  H   UNL     1      -8.469  16.130  26.469  0.00  0.00    +0.210 HD
ENDBRANCH   1   2
BRANCH   1   4
ATOM      4  C   UNL     1      -6.327  13.765  25.860  0.00  0.00    +0.175 C 
BRANCH   4   5
ATOM      5  C   UNL     1      -6.039  14.186  24.411  0.00  0.00    +0.176 C 
ATOM      6  O   UNL     1      -7.300  14.187  23.687  0.00  0.00    -0.332 OA
ATOM      7  C   UNL     1      -7.236  14.669  22.304  0.00  0.00    +0.277 C 
ATOM      8  C   UNL     1      -6.172  13.878  21.503  0.00  0.00    +0.110 C 
ATOM      9  C   UNL     1      -4.822  13.823  22.249  0.00  0.00    +0.143 C 
ATOM     10  C   UNL     1      -5.006  13.310  23.678  0.00  0.00    +0.133 C 
BRANCH  10  11
ATOM     11  N   UNL     1      -3.728  13.345  24.406  0.00  0.00    -0.308 N 
ATOM     12  H   UNL     1      -3.356  14.248  24.665  0.00  0.00    +0.149 HD
ATOM     13  C   UNL     1      -3.026  12.260  24.747  0.00  0.00    +0.210 C 
ATOM     14  C   UNL     1      -3.606  10.900  24.316  0.00  0.00    +0.109 C 
ATOM     15  O   UNL     1      -1.965  12.319  25.370  0.00  0.00    -0.276 OA
ENDBRANCH  10  11
BRANCH   7  16
ATOM     16  C   UNL     1      -6.897  16.173  22.264  0.00  0.00    +0.414 C 
ATOM     17  O   UNL     1      -6.210  16.631  21.352  0.00  0.00    -0.240 OA
ATOM     18  O   UNL     1      -7.310  16.930  23.144  0.00  0.00    -0.240 OA
ENDBRANCH   7  16
BRANCH   7  19
ATOM     19  O   UNL     1      -8.531  14.444  21.690  0.00  0.00    -0.343 OA
ATOM     20  C   UNL     1      -8.691  13.150  21.055  0.00  0.00    +0.198 C 
ENDBRANCH   7  19
BRANCH   9  21
ATOM     21  O   UNL     1      -3.921  12.961  21.553  0.00  0.00    -0.390 OA
ATOM     22  H   UNL     1      -3.023  13.282  21.661  0.00  0.00    +0.210 HD
ENDBRANCH   9  21
ENDBRANCH   4   5
BRANCH   4  23
ATOM     23  O   UNL     1      -6.318  12.327  25.970  0.00  0.00    -0.387 OA
ATOM     24  H   UNL     1      -5.425  12.001  25.831  0.00  0.00    +0.210 HD
ENDBRANCH   4  23
ENDBRANCH   1   4
BRANCH   1  25
ATOM     25  C   UNL     1      -7.661  14.339  27.896  0.00  0.00    +0.141 C 
BRANCH  25  28
ATOM     26  C   UNL     1      -5.950  14.426  29.677  0.00  0.00    +0.401 C 
ATOM     27  O   UNL     1      -6.682  15.005  30.482  0.00  0.00    -0.226 OA
ATOM     28  N   UNL     1      -6.324  14.082  28.444  0.00  0.00    -0.279 N 
ATOM     29  H   UNL     1      -5.648  13.618  27.853  0.00  0.00    +0.152 HD
BRANCH  26  30
ATOM     30  O   UNL     1      -4.614  14.097  30.065  0.00  0.00    -0.444 OA
BRANCH  30  31
ATOM     31  C   UNL     1      -4.608  12.834  30.735  0.00  0.00    +0.292 C 
BRANCH  31  33
ATOM     32  N   UNL     1      -4.537  11.784  28.495  0.00  0.00    -0.131 NA
ATOM     33  C   UNL     1      -4.169  11.768  29.814  0.00  0.00    +0.120 A 
ATOM     34  C   UNL     1      -3.394  10.655  30.051  0.00  0.00    +0.138 A 
ATOM     35  N   UNL     1      -3.313  10.044  28.833  0.00  0.00    -0.238 N 
ATOM     36  N   UNL     1      -4.020  10.715  27.907  0.00  0.00    -0.065 NA
BRANCH  35  37
ATOM     37  C   UNL     1      -2.629   8.823  28.453  0.00  0.00    +0.214 C 
ATOM     38  C   UNL     1      -3.591   7.639  28.440  0.00  0.00    +0.045 C 
BRANCH  37  39
ATOM     39  C   UNL     1      -1.903   8.983  27.133  0.00  0.00    +0.329 C 
ATOM     40  O   UNL     1      -1.958   8.179  26.211  0.00  0.00    -0.249 OA
BRANCH  39  41
ATOM     41  O   UNL     1      -1.138  10.099  27.046  0.00  0.00    -0.479 OA
ATOM     42  H   UNL     1      -1.279  10.650  26.248  0.00  0.00    +0.295 HD
ENDBRANCH  39  41
ENDBRANCH  37  39
ENDBRANCH  35  37
ENDBRANCH  31  33
ENDBRANCH  30  31
ENDBRANCH  26  30
ENDBRANCH  25  28
ENDBRANCH   1  25
TORSDOF 16
