REMARK VINA RESULT:    -4.918      4.876      8.549
REMARK INTER + INTRA:         -11.378
REMARK INTER:                  -8.448
REMARK INTRA:                  -2.930
REMARK UNBOUND:                -2.867
REMARK  Name = lig_assembled_70.pdb
REMARK  16 active torsions:
REMARK  status: ('A' for Active; 'I' for Inactive)
REMARK    1  A    between atoms: _2  and  _10
REMARK    2  A    between atoms: _5  and  _22
REMARK    3  A    between atoms: _7  and  _8
REMARK    4  A    between atoms: _7  and  _22
REMARK    5  A    between atoms: _18  and  _38
REMARK    6  A    between atoms: _20  and  _26
REMARK    7  A    between atoms: _21  and  _25
REMARK    8  A    between atoms: _25  and  _26
REMARK    9  A    between atoms: _28  and  _29
REMARK   10  A    between atoms: _30  and  _31
REMARK   11  A    between atoms: _32  and  _34
REMARK   12  A    between atoms: _34  and  _35
REMARK   13  A    between atoms: _34  and  _36
REMARK   14  A    between atoms: _36  and  _37
REMARK   15  A    between atoms: _36  and  _38
REMARK   16  A    between atoms: _39  and  _41
REMARK                            x       y       z     vdW  Elec       q    Type
REMARK                         _______ _______ _______ _____ _____    ______ ____
ROOT
ATOM      1  C   UNL     1      -3.496  11.217  32.160  0.00  0.00    +0.163 C 
ENDROOT
BRANCH   1   2
ATOM      2  O   UNL     1      -2.153  11.505  31.740  0.00  0.00    -0.388 OA
ATOM      3  H   UNL     1      -1.826  10.785  31.194  0.00  0.00    +0.210 HD
ENDBRANCH   1   2
BRANCH   1   4
ATOM      4  C   UNL     1      -3.564   9.821  32.769  0.00  0.00    +0.141 C 
BRANCH   4   7
ATOM      5  C   UNL     1      -3.850   7.806  31.367  0.00  0.00    +0.401 C 
ATOM      6  O   UNL     1      -5.034   7.646  31.673  0.00  0.00    -0.226 OA
ATOM      7  N   UNL     1      -3.085   8.793  31.837  0.00  0.00    -0.279 N 
ATOM      8  H   UNL     1      -2.122   8.835  31.534  0.00  0.00    +0.152 HD
BRANCH   5   9
ATOM      9  O   UNL     1      -3.237   6.889  30.457  0.00  0.00    -0.444 OA
BRANCH   9  10
ATOM     10  C   UNL     1      -2.037   7.464  29.934  0.00  0.00    +0.292 C 
BRANCH  10  12
ATOM     11  N   UNL     1      -1.815   6.926  27.524  0.00  0.00    -0.131 NA
ATOM     12  C   UNL     1      -2.203   7.793  28.506  0.00  0.00    +0.121 A 
ATOM     13  C   UNL     1      -2.729   8.922  27.924  0.00  0.00    +0.143 A 
ATOM     14  N   UNL     1      -2.654   8.693  26.569  0.00  0.00    -0.218 N 
ATOM     15  N   UNL     1      -2.086   7.485  26.350  0.00  0.00    -0.060 NA
BRANCH  14  16
ATOM     16  C   UNL     1      -3.097   9.520  25.516  0.00  0.00    +0.086 A 
ATOM     17  C   UNL     1      -3.907   9.010  24.515  0.00  0.00    +0.139 A 
ATOM     18  N   UNL     1      -4.406   9.759  23.498  0.00  0.00    -0.253 NA
ATOM     19  C   UNL     1      -4.105  11.070  23.464  0.00  0.00    +0.071 A 
ATOM     20  C   UNL     1      -3.275  11.673  24.431  0.00  0.00    +0.002 A 
ATOM     21  C   UNL     1      -2.982  13.048  24.364  0.00  0.00    +0.010 A 
ATOM     22  C   UNL     1      -3.527  13.833  23.352  0.00  0.00    +0.001 A 
ATOM     23  C   UNL     1      -4.354  13.246  22.401  0.00  0.00    +0.002 A 
ATOM     24  C   UNL     1      -4.628  11.876  22.461  0.00  0.00    +0.028 A 
ATOM     25  C   UNL     1      -2.763  10.874  25.461  0.00  0.00    +0.039 A 
ENDBRANCH  14  16
ENDBRANCH  10  12
ENDBRANCH   9  10
ENDBRANCH   5   9
ENDBRANCH   4   7
ENDBRANCH   1   4
BRANCH   1  26
ATOM     26  C   UNL     1      -4.475  11.310  30.977  0.00  0.00    +0.175 C 
BRANCH  26  27
ATOM     27  C   UNL     1      -4.788  12.765  30.598  0.00  0.00    +0.176 C 
ATOM     28  O   UNL     1      -5.085  13.492  31.823  0.00  0.00    -0.332 OA
ATOM     29  C   UNL     1      -5.306  14.932  31.667  0.00  0.00    +0.277 C 
ATOM     30  C   UNL     1      -6.414  15.199  30.619  0.00  0.00    +0.110 C 
ATOM     31  C   UNL     1      -6.158  14.423  29.310  0.00  0.00    +0.143 C 
ATOM     32  C   UNL     1      -5.938  12.935  29.589  0.00  0.00    +0.133 C 
BRANCH  32  33
ATOM     33  N   UNL     1      -5.610  12.221  28.345  0.00  0.00    -0.308 N 
ATOM     34  H   UNL     1      -4.732  12.438  27.894  0.00  0.00    +0.149 HD
ATOM     35  C   UNL     1      -6.396  11.305  27.773  0.00  0.00    +0.210 C 
ATOM     36  C   UNL     1      -7.738  11.016  28.470  0.00  0.00    +0.109 C 
ATOM     37  O   UNL     1      -6.088  10.712  26.739  0.00  0.00    -0.276 OA
ENDBRANCH  32  33
BRANCH  29  38
ATOM     38  C   UNL     1      -4.006  15.642  31.236  0.00  0.00    +0.414 C 
ATOM     39  O   UNL     1      -2.912  15.138  31.486  0.00  0.00    -0.240 OA
ATOM     40  O   UNL     1      -4.051  16.718  30.638  0.00  0.00    -0.240 OA
ENDBRANCH  29  38
BRANCH  31  41
ATOM     41  O   UNL     1      -7.274  14.577  28.432  0.00  0.00    -0.390 OA
ATOM     42  H   UNL     1      -7.457  13.741  27.996  0.00  0.00    +0.210 HD
ENDBRANCH  31  41
BRANCH  29  43
ATOM     43  O   UNL     1      -5.749  15.459  32.944  0.00  0.00    -0.343 OA
ATOM     44  C   UNL     1      -6.760  16.495  32.862  0.00  0.00    +0.198 C 
ENDBRANCH  29  43
ENDBRANCH  26  27
BRANCH  26  45
ATOM     45  O   UNL     1      -5.693  10.604  31.284  0.00  0.00    -0.387 OA
ATOM     46  H   UNL     1      -5.596  10.145  32.121  0.00  0.00    +0.210 HD
ENDBRANCH  26  45
ENDBRANCH   1  26
TORSDOF 14
