REMARK VINA RESULT:    -5.047      5.020     10.022
REMARK INTER + INTRA:         -11.926
REMARK INTER:                  -8.646
REMARK INTRA:                  -3.281
REMARK UNBOUND:                -2.453
REMARK  Name = lig_assembled_75.pdb
REMARK  19 active torsions:
REMARK  status: ('A' for Active; 'I' for Inactive)
REMARK    1  A    between atoms: _2  and  _9
REMARK    2  A    between atoms: _4  and  _23
REMARK    3  A    between atoms: _6  and  _7
REMARK    4  A    between atoms: _6  and  _23
REMARK    5  A    between atoms: _11  and  _12
REMARK    6  A    between atoms: _13  and  _14
REMARK    7  A    between atoms: _14  and  _17
REMARK    8  A    between atoms: _19  and  _39
REMARK    9  A    between atoms: _21  and  _27
REMARK   10  A    between atoms: _22  and  _26
REMARK   11  A    between atoms: _26  and  _27
REMARK   12  A    between atoms: _29  and  _30
REMARK   13  A    between atoms: _31  and  _32
REMARK   14  A    between atoms: _33  and  _35
REMARK   15  A    between atoms: _35  and  _36
REMARK   16  A    between atoms: _35  and  _37
REMARK   17  A    between atoms: _37  and  _38
REMARK   18  A    between atoms: _37  and  _39
REMARK   19  A    between atoms: _40  and  _42
REMARK                            x       y       z     vdW  Elec       q    Type
REMARK                         _______ _______ _______ _____ _____    ______ ____
ROOT
ATOM      1  C   UNL     1      -6.902  14.574  29.060  0.00  0.00    +0.141 C 
ENDROOT
BRANCH   1   4
ATOM      2  C   UNL     1      -5.534  15.769  30.735  0.00  0.00    +0.401 C 
ATOM      3  O   UNL     1      -6.486  16.007  31.481  0.00  0.00    -0.226 OA
ATOM      4  N   UNL     1      -5.638  15.110  29.580  0.00  0.00    -0.279 N 
ATOM      5  H   UNL     1      -4.800  14.972  29.033  0.00  0.00    +0.152 HD
BRANCH   2   6
ATOM      6  O   UNL     1      -4.229  16.220  31.109  0.00  0.00    -0.444 OA
BRANCH   6   7
ATOM      7  C   UNL     1      -3.911  15.732  32.415  0.00  0.00    +0.292 C 
BRANCH   7   9
ATOM      8  N   UNL     1      -2.007  14.154  32.383  0.00  0.00    -0.131 NA
ATOM      9  C   UNL     1      -3.354  14.369  32.332  0.00  0.00    +0.121 A 
ATOM     10  C   UNL     1      -3.998  13.161  32.198  0.00  0.00    +0.143 A 
ATOM     11  N   UNL     1      -2.993  12.222  32.170  0.00  0.00    -0.220 N 
ATOM     12  N   UNL     1      -1.795  12.849  32.282  0.00  0.00    -0.060 NA
BRANCH  11  13
ATOM     13  C   UNL     1      -3.092  10.815  32.019  0.00  0.00    +0.068 A 
ATOM     14  C   UNL     1      -2.828  10.237  30.765  0.00  0.00    +0.035 A 
ATOM     15  C   UNL     1      -2.980   8.858  30.564  0.00  0.00    -0.023 A 
ATOM     16  C   UNL     1      -3.339   8.055  31.653  0.00  0.00    +0.008 A 
ATOM     17  C   UNL     1      -3.581   8.621  32.907  0.00  0.00    +0.003 A 
ATOM     18  C   UNL     1      -3.467   9.998  33.091  0.00  0.00    +0.028 A 
BRANCH  15  19
ATOM     19  C   UNL     1      -2.758   8.221  29.257  0.00  0.00    +0.015 C 
ATOM     20  C   UNL     1      -3.106   8.779  28.085  0.00  0.00    +0.092 C 
BRANCH  20  21
ATOM     21  C   UNL     1      -2.890   8.037  26.829  0.00  0.00    +0.330 C 
ATOM     22  O   UNL     1      -1.804   7.859  26.306  0.00  0.00    -0.246 OA
BRANCH  21  23
ATOM     23  O   UNL     1      -4.043   7.557  26.322  0.00  0.00    -0.478 OA
ATOM     24  H   UNL     1      -4.115   7.571  25.351  0.00  0.00    +0.295 HD
ENDBRANCH  21  23
ENDBRANCH  20  21
ENDBRANCH  15  19
ENDBRANCH  11  13
ENDBRANCH   7   9
ENDBRANCH   6   7
ENDBRANCH   2   6
ENDBRANCH   1   4
BRANCH   1  25
ATOM     25  C   UNL     1      -6.686  13.713  27.819  0.00  0.00    +0.163 C 
BRANCH  25  26
ATOM     26  O   UNL     1      -6.793  14.520  26.636  0.00  0.00    -0.388 OA
ATOM     27  H   UNL     1      -7.719  14.672  26.434  0.00  0.00    +0.210 HD
ENDBRANCH  25  26
BRANCH  25  28
ATOM     28  C   UNL     1      -5.308  13.033  27.899  0.00  0.00    +0.175 C 
BRANCH  28  29
ATOM     29  C   UNL     1      -5.015  12.174  26.660  0.00  0.00    +0.176 C 
ATOM     30  O   UNL     1      -4.743  13.071  25.548  0.00  0.00    -0.332 OA
ATOM     31  C   UNL     1      -4.336  12.425  24.297  0.00  0.00    +0.277 C 
ATOM     32  C   UNL     1      -5.382  11.365  23.871  0.00  0.00    +0.110 C 
ATOM     33  C   UNL     1      -5.727  10.407  25.030  0.00  0.00    +0.143 C 
ATOM     34  C   UNL     1      -6.133  11.185  26.282  0.00  0.00    +0.133 C 
BRANCH  34  35
ATOM     35  N   UNL     1      -6.375  10.265  27.405  0.00  0.00    -0.308 N 
ATOM     36  H   UNL     1      -5.578   9.792  27.807  0.00  0.00    +0.149 HD
ATOM     37  C   UNL     1      -7.579  10.014  27.926  0.00  0.00    +0.210 C 
ATOM     38  C   UNL     1      -8.776  10.731  27.274  0.00  0.00    +0.109 C 
ATOM     39  O   UNL     1      -7.750   9.250  28.877  0.00  0.00    -0.276 OA
ENDBRANCH  34  35
BRANCH  31  40
ATOM     40  C   UNL     1      -2.956  11.754  24.452  0.00  0.00    +0.414 C 
ATOM     41  O   UNL     1      -2.026  12.364  24.978  0.00  0.00    -0.240 OA
ATOM     42  O   UNL     1      -2.772  10.605  24.050  0.00  0.00    -0.240 OA
ENDBRANCH  31  40
BRANCH  31  43
ATOM     43  O   UNL     1      -4.272  13.444  23.266  0.00  0.00    -0.343 OA
ATOM     44  C   UNL     1      -4.583  12.981  21.928  0.00  0.00    +0.198 C 
ENDBRANCH  31  43
BRANCH  33  45
ATOM     45  O   UNL     1      -6.799   9.547  24.642  0.00  0.00    -0.390 OA
ATOM     46  H   UNL     1      -6.590   8.643  24.890  0.00  0.00    +0.210 HD
ENDBRANCH  33  45
ENDBRANCH  28  29
BRANCH  28  47
ATOM     47  O   UNL     1      -5.219  12.230  29.093  0.00  0.00    -0.387 OA
ATOM     48  H   UNL     1      -4.876  11.361  28.869  0.00  0.00    +0.210 HD
ENDBRANCH  28  47
ENDBRANCH  25  28
ENDBRANCH   1  25
TORSDOF 17
