REMARK VINA RESULT:    -5.044      6.301     12.277
REMARK INTER + INTRA:         -13.211
REMARK INTER:                 -10.339
REMARK INTRA:                  -2.872
REMARK UNBOUND:                -3.302
REMARK  Name = lig_assembled_84.pdb
REMARK  21 active torsions:
REMARK  status: ('A' for Active; 'I' for Inactive)
REMARK    1  A    between atoms: _2  and  _11
REMARK    2  A    between atoms: _3  and  _14
REMARK    3  A    between atoms: _4  and  _17
REMARK    4  A    between atoms: _6  and  _28
REMARK    5  A    between atoms: _8  and  _9
REMARK    6  A    between atoms: _8  and  _28
REMARK    7  A    between atoms: _11  and  _12
REMARK    8  A    between atoms: _12  and  _13
REMARK    9  A    between atoms: _12  and  _14
REMARK   10  A    between atoms: _24  and  _44
REMARK   11  A    between atoms: _26  and  _32
REMARK   12  A    between atoms: _27  and  _31
REMARK   13  A    between atoms: _31  and  _32
REMARK   14  A    between atoms: _34  and  _35
REMARK   15  A    between atoms: _36  and  _37
REMARK   16  A    between atoms: _38  and  _40
REMARK   17  A    between atoms: _40  and  _41
REMARK   18  A    between atoms: _40  and  _42
REMARK   19  A    between atoms: _42  and  _43
REMARK   20  A    between atoms: _42  and  _44
REMARK   21  A    between atoms: _45  and  _47
REMARK                            x       y       z     vdW  Elec       q    Type
REMARK                         _______ _______ _______ _____ _____    ______ ____
ROOT
ATOM      1  C   UNL     1      -4.605  12.666  21.262  0.00  0.00    +0.401 C 
ATOM      2  O   UNL     1      -5.772  13.056  21.349  0.00  0.00    -0.226 OA
ATOM      3  N   UNL     1      -3.634  13.029  22.101  0.00  0.00    -0.279 N 
ATOM      4  H   UNL     1      -2.710  12.648  21.954  0.00  0.00    +0.152 HD
ENDROOT
BRANCH   1   5
ATOM      5  O   UNL     1      -4.250  11.765  20.210  0.00  0.00    -0.444 OA
BRANCH   5   6
ATOM      6  C   UNL     1      -5.352  11.626  19.309  0.00  0.00    +0.292 C 
BRANCH   6   8
ATOM      7  N   UNL     1      -5.135   9.165  19.092  0.00  0.00    -0.131 NA
ATOM      8  C   UNL     1      -5.214  10.400  18.500  0.00  0.00    +0.120 A 
ATOM      9  C   UNL     1      -5.107  10.251  17.135  0.00  0.00    +0.137 A 
ATOM     10  N   UNL     1      -4.899   8.915  16.966  0.00  0.00    -0.251 N 
ATOM     11  N   UNL     1      -4.939   8.262  18.140  0.00  0.00    -0.065 NA
BRANCH  10  12
ATOM     12  C   UNL     1      -4.523   8.224  15.747  0.00  0.00    +0.149 C 
BRANCH  12  13
ATOM     13  C   UNL     1      -3.334   8.854  15.002  0.00  0.00    +0.021 C 
ATOM     14  C   UNL     1      -2.084   7.967  15.096  0.00  0.00    +0.010 C 
BRANCH  13  15
ATOM     15  C   UNL     1      -3.668   9.089  13.509  0.00  0.00    +0.089 C 
BRANCH  15  16
ATOM     16  N   UNL     1      -3.587  10.483  13.051  0.00  0.00    -0.299 NA
ATOM     17  C   UNL     1      -2.767  10.564  11.813  0.00  0.00    +0.103 C 
ATOM     18  C   UNL     1      -2.726  11.999  11.248  0.00  0.00    +0.120 C 
ATOM     19  N   UNL     1      -2.186  12.914  12.261  0.00  0.00    -0.327 N 
ATOM     20  C   UNL     1      -2.891  12.872  13.551  0.00  0.00    +0.120 C 
ATOM     21  C   UNL     1      -2.997  11.403  14.056  0.00  0.00    +0.103 C 
BRANCH  19  22
ATOM     22  C   UNL     1      -1.144  13.774  12.004  0.00  0.00    +0.030 A 
ATOM     23  C   UNL     1      -0.211  13.509  10.985  0.00  0.00    +0.024 A 
ATOM     24  C   UNL     1       0.869  14.360  10.725  0.00  0.00    +0.022 A 
ATOM     25  C   UNL     1       1.034  15.508  11.483  0.00  0.00    +0.041 A 
ATOM     26 CL   UNL     1       2.363  16.556  11.174  0.00  0.00    -0.084 Cl
ATOM     27  C   UNL     1       0.133  15.808  12.498  0.00  0.00    +0.022 A 
ATOM     28  C   UNL     1      -0.942  14.944  12.752  0.00  0.00    +0.024 A 
ENDBRANCH  19  22
ENDBRANCH  15  16
ENDBRANCH  13  15
ENDBRANCH  12  13
ENDBRANCH  10  12
ENDBRANCH   6   8
ENDBRANCH   5   6
ENDBRANCH   1   5
BRANCH   3  29
ATOM     29  C   UNL     1      -3.831  13.952  23.225  0.00  0.00    +0.141 C 
BRANCH  29  30
ATOM     30  C   UNL     1      -4.231  13.217  24.501  0.00  0.00    +0.163 C 
BRANCH  30  31
ATOM     31  O   UNL     1      -5.644  12.957  24.495  0.00  0.00    -0.388 OA
ATOM     32  H   UNL     1      -6.094  13.640  23.992  0.00  0.00    +0.210 HD
ENDBRANCH  30  31
BRANCH  30  33
ATOM     33  C   UNL     1      -3.431  11.907  24.611  0.00  0.00    +0.175 C 
BRANCH  33  34
ATOM     34  C   UNL     1      -3.993  10.977  25.697  0.00  0.00    +0.176 C 
ATOM     35  O   UNL     1      -2.914  10.664  26.620  0.00  0.00    -0.332 OA
ATOM     36  C   UNL     1      -3.292   9.865  27.789  0.00  0.00    +0.277 C 
ATOM     37  C   UNL     1      -3.998   8.560  27.348  0.00  0.00    +0.110 C 
ATOM     38  C   UNL     1      -5.134   8.840  26.340  0.00  0.00    +0.143 C 
ATOM     39  C   UNL     1      -4.631   9.680  25.166  0.00  0.00    +0.133 C 
BRANCH  39  40
ATOM     40  N   UNL     1      -5.740  10.013  24.258  0.00  0.00    -0.308 N 
ATOM     41  H   UNL     1      -6.507  10.555  24.630  0.00  0.00    +0.149 HD
ATOM     42  C   UNL     1      -5.799   9.645  22.976  0.00  0.00    +0.210 C 
ATOM     43  C   UNL     1      -4.627   8.797  22.447  0.00  0.00    +0.109 C 
ATOM     44  O   UNL     1      -6.734   9.951  22.235  0.00  0.00    -0.276 OA
ENDBRANCH  39  40
BRANCH  36  45
ATOM     45  C   UNL     1      -4.225  10.667  28.721  0.00  0.00    +0.414 C 
ATOM     46  O   UNL     1      -3.996  11.852  28.956  0.00  0.00    -0.240 OA
ATOM     47  O   UNL     1      -5.205  10.128  29.236  0.00  0.00    -0.240 OA
ENDBRANCH  36  45
BRANCH  36  48
ATOM     48  O   UNL     1      -2.079   9.510  28.501  0.00  0.00    -0.343 OA
ATOM     49  C   UNL     1      -2.093   8.198  29.120  0.00  0.00    +0.198 C 
ENDBRANCH  36  48
BRANCH  38  50
ATOM     50  O   UNL     1      -5.655   7.605  25.847  0.00  0.00    -0.390 OA
ATOM     51  H   UNL     1      -6.613   7.617  25.901  0.00  0.00    +0.210 HD
ENDBRANCH  38  50
ENDBRANCH  33  34
BRANCH  33  52
ATOM     52  O   UNL     1      -2.043  12.194  24.873  0.00  0.00    -0.387 OA
ATOM     53  H   UNL     1      -1.526  12.026  24.081  0.00  0.00    +0.210 HD
ENDBRANCH  33  52
ENDBRANCH  30  33
ENDBRANCH  29  30
ENDBRANCH   3  29
TORSDOF 18
