REMARK VINA RESULT:    -4.654      7.427     11.548
REMARK INTER + INTRA:         -11.293
REMARK INTER:                  -8.109
REMARK INTRA:                  -3.184
REMARK UNBOUND:                -2.966
REMARK  Name = lig_assembled_89.pdb
REMARK  19 active torsions:
REMARK  status: ('A' for Active; 'I' for Inactive)
REMARK    1  A    between atoms: _2  and  _12
REMARK    2  A    between atoms: _5  and  _20
REMARK    3  A    between atoms: _7  and  _29
REMARK    4  A    between atoms: _9  and  _10
REMARK    5  A    between atoms: _9  and  _29
REMARK    6  A    between atoms: _20  and  _21
REMARK    7  A    between atoms: _20  and  _22
REMARK    8  A    between atoms: _25  and  _45
REMARK    9  A    between atoms: _27  and  _33
REMARK   10  A    between atoms: _28  and  _32
REMARK   11  A    between atoms: _32  and  _33
REMARK   12  A    between atoms: _35  and  _36
REMARK   13  A    between atoms: _37  and  _38
REMARK   14  A    between atoms: _39  and  _41
REMARK   15  A    between atoms: _41  and  _42
REMARK   16  A    between atoms: _41  and  _43
REMARK   17  A    between atoms: _43  and  _44
REMARK   18  A    between atoms: _43  and  _45
REMARK   19  A    between atoms: _46  and  _48
REMARK                            x       y       z     vdW  Elec       q    Type
REMARK                         _______ _______ _______ _____ _____    ______ ____
ROOT
ATOM      1  C   UNL     1      -4.143   7.577  28.332  0.00  0.00    +0.401 C 
ATOM      2  O   UNL     1      -5.270   7.743  27.859  0.00  0.00    -0.226 OA
ATOM      3  N   UNL     1      -3.014   7.902  27.701  0.00  0.00    -0.279 N 
ATOM      4  H   UNL     1      -2.138   7.737  28.176  0.00  0.00    +0.152 HD
ENDROOT
BRANCH   3   5
ATOM      5  C   UNL     1      -2.973   8.487  26.355  0.00  0.00    +0.141 C 
BRANCH   5   6
ATOM      6  C   UNL     1      -2.760   9.997  26.398  0.00  0.00    +0.163 C 
BRANCH   6   7
ATOM      7  O   UNL     1      -1.885  10.400  25.331  0.00  0.00    -0.388 OA
ATOM      8  H   UNL     1      -2.101  11.296  25.061  0.00  0.00    +0.210 HD
ENDBRANCH   6   7
BRANCH   6   9
ATOM      9  C   UNL     1      -4.120  10.710  26.293  0.00  0.00    +0.175 C 
BRANCH   9  10
ATOM     10  C   UNL     1      -4.748  10.556  24.900  0.00  0.00    +0.176 C 
ATOM     11  O   UNL     1      -4.102  11.509  24.011  0.00  0.00    -0.332 OA
ATOM     12  C   UNL     1      -4.503  11.433  22.603  0.00  0.00    +0.277 C 
ATOM     13  C   UNL     1      -6.041  11.553  22.471  0.00  0.00    +0.110 C 
ATOM     14  C   UNL     1      -6.771  10.581  23.421  0.00  0.00    +0.143 C 
ATOM     15  C   UNL     1      -6.276  10.743  24.858  0.00  0.00    +0.133 C 
BRANCH  15  16
ATOM     16  N   UNL     1      -6.916   9.753  25.738  0.00  0.00    -0.308 N 
ATOM     17  H   UNL     1      -6.739   8.775  25.555  0.00  0.00    +0.149 HD
ATOM     18  C   UNL     1      -7.715  10.062  26.763  0.00  0.00    +0.210 C 
ATOM     19  C   UNL     1      -7.986  11.559  26.999  0.00  0.00    +0.109 C 
ATOM     20  O   UNL     1      -8.226   9.211  27.493  0.00  0.00    -0.276 OA
ENDBRANCH  15  16
BRANCH  12  21
ATOM     21  C   UNL     1      -4.033  10.107  21.971  0.00  0.00    +0.414 C 
ATOM     22  O   UNL     1      -4.700   9.570  21.087  0.00  0.00    -0.240 OA
ATOM     23  O   UNL     1      -2.987   9.573  22.344  0.00  0.00    -0.240 OA
ENDBRANCH  12  21
BRANCH  14  24
ATOM     24  O   UNL     1      -8.177  10.830  23.377  0.00  0.00    -0.390 OA
ATOM     25  H   UNL     1      -8.461  10.908  22.463  0.00  0.00    +0.210 HD
ENDBRANCH  14  24
BRANCH  12  26
ATOM     26  O   UNL     1      -3.895  12.550  21.903  0.00  0.00    -0.343 OA
ATOM     27  C   UNL     1      -3.816  13.780  22.666  0.00  0.00    +0.198 C 
ENDBRANCH  12  26
ENDBRANCH   9  10
BRANCH   9  28
ATOM     28  O   UNL     1      -3.974  12.106  26.621  0.00  0.00    -0.387 OA
ATOM     29  H   UNL     1      -4.385  12.280  27.472  0.00  0.00    +0.210 HD
ENDBRANCH   9  28
ENDBRANCH   6   9
ENDBRANCH   5   6
ENDBRANCH   3   5
BRANCH   1  30
ATOM     30  O   UNL     1      -4.015   7.007  29.637  0.00  0.00    -0.444 OA
BRANCH  30  31
ATOM     31  C   UNL     1      -2.961   7.665  30.345  0.00  0.00    +0.292 C 
BRANCH  31  33
ATOM     32  N   UNL     1      -4.444   9.009  31.783  0.00  0.00    -0.131 NA
ATOM     33  C   UNL     1      -3.430   8.957  30.874  0.00  0.00    +0.121 A 
ATOM     34  C   UNL     1      -2.990  10.233  30.619  0.00  0.00    +0.145 A 
ATOM     35  N   UNL     1      -3.759  11.049  31.428  0.00  0.00    -0.199 N 
ATOM     36  N   UNL     1      -4.630  10.279  32.118  0.00  0.00    -0.059 NA
BRANCH  35  37
ATOM     37  C   UNL     1      -3.594  12.457  31.587  0.00  0.00    +0.186 A 
ATOM     38  C   UNL     1      -4.233  13.497  30.944  0.00  0.00    +0.158 A 
ATOM     39  C   UNL     1      -5.151  13.557  29.848  0.00  0.00    +0.280 A 
ATOM     40  O   UNL     1      -5.273  12.641  29.045  0.00  0.00    -0.265 OA
ATOM     41  N   UNL     1      -5.880  14.758  29.739  0.00  0.00    -0.302 N 
ATOM     42  C   UNL     1      -5.397  15.962  30.378  0.00  0.00    +0.069 A 
ATOM     43  C   UNL     1      -5.912  17.233  30.087  0.00  0.00    +0.028 A 
ATOM     44  C   UNL     1      -5.384  18.385  30.688  0.00  0.00    +0.002 A 
ATOM     45  C   UNL     1      -4.339  18.291  31.599  0.00  0.00    +0.002 A 
ATOM     46  C   UNL     1      -3.813  17.044  31.921  0.00  0.00    +0.028 A 
ATOM     47  C   UNL     1      -4.335  15.897  31.306  0.00  0.00    +0.072 A 
ATOM     48  N   UNL     1      -3.820  14.624  31.603  0.00  0.00    -0.291 N 
ATOM     49  C   UNL     1      -2.880  14.239  32.524  0.00  0.00    +0.207 A 
ATOM     50  N   UNL     1      -2.725  12.932  32.550  0.00  0.00    -0.216 NA
BRANCH  41  51
ATOM     51  C   UNL     1      -7.020  14.793  28.793  0.00  0.00    +0.085 C 
ATOM     52  C   UNL     1      -6.748  15.626  27.525  0.00  0.00    +0.030 C 
ATOM     53  C   UNL     1      -8.308  15.259  29.472  0.00  0.00    +0.030 C 
ENDBRANCH  41  51
ENDBRANCH  35  37
ENDBRANCH  31  33
ENDBRANCH  30  31
ENDBRANCH   1  30
TORSDOF 15
