REMARK VINA RESULT:    -4.821      4.045     11.060
REMARK INTER + INTRA:         -13.541
REMARK INTER:                  -9.371
REMARK INTRA:                  -4.170
REMARK UNBOUND:                -3.788
REMARK  Name = lig_assembled_81.pdb
REMARK  22 active torsions:
REMARK  status: ('A' for Active; 'I' for Inactive)
REMARK    1  A    between atoms: _2  and  _12
REMARK    2  A    between atoms: _7  and  _30
REMARK    3  A    between atoms: _8  and  _24
REMARK    4  A    between atoms: _9  and  _10
REMARK    5  A    between atoms: _9  and  _30
REMARK    6  A    between atoms: _14  and  _15
REMARK    7  A    between atoms: _21  and  _22
REMARK    8  A    between atoms: _22  and  _23
REMARK    9  A    between atoms: _23  and  _25
REMARK   10  A    between atoms: _24  and  _25
REMARK   11  A    between atoms: _26  and  _46
REMARK   12  A    between atoms: _28  and  _34
REMARK   13  A    between atoms: _29  and  _33
REMARK   14  A    between atoms: _33  and  _34
REMARK   15  A    between atoms: _36  and  _37
REMARK   16  A    between atoms: _38  and  _39
REMARK   17  A    between atoms: _40  and  _42
REMARK   18  A    between atoms: _42  and  _43
REMARK   19  A    between atoms: _42  and  _44
REMARK   20  A    between atoms: _44  and  _45
REMARK   21  A    between atoms: _44  and  _46
REMARK   22  A    between atoms: _47  and  _49
REMARK                            x       y       z     vdW  Elec       q    Type
REMARK                         _______ _______ _______ _____ _____    ______ ____
ROOT
ATOM      1  C   UNL     1      -6.062  14.067  23.710  0.00  0.00    +0.401 C 
ATOM      2  O   UNL     1      -6.078  15.029  24.482  0.00  0.00    -0.226 OA
ATOM      3  N   UNL     1      -5.048  13.205  23.615  0.00  0.00    -0.279 N 
ATOM      4  H   UNL     1      -5.132  12.441  22.959  0.00  0.00    +0.152 HD
ENDROOT
BRANCH   1   5
ATOM      5  O   UNL     1      -7.189  13.839  22.861  0.00  0.00    -0.444 OA
BRANCH   5   6
ATOM      6  C   UNL     1      -6.924  14.376  21.562  0.00  0.00    +0.289 C 
BRANCH   6   8
ATOM      7  N   UNL     1      -7.811  13.215  19.592  0.00  0.00    -0.130 NA
ATOM      8  C   UNL     1      -6.857  13.291  20.562  0.00  0.00    +0.100 C 
ATOM      9  C   UNL     1      -5.981  12.234  20.404  0.00  0.00    +0.124 C 
ATOM     10  N   UNL     1      -6.376  11.623  19.221  0.00  0.00    -0.187 N 
ATOM     11  N   UNL     1      -7.580  12.126  18.880  0.00  0.00    -0.010 NA
BRANCH  10  12
ATOM     12  C   UNL     1      -5.773  10.501  18.560  0.00  0.00    +0.150 A 
ATOM     13  C   UNL     1      -5.053  10.550  17.341  0.00  0.00    +0.022 A 
ATOM     14  C   UNL     1      -4.640   9.271  16.882  0.00  0.00    +0.081 A 
ATOM     15  N   UNL     1      -4.986   8.130  17.538  0.00  0.00    -0.214 NA
ATOM     16  C   UNL     1      -5.687   8.211  18.656  0.00  0.00    +0.215 A 
ATOM     17  N   UNL     1      -6.103   7.045  19.252  0.00  0.00    -0.327 N 
ATOM     18  H   UNL     1      -5.528   6.265  18.972  0.00  0.00    +0.145 HD
ATOM     19  H   UNL     1      -6.305   7.176  20.232  0.00  0.00    +0.145 HD
ATOM     20  N   UNL     1      -6.012   9.347  19.242  0.00  0.00    -0.198 NA
BRANCH  14  21
ATOM     21  C   UNL     1      -3.819   8.943  15.655  0.00  0.00    +0.001 A 
ATOM     22  C   UNL     1      -2.416   8.842  15.625  0.00  0.00    +0.010 A 
ATOM     23  C   UNL     1      -1.709   8.520  14.454  0.00  0.00    +0.001 A 
ATOM     24  C   UNL     1      -2.382   8.227  13.283  0.00  0.00    +0.000 A 
ATOM     25  C   UNL     1      -3.774   8.258  13.277  0.00  0.00    +0.001 A 
ATOM     26  C   UNL     1      -4.469   8.622  14.440  0.00  0.00    +0.010 A 
ENDBRANCH  14  21
BRANCH  13  27
ATOM     27  C   UNL     1      -4.593  11.779  16.551  0.00  0.00    +0.069 C 
BRANCH  27  28
ATOM     28  C   UNL     1      -5.449  12.370  15.448  0.00  0.00    +0.164 C 
BRANCH  28  29
ATOM     29  O   UNL     1      -4.988  12.165  14.107  0.00  0.00    -0.380 OA
BRANCH  29  30
ATOM     30  C   UNL     1      -3.558  12.340  14.141  0.00  0.00    +0.156 C 
ATOM     31  C   UNL     1      -2.894  11.751  12.918  0.00  0.00    +0.034 C 
ENDBRANCH  29  30
ENDBRANCH  28  29
ENDBRANCH  27  28
ENDBRANCH  13  27
ENDBRANCH  10  12
ENDBRANCH   6   8
ENDBRANCH   5   6
ENDBRANCH   1   5
BRANCH   3  32
ATOM     32  C   UNL     1      -3.817  13.304  24.409  0.00  0.00    +0.141 C 
BRANCH  32  33
ATOM     33  C   UNL     1      -2.890  12.117  24.171  0.00  0.00    +0.163 C 
BRANCH  33  34
ATOM     34  O   UNL     1      -2.086  11.880  25.338  0.00  0.00    -0.388 OA
ATOM     35  H   UNL     1      -2.648  11.866  26.117  0.00  0.00    +0.210 HD
ENDBRANCH  33  34
BRANCH  33  36
ATOM     36  C   UNL     1      -3.727  10.875  23.818  0.00  0.00    +0.175 C 
BRANCH  36  37
ATOM     37  C   UNL     1      -4.027  10.010  25.051  0.00  0.00    +0.176 C 
ATOM     38  O   UNL     1      -2.866   9.172  25.303  0.00  0.00    -0.332 OA
ATOM     39  C   UNL     1      -2.930   8.348  26.514  0.00  0.00    +0.277 C 
ATOM     40  C   UNL     1      -4.212   7.479  26.511  0.00  0.00    +0.110 C 
ATOM     41  C   UNL     1      -5.470   8.323  26.216  0.00  0.00    +0.143 C 
ATOM     42  C   UNL     1      -5.294   9.142  24.937  0.00  0.00    +0.133 C 
BRANCH  42  43
ATOM     43  N   UNL     1      -6.463  10.006  24.713  0.00  0.00    -0.308 N 
ATOM     44  H   UNL     1      -6.709  10.664  25.440  0.00  0.00    +0.149 HD
ATOM     45  C   UNL     1      -7.221   9.978  23.614  0.00  0.00    +0.210 C 
ATOM     46  C   UNL     1      -6.835   8.947  22.537  0.00  0.00    +0.109 C 
ATOM     47  O   UNL     1      -8.186  10.724  23.447  0.00  0.00    -0.276 OA
ENDBRANCH  42  43
BRANCH  39  48
ATOM     48  C   UNL     1      -2.908   9.231  27.778  0.00  0.00    +0.414 C 
ATOM     49  O   UNL     1      -2.301  10.302  27.777  0.00  0.00    -0.240 OA
ATOM     50  O   UNL     1      -3.497   8.875  28.799  0.00  0.00    -0.240 OA
ENDBRANCH  39  48
BRANCH  39  51
ATOM     51  O   UNL     1      -1.779   7.464  26.517  0.00  0.00    -0.343 OA
ATOM     52  C   UNL     1      -2.032   6.131  27.027  0.00  0.00    +0.198 C 
ENDBRANCH  39  51
BRANCH  41  53
ATOM     53  O   UNL     1      -6.602   7.465  26.073  0.00  0.00    -0.390 OA
ATOM     54  H   UNL     1      -6.732   7.257  25.145  0.00  0.00    +0.210 HD
ENDBRANCH  41  53
ENDBRANCH  36  37
BRANCH  36  55
ATOM     55  O   UNL     1      -3.052  10.090  22.814  0.00  0.00    -0.387 OA
ATOM     56  H   UNL     1      -3.652   9.919  22.085  0.00  0.00    +0.210 HD
ENDBRANCH  36  55
ENDBRANCH  33  36
ENDBRANCH  32  33
ENDBRANCH   3  32
TORSDOF 19
