REMARK VINA RESULT:    -5.556      1.902      4.001
REMARK INTER + INTRA:         -13.374
REMARK INTER:                  -9.950
REMARK INTRA:                  -3.424
REMARK UNBOUND:                -3.108
REMARK  Name = lig_assembled_58.pdb
REMARK  18 active torsions:
REMARK  status: ('A' for Active; 'I' for Inactive)
REMARK    1  A    between atoms: _2  and  _9
REMARK    2  A    between atoms: _4  and  _25
REMARK    3  A    between atoms: _6  and  _7
REMARK    4  A    between atoms: _6  and  _25
REMARK    5  A    between atoms: _9  and  _10
REMARK    6  A    between atoms: _9  and  _16
REMARK    7  A    between atoms: _21  and  _41
REMARK    8  A    between atoms: _23  and  _29
REMARK    9  A    between atoms: _24  and  _28
REMARK   10  A    between atoms: _28  and  _29
REMARK   11  A    between atoms: _31  and  _32
REMARK   12  A    between atoms: _33  and  _34
REMARK   13  A    between atoms: _35  and  _37
REMARK   14  A    between atoms: _37  and  _38
REMARK   15  A    between atoms: _37  and  _39
REMARK   16  A    between atoms: _39  and  _40
REMARK   17  A    between atoms: _39  and  _41
REMARK   18  A    between atoms: _42  and  _44
REMARK                            x       y       z     vdW  Elec       q    Type
REMARK                         _______ _______ _______ _____ _____    ______ ____
ROOT
ATOM      1  C   UNL     1      -7.119  11.152  16.925  0.00  0.00    +0.141 C 
ENDROOT
BRANCH   1   4
ATOM      2  C   UNL     1      -7.360   9.610  18.840  0.00  0.00    +0.401 C 
ATOM      3  O   UNL     1      -7.562   8.617  18.137  0.00  0.00    -0.226 OA
ATOM      4  N   UNL     1      -7.150  10.835  18.358  0.00  0.00    -0.279 N 
ATOM      5  H   UNL     1      -7.004  11.588  19.016  0.00  0.00    +0.152 HD
BRANCH   2   6
ATOM      6  O   UNL     1      -7.351   9.463  20.263  0.00  0.00    -0.444 OA
BRANCH   6   7
ATOM      7  C   UNL     1      -6.072   8.982  20.685  0.00  0.00    +0.292 C 
BRANCH   7   9
ATOM      8  N   UNL     1      -4.423  10.707  19.991  0.00  0.00    -0.131 NA
ATOM      9  C   UNL     1      -5.171  10.113  20.972  0.00  0.00    +0.120 A 
ATOM     10  C   UNL     1      -4.945  10.766  22.162  0.00  0.00    +0.138 A 
ATOM     11  N   UNL     1      -4.176  11.843  21.815  0.00  0.00    -0.240 N 
ATOM     12  N   UNL     1      -3.801  11.753  20.519  0.00  0.00    -0.064 NA
BRANCH  11  13
ATOM     13  C   UNL     1      -3.782  13.011  22.625  0.00  0.00    +0.169 C 
BRANCH  13  14
ATOM     14  C   UNL     1      -4.638  14.227  22.241  0.00  0.00    -0.019 A 
ATOM     15  C   UNL     1      -4.096  15.522  22.312  0.00  0.00    +0.006 A 
ATOM     16  C   UNL     1      -4.884  16.639  22.021  0.00  0.00    +0.000 A 
ATOM     17  C   UNL     1      -6.216  16.482  21.642  0.00  0.00    +0.000 A 
ATOM     18  C   UNL     1      -6.771  15.209  21.568  0.00  0.00    +0.000 A 
ATOM     19  C   UNL     1      -5.992  14.095  21.876  0.00  0.00    +0.006 A 
ENDBRANCH  13  14
BRANCH  13  20
ATOM     20  C   UNL     1      -3.734  12.702  24.128  0.00  0.00    -0.019 A 
ATOM     21  C   UNL     1      -2.602  12.107  24.713  0.00  0.00    +0.006 A 
ATOM     22  C   UNL     1      -2.565  11.826  26.082  0.00  0.00    +0.000 A 
ATOM     23  C   UNL     1      -3.646  12.155  26.894  0.00  0.00    +0.000 A 
ATOM     24  C   UNL     1      -4.752  12.793  26.347  0.00  0.00    +0.000 A 
ATOM     25  C   UNL     1      -4.787  13.080  24.984  0.00  0.00    +0.006 A 
ENDBRANCH  13  20
ENDBRANCH  11  13
ENDBRANCH   7   9
ENDBRANCH   6   7
ENDBRANCH   2   6
ENDBRANCH   1   4
BRANCH   1  26
ATOM     26  C   UNL     1      -5.722  11.550  16.460  0.00  0.00    +0.163 C 
BRANCH  26  27
ATOM     27  O   UNL     1      -5.068  12.325  17.478  0.00  0.00    -0.388 OA
ATOM     28  H   UNL     1      -4.957  11.790  18.267  0.00  0.00    +0.210 HD
ENDBRANCH  26  27
BRANCH  26  29
ATOM     29  C   UNL     1      -4.912  10.285  16.127  0.00  0.00    +0.175 C 
BRANCH  29  30
ATOM     30  C   UNL     1      -3.957  10.505  14.945  0.00  0.00    +0.176 C 
ATOM     31  O   UNL     1      -4.680  11.234  13.915  0.00  0.00    -0.332 OA
ATOM     32  C   UNL     1      -3.891  11.629  12.745  0.00  0.00    +0.277 C 
ATOM     33  C   UNL     1      -3.193  10.395  12.121  0.00  0.00    +0.110 C 
ATOM     34  C   UNL     1      -2.437   9.571  13.184  0.00  0.00    +0.143 C 
ATOM     35  C   UNL     1      -3.351   9.217  14.357  0.00  0.00    +0.133 C 
BRANCH  35  36
ATOM     36  N   UNL     1      -2.597   8.507  15.402  0.00  0.00    -0.308 N 
ATOM     37  H   UNL     1      -1.881   9.020  15.898  0.00  0.00    +0.149 HD
ATOM     38  C   UNL     1      -2.796   7.230  15.738  0.00  0.00    +0.210 C 
ATOM     39  C   UNL     1      -3.876   6.469  14.946  0.00  0.00    +0.109 C 
ATOM     40  O   UNL     1      -2.159   6.666  16.628  0.00  0.00    -0.276 OA
ENDBRANCH  35  36
BRANCH  32  41
ATOM     41  C   UNL     1      -2.830  12.681  13.130  0.00  0.00    +0.414 C 
ATOM     42  O   UNL     1      -3.127  13.618  13.870  0.00  0.00    -0.240 OA
ATOM     43  O   UNL     1      -1.679  12.593  12.702  0.00  0.00    -0.240 OA
ENDBRANCH  32  41
BRANCH  34  44
ATOM     44  O   UNL     1      -1.938   8.369  12.596  0.00  0.00    -0.390 OA
ATOM     45  H   UNL     1      -1.608   7.788  13.285  0.00  0.00    +0.210 HD
ENDBRANCH  34  44
BRANCH  32  46
ATOM     46  O   UNL     1      -4.798  12.188  11.760  0.00  0.00    -0.343 OA
ATOM     47  C   UNL     1      -6.162  12.370  12.217  0.00  0.00    +0.198 C 
ENDBRANCH  32  46
ENDBRANCH  29  30
BRANCH  29  48
ATOM     48  O   UNL     1      -5.801   9.185  15.849  0.00  0.00    -0.387 OA
ATOM     49  H   UNL     1      -6.598   9.276  16.376  0.00  0.00    +0.210 HD
ENDBRANCH  29  48
ENDBRANCH  26  29
ENDBRANCH   1  26
TORSDOF 16
