REMARK VINA RESULT:    -4.695      5.130     10.390
REMARK INTER + INTRA:         -11.161
REMARK INTER:                  -8.262
REMARK INTRA:                  -2.899
REMARK UNBOUND:                -2.759
REMARK  Name = lig_assembled_38.pdb
REMARK  17 active torsions:
REMARK  status: ('A' for Active; 'I' for Inactive)
REMARK    1  A    between atoms: _2  and  _9
REMARK    2  A    between atoms: _4  and  _19
REMARK    3  A    between atoms: _6  and  _7
REMARK    4  A    between atoms: _6  and  _19
REMARK    5  A    between atoms: _9  and  _10
REMARK    6  A    between atoms: _15  and  _35
REMARK    7  A    between atoms: _17  and  _23
REMARK    8  A    between atoms: _18  and  _22
REMARK    9  A    between atoms: _22  and  _23
REMARK   10  A    between atoms: _25  and  _26
REMARK   11  A    between atoms: _27  and  _28
REMARK   12  A    between atoms: _29  and  _31
REMARK   13  A    between atoms: _31  and  _32
REMARK   14  A    between atoms: _31  and  _33
REMARK   15  A    between atoms: _33  and  _34
REMARK   16  A    between atoms: _33  and  _35
REMARK   17  A    between atoms: _36  and  _38
REMARK                            x       y       z     vdW  Elec       q    Type
REMARK                         _______ _______ _______ _____ _____    ______ ____
ROOT
ATOM      1  C   UNL     1      -1.945  10.330  26.885  0.00  0.00    +0.163 C 
ENDROOT
BRANCH   1   2
ATOM      2  O   UNL     1      -1.913  10.028  25.481  0.00  0.00    -0.388 OA
ATOM      3  H   UNL     1      -1.685   9.104  25.356  0.00  0.00    +0.210 HD
ENDBRANCH   1   2
BRANCH   1   4
ATOM      4  C   UNL     1      -1.744   9.055  27.698  0.00  0.00    +0.141 C 
BRANCH   4   7
ATOM      5  C   UNL     1      -2.372   8.151  29.910  0.00  0.00    +0.401 C 
ATOM      6  O   UNL     1      -1.732   7.106  29.769  0.00  0.00    -0.226 OA
ATOM      7  N   UNL     1      -2.438   9.114  28.990  0.00  0.00    -0.279 N 
ATOM      8  H   UNL     1      -2.998   9.930  29.193  0.00  0.00    +0.152 HD
BRANCH   5   9
ATOM      9  O   UNL     1      -3.099   8.362  31.123  0.00  0.00    -0.444 OA
BRANCH   9  10
ATOM     10  C   UNL     1      -4.129   9.329  30.900  0.00  0.00    +0.292 C 
BRANCH  10  12
ATOM     11  N   UNL     1      -2.671  11.163  31.705  0.00  0.00    -0.131 NA
ATOM     12  C   UNL     1      -3.889  10.535  31.718  0.00  0.00    +0.120 A 
ATOM     13  C   UNL     1      -4.745  11.230  32.542  0.00  0.00    +0.137 A 
ATOM     14  N   UNL     1      -4.008  12.302  32.955  0.00  0.00    -0.247 N 
ATOM     15  N   UNL     1      -2.757  12.249  32.460  0.00  0.00    -0.065 NA
BRANCH  14  16
ATOM     16  C   UNL     1      -4.486  13.507  33.610  0.00  0.00    +0.180 C 
BRANCH  16  17
ATOM     17  C   UNL     1      -4.363  14.744  32.755  0.00  0.00    -0.025 A 
ATOM     18  C   UNL     1      -4.836  14.757  31.433  0.00  0.00    +0.005 A 
ATOM     19  C   UNL     1      -4.801  15.933  30.677  0.00  0.00    +0.001 A 
ATOM     20  C   UNL     1      -4.294  17.107  31.231  0.00  0.00    +0.015 A 
ATOM     21  C   UNL     1      -3.814  17.099  32.536  0.00  0.00    +0.018 A 
ATOM     22 BR   UNL     1      -3.135  18.693  33.295  0.00  0.00    -0.050 Br
ATOM     23  C   UNL     1      -3.845  15.930  33.300  0.00  0.00    +0.020 A 
ENDBRANCH  16  17
ENDBRANCH  14  16
ENDBRANCH  10  12
ENDBRANCH   9  10
ENDBRANCH   5   9
ENDBRANCH   4   7
ENDBRANCH   1   4
BRANCH   1  24
ATOM     24  C   UNL     1      -3.280  10.985  27.278  0.00  0.00    +0.175 C 
BRANCH  24  25
ATOM     25  C   UNL     1      -4.127  11.351  26.050  0.00  0.00    +0.176 C 
ATOM     26  O   UNL     1      -3.374  12.310  25.258  0.00  0.00    -0.332 OA
ATOM     27  C   UNL     1      -3.985  12.698  23.983  0.00  0.00    +0.277 C 
ATOM     28  C   UNL     1      -5.425  13.222  24.210  0.00  0.00    +0.110 C 
ATOM     29  C   UNL     1      -6.255  12.250  25.075  0.00  0.00    +0.143 C 
ATOM     30  C   UNL     1      -5.524  11.912  26.375  0.00  0.00    +0.133 C 
BRANCH  30  31
ATOM     31  N   UNL     1      -6.284  10.919  27.150  0.00  0.00    -0.308 N 
ATOM     32  H   UNL     1      -6.486  10.031  26.711  0.00  0.00    +0.149 HD
ATOM     33  C   UNL     1      -6.726  11.113  28.395  0.00  0.00    +0.210 C 
ATOM     34  C   UNL     1      -6.426  12.486  29.027  0.00  0.00    +0.109 C 
ATOM     35  O   UNL     1      -7.348  10.257  29.026  0.00  0.00    -0.276 OA
ENDBRANCH  30  31
BRANCH  27  36
ATOM     36  C   UNL     1      -4.020  11.503  23.007  0.00  0.00    +0.414 C 
ATOM     37  O   UNL     1      -3.068  10.726  22.944  0.00  0.00    -0.240 OA
ATOM     38  O   UNL     1      -4.998  11.317  22.283  0.00  0.00    -0.240 OA
ENDBRANCH  27  36
BRANCH  27  39
ATOM     39  O   UNL     1      -3.193  13.771  23.413  0.00  0.00    -0.343 OA
ATOM     40  C   UNL     1      -3.877  14.577  22.421  0.00  0.00    +0.198 C 
ENDBRANCH  27  39
BRANCH  29  41
ATOM     41  O   UNL     1      -7.518  12.840  25.385  0.00  0.00    -0.390 OA
ATOM     42  H   UNL     1      -7.496  13.196  26.276  0.00  0.00    +0.210 HD
ENDBRANCH  29  41
ENDBRANCH  24  25
BRANCH  24  43
ATOM     43  O   UNL     1      -3.042  12.156  28.084  0.00  0.00    -0.387 OA
ATOM     44  H   UNL     1      -3.521  12.077  28.912  0.00  0.00    +0.210 HD
ENDBRANCH  24  43
ENDBRANCH   1  24
TORSDOF 15
