REMARK VINA RESULT:    -4.087      2.261      4.094
REMARK INTER + INTRA:         -10.937
REMARK INTER:                  -7.469
REMARK INTRA:                  -3.467
REMARK UNBOUND:                -3.505
REMARK  Name = lig_assembled_22.pdb
REMARK  20 active torsions:
REMARK  status: ('A' for Active; 'I' for Inactive)
REMARK    1  A    between atoms: _2  and  _9
REMARK    2  A    between atoms: _4  and  _18
REMARK    3  A    between atoms: _5  and  _9
REMARK    4  A    between atoms: _5  and  _12
REMARK    5  A    between atoms: _6  and  _7
REMARK    6  A    between atoms: _6  and  _18
REMARK    7  A    between atoms: _9  and  _10
REMARK    8  A    between atoms: _9  and  _11
REMARK    9  A    between atoms: _14  and  _34
REMARK   10  A    between atoms: _16  and  _22
REMARK   11  A    between atoms: _17  and  _21
REMARK   12  A    between atoms: _21  and  _22
REMARK   13  A    between atoms: _24  and  _25
REMARK   14  A    between atoms: _26  and  _27
REMARK   15  A    between atoms: _28  and  _30
REMARK   16  A    between atoms: _30  and  _31
REMARK   17  A    between atoms: _30  and  _32
REMARK   18  A    between atoms: _32  and  _33
REMARK   19  A    between atoms: _32  and  _34
REMARK   20  A    between atoms: _35  and  _37
REMARK                            x       y       z     vdW  Elec       q    Type
REMARK                         _______ _______ _______ _____ _____    ______ ____
ROOT
ATOM      1  C   UNL     1      -3.778  12.643  29.537  0.00  0.00    +0.163 C 
ENDROOT
BRANCH   1   2
ATOM      2  O   UNL     1      -2.932  13.435  30.386  0.00  0.00    -0.388 OA
ATOM      3  H   UNL     1      -2.014  13.307  30.134  0.00  0.00    +0.210 HD
ENDBRANCH   1   2
BRANCH   1   4
ATOM      4  C   UNL     1      -5.128  13.330  29.358  0.00  0.00    +0.141 C 
BRANCH   4   7
ATOM      5  C   UNL     1      -6.974  13.374  27.716  0.00  0.00    +0.401 C 
ATOM      6  O   UNL     1      -7.734  14.014  28.447  0.00  0.00    -0.226 OA
ATOM      7  N   UNL     1      -5.740  13.006  28.064  0.00  0.00    -0.279 N 
ATOM      8  H   UNL     1      -5.196  12.475  27.399  0.00  0.00    +0.152 HD
BRANCH   5   9
ATOM      9  O   UNL     1      -7.423  12.989  26.414  0.00  0.00    -0.444 OA
BRANCH   9  10
ATOM     10  C   UNL     1      -7.008  13.967  25.457  0.00  0.00    +0.292 C 
BRANCH  10  12
ATOM     11  N   UNL     1      -4.666  13.448  24.869  0.00  0.00    -0.131 NA
ATOM     12  C   UNL     1      -5.994  13.397  24.550  0.00  0.00    +0.120 A 
ATOM     13  C   UNL     1      -6.139  12.766  23.334  0.00  0.00    +0.138 A 
ATOM     14  N   UNL     1      -4.861  12.456  22.961  0.00  0.00    -0.235 N 
ATOM     15  N   UNL     1      -3.983  12.875  23.892  0.00  0.00    -0.064 NA
BRANCH  14  16
ATOM     16  C   UNL     1      -4.383  11.792  21.747  0.00  0.00    +0.155 C 
ATOM     17  C   UNL     1      -3.226  12.566  21.077  0.00  0.00    +0.048 C 
ATOM     18  C   UNL     1      -5.548  11.697  20.745  0.00  0.00    +0.048 C 
BRANCH  16  19
ATOM     19  C   UNL     1      -3.870  10.387  22.075  0.00  0.00    +0.332 C 
ATOM     20  O   UNL     1      -4.146   9.385  21.426  0.00  0.00    -0.248 OA
BRANCH  19  21
ATOM     21  O   UNL     1      -3.062  10.304  23.159  0.00  0.00    -0.479 OA
ATOM     22  H   UNL     1      -3.475   9.985  23.985  0.00  0.00    +0.295 HD
ENDBRANCH  19  21
ENDBRANCH  16  19
ENDBRANCH  14  16
ENDBRANCH  10  12
ENDBRANCH   9  10
ENDBRANCH   5   9
ENDBRANCH   4   7
ENDBRANCH   1   4
BRANCH   1  23
ATOM     23  C   UNL     1      -3.990  11.238  30.127  0.00  0.00    +0.175 C 
BRANCH  23  24
ATOM     24  C   UNL     1      -3.584  10.131  29.144  0.00  0.00    +0.176 C 
ATOM     25  O   UNL     1      -4.209  10.418  27.863  0.00  0.00    -0.332 OA
ATOM     26  C   UNL     1      -3.847   9.517  26.765  0.00  0.00    +0.277 C 
ATOM     27  C   UNL     1      -4.117   8.045  27.161  0.00  0.00    +0.110 C 
ATOM     28  C   UNL     1      -3.498   7.701  28.532  0.00  0.00    +0.143 C 
ATOM     29  C   UNL     1      -3.938   8.703  29.600  0.00  0.00    +0.133 C 
BRANCH  29  30
ATOM     30  N   UNL     1      -3.274   8.416  30.881  0.00  0.00    -0.308 N 
ATOM     31  H   UNL     1      -2.274   8.551  30.934  0.00  0.00    +0.149 HD
ATOM     32  C   UNL     1      -3.905   7.990  31.978  0.00  0.00    +0.210 C 
ATOM     33  C   UNL     1      -5.425   7.770  31.857  0.00  0.00    +0.109 C 
ATOM     34  O   UNL     1      -3.324   7.772  33.042  0.00  0.00    -0.276 OA
ENDBRANCH  29  30
BRANCH  26  35
ATOM     35  C   UNL     1      -2.361   9.685  26.387  0.00  0.00    +0.414 C 
ATOM     36  O   UNL     1      -1.941  10.772  25.991  0.00  0.00    -0.240 OA
ATOM     37  O   UNL     1      -1.582   8.735  26.479  0.00  0.00    -0.240 OA
ENDBRANCH  26  35
BRANCH  26  38
ATOM     38  O   UNL     1      -4.681   9.844  25.623  0.00  0.00    -0.343 OA
ATOM     39  C   UNL     1      -5.426   8.729  25.070  0.00  0.00    +0.198 C 
ENDBRANCH  26  38
BRANCH  28  40
ATOM     40  O   UNL     1      -3.897   6.387  28.925  0.00  0.00    -0.390 OA
ATOM     41  H   UNL     1      -3.457   5.739  28.371  0.00  0.00    +0.210 HD
ENDBRANCH  28  40
ENDBRANCH  23  24
BRANCH  23  42
ATOM     42  O   UNL     1      -5.366  11.069  30.525  0.00  0.00    -0.387 OA
ATOM     43  H   UNL     1      -5.942  11.408  29.836  0.00  0.00    +0.210 HD
ENDBRANCH  23  42
ENDBRANCH   1  23
TORSDOF 16
