REMARK VINA RESULT:    -5.901      3.937      7.514
REMARK INTER + INTRA:         -12.688
REMARK INTER:                  -9.474
REMARK INTRA:                  -3.215
REMARK UNBOUND:                -2.475
REMARK  Name = lig_assembled_25.pdb
REMARK  16 active torsions:
REMARK  status: ('A' for Active; 'I' for Inactive)
REMARK    1  A    between atoms: _2  and  _9
REMARK    2  A    between atoms: _4  and  _25
REMARK    3  A    between atoms: _6  and  _7
REMARK    4  A    between atoms: _6  and  _25
REMARK    5  A    between atoms: _21  and  _41
REMARK    6  A    between atoms: _23  and  _29
REMARK    7  A    between atoms: _24  and  _28
REMARK    8  A    between atoms: _28  and  _29
REMARK    9  A    between atoms: _31  and  _32
REMARK   10  A    between atoms: _33  and  _34
REMARK   11  A    between atoms: _35  and  _37
REMARK   12  A    between atoms: _37  and  _38
REMARK   13  A    between atoms: _37  and  _39
REMARK   14  A    between atoms: _39  and  _40
REMARK   15  A    between atoms: _39  and  _41
REMARK   16  A    between atoms: _42  and  _44
REMARK                            x       y       z     vdW  Elec       q    Type
REMARK                         _______ _______ _______ _____ _____    ______ ____
ROOT
ATOM      1  C   UNL     1      -2.904   8.361  30.544  0.00  0.00    +0.141 C 
ENDROOT
BRANCH   1   4
ATOM      2  C   UNL     1      -1.986   8.006  28.277  0.00  0.00    +0.401 C 
ATOM      3  O   UNL     1      -1.732   6.814  28.464  0.00  0.00    -0.226 OA
ATOM      4  N   UNL     1      -2.528   8.806  29.196  0.00  0.00    -0.279 N 
ATOM      5  H   UNL     1      -2.691   9.773  28.951  0.00  0.00    +0.152 HD
BRANCH   2   6
ATOM      6  O   UNL     1      -1.685   8.589  27.006  0.00  0.00    -0.444 OA
BRANCH   6   7
ATOM      7  C   UNL     1      -1.703  10.014  27.118  0.00  0.00    +0.292 C 
BRANCH   7   9
ATOM      8  N   UNL     1      -3.192   9.806  25.160  0.00  0.00    -0.131 NA
ATOM      9  C   UNL     1      -2.508  10.607  26.033  0.00  0.00    +0.120 A 
ATOM     10  C   UNL     1      -2.707  11.925  25.688  0.00  0.00    +0.138 A 
ATOM     11  N   UNL     1      -3.508  11.864  24.582  0.00  0.00    -0.240 N 
ATOM     12  N   UNL     1      -3.805  10.582  24.277  0.00  0.00    -0.064 NA
BRANCH  11  13
ATOM     13  C   UNL     1      -3.973  12.927  23.706  0.00  0.00    +0.170 C 
ATOM     14  C   UNL     1      -5.317  13.494  24.143  0.00  0.00    -0.011 A 
ATOM     15  C   UNL     1      -6.244  13.412  23.081  0.00  0.00    -0.012 A 
ATOM     16  C   UNL     1      -5.598  12.793  21.940  0.00  0.00    -0.012 A 
ATOM     17  C   UNL     1      -6.082  12.533  20.669  0.00  0.00    +0.009 A 
ATOM     18  C   UNL     1      -5.221  11.947  19.736  0.00  0.00    +0.001 A 
ATOM     19  C   UNL     1      -3.897  11.625  20.081  0.00  0.00    +0.000 A 
ATOM     20  C   UNL     1      -3.406  11.886  21.363  0.00  0.00    +0.006 A 
ATOM     21  C   UNL     1      -7.534  13.890  23.236  0.00  0.00    +0.009 A 
ATOM     22  C   UNL     1      -7.891  14.454  24.465  0.00  0.00    +0.001 A 
ATOM     23  C   UNL     1      -6.965  14.538  25.517  0.00  0.00    +0.000 A 
ATOM     24  C   UNL     1      -5.663  14.059  25.363  0.00  0.00    +0.006 A 
ATOM     25  C   UNL     1      -4.265  12.468  22.284  0.00  0.00    -0.011 A 
ENDBRANCH  11  13
ENDBRANCH   7   9
ENDBRANCH   6   7
ENDBRANCH   2   6
ENDBRANCH   1   4
BRANCH   1  26
ATOM     26  C   UNL     1      -3.434   9.510  31.395  0.00  0.00    +0.163 C 
BRANCH  26  27
ATOM     27  O   UNL     1      -2.386  10.460  31.646  0.00  0.00    -0.388 OA
ATOM     28  H   UNL     1      -1.553   9.996  31.759  0.00  0.00    +0.210 HD
ENDBRANCH  26  27
BRANCH  26  29
ATOM     29  C   UNL     1      -4.620  10.176  30.677  0.00  0.00    +0.175 C 
BRANCH  29  30
ATOM     30  C   UNL     1      -4.462  11.702  30.593  0.00  0.00    +0.176 C 
ATOM     31  O   UNL     1      -4.508  12.231  31.947  0.00  0.00    -0.332 OA
ATOM     32  C   UNL     1      -4.266  13.671  32.073  0.00  0.00    +0.277 C 
ATOM     33  C   UNL     1      -5.241  14.464  31.168  0.00  0.00    +0.110 C 
ATOM     34  C   UNL     1      -5.251  13.917  29.725  0.00  0.00    +0.143 C 
ATOM     35  C   UNL     1      -5.507  12.410  29.711  0.00  0.00    +0.133 C 
BRANCH  35  36
ATOM     36  N   UNL     1      -5.429  11.886  28.339  0.00  0.00    -0.308 N 
ATOM     37  H   UNL     1      -4.545  11.964  27.854  0.00  0.00    +0.149 HD
ATOM     38  C   UNL     1      -6.448  11.316  27.691  0.00  0.00    +0.210 C 
ATOM     39  C   UNL     1      -7.788  11.236  28.447  0.00  0.00    +0.109 C 
ATOM     40  O   UNL     1      -6.349  10.872  26.546  0.00  0.00    -0.276 OA
ENDBRANCH  35  36
BRANCH  32  41
ATOM     41  C   UNL     1      -2.812  14.017  31.692  0.00  0.00    +0.414 C 
ATOM     42  O   UNL     1      -2.570  15.005  30.999  0.00  0.00    -0.240 OA
ATOM     43  O   UNL     1      -1.880  13.309  32.078  0.00  0.00    -0.240 OA
ENDBRANCH  32  41
BRANCH  34  44
ATOM     44  O   UNL     1      -6.268  14.575  28.968  0.00  0.00    -0.390 OA
ATOM     45  H   UNL     1      -6.465  15.426  29.366  0.00  0.00    +0.210 HD
ENDBRANCH  34  44
BRANCH  32  46
ATOM     46  O   UNL     1      -4.513  14.049  33.452  0.00  0.00    -0.343 OA
ATOM     47  C   UNL     1      -5.886  14.405  33.753  0.00  0.00    +0.198 C 
ENDBRANCH  32  46
ENDBRANCH  29  30
BRANCH  29  48
ATOM     48  O   UNL     1      -5.855   9.840  31.341  0.00  0.00    -0.387 OA
ATOM     49  H   UNL     1      -5.991   8.891  31.304  0.00  0.00    +0.210 HD
ENDBRANCH  29  48
ENDBRANCH  26  29
ENDBRANCH   1  26
TORSDOF 14
