REMARK VINA RESULT:    -4.767      3.013      5.630
REMARK INTER + INTRA:         -11.247
REMARK INTER:                  -7.237
REMARK INTRA:                  -4.009
REMARK UNBOUND:                -2.299
REMARK  Name = lig_assembled_32.pdb
REMARK  19 active torsions:
REMARK  status: ('A' for Active; 'I' for Inactive)
REMARK    1  A    between atoms: _2  and  _9
REMARK    2  A    between atoms: _4  and  _17
REMARK    3  A    between atoms: _5  and  _10
REMARK    4  A    between atoms: _5  and  _11
REMARK    5  A    between atoms: _6  and  _7
REMARK    6  A    between atoms: _6  and  _17
REMARK    7  A    between atoms: _9  and  _10
REMARK    8  A    between atoms: _13  and  _33
REMARK    9  A    between atoms: _15  and  _21
REMARK   10  A    between atoms: _16  and  _20
REMARK   11  A    between atoms: _20  and  _21
REMARK   12  A    between atoms: _23  and  _24
REMARK   13  A    between atoms: _25  and  _26
REMARK   14  A    between atoms: _27  and  _29
REMARK   15  A    between atoms: _29  and  _30
REMARK   16  A    between atoms: _29  and  _31
REMARK   17  A    between atoms: _31  and  _32
REMARK   18  A    between atoms: _31  and  _33
REMARK   19  A    between atoms: _34  and  _36
REMARK                            x       y       z     vdW  Elec       q    Type
REMARK                         _______ _______ _______ _____ _____    ______ ____
ROOT
ATOM      1  C   UNL     1      -5.327  12.760  28.577  0.00  0.00    +0.163 C 
ENDROOT
BRANCH   1   2
ATOM      2  O   UNL     1      -5.138  13.143  27.205  0.00  0.00    -0.388 OA
ATOM      3  H   UNL     1      -4.278  13.559  27.104  0.00  0.00    +0.210 HD
ENDBRANCH   1   2
BRANCH   1   4
ATOM      4  C   UNL     1      -4.166  11.879  29.068  0.00  0.00    +0.175 C 
BRANCH   4   5
ATOM      5  C   UNL     1      -3.929  10.671  28.150  0.00  0.00    +0.176 C 
ATOM      6  O   UNL     1      -3.308  11.153  26.927  0.00  0.00    -0.332 OA
ATOM      7  C   UNL     1      -2.909  10.118  25.968  0.00  0.00    +0.277 C 
ATOM      8  C   UNL     1      -4.114   9.210  25.620  0.00  0.00    +0.110 C 
ATOM      9  C   UNL     1      -4.826   8.698  26.890  0.00  0.00    +0.143 C 
ATOM     10  C   UNL     1      -5.193   9.856  27.818  0.00  0.00    +0.133 C 
BRANCH  10  11
ATOM     11  N   UNL     1      -5.792   9.350  29.063  0.00  0.00    -0.308 N 
ATOM     12  H   UNL     1      -5.193   8.852  29.706  0.00  0.00    +0.149 HD
ATOM     13  C   UNL     1      -7.076   9.504  29.398  0.00  0.00    +0.210 C 
ATOM     14  C   UNL     1      -7.969  10.245  28.385  0.00  0.00    +0.109 C 
ATOM     15  O   UNL     1      -7.547   9.082  30.455  0.00  0.00    -0.276 OA
ENDBRANCH  10  11
BRANCH   7  16
ATOM     16  C   UNL     1      -1.762   9.258  26.536  0.00  0.00    +0.414 C 
ATOM     17  O   UNL     1      -1.783   8.035  26.411  0.00  0.00    -0.240 OA
ATOM     18  O   UNL     1      -0.815   9.788  27.120  0.00  0.00    -0.240 OA
ENDBRANCH   7  16
BRANCH   7  19
ATOM     19  O   UNL     1      -2.469  10.778  24.753  0.00  0.00    -0.343 OA
ATOM     20  C   UNL     1      -3.500  11.515  24.048  0.00  0.00    +0.198 C 
ENDBRANCH   7  19
BRANCH   9  21
ATOM     21  O   UNL     1      -6.013   7.993  26.526  0.00  0.00    -0.390 OA
ATOM     22  H   UNL     1      -6.231   7.356  27.211  0.00  0.00    +0.210 HD
ENDBRANCH   9  21
ENDBRANCH   4   5
BRANCH   4  23
ATOM     23  O   UNL     1      -4.413  11.437  30.417  0.00  0.00    -0.387 OA
ATOM     24  H   UNL     1      -4.323  10.482  30.463  0.00  0.00    +0.210 HD
ENDBRANCH   4  23
ENDBRANCH   1   4
BRANCH   1  25
ATOM     25  C   UNL     1      -5.432  14.002  29.456  0.00  0.00    +0.141 C 
BRANCH  25  28
ATOM     26  C   UNL     1      -4.141  14.990  31.317  0.00  0.00    +0.401 C 
ATOM     27  O   UNL     1      -5.113  15.570  31.807  0.00  0.00    -0.226 OA
ATOM     28  N   UNL     1      -4.198  14.240  30.216  0.00  0.00    -0.279 N 
ATOM     29  H   UNL     1      -3.345  13.812  29.886  0.00  0.00    +0.152 HD
BRANCH  26  30
ATOM     30  O   UNL     1      -2.865  15.117  31.949  0.00  0.00    -0.444 OA
BRANCH  30  31
ATOM     31  C   UNL     1      -2.918  14.536  33.255  0.00  0.00    +0.292 C 
BRANCH  31  33
ATOM     32  N   UNL     1      -2.104  12.436  32.230  0.00  0.00    -0.131 NA
ATOM     33  C   UNL     1      -2.885  13.064  33.164  0.00  0.00    +0.120 A 
ATOM     34  C   UNL     1      -3.555  12.115  33.904  0.00  0.00    +0.137 A 
ATOM     35  N   UNL     1      -3.147  10.934  33.363  0.00  0.00    -0.251 N 
ATOM     36  N   UNL     1      -2.275  11.128  32.360  0.00  0.00    -0.065 NA
BRANCH  35  37
ATOM     37  C   UNL     1      -3.532   9.594  33.745  0.00  0.00    +0.156 C 
BRANCH  37  38
ATOM     38  C   UNL     1      -4.533   8.988  32.770  0.00  0.00    +0.143 C 
BRANCH  38  39
ATOM     39  C   UNL     1      -3.842   8.021  31.853  0.00  0.00    +0.306 C 
ATOM     40  O   UNL     1      -3.774   6.816  32.033  0.00  0.00    -0.251 OA
BRANCH  39  41
ATOM     41  O   UNL     1      -3.274   8.628  30.786  0.00  0.00    -0.481 OA
ATOM     42  H   UNL     1      -3.768   9.403  30.455  0.00  0.00    +0.295 HD
ENDBRANCH  39  41
ENDBRANCH  38  39
ENDBRANCH  37  38
ENDBRANCH  35  37
ENDBRANCH  31  33
ENDBRANCH  30  31
ENDBRANCH  26  30
ENDBRANCH  25  28
ENDBRANCH   1  25
TORSDOF 17
