REMARK VINA RESULT:    -3.727      3.546      6.986
REMARK INTER + INTRA:         -10.865
REMARK INTER:                  -6.886
REMARK INTRA:                  -3.979
REMARK UNBOUND:                -3.979
REMARK  Name = lig_assembled_24.pdb
REMARK  19 active torsions:
REMARK  status: ('A' for Active; 'I' for Inactive)
REMARK    1  A    between atoms: _2  and  _9
REMARK    2  A    between atoms: _4  and  _21
REMARK    3  A    between atoms: _6  and  _7
REMARK    4  A    between atoms: _6  and  _21
REMARK    5  A    between atoms: _9  and  _10
REMARK    6  A    between atoms: _13  and  _16
REMARK    7  A    between atoms: _14  and  _16
REMARK    8  A    between atoms: _17  and  _37
REMARK    9  A    between atoms: _19  and  _25
REMARK   10  A    between atoms: _20  and  _24
REMARK   11  A    between atoms: _24  and  _25
REMARK   12  A    between atoms: _27  and  _28
REMARK   13  A    between atoms: _29  and  _30
REMARK   14  A    between atoms: _31  and  _33
REMARK   15  A    between atoms: _33  and  _34
REMARK   16  A    between atoms: _33  and  _35
REMARK   17  A    between atoms: _35  and  _36
REMARK   18  A    between atoms: _35  and  _37
REMARK   19  A    between atoms: _38  and  _40
REMARK                            x       y       z     vdW  Elec       q    Type
REMARK                         _______ _______ _______ _____ _____    ______ ____
ROOT
ATOM      1  C   UNL     1      -6.281  12.787  27.349  0.00  0.00    +0.163 C 
ENDROOT
BRANCH   1   2
ATOM      2  O   UNL     1      -5.862  13.393  26.115  0.00  0.00    -0.388 OA
ATOM      3  H   UNL     1      -4.933  13.630  26.174  0.00  0.00    +0.210 HD
ENDBRANCH   1   2
BRANCH   1   4
ATOM      4  C   UNL     1      -5.075  12.236  28.129  0.00  0.00    +0.175 C 
BRANCH   4   5
ATOM      5  C   UNL     1      -4.596  10.886  27.576  0.00  0.00    +0.176 C 
ATOM      6  O   UNL     1      -3.923  11.135  26.311  0.00  0.00    -0.332 OA
ATOM      7  C   UNL     1      -3.302   9.965  25.682  0.00  0.00    +0.277 C 
ATOM      8  C   UNL     1      -4.341   8.830  25.508  0.00  0.00    +0.110 C 
ATOM      9  C   UNL     1      -5.106   8.551  26.819  0.00  0.00    +0.143 C 
ATOM     10  C   UNL     1      -5.708   9.837  27.387  0.00  0.00    +0.133 C 
BRANCH  10  11
ATOM     11  N   UNL     1      -6.359   9.573  28.680  0.00  0.00    -0.308 N 
ATOM     12  H   UNL     1      -5.769   9.344  29.467  0.00  0.00    +0.149 HD
ATOM     13  C   UNL     1      -7.679   9.616  28.880  0.00  0.00    +0.210 C 
ATOM     14  C   UNL     1      -8.552   9.942  27.654  0.00  0.00    +0.109 C 
ATOM     15  O   UNL     1      -8.196   9.405  29.978  0.00  0.00    -0.276 OA
ENDBRANCH  10  11
BRANCH   7  16
ATOM     16  C   UNL     1      -2.117   9.454  26.528  0.00  0.00    +0.414 C 
ATOM     17  O   UNL     1      -1.766   8.277  26.456  0.00  0.00    -0.240 OA
ATOM     18  O   UNL     1      -1.513  10.218  27.282  0.00  0.00    -0.240 OA
ENDBRANCH   7  16
BRANCH   7  19
ATOM     19  O   UNL     1      -2.830  10.359  24.368  0.00  0.00    -0.343 OA
ATOM     20  C   UNL     1      -2.860  11.786  24.110  0.00  0.00    +0.198 C 
ENDBRANCH   7  19
BRANCH   9  21
ATOM     21  O   UNL     1      -6.151   7.609  26.575  0.00  0.00    -0.390 OA
ATOM     22  H   UNL     1      -7.002   8.049  26.646  0.00  0.00    +0.210 HD
ENDBRANCH   9  21
ENDBRANCH   4   5
BRANCH   4  23
ATOM     23  O   UNL     1      -5.403  12.112  29.527  0.00  0.00    -0.387 OA
ATOM     24  H   UNL     1      -5.965  12.844  29.791  0.00  0.00    +0.210 HD
ENDBRANCH   4  23
ENDBRANCH   1   4
BRANCH   1  25
ATOM     25  C   UNL     1      -7.019  13.809  28.207  0.00  0.00    +0.141 C 
BRANCH  25  28
ATOM     26  C   UNL     1      -6.422  15.616  29.784  0.00  0.00    +0.401 C 
ATOM     27  O   UNL     1      -7.510  15.598  30.363  0.00  0.00    -0.226 OA
ATOM     28  N   UNL     1      -6.109  14.819  28.761  0.00  0.00    -0.279 N 
ATOM     29  H   UNL     1      -5.193  14.914  28.345  0.00  0.00    +0.152 HD
BRANCH  26  30
ATOM     30  O   UNL     1      -5.421  16.542  30.214  0.00  0.00    -0.444 OA
BRANCH  30  31
ATOM     31  C   UNL     1      -5.131  16.324  31.597  0.00  0.00    +0.292 C 
BRANCH  31  33
ATOM     32  N   UNL     1      -2.977  15.155  31.249  0.00  0.00    -0.131 NA
ATOM     33  C   UNL     1      -4.247  15.155  31.759  0.00  0.00    +0.120 A 
ATOM     34  C   UNL     1      -4.474  13.958  32.402  0.00  0.00    +0.137 A 
ATOM     35  N   UNL     1      -3.283  13.300  32.311  0.00  0.00    -0.247 N 
ATOM     36  N   UNL     1      -2.398  14.012  31.583  0.00  0.00    -0.065 NA
BRANCH  35  37
ATOM     37  C   UNL     1      -2.844  12.045  32.901  0.00  0.00    +0.180 C 
BRANCH  37  38
ATOM     38  C   UNL     1      -3.319  10.807  32.181  0.00  0.00    -0.026 A 
ATOM     39  C   UNL     1      -2.670  10.365  31.021  0.00  0.00    +0.009 A 
ATOM     40  C   UNL     1      -3.115   9.216  30.361  0.00  0.00    +0.046 A 
ATOM     41  C   UNL     1      -4.197   8.485  30.856  0.00  0.00    +0.120 A 
ATOM     42  C   UNL     1      -4.861   8.932  31.995  0.00  0.00    +0.046 A 
ATOM     43  C   UNL     1      -4.425  10.086  32.656  0.00  0.00    +0.009 A 
BRANCH  41  44
ATOM     44  O   UNL     1      -4.553   7.392  30.115  0.00  0.00    -0.495 OA
ATOM     45  C   UNL     1      -3.542   6.401  29.961  0.00  0.00    +0.277 C 
ENDBRANCH  41  44
ENDBRANCH  37  38
ENDBRANCH  35  37
ENDBRANCH  31  33
ENDBRANCH  30  31
ENDBRANCH  26  30
ENDBRANCH  25  28
ENDBRANCH   1  25
TORSDOF 16
