REMARK VINA RESULT:    -3.577      2.658      8.203
REMARK INTER + INTRA:         -11.839
REMARK INTER:                  -7.616
REMARK INTRA:                  -4.223
REMARK UNBOUND:                -4.498
REMARK  Name = lig_assembled_33.pdb
REMARK  22 active torsions:
REMARK  status: ('A' for Active; 'I' for Inactive)
REMARK    1  A    between atoms: _2  and  _9
REMARK    2  A    between atoms: _4  and  _20
REMARK    3  A    between atoms: _5  and  _13
REMARK    4  A    between atoms: _5  and  _14
REMARK    5  A    between atoms: _6  and  _7
REMARK    6  A    between atoms: _6  and  _20
REMARK    7  A    between atoms: _9  and  _10
REMARK    8  A    between atoms: _10  and  _11
REMARK    9  A    between atoms: _11  and  _12
REMARK   10  A    between atoms: _12  and  _13
REMARK   11  A    between atoms: _16  and  _36
REMARK   12  A    between atoms: _18  and  _24
REMARK   13  A    between atoms: _19  and  _23
REMARK   14  A    between atoms: _23  and  _24
REMARK   15  A    between atoms: _26  and  _27
REMARK   16  A    between atoms: _28  and  _29
REMARK   17  A    between atoms: _30  and  _32
REMARK   18  A    between atoms: _32  and  _33
REMARK   19  A    between atoms: _32  and  _34
REMARK   20  A    between atoms: _34  and  _35
REMARK   21  A    between atoms: _34  and  _36
REMARK   22  A    between atoms: _37  and  _39
REMARK                            x       y       z     vdW  Elec       q    Type
REMARK                         _______ _______ _______ _____ _____    ______ ____
ROOT
ATOM      1  C   UNL     1      -4.286   8.859  24.099  0.00  0.00    +0.163 C 
ENDROOT
BRANCH   1   2
ATOM      2  O   UNL     1      -3.761   7.989  23.082  0.00  0.00    -0.388 OA
ATOM      3  H   UNL     1      -2.801   8.003  23.113  0.00  0.00    +0.210 HD
ENDBRANCH   1   2
BRANCH   1   4
ATOM      4  C   UNL     1      -5.635   9.458  23.667  0.00  0.00    +0.175 C 
BRANCH   4   5
ATOM      5  C   UNL     1      -5.477  10.480  22.531  0.00  0.00    +0.176 C 
ATOM      6  O   UNL     1      -5.166   9.749  21.313  0.00  0.00    -0.332 OA
ATOM      7  C   UNL     1      -5.083  10.558  20.093  0.00  0.00    +0.277 C 
ATOM      8  C   UNL     1      -4.074  11.718  20.280  0.00  0.00    +0.110 C 
ATOM      9  C   UNL     1      -4.346  12.504  21.580  0.00  0.00    +0.143 C 
ATOM     10  C   UNL     1      -4.415  11.566  22.785  0.00  0.00    +0.133 C 
BRANCH  10  11
ATOM     11  N   UNL     1      -4.760  12.316  24.003  0.00  0.00    -0.308 N 
ATOM     12  H   UNL     1      -5.697  12.686  24.079  0.00  0.00    +0.149 HD
ATOM     13  C   UNL     1      -3.916  12.540  25.013  0.00  0.00    +0.210 C 
ATOM     14  C   UNL     1      -2.487  11.985  24.854  0.00  0.00    +0.109 C 
ATOM     15  O   UNL     1      -4.237  13.159  26.028  0.00  0.00    -0.276 OA
ENDBRANCH  10  11
BRANCH   7  16
ATOM     16  C   UNL     1      -6.466  11.132  19.722  0.00  0.00    +0.414 C 
ATOM     17  O   UNL     1      -7.458  10.404  19.712  0.00  0.00    -0.240 OA
ATOM     18  O   UNL     1      -6.590  12.323  19.433  0.00  0.00    -0.240 OA
ENDBRANCH   7  16
BRANCH   9  19
ATOM     19  O   UNL     1      -3.307  13.462  21.789  0.00  0.00    -0.390 OA
ATOM     20  H   UNL     1      -2.586  13.291  21.179  0.00  0.00    +0.210 HD
ENDBRANCH   9  19
BRANCH   7  21
ATOM     21  O   UNL     1      -4.605   9.705  19.021  0.00  0.00    -0.343 OA
ATOM     22  C   UNL     1      -4.532  10.340  17.719  0.00  0.00    +0.198 C 
ENDBRANCH   7  21
ENDBRANCH   4   5
BRANCH   4  23
ATOM     23  O   UNL     1      -6.292  10.068  24.796  0.00  0.00    -0.387 OA
ATOM     24  H   UNL     1      -5.639  10.507  25.347  0.00  0.00    +0.210 HD
ENDBRANCH   4  23
ENDBRANCH   1   4
BRANCH   1  25
ATOM     25  C   UNL     1      -4.464   8.089  25.403  0.00  0.00    +0.141 C 
BRANCH  25  28
ATOM     26  C   UNL     1      -2.376   8.260  26.713  0.00  0.00    +0.401 C 
ATOM     27  O   UNL     1      -1.782   7.402  26.056  0.00  0.00    -0.226 OA
ATOM     28  N   UNL     1      -3.633   8.639  26.481  0.00  0.00    -0.279 N 
ATOM     29  H   UNL     1      -4.037   9.344  27.082  0.00  0.00    +0.152 HD
BRANCH  26  30
ATOM     30  O   UNL     1      -1.696   8.898  27.797  0.00  0.00    -0.444 OA
BRANCH  30  31
ATOM     31  C   UNL     1      -1.940   8.174  29.006  0.00  0.00    +0.292 C 
BRANCH  31  33
ATOM     32  N   UNL     1      -4.249   8.619  29.772  0.00  0.00    -0.131 NA
ATOM     33  C   UNL     1      -2.910   8.895  29.851  0.00  0.00    +0.120 A 
ATOM     34  C   UNL     1      -2.709   9.887  30.787  0.00  0.00    +0.137 A 
ATOM     35  N   UNL     1      -3.962  10.162  31.244  0.00  0.00    -0.251 N 
ATOM     36  N   UNL     1      -4.887   9.412  30.621  0.00  0.00    -0.065 NA
BRANCH  35  37
ATOM     37  C   UNL     1      -4.359  11.124  32.251  0.00  0.00    +0.145 C 
BRANCH  37  38
ATOM     38  C   UNL     1      -5.180  12.269  31.661  0.00  0.00    +0.023 C 
BRANCH  38  39
ATOM     39  C   UNL     1      -4.329  13.245  30.844  0.00  0.00    +0.002 C 
BRANCH  39  40
ATOM     40  C   UNL     1      -4.673  13.117  29.358  0.00  0.00    +0.011 C 
BRANCH  40  41
ATOM     41  C   UNL     1      -6.083  12.582  29.120  0.00  0.00    +0.120 C 
BRANCH  41  42
ATOM     42  C   UNL     1      -6.085  11.489  28.073  0.00  0.00    +0.305 C 
ATOM     43  O   UNL     1      -7.062  11.110  27.449  0.00  0.00    -0.251 OA
BRANCH  42  44
ATOM     44  O   UNL     1      -4.856  10.955  27.883  0.00  0.00    -0.481 OA
ATOM     45  H   UNL     1      -4.705  10.127  28.373  0.00  0.00    +0.295 HD
ENDBRANCH  42  44
ENDBRANCH  41  42
ENDBRANCH  40  41
ENDBRANCH  39  40
ENDBRANCH  38  39
ENDBRANCH  37  38
ENDBRANCH  35  37
ENDBRANCH  31  33
ENDBRANCH  30  31
ENDBRANCH  26  30
ENDBRANCH  25  28
ENDBRANCH   1  25
TORSDOF 20
