REMARK VINA RESULT:    -4.423      2.875      7.304
REMARK INTER + INTRA:         -11.184
REMARK INTER:                  -7.162
REMARK INTRA:                  -4.022
REMARK UNBOUND:                -2.754
REMARK  Name = lig_assembled_19.pdb
REMARK  20 active torsions:
REMARK  status: ('A' for Active; 'I' for Inactive)
REMARK    1  A    between atoms: _2  and  _9
REMARK    2  A    between atoms: _4  and  _18
REMARK    3  A    between atoms: _5  and  _11
REMARK    4  A    between atoms: _6  and  _7
REMARK    5  A    between atoms: _6  and  _18
REMARK    6  A    between atoms: _9  and  _10
REMARK    7  A    between atoms: _10  and  _13
REMARK    8  A    between atoms: _11  and  _13
REMARK    9  A    between atoms: _14  and  _34
REMARK   10  A    between atoms: _16  and  _22
REMARK   11  A    between atoms: _17  and  _21
REMARK   12  A    between atoms: _21  and  _22
REMARK   13  A    between atoms: _24  and  _25
REMARK   14  A    between atoms: _26  and  _27
REMARK   15  A    between atoms: _28  and  _30
REMARK   16  A    between atoms: _30  and  _31
REMARK   17  A    between atoms: _30  and  _32
REMARK   18  A    between atoms: _32  and  _33
REMARK   19  A    between atoms: _32  and  _34
REMARK   20  A    between atoms: _35  and  _37
REMARK                            x       y       z     vdW  Elec       q    Type
REMARK                         _______ _______ _______ _____ _____    ______ ____
ROOT
ATOM      1  C   UNL     1      -5.383  11.831  29.147  0.00  0.00    +0.163 C 
ENDROOT
BRANCH   1   2
ATOM      2  O   UNL     1      -6.540  11.020  29.408  0.00  0.00    -0.388 OA
ATOM      3  H   UNL     1      -6.630  10.884  30.354  0.00  0.00    +0.210 HD
ENDBRANCH   1   2
BRANCH   1   4
ATOM      4  C   UNL     1      -4.138  10.957  28.916  0.00  0.00    +0.175 C 
BRANCH   4   5
ATOM      5  C   UNL     1      -3.735  10.180  30.179  0.00  0.00    +0.176 C 
ATOM      6  O   UNL     1      -4.698   9.107  30.370  0.00  0.00    -0.332 OA
ATOM      7  C   UNL     1      -4.412   8.189  31.477  0.00  0.00    +0.277 C 
ATOM      8  C   UNL     1      -4.233   8.974  32.799  0.00  0.00    +0.110 C 
ATOM      9  C   UNL     1      -3.242  10.146  32.636  0.00  0.00    +0.143 C 
ATOM     10  C   UNL     1      -3.633  11.035  31.456  0.00  0.00    +0.133 C 
BRANCH  10  11
ATOM     11  N   UNL     1      -2.633  12.097  31.257  0.00  0.00    -0.308 N 
ATOM     12  H   UNL     1      -1.720  11.827  30.919  0.00  0.00    +0.149 HD
ATOM     13  C   UNL     1      -2.854  13.392  31.494  0.00  0.00    +0.210 C 
ATOM     14  C   UNL     1      -4.247  13.767  32.033  0.00  0.00    +0.109 C 
ATOM     15  O   UNL     1      -2.002  14.262  31.305  0.00  0.00    -0.276 OA
ENDBRANCH  10  11
BRANCH   7  16
ATOM     16  C   UNL     1      -3.139   7.367  31.189  0.00  0.00    +0.414 C 
ATOM     17  O   UNL     1      -2.702   6.585  32.033  0.00  0.00    -0.240 OA
ATOM     18  O   UNL     1      -2.549   7.484  30.115  0.00  0.00    -0.240 OA
ENDBRANCH   7  16
BRANCH   9  19
ATOM     19  O   UNL     1      -3.223  10.930  33.830  0.00  0.00    -0.390 OA
ATOM     20  H   UNL     1      -3.012  11.841  33.612  0.00  0.00    +0.210 HD
ENDBRANCH   9  19
BRANCH   7  21
ATOM     21  O   UNL     1      -5.547   7.297  31.624  0.00  0.00    -0.343 OA
ATOM     22  C   UNL     1      -6.832   7.882  31.296  0.00  0.00    +0.198 C 
ENDBRANCH   7  21
ENDBRANCH   4   5
BRANCH   4  23
ATOM     23  O   UNL     1      -3.038  11.769  28.460  0.00  0.00    -0.387 OA
ATOM     24  H   UNL     1      -3.261  12.697  28.564  0.00  0.00    +0.210 HD
ENDBRANCH   4  23
ENDBRANCH   1   4
BRANCH   1  25
ATOM     25  C   UNL     1      -5.624  12.707  27.922  0.00  0.00    +0.141 C 
BRANCH  25  28
ATOM     26  C   UNL     1      -5.166  12.587  25.497  0.00  0.00    +0.401 C 
ATOM     27  O   UNL     1      -5.205  13.809  25.334  0.00  0.00    -0.226 OA
ATOM     28  N   UNL     1      -5.357  11.986  26.672  0.00  0.00    -0.279 N 
ATOM     29  H   UNL     1      -5.314  10.977  26.704  0.00  0.00    +0.152 HD
BRANCH  26  30
ATOM     30  O   UNL     1      -4.905  11.744  24.372  0.00  0.00    -0.444 OA
BRANCH  30  31
ATOM     31  C   UNL     1      -3.495  11.553  24.235  0.00  0.00    +0.292 C 
BRANCH  31  33
ATOM     32  N   UNL     1      -1.892  10.561  25.844  0.00  0.00    -0.131 NA
ATOM     33  C   UNL     1      -3.038  10.449  25.099  0.00  0.00    +0.120 A 
ATOM     34  C   UNL     1      -3.599   9.212  25.322  0.00  0.00    +0.137 A 
ATOM     35  N   UNL     1      -2.742   8.618  26.198  0.00  0.00    -0.248 N 
ATOM     36  N   UNL     1      -1.721   9.430  26.516  0.00  0.00    -0.065 NA
BRANCH  35  37
ATOM     37  C   UNL     1      -2.842   7.297  26.780  0.00  0.00    +0.186 C 
BRANCH  37  38
ATOM     38  C   UNL     1      -4.276   6.778  26.766  0.00  0.00    +0.255 C 
BRANCH  38  39
ATOM     39  O   UNL     1      -5.044   7.272  27.882  0.00  0.00    -0.463 OA
BRANCH  39  40
ATOM     40  C   UNL     1      -6.250   7.822  27.578  0.00  0.00    +0.304 C 
ATOM     41  O   UNL     1      -6.425   8.989  27.258  0.00  0.00    -0.251 OA
ATOM     42  C   UNL     1      -7.339   6.797  27.656  0.00  0.00    +0.136 C 
ENDBRANCH  39  40
ENDBRANCH  38  39
ENDBRANCH  37  38
ENDBRANCH  35  37
ENDBRANCH  31  33
ENDBRANCH  30  31
ENDBRANCH  26  30
ENDBRANCH  25  28
ENDBRANCH   1  25
TORSDOF 17
