REMARK VINA RESULT:    -4.844      3.716      5.885
REMARK INTER + INTRA:         -11.256
REMARK INTER:                  -8.331
REMARK INTRA:                  -2.925
REMARK UNBOUND:                -2.589
REMARK  Name = lig_assembled_82.pdb
REMARK  19 active torsions:
REMARK  status: ('A' for Active; 'I' for Inactive)
REMARK    1  A    between atoms: _2  and  _9
REMARK    2  A    between atoms: _4  and  _22
REMARK    3  A    between atoms: _5  and  _16
REMARK    4  A    between atoms: _6  and  _7
REMARK    5  A    between atoms: _6  and  _22
REMARK    6  A    between atoms: _9  and  _10
REMARK    7  A    between atoms: _16  and  _17
REMARK    8  A    between atoms: _18  and  _38
REMARK    9  A    between atoms: _20  and  _26
REMARK   10  A    between atoms: _21  and  _25
REMARK   11  A    between atoms: _25  and  _26
REMARK   12  A    between atoms: _28  and  _29
REMARK   13  A    between atoms: _30  and  _31
REMARK   14  A    between atoms: _32  and  _34
REMARK   15  A    between atoms: _34  and  _35
REMARK   16  A    between atoms: _34  and  _36
REMARK   17  A    between atoms: _36  and  _37
REMARK   18  A    between atoms: _36  and  _38
REMARK   19  A    between atoms: _39  and  _41
REMARK                            x       y       z     vdW  Elec       q    Type
REMARK                         _______ _______ _______ _____ _____    ______ ____
ROOT
ATOM      1  C   UNL     1      -4.943  10.157  25.100  0.00  0.00    +0.163 C 
ENDROOT
BRANCH   1   2
ATOM      2  O   UNL     1      -5.285   9.582  23.828  0.00  0.00    -0.388 OA
ATOM      3  H   UNL     1      -5.550  10.278  23.222  0.00  0.00    +0.210 HD
ENDBRANCH   1   2
BRANCH   1   4
ATOM      4  C   UNL     1      -5.197  11.660  25.078  0.00  0.00    +0.141 C 
BRANCH   4   7
ATOM      5  C   UNL     1      -3.858  12.940  23.442  0.00  0.00    +0.401 C 
ATOM      6  O   UNL     1      -2.949  13.187  24.238  0.00  0.00    -0.226 OA
ATOM      7  N   UNL     1      -4.949  12.238  23.751  0.00  0.00    -0.279 N 
ATOM      8  H   UNL     1      -5.645  12.096  23.032  0.00  0.00    +0.152 HD
BRANCH   5   9
ATOM      9  O   UNL     1      -3.760  13.429  22.102  0.00  0.00    -0.444 OA
BRANCH   9  10
ATOM     10  C   UNL     1      -2.944  12.545  21.329  0.00  0.00    +0.292 C 
BRANCH  10  12
ATOM     11  N   UNL     1      -3.813  10.230  21.235  0.00  0.00    -0.131 NA
ATOM     12  C   UNL     1      -3.755  11.496  20.703  0.00  0.00    +0.120 A 
ATOM     13  C   UNL     1      -4.542  11.530  19.566  0.00  0.00    +0.137 A 
ATOM     14  N   UNL     1      -4.938  10.233  19.396  0.00  0.00    -0.247 N 
ATOM     15  N   UNL     1      -4.571   9.479  20.449  0.00  0.00    -0.065 NA
BRANCH  14  16
ATOM     16  C   UNL     1      -5.580   9.621  18.230  0.00  0.00    +0.176 C 
BRANCH  16  17
ATOM     17  C   UNL     1      -4.971  10.077  16.926  0.00  0.00    -0.049 C 
ATOM     18  C   UNL     1      -5.845  10.832  15.976  0.00  0.00    +0.023 C 
ATOM     19  C   UNL     1      -5.194  12.009  15.118  0.00  0.00    -0.025 C 
ATOM     20  C   UNL     1      -4.068  12.996  15.450  0.00  0.00    +0.012 C 
ATOM     21  C   UNL     1      -4.591  10.777  14.294  0.00  0.00    -0.000 C 
ATOM     22  C   UNL     1      -3.405  10.043  14.994  0.00  0.00    +0.031 C 
ATOM     23  C   UNL     1      -6.407  12.873  14.693  0.00  0.00    +0.012 C 
ATOM     24  C   UNL     1      -5.923  10.045  14.605  0.00  0.00    +0.012 C 
ATOM     25  C   UNL     1      -3.766   9.728  16.437  0.00  0.00    -0.025 C 
ENDBRANCH  16  17
ENDBRANCH  14  16
ENDBRANCH  10  12
ENDBRANCH   9  10
ENDBRANCH   5   9
ENDBRANCH   4   7
ENDBRANCH   1   4
BRANCH   1  26
ATOM     26  C   UNL     1      -3.468   9.890  25.445  0.00  0.00    +0.175 C 
BRANCH  26  27
ATOM     27  C   UNL     1      -3.298   8.648  26.332  0.00  0.00    +0.176 C 
ATOM     28  O   UNL     1      -3.629   7.479  25.534  0.00  0.00    -0.332 OA
ATOM     29  C   UNL     1      -3.422   6.184  26.188  0.00  0.00    +0.277 C 
ATOM     30  C   UNL     1      -4.183   6.130  27.536  0.00  0.00    +0.110 C 
ATOM     31  C   UNL     1      -3.887   7.369  28.407  0.00  0.00    +0.143 C 
ATOM     32  C   UNL     1      -4.133   8.661  27.626  0.00  0.00    +0.133 C 
BRANCH  32  33
ATOM     33  N   UNL     1      -3.765   9.831  28.437  0.00  0.00    -0.308 N 
ATOM     34  H   UNL     1      -2.786   9.972  28.646  0.00  0.00    +0.149 HD
ATOM     35  C   UNL     1      -4.639  10.720  28.917  0.00  0.00    +0.210 C 
ATOM     36  C   UNL     1      -6.125  10.464  28.604  0.00  0.00    +0.109 C 
ATOM     37  O   UNL     1      -4.300  11.700  29.581  0.00  0.00    -0.276 OA
ENDBRANCH  32  33
BRANCH  29  38
ATOM     38  C   UNL     1      -1.920   5.930  26.435  0.00  0.00    +0.414 C 
ATOM     39  O   UNL     1      -1.101   6.140  25.541  0.00  0.00    -0.240 OA
ATOM     40  O   UNL     1      -1.528   5.515  27.526  0.00  0.00    -0.240 OA
ENDBRANCH  29  38
BRANCH  29  41
ATOM     41  O   UNL     1      -3.955   5.151  25.320  0.00  0.00    -0.343 OA
ATOM     42  C   UNL     1      -4.546   5.633  24.087  0.00  0.00    +0.198 C 
ENDBRANCH  29  41
BRANCH  31  43
ATOM     43  O   UNL     1      -4.721   7.354  29.566  0.00  0.00    -0.390 OA
ATOM     44  H   UNL     1      -4.293   7.838  30.275  0.00  0.00    +0.210 HD
ENDBRANCH  31  43
ENDBRANCH  26  27
BRANCH  26  45
ATOM     45  O   UNL     1      -2.892  11.043  26.090  0.00  0.00    -0.387 OA
ATOM     46  H   UNL     1      -2.207  10.761  26.701  0.00  0.00    +0.210 HD
ENDBRANCH  26  45
ENDBRANCH   1  26
TORSDOF 15
