REMARK VINA RESULT:    -4.896      3.641      8.747
REMARK INTER + INTRA:         -12.941
REMARK INTER:                  -9.653
REMARK INTRA:                  -3.288
REMARK UNBOUND:                -3.181
REMARK  Name = lig_assembled_76.pdb
REMARK  21 active torsions:
REMARK  status: ('A' for Active; 'I' for Inactive)
REMARK    1  A    between atoms: _2  and  _9
REMARK    2  A    between atoms: _4  and  _23
REMARK    3  A    between atoms: _6  and  _7
REMARK    4  A    between atoms: _6  and  _23
REMARK    5  A    between atoms: _9  and  _10
REMARK    6  A    between atoms: _10  and  _11
REMARK    7  A    between atoms: _10  and  _18
REMARK    8  A    between atoms: _11  and  _12
REMARK    9  A    between atoms: _12  and  _13
REMARK   10  A    between atoms: _19  and  _39
REMARK   11  A    between atoms: _21  and  _27
REMARK   12  A    between atoms: _22  and  _26
REMARK   13  A    between atoms: _26  and  _27
REMARK   14  A    between atoms: _29  and  _30
REMARK   15  A    between atoms: _31  and  _32
REMARK   16  A    between atoms: _33  and  _35
REMARK   17  A    between atoms: _35  and  _36
REMARK   18  A    between atoms: _35  and  _37
REMARK   19  A    between atoms: _37  and  _38
REMARK   20  A    between atoms: _37  and  _39
REMARK   21  A    between atoms: _40  and  _42
REMARK                            x       y       z     vdW  Elec       q    Type
REMARK                         _______ _______ _______ _____ _____    ______ ____
ROOT
ATOM      1  C   UNL     1      -3.484  10.371  33.350  0.00  0.00    +0.141 C 
ENDROOT
BRANCH   1   4
ATOM      2  C   UNL     1      -3.607   8.871  31.390  0.00  0.00    +0.401 C 
ATOM      3  O   UNL     1      -4.776   8.539  31.599  0.00  0.00    -0.226 OA
ATOM      4  N   UNL     1      -2.923   9.718  32.161  0.00  0.00    -0.279 N 
ATOM      5  H   UNL     1      -1.965   9.921  31.913  0.00  0.00    +0.152 HD
BRANCH   2   6
ATOM      6  O   UNL     1      -2.921   8.325  30.260  0.00  0.00    -0.444 OA
BRANCH   6   7
ATOM      7  C   UNL     1      -3.862   8.040  29.222  0.00  0.00    +0.292 C 
BRANCH   7   9
ATOM      8  N   UNL     1      -2.075   8.625  27.606  0.00  0.00    -0.131 NA
ATOM      9  C   UNL     1      -3.404   8.607  27.942  0.00  0.00    +0.120 A 
ATOM     10  C   UNL     1      -4.134   9.188  26.929  0.00  0.00    +0.137 A 
ATOM     11  N   UNL     1      -3.194   9.533  26.009  0.00  0.00    -0.249 N 
ATOM     12  N   UNL     1      -1.958   9.204  26.418  0.00  0.00    -0.065 NA
BRANCH  11  13
ATOM     13  C   UNL     1      -3.384  10.288  24.791  0.00  0.00    +0.176 C 
BRANCH  13  14
ATOM     14  C   UNL     1      -3.279  11.802  25.005  0.00  0.00    +0.136 C 
BRANCH  14  15
ATOM     15  O   UNL     1      -2.057  12.121  25.687  0.00  0.00    -0.390 OA
ATOM     16  H   UNL     1      -1.465  12.593  25.076  0.00  0.00    +0.210 HD
ENDBRANCH  14  15
BRANCH  14  17
ATOM     17  C   UNL     1      -3.285  12.584  23.682  0.00  0.00    +0.038 C 
BRANCH  17  18
ATOM     18  C   UNL     1      -3.080  11.701  22.452  0.00  0.00    +0.038 C 
BRANCH  18  19
ATOM     19  C   UNL     1      -4.165  11.898  21.425  0.00  0.00    -0.047 A 
ATOM     20  C   UNL     1      -3.972  11.473  20.102  0.00  0.00    +0.003 A 
ATOM     21  C   UNL     1      -4.981  11.637  19.153  0.00  0.00    +0.000 A 
ATOM     22  C   UNL     1      -6.188  12.231  19.515  0.00  0.00    +0.000 A 
ATOM     23  C   UNL     1      -6.385  12.666  20.825  0.00  0.00    +0.000 A 
ATOM     24  C   UNL     1      -5.376  12.504  21.776  0.00  0.00    +0.003 A 
ENDBRANCH  18  19
ENDBRANCH  17  18
ENDBRANCH  14  17
ENDBRANCH  13  14
ENDBRANCH  11  13
ENDBRANCH   7   9
ENDBRANCH   6   7
ENDBRANCH   2   6
ENDBRANCH   1   4
BRANCH   1  25
ATOM     25  C   UNL     1      -4.049  11.751  33.028  0.00  0.00    +0.163 C 
BRANCH  25  26
ATOM     26  O   UNL     1      -5.049  12.110  33.994  0.00  0.00    -0.388 OA
ATOM     27  H   UNL     1      -4.795  11.776  34.858  0.00  0.00    +0.210 HD
ENDBRANCH  25  26
BRANCH  25  28
ATOM     28  C   UNL     1      -2.907  12.782  33.008  0.00  0.00    +0.175 C 
BRANCH  28  29
ATOM     29  C   UNL     1      -3.372  14.148  32.483  0.00  0.00    +0.176 C 
ATOM     30  O   UNL     1      -4.125  14.801  33.542  0.00  0.00    -0.332 OA
ATOM     31  C   UNL     1      -4.562  16.171  33.257  0.00  0.00    +0.277 C 
ATOM     32  C   UNL     1      -5.368  16.218  31.935  0.00  0.00    +0.110 C 
ATOM     33  C   UNL     1      -4.621  15.508  30.787  0.00  0.00    +0.143 C 
ATOM     34  C   UNL     1      -4.210  14.092  31.193  0.00  0.00    +0.133 C 
BRANCH  34  35
ATOM     35  N   UNL     1      -3.424  13.457  30.123  0.00  0.00    -0.308 N 
ATOM     36  H   UNL     1      -2.493  13.809  29.950  0.00  0.00    +0.149 HD
ATOM     37  C   UNL     1      -3.861  12.446  29.367  0.00  0.00    +0.210 C 
ATOM     38  C   UNL     1      -5.294  11.950  29.638  0.00  0.00    +0.109 C 
ATOM     39  O   UNL     1      -3.175  11.924  28.487  0.00  0.00    -0.276 OA
ENDBRANCH  34  35
BRANCH  31  40
ATOM     40  C   UNL     1      -3.351  17.122  33.156  0.00  0.00    +0.414 C 
ATOM     41  O   UNL     1      -3.395  18.106  32.419  0.00  0.00    -0.240 OA
ATOM     42  O   UNL     1      -2.330  16.904  33.811  0.00  0.00    -0.240 OA
ENDBRANCH  31  40
BRANCH  33  43
ATOM     43  O   UNL     1      -5.461  15.442  29.634  0.00  0.00    -0.390 OA
ATOM     44  H   UNL     1      -5.277  16.190  29.061  0.00  0.00    +0.210 HD
ENDBRANCH  33  43
BRANCH  31  45
ATOM     45  O   UNL     1      -5.430  16.599  34.337  0.00  0.00    -0.343 OA
ATOM     46  C   UNL     1      -6.828  16.253  34.173  0.00  0.00    +0.198 C 
ENDBRANCH  31  45
ENDBRANCH  28  29
BRANCH  28  47
ATOM     47  O   UNL     1      -1.809  12.291  32.213  0.00  0.00    -0.387 OA
ATOM     48  H   UNL     1      -1.093  12.931  32.227  0.00  0.00    +0.210 HD
ENDBRANCH  28  47
ENDBRANCH  25  28
ENDBRANCH   1  25
TORSDOF 19
