REMARK VINA RESULT:    -4.429      3.358      8.117
REMARK INTER + INTRA:         -14.130
REMARK INTER:                  -9.741
REMARK INTRA:                  -4.388
REMARK UNBOUND:                -3.746
REMARK  Name = lig_assembled_30.pdb
REMARK  27 active torsions:
REMARK  status: ('A' for Active; 'I' for Inactive)
REMARK    1  A    between atoms: _2  and  _9
REMARK    2  A    between atoms: _4  and  _25
REMARK    3  A    between atoms: _5  and  _18
REMARK    4  A    between atoms: _5  and  _19
REMARK    5  A    between atoms: _6  and  _7
REMARK    6  A    between atoms: _6  and  _25
REMARK    7  A    between atoms: _9  and  _10
REMARK    8  A    between atoms: _10  and  _11
REMARK    9  A    between atoms: _11  and  _12
REMARK   10  A    between atoms: _12  and  _13
REMARK   11  A    between atoms: _13  and  _14
REMARK   12  A    between atoms: _14  and  _15
REMARK   13  A    between atoms: _15  and  _16
REMARK   14  A    between atoms: _16  and  _17
REMARK   15  A    between atoms: _17  and  _18
REMARK   16  A    between atoms: _21  and  _41
REMARK   17  A    between atoms: _23  and  _29
REMARK   18  A    between atoms: _24  and  _28
REMARK   19  A    between atoms: _28  and  _29
REMARK   20  A    between atoms: _31  and  _32
REMARK   21  A    between atoms: _33  and  _34
REMARK   22  A    between atoms: _35  and  _37
REMARK   23  A    between atoms: _37  and  _38
REMARK   24  A    between atoms: _37  and  _39
REMARK   25  A    between atoms: _39  and  _40
REMARK   26  A    between atoms: _39  and  _41
REMARK   27  A    between atoms: _42  and  _44
REMARK                            x       y       z     vdW  Elec       q    Type
REMARK                         _______ _______ _______ _____ _____    ______ ____
ROOT
ATOM      1  C   UNL     1      -2.767  13.872  32.317  0.00  0.00    +0.401 C 
ATOM      2  O   UNL     1      -1.899  14.178  31.495  0.00  0.00    -0.226 OA
ATOM      3  N   UNL     1      -3.236  12.634  32.481  0.00  0.00    -0.279 N 
ATOM      4  H   UNL     1      -3.941  12.481  33.188  0.00  0.00    +0.152 HD
ENDROOT
BRANCH   1   5
ATOM      5  O   UNL     1      -3.314  14.889  33.160  0.00  0.00    -0.444 OA
BRANCH   5   6
ATOM      6  C   UNL     1      -4.719  14.674  33.317  0.00  0.00    +0.292 C 
BRANCH   6   8
ATOM      7  N   UNL     1      -6.231  13.569  31.699  0.00  0.00    -0.131 NA
ATOM      8  C   UNL     1      -5.376  14.596  32.000  0.00  0.00    +0.120 A 
ATOM      9  C   UNL     1      -5.281  15.437  30.913  0.00  0.00    +0.137 A 
ATOM     10  N   UNL     1      -6.100  14.865  29.988  0.00  0.00    -0.251 N 
ATOM     11  N   UNL     1      -6.669  13.744  30.459  0.00  0.00    -0.065 NA
BRANCH  10  12
ATOM     12  C   UNL     1      -6.353  15.304  28.633  0.00  0.00    +0.145 C 
BRANCH  12  13
ATOM     13  C   UNL     1      -6.857  14.156  27.765  0.00  0.00    +0.023 C 
BRANCH  13  14
ATOM     14  C   UNL     1      -5.929  13.883  26.583  0.00  0.00    +0.002 C 
BRANCH  14  15
ATOM     15  C   UNL     1      -6.748  13.562  25.333  0.00  0.00    +0.000 C 
BRANCH  15  16
ATOM     16  C   UNL     1      -5.902  12.886  24.258  0.00  0.00    +0.000 C 
BRANCH  16  17
ATOM     17  C   UNL     1      -6.140  13.533  22.894  0.00  0.00    +0.000 C 
BRANCH  17  18
ATOM     18  C   UNL     1      -5.076  14.587  22.597  0.00  0.00    +0.000 C 
BRANCH  18  19
ATOM     19  C   UNL     1      -3.710  13.952  22.340  0.00  0.00    +0.001 C 
BRANCH  19  20
ATOM     20  C   UNL     1      -3.792  12.961  21.180  0.00  0.00    +0.011 C 
BRANCH  20  21
ATOM     21  C   UNL     1      -2.937  11.721  21.428  0.00  0.00    +0.120 C 
BRANCH  21  22
ATOM     22  C   UNL     1      -3.780  10.547  21.871  0.00  0.00    +0.305 C 
ATOM     23  O   UNL     1      -4.995  10.471  21.774  0.00  0.00    -0.251 OA
BRANCH  22  24
ATOM     24  O   UNL     1      -3.037   9.552  22.405  0.00  0.00    -0.481 OA
ATOM     25  H   UNL     1      -3.319   8.660  22.129  0.00  0.00    +0.295 HD
ENDBRANCH  22  24
ENDBRANCH  21  22
ENDBRANCH  20  21
ENDBRANCH  19  20
ENDBRANCH  18  19
ENDBRANCH  17  18
ENDBRANCH  16  17
ENDBRANCH  15  16
ENDBRANCH  14  15
ENDBRANCH  13  14
ENDBRANCH  12  13
ENDBRANCH  10  12
ENDBRANCH   6   8
ENDBRANCH   5   6
ENDBRANCH   1   5
BRANCH   3  26
ATOM     26  C   UNL     1      -2.785  11.482  31.690  0.00  0.00    +0.141 C 
BRANCH  26  27
ATOM     27  C   UNL     1      -3.946  10.787  30.986  0.00  0.00    +0.163 C 
BRANCH  27  28
ATOM     28  O   UNL     1      -5.147  10.929  31.762  0.00  0.00    -0.388 OA
ATOM     29  H   UNL     1      -5.039  11.643  32.394  0.00  0.00    +0.210 HD
ENDBRANCH  27  28
BRANCH  27  30
ATOM     30  C   UNL     1      -4.126  11.384  29.580  0.00  0.00    +0.175 C 
BRANCH  30  31
ATOM     31  C   UNL     1      -4.028  10.316  28.481  0.00  0.00    +0.176 C 
ATOM     32  O   UNL     1      -3.203  10.851  27.409  0.00  0.00    -0.332 OA
ATOM     33  C   UNL     1      -2.910   9.924  26.312  0.00  0.00    +0.277 C 
ATOM     34  C   UNL     1      -4.221   9.347  25.725  0.00  0.00    +0.110 C 
ATOM     35  C   UNL     1      -5.145   8.795  26.831  0.00  0.00    +0.143 C 
ATOM     36  C   UNL     1      -5.381   9.840  27.922  0.00  0.00    +0.133 C 
BRANCH  36  37
ATOM     37  N   UNL     1      -6.192   9.274  29.012  0.00  0.00    -0.308 N 
ATOM     38  H   UNL     1      -5.790   8.524  29.557  0.00  0.00    +0.149 HD
ATOM     39  C   UNL     1      -7.422   9.686  29.327  0.00  0.00    +0.210 C 
ATOM     40  C   UNL     1      -8.016  10.812  28.461  0.00  0.00    +0.109 C 
ATOM     41  O   UNL     1      -8.072   9.203  30.255  0.00  0.00    -0.276 OA
ENDBRANCH  36  37
BRANCH  33  42
ATOM     42  C   UNL     1      -2.011   8.768  26.798  0.00  0.00    +0.414 C 
ATOM     43  O   UNL     1      -2.034   7.680  26.224  0.00  0.00    -0.240 OA
ATOM     44  O   UNL     1      -1.262   8.923  27.764  0.00  0.00    -0.240 OA
ENDBRANCH  33  42
BRANCH  35  45
ATOM     45  O   UNL     1      -6.400   8.414  26.265  0.00  0.00    -0.390 OA
ATOM     46  H   UNL     1      -6.998   8.141  26.964  0.00  0.00    +0.210 HD
ENDBRANCH  35  45
BRANCH  33  47
ATOM     47  O   UNL     1      -2.229  10.666  25.268  0.00  0.00    -0.343 OA
ATOM     48  C   UNL     1      -2.636  12.051  25.135  0.00  0.00    +0.198 C 
ENDBRANCH  33  47
ENDBRANCH  30  31
BRANCH  30  49
ATOM     49  O   UNL     1      -3.151  12.421  29.352  0.00  0.00    -0.387 OA
ATOM     50  H   UNL     1      -3.113  12.999  30.119  0.00  0.00    +0.210 HD
ENDBRANCH  30  49
ENDBRANCH  27  30
ENDBRANCH  26  27
ENDBRANCH   3  26
TORSDOF 25
