REMARK VINA RESULT:    -5.235      3.814      6.548
REMARK INTER + INTRA:         -12.202
REMARK INTER:                  -9.153
REMARK INTRA:                  -3.050
REMARK UNBOUND:                -3.141
REMARK  Name = lig_assembled_91.pdb
REMARK  16 active torsions:
REMARK  status: ('A' for Active; 'I' for Inactive)
REMARK    1  A    between atoms: _2  and  _10
REMARK    2  A    between atoms: _5  and  _26
REMARK    3  A    between atoms: _7  and  _8
REMARK    4  A    between atoms: _7  and  _26
REMARK    5  A    between atoms: _22  and  _42
REMARK    6  A    between atoms: _24  and  _30
REMARK    7  A    between atoms: _25  and  _29
REMARK    8  A    between atoms: _29  and  _30
REMARK    9  A    between atoms: _32  and  _33
REMARK   10  A    between atoms: _34  and  _35
REMARK   11  A    between atoms: _36  and  _38
REMARK   12  A    between atoms: _38  and  _39
REMARK   13  A    between atoms: _38  and  _40
REMARK   14  A    between atoms: _40  and  _41
REMARK   15  A    between atoms: _40  and  _42
REMARK   16  A    between atoms: _43  and  _45
REMARK                            x       y       z     vdW  Elec       q    Type
REMARK                         _______ _______ _______ _____ _____    ______ ____
ROOT
ATOM      1  C   UNL     1      -4.901  14.391  22.475  0.00  0.00    +0.401 C 
ATOM      2  O   UNL     1      -3.988  15.211  22.357  0.00  0.00    -0.226 OA
ATOM      3  N   UNL     1      -4.974  13.494  23.460  0.00  0.00    -0.279 N 
ATOM      4  H   UNL     1      -5.768  12.869  23.477  0.00  0.00    +0.152 HD
ENDROOT
BRANCH   3   5
ATOM      5  C   UNL     1      -3.967  13.364  24.520  0.00  0.00    +0.141 C 
BRANCH   5   6
ATOM      6  C   UNL     1      -2.983  12.234  24.234  0.00  0.00    +0.163 C 
BRANCH   6   7
ATOM      7  O   UNL     1      -2.185  11.971  25.399  0.00  0.00    -0.388 OA
ATOM      8  H   UNL     1      -2.518  12.485  26.139  0.00  0.00    +0.210 HD
ENDBRANCH   6   7
BRANCH   6   9
ATOM      9  C   UNL     1      -3.757  10.977  23.802  0.00  0.00    +0.175 C 
BRANCH   9  10
ATOM     10  C   UNL     1      -4.066  10.052  24.988  0.00  0.00    +0.176 C 
ATOM     11  O   UNL     1      -2.875   9.263  25.262  0.00  0.00    -0.332 OA
ATOM     12  C   UNL     1      -2.950   8.392  26.439  0.00  0.00    +0.277 C 
ATOM     13  C   UNL     1      -4.184   7.461  26.346  0.00  0.00    +0.110 C 
ATOM     14  C   UNL     1      -5.470   8.251  26.024  0.00  0.00    +0.143 C 
ATOM     15  C   UNL     1      -5.280   9.126  24.784  0.00  0.00    +0.133 C 
BRANCH  15  16
ATOM     16  N   UNL     1      -6.482   9.939  24.539  0.00  0.00    -0.308 N 
ATOM     17  H   UNL     1      -6.804  10.541  25.283  0.00  0.00    +0.149 HD
ATOM     18  C   UNL     1      -7.174   9.933  23.396  0.00  0.00    +0.210 C 
ATOM     19  C   UNL     1      -6.672   8.985  22.291  0.00  0.00    +0.109 C 
ATOM     20  O   UNL     1      -8.169  10.635  23.213  0.00  0.00    -0.276 OA
ENDBRANCH  15  16
BRANCH  12  21
ATOM     21  C   UNL     1      -3.030   9.227  27.734  0.00  0.00    +0.414 C 
ATOM     22  O   UNL     1      -2.363  10.254  27.851  0.00  0.00    -0.240 OA
ATOM     23  O   UNL     1      -3.760   8.873  28.660  0.00  0.00    -0.240 OA
ENDBRANCH  12  21
BRANCH  14  24
ATOM     24  O   UNL     1      -6.549   7.344  25.798  0.00  0.00    -0.390 OA
ATOM     25  H   UNL     1      -7.309   7.613  26.320  0.00  0.00    +0.210 HD
ENDBRANCH  14  24
BRANCH  12  26
ATOM     26  O   UNL     1      -1.756   7.567  26.463  0.00  0.00    -0.343 OA
ATOM     27  C   UNL     1      -1.981   6.156  26.215  0.00  0.00    +0.198 C 
ENDBRANCH  12  26
ENDBRANCH   9  10
BRANCH   9  28
ATOM     28  O   UNL     1      -3.016  10.260  22.793  0.00  0.00    -0.387 OA
ATOM     29  H   UNL     1      -2.711  10.875  22.122  0.00  0.00    +0.210 HD
ENDBRANCH   9  28
ENDBRANCH   6   9
ENDBRANCH   5   6
ENDBRANCH   3   5
BRANCH   1  30
ATOM     30  O   UNL     1      -5.958  14.385  21.512  0.00  0.00    -0.444 OA
BRANCH  30  31
ATOM     31  C   UNL     1      -6.527  13.075  21.436  0.00  0.00    +0.292 C 
BRANCH  31  33
ATOM     32  N   UNL     1      -4.553  11.739  20.794  0.00  0.00    -0.131 NA
ATOM     33  C   UNL     1      -5.778  12.239  20.477  0.00  0.00    +0.121 A 
ATOM     34  C   UNL     1      -6.119  11.816  19.213  0.00  0.00    +0.143 A 
ATOM     35  N   UNL     1      -5.038  11.083  18.764  0.00  0.00    -0.218 N 
ATOM     36  N   UNL     1      -4.114  11.040  19.757  0.00  0.00    -0.060 NA
BRANCH  35  37
ATOM     37  C   UNL     1      -4.827  10.452  17.500  0.00  0.00    +0.085 A 
ATOM     38  C   UNL     1      -4.418  11.233  16.359  0.00  0.00    +0.026 A 
ATOM     39  C   UNL     1      -4.263  10.517  15.156  0.00  0.00    +0.074 A 
ATOM     40  C   UNL     1      -3.875  11.161  13.990  0.00  0.00    +0.028 A 
ATOM     41  C   UNL     1      -3.616  12.526  13.947  0.00  0.00    +0.002 A 
ATOM     42  C   UNL     1      -3.721  13.262  15.111  0.00  0.00    +0.001 A 
ATOM     43  N   UNL     1      -4.446   9.204  15.045  0.00  0.00    -0.247 NA
ATOM     44  C   UNL     1      -4.795   8.481  16.108  0.00  0.00    +0.074 A 
ATOM     45  C   UNL     1      -4.963   7.119  15.879  0.00  0.00    +0.028 A 
ATOM     46  C   UNL     1      -5.361   6.240  16.881  0.00  0.00    +0.002 A 
ATOM     47  C   UNL     1      -5.613   6.736  18.145  0.00  0.00    +0.001 A 
ATOM     48  C   UNL     1      -5.455   8.104  18.390  0.00  0.00    +0.012 A 
ATOM     49  C   UNL     1      -4.094  12.625  16.299  0.00  0.00    +0.012 A 
ATOM     50  C   UNL     1      -5.020   9.026  17.383  0.00  0.00    +0.026 A 
ENDBRANCH  35  37
ENDBRANCH  31  33
ENDBRANCH  30  31
ENDBRANCH   1  30
TORSDOF 14
