REMARK VINA RESULT:    -5.493      2.966      5.149
REMARK INTER + INTRA:         -11.320
REMARK INTER:                  -8.612
REMARK INTRA:                  -2.708
REMARK UNBOUND:                -1.813
REMARK  Name = lig_assembled_40.pdb
REMARK  17 active torsions:
REMARK  status: ('A' for Active; 'I' for Inactive)
REMARK    1  A    between atoms: _2  and  _9
REMARK    2  A    between atoms: _4  and  _19
REMARK    3  A    between atoms: _6  and  _7
REMARK    4  A    between atoms: _6  and  _19
REMARK    5  A    between atoms: _12  and  _13
REMARK    6  A    between atoms: _15  and  _35
REMARK    7  A    between atoms: _17  and  _23
REMARK    8  A    between atoms: _18  and  _22
REMARK    9  A    between atoms: _22  and  _23
REMARK   10  A    between atoms: _25  and  _26
REMARK   11  A    between atoms: _27  and  _28
REMARK   12  A    between atoms: _29  and  _31
REMARK   13  A    between atoms: _31  and  _32
REMARK   14  A    between atoms: _31  and  _33
REMARK   15  A    between atoms: _33  and  _34
REMARK   16  A    between atoms: _33  and  _35
REMARK   17  A    between atoms: _36  and  _38
REMARK                            x       y       z     vdW  Elec       q    Type
REMARK                         _______ _______ _______ _____ _____    ______ ____
ROOT
ATOM      1  C   UNL     1      -5.382   7.432  24.240  0.00  0.00    +0.163 C 
ENDROOT
BRANCH   1   2
ATOM      2  O   UNL     1      -4.188   6.915  24.850  0.00  0.00    -0.388 OA
ATOM      3  H   UNL     1      -4.277   6.945  25.805  0.00  0.00    +0.210 HD
ENDBRANCH   1   2
BRANCH   1   4
ATOM      4  C   UNL     1      -5.898   6.454  23.191  0.00  0.00    +0.141 C 
BRANCH   4   7
ATOM      5  C   UNL     1      -6.009   6.980  20.779  0.00  0.00    +0.401 C 
ATOM      6  O   UNL     1      -5.072   6.236  20.478  0.00  0.00    -0.226 OA
ATOM      7  N   UNL     1      -6.457   7.147  22.024  0.00  0.00    -0.279 N 
ATOM      8  H   UNL     1      -7.225   7.787  22.172  0.00  0.00    +0.152 HD
BRANCH   5   9
ATOM      9  O   UNL     1      -6.666   7.721  19.748  0.00  0.00    -0.444 OA
BRANCH   9  10
ATOM     10  C   UNL     1      -7.163   8.949  20.286  0.00  0.00    +0.292 C 
BRANCH  10  12
ATOM     11  N   UNL     1      -7.791  11.159  19.366  0.00  0.00    -0.131 NA
ATOM     12  C   UNL     1      -7.016  10.038  19.302  0.00  0.00    +0.121 A 
ATOM     13  C   UNL     1      -6.151  10.149  18.239  0.00  0.00    +0.143 A 
ATOM     14  N   UNL     1      -6.414  11.385  17.692  0.00  0.00    -0.220 N 
ATOM     15  N   UNL     1      -7.427  11.969  18.380  0.00  0.00    -0.060 NA
BRANCH  14  16
ATOM     16  C   UNL     1      -5.753  12.036  16.618  0.00  0.00    +0.067 A 
ATOM     17  C   UNL     1      -4.366  12.220  16.636  0.00  0.00    +0.028 A 
ATOM     18  C   UNL     1      -3.737  12.924  15.604  0.00  0.00    +0.005 A 
ATOM     19  C   UNL     1      -4.483  13.452  14.546  0.00  0.00    -0.050 A 
ATOM     20  C   UNL     1      -5.865  13.236  14.511  0.00  0.00    +0.005 A 
ATOM     21  C   UNL     1      -3.818  14.248  13.461  0.00  0.00    +0.044 C 
ATOM     22  C   UNL     1      -6.500  12.532  15.539  0.00  0.00    +0.028 A 
ENDBRANCH  14  16
ENDBRANCH  10  12
ENDBRANCH   9  10
ENDBRANCH   5   9
ENDBRANCH   4   7
ENDBRANCH   1   4
BRANCH   1  23
ATOM     23  C   UNL     1      -5.118   8.798  23.584  0.00  0.00    +0.175 C 
BRANCH  23  24
ATOM     24  C   UNL     1      -3.986   9.566  24.282  0.00  0.00    +0.176 C 
ATOM     25  O   UNL     1      -4.279   9.598  25.706  0.00  0.00    -0.332 OA
ATOM     26  C   UNL     1      -3.247  10.204  26.552  0.00  0.00    +0.277 C 
ATOM     27  C   UNL     1      -2.908  11.631  26.056  0.00  0.00    +0.110 C 
ATOM     28  C   UNL     1      -2.620  11.652  24.540  0.00  0.00    +0.143 C 
ATOM     29  C   UNL     1      -3.756  10.995  23.755  0.00  0.00    +0.133 C 
BRANCH  29  30
ATOM     30  N   UNL     1      -3.430  10.944  22.322  0.00  0.00    -0.308 N 
ATOM     31  H   UNL     1      -2.648  10.371  22.036  0.00  0.00    +0.149 HD
ATOM     32  C   UNL     1      -4.099  11.605  21.373  0.00  0.00    +0.210 C 
ATOM     33  C   UNL     1      -5.268  12.490  21.844  0.00  0.00    +0.109 C 
ATOM     34  O   UNL     1      -3.812  11.532  20.178  0.00  0.00    -0.276 OA
ENDBRANCH  29  30
BRANCH  26  35
ATOM     35  C   UNL     1      -1.967   9.342  26.556  0.00  0.00    +0.414 C 
ATOM     36  O   UNL     1      -2.046   8.115  26.508  0.00  0.00    -0.240 OA
ATOM     37  O   UNL     1      -0.857   9.873  26.606  0.00  0.00    -0.240 OA
ENDBRANCH  26  35
BRANCH  28  38
ATOM     38  O   UNL     1      -2.462  13.001  24.098  0.00  0.00    -0.390 OA
ATOM     39  H   UNL     1      -1.985  13.013  23.266  0.00  0.00    +0.210 HD
ENDBRANCH  28  38
BRANCH  26  40
ATOM     40  O   UNL     1      -3.773  10.302  27.901  0.00  0.00    -0.343 OA
ATOM     41  C   UNL     1      -3.882  11.652  28.419  0.00  0.00    +0.198 C 
ENDBRANCH  26  40
ENDBRANCH  23  24
BRANCH  23  42
ATOM     42  O   UNL     1      -6.324   9.588  23.578  0.00  0.00    -0.387 OA
ATOM     43  H   UNL     1      -6.096  10.520  23.540  0.00  0.00    +0.210 HD
ENDBRANCH  23  42
ENDBRANCH   1  23
TORSDOF 14
