REMARK VINA RESULT:    -4.548      2.416      4.110
REMARK INTER + INTRA:         -11.504
REMARK INTER:                  -8.967
REMARK INTRA:                  -2.537
REMARK UNBOUND:                -2.835
REMARK  Name = lig_assembled_13.pdb
REMARK  20 active torsions:
REMARK  status: ('A' for Active; 'I' for Inactive)
REMARK    1  A    between atoms: _2  and  _9
REMARK    2  A    between atoms: _4  and  _18
REMARK    3  A    between atoms: _5  and  _11
REMARK    4  A    between atoms: _6  and  _7
REMARK    5  A    between atoms: _6  and  _18
REMARK    6  A    between atoms: _9  and  _10
REMARK    7  A    between atoms: _10  and  _12
REMARK    8  A    between atoms: _11  and  _12
REMARK    9  A    between atoms: _14  and  _34
REMARK   10  A    between atoms: _16  and  _22
REMARK   11  A    between atoms: _17  and  _21
REMARK   12  A    between atoms: _21  and  _22
REMARK   13  A    between atoms: _24  and  _25
REMARK   14  A    between atoms: _26  and  _27
REMARK   15  A    between atoms: _28  and  _30
REMARK   16  A    between atoms: _30  and  _31
REMARK   17  A    between atoms: _30  and  _32
REMARK   18  A    between atoms: _32  and  _33
REMARK   19  A    between atoms: _32  and  _34
REMARK   20  A    between atoms: _35  and  _37
REMARK                            x       y       z     vdW  Elec       q    Type
REMARK                         _______ _______ _______ _____ _____    ______ ____
ROOT
ATOM      1  C   UNL     1      -4.246   9.028  23.882  0.00  0.00    +0.163 C 
ENDROOT
BRANCH   1   2
ATOM      2  O   UNL     1      -3.729   8.378  22.710  0.00  0.00    -0.388 OA
ATOM      3  H   UNL     1      -4.265   8.615  21.949  0.00  0.00    +0.210 HD
ENDBRANCH   1   2
BRANCH   1   4
ATOM      4  C   UNL     1      -5.641   9.620  23.613  0.00  0.00    +0.175 C 
BRANCH   4   5
ATOM      5  C   UNL     1      -5.566  10.957  22.862  0.00  0.00    +0.176 C 
ATOM      6  O   UNL     1      -5.237  10.673  21.474  0.00  0.00    -0.332 OA
ATOM      7  C   UNL     1      -5.226  11.831  20.575  0.00  0.00    +0.277 C 
ATOM      8  C   UNL     1      -4.284  12.931  21.121  0.00  0.00    +0.110 C 
ATOM      9  C   UNL     1      -4.574  13.245  22.604  0.00  0.00    +0.143 C 
ATOM     10  C   UNL     1      -4.564  11.970  23.447  0.00  0.00    +0.133 C 
BRANCH  10  11
ATOM     11  N   UNL     1      -4.928  12.271  24.841  0.00  0.00    -0.308 N 
ATOM     12  H   UNL     1      -5.894  12.490  25.040  0.00  0.00    +0.149 HD
ATOM     13  C   UNL     1      -4.065  12.273  25.860  0.00  0.00    +0.210 C 
ATOM     14  C   UNL     1      -2.595  11.961  25.521  0.00  0.00    +0.109 C 
ATOM     15  O   UNL     1      -4.401  12.515  27.020  0.00  0.00    -0.276 OA
ENDBRANCH  10  11
BRANCH   7  16
ATOM     16  C   UNL     1      -6.648  12.407  20.407  0.00  0.00    +0.414 C 
ATOM     17  O   UNL     1      -7.625  11.659  20.418  0.00  0.00    -0.240 OA
ATOM     18  O   UNL     1      -6.818  13.618  20.261  0.00  0.00    -0.240 OA
ENDBRANCH   7  16
BRANCH   7  19
ATOM     19  O   UNL     1      -4.721  11.394  19.287  0.00  0.00    -0.343 OA
ATOM     20  C   UNL     1      -4.940   9.993  18.986  0.00  0.00    +0.198 C 
ENDBRANCH   7  19
BRANCH   9  21
ATOM     21  O   UNL     1      -3.590  14.150  23.107  0.00  0.00    -0.390 OA
ATOM     22  H   UNL     1      -4.024  14.913  23.494  0.00  0.00    +0.210 HD
ENDBRANCH   9  21
ENDBRANCH   4   5
BRANCH   4  23
ATOM     23  O   UNL     1      -6.358   9.785  24.852  0.00  0.00    -0.387 OA
ATOM     24  H   UNL     1      -6.475   8.930  25.271  0.00  0.00    +0.210 HD
ENDBRANCH   4  23
ENDBRANCH   1   4
BRANCH   1  25
ATOM     25  C   UNL     1      -4.329   8.035  25.036  0.00  0.00    +0.141 C 
BRANCH  25  28
ATOM     26  C   UNL     1      -2.643   8.557  26.765  0.00  0.00    +0.401 C 
ATOM     27  O   UNL     1      -1.727   7.972  26.183  0.00  0.00    -0.226 OA
ATOM     28  N   UNL     1      -3.892   8.632  26.304  0.00  0.00    -0.279 N 
ATOM     29  H   UNL     1      -4.577   9.126  26.859  0.00  0.00    +0.152 HD
BRANCH  26  30
ATOM     30  O   UNL     1      -2.374   9.200  28.014  0.00  0.00    -0.444 OA
BRANCH  30  31
ATOM     31  C   UNL     1      -3.596   9.370  28.737  0.00  0.00    +0.292 C 
BRANCH  31  33
ATOM     32  N   UNL     1      -2.727   9.618  31.041  0.00  0.00    -0.131 NA
ATOM     33  C   UNL     1      -3.365  10.161  29.959  0.00  0.00    +0.120 A 
ATOM     34  C   UNL     1      -3.709  11.460  30.243  0.00  0.00    +0.137 A 
ATOM     35  N   UNL     1      -3.314  11.629  31.539  0.00  0.00    -0.241 N 
ATOM     36  N   UNL     1      -2.682  10.537  31.999  0.00  0.00    -0.065 NA
BRANCH  35  37
ATOM     37  C   UNL     1      -3.409  12.816  32.358  0.00  0.00    +0.265 C 
BRANCH  37  38
ATOM     38  C   UNL     1      -2.378  13.841  31.987  0.00  0.00    +0.329 C 
ATOM     39  O   UNL     1      -1.207  13.857  32.339  0.00  0.00    -0.249 OA
BRANCH  38  40
ATOM     40  O   UNL     1      -2.979  14.835  31.265  0.00  0.00    -0.464 OA
BRANCH  40  41
ATOM     41  C   UNL     1      -4.103  15.454  31.909  0.00  0.00    +0.229 C 
ATOM     42  C   UNL     1      -3.569  16.432  32.940  0.00  0.00    +0.048 C 
ENDBRANCH  40  41
ENDBRANCH  38  40
ENDBRANCH  37  38
ENDBRANCH  35  37
ENDBRANCH  31  33
ENDBRANCH  30  31
ENDBRANCH  26  30
ENDBRANCH  25  28
ENDBRANCH   1  25
TORSDOF 17
