REMARK VINA RESULT:    -3.715      3.784     10.421
REMARK INTER + INTRA:         -12.456
REMARK INTER:                  -8.710
REMARK INTRA:                  -3.746
REMARK UNBOUND:                -3.746
REMARK  Name = lig_assembled_30.pdb
REMARK  27 active torsions:
REMARK  status: ('A' for Active; 'I' for Inactive)
REMARK    1  A    between atoms: _2  and  _9
REMARK    2  A    between atoms: _4  and  _25
REMARK    3  A    between atoms: _5  and  _18
REMARK    4  A    between atoms: _5  and  _19
REMARK    5  A    between atoms: _6  and  _7
REMARK    6  A    between atoms: _6  and  _25
REMARK    7  A    between atoms: _9  and  _10
REMARK    8  A    between atoms: _10  and  _11
REMARK    9  A    between atoms: _11  and  _12
REMARK   10  A    between atoms: _12  and  _13
REMARK   11  A    between atoms: _13  and  _14
REMARK   12  A    between atoms: _14  and  _15
REMARK   13  A    between atoms: _15  and  _16
REMARK   14  A    between atoms: _16  and  _17
REMARK   15  A    between atoms: _17  and  _18
REMARK   16  A    between atoms: _21  and  _41
REMARK   17  A    between atoms: _23  and  _29
REMARK   18  A    between atoms: _24  and  _28
REMARK   19  A    between atoms: _28  and  _29
REMARK   20  A    between atoms: _31  and  _32
REMARK   21  A    between atoms: _33  and  _34
REMARK   22  A    between atoms: _35  and  _37
REMARK   23  A    between atoms: _37  and  _38
REMARK   24  A    between atoms: _37  and  _39
REMARK   25  A    between atoms: _39  and  _40
REMARK   26  A    between atoms: _39  and  _41
REMARK   27  A    between atoms: _42  and  _44
REMARK                            x       y       z     vdW  Elec       q    Type
REMARK                         _______ _______ _______ _____ _____    ______ ____
ROOT
ATOM      1  C   UNL     1      -4.651  13.602  22.601  0.00  0.00    +0.401 C 
ATOM      2  O   UNL     1      -5.270  14.389  23.322  0.00  0.00    -0.226 OA
ATOM      3  N   UNL     1      -3.566  12.931  22.989  0.00  0.00    -0.279 N 
ATOM      4  H   UNL     1      -3.134  12.301  22.329  0.00  0.00    +0.152 HD
ENDROOT
BRANCH   1   5
ATOM      5  O   UNL     1      -5.111  13.377  21.266  0.00  0.00    -0.444 OA
BRANCH   5   6
ATOM      6  C   UNL     1      -4.431  12.247  20.712  0.00  0.00    +0.292 C 
BRANCH   6   8
ATOM      7  N   UNL     1      -6.352  12.238  19.151  0.00  0.00    -0.131 NA
ATOM      8  C   UNL     1      -5.273  11.592  19.695  0.00  0.00    +0.120 A 
ATOM      9  C   UNL     1      -5.171  10.336  19.138  0.00  0.00    +0.137 A 
ATOM     10  N   UNL     1      -6.217  10.281  18.268  0.00  0.00    -0.251 N 
ATOM     11  N   UNL     1      -6.926  11.421  18.276  0.00  0.00    -0.065 NA
BRANCH  10  12
ATOM     12  C   UNL     1      -6.623   9.170  17.434  0.00  0.00    +0.145 C 
BRANCH  12  13
ATOM     13  C   UNL     1      -5.422   8.525  16.751  0.00  0.00    +0.023 C 
BRANCH  13  14
ATOM     14  C   UNL     1      -4.959   9.323  15.534  0.00  0.00    +0.002 C 
BRANCH  14  15
ATOM     15  C   UNL     1      -3.434   9.429  15.522  0.00  0.00    +0.000 C 
BRANCH  15  16
ATOM     16  C   UNL     1      -2.968  10.878  15.411  0.00  0.00    +0.000 C 
BRANCH  16  17
ATOM     17  C   UNL     1      -4.005  11.830  16.009  0.00  0.00    +0.000 C 
BRANCH  17  18
ATOM     18  C   UNL     1      -3.993  13.173  15.285  0.00  0.00    +0.000 C 
BRANCH  18  19
ATOM     19  C   UNL     1      -4.903  13.160  14.056  0.00  0.00    +0.001 C 
BRANCH  19  20
ATOM     20  C   UNL     1      -4.086  13.381  12.784  0.00  0.00    +0.011 C 
BRANCH  20  21
ATOM     21  C   UNL     1      -2.676  13.878  13.092  0.00  0.00    +0.120 C 
BRANCH  21  22
ATOM     22  C   UNL     1      -1.633  13.073  12.352  0.00  0.00    +0.305 C 
ATOM     23  O   UNL     1      -1.605  11.854  12.269  0.00  0.00    -0.251 OA
BRANCH  22  24
ATOM     24  O   UNL     1      -0.696  13.855  11.769  0.00  0.00    -0.481 OA
ATOM     25  H   UNL     1      -0.659  14.760  12.133  0.00  0.00    +0.295 HD
ENDBRANCH  22  24
ENDBRANCH  21  22
ENDBRANCH  20  21
ENDBRANCH  19  20
ENDBRANCH  18  19
ENDBRANCH  17  18
ENDBRANCH  16  17
ENDBRANCH  15  16
ENDBRANCH  14  15
ENDBRANCH  13  14
ENDBRANCH  12  13
ENDBRANCH  10  12
ENDBRANCH   6   8
ENDBRANCH   5   6
ENDBRANCH   1   5
BRANCH   3  26
ATOM     26  C   UNL     1      -2.963  13.058  24.322  0.00  0.00    +0.141 C 
BRANCH  26  27
ATOM     27  C   UNL     1      -3.204  11.817  25.175  0.00  0.00    +0.163 C 
BRANCH  27  28
ATOM     28  O   UNL     1      -1.955  11.314  25.675  0.00  0.00    -0.388 OA
ATOM     29  H   UNL     1      -2.036  10.374  25.854  0.00  0.00    +0.210 HD
ENDBRANCH  27  28
BRANCH  27  30
ATOM     30  C   UNL     1      -4.160  12.164  26.329  0.00  0.00    +0.175 C 
BRANCH  30  31
ATOM     31  C   UNL     1      -4.809  10.913  26.939  0.00  0.00    +0.176 C 
ATOM     32  O   UNL     1      -3.821  10.265  27.787  0.00  0.00    -0.332 OA
ATOM     33  C   UNL     1      -4.298   9.101  28.541  0.00  0.00    +0.277 C 
ATOM     34  C   UNL     1      -4.932   8.060  27.586  0.00  0.00    +0.110 C 
ATOM     35  C   UNL     1      -5.967   8.709  26.642  0.00  0.00    +0.143 C 
ATOM     36  C   UNL     1      -5.365   9.910  25.911  0.00  0.00    +0.133 C 
BRANCH  36  37
ATOM     37  N   UNL     1      -6.385  10.571  25.082  0.00  0.00    -0.308 N 
ATOM     38  H   UNL     1      -7.117  11.084  25.554  0.00  0.00    +0.149 HD
ATOM     39  C   UNL     1      -6.406  10.539  23.747  0.00  0.00    +0.210 C 
ATOM     40  C   UNL     1      -5.292   9.728  23.059  0.00  0.00    +0.109 C 
ATOM     41  O   UNL     1      -7.265  11.115  23.077  0.00  0.00    -0.276 OA
ENDBRANCH  36  37
BRANCH  33  42
ATOM     42  C   UNL     1      -5.334   9.525  29.602  0.00  0.00    +0.414 C 
ATOM     43  O   UNL     1      -6.217   8.744  29.954  0.00  0.00    -0.240 OA
ATOM     44  O   UNL     1      -5.288  10.648  30.107  0.00  0.00    -0.240 OA
ENDBRANCH  33  42
BRANCH  35  45
ATOM     45  O   UNL     1      -6.412   7.749  25.683  0.00  0.00    -0.390 OA
ATOM     46  H   UNL     1      -5.694   7.541  25.081  0.00  0.00    +0.210 HD
ENDBRANCH  35  45
BRANCH  33  47
ATOM     47  O   UNL     1      -3.155   8.489  29.191  0.00  0.00    -0.343 OA
ATOM     48  C   UNL     1      -2.063   8.135  28.306  0.00  0.00    +0.198 C 
ENDBRANCH  33  47
ENDBRANCH  30  31
BRANCH  30  49
ATOM     49  O   UNL     1      -5.176  13.079  25.875  0.00  0.00    -0.387 OA
ATOM     50  H   UNL     1      -6.040  12.757  26.142  0.00  0.00    +0.210 HD
ENDBRANCH  30  49
ENDBRANCH  27  30
ENDBRANCH  26  27
ENDBRANCH   3  26
TORSDOF 25
