REMARK VINA RESULT:    -4.200      2.162      5.190
REMARK INTER + INTRA:         -10.364
REMARK INTER:                  -7.217
REMARK INTRA:                  -3.147
REMARK UNBOUND:                -2.848
REMARK  Name = lig_assembled_63.pdb
REMARK  17 active torsions:
REMARK  status: ('A' for Active; 'I' for Inactive)
REMARK    1  A    between atoms: _2  and  _11
REMARK    2  A    between atoms: _6  and  _20
REMARK    3  A    between atoms: _7  and  _15
REMARK    4  A    between atoms: _8  and  _9
REMARK    5  A    between atoms: _8  and  _20
REMARK    6  A    between atoms: _16  and  _36
REMARK    7  A    between atoms: _18  and  _24
REMARK    8  A    between atoms: _19  and  _23
REMARK    9  A    between atoms: _23  and  _24
REMARK   10  A    between atoms: _26  and  _27
REMARK   11  A    between atoms: _28  and  _29
REMARK   12  A    between atoms: _30  and  _32
REMARK   13  A    between atoms: _32  and  _33
REMARK   14  A    between atoms: _32  and  _34
REMARK   15  A    between atoms: _34  and  _35
REMARK   16  A    between atoms: _34  and  _36
REMARK   17  A    between atoms: _37  and  _39
REMARK                            x       y       z     vdW  Elec       q    Type
REMARK                         _______ _______ _______ _____ _____    ______ ____
ROOT
ATOM      1  C   UNL     1      -2.333   9.525  26.402  0.00  0.00    +0.163 C 
ENDROOT
BRANCH   1   2
ATOM      2  O   UNL     1      -2.604   8.248  25.801  0.00  0.00    -0.388 OA
ATOM      3  H   UNL     1      -2.233   7.551  26.348  0.00  0.00    +0.210 HD
ENDBRANCH   1   2
BRANCH   1   4
ATOM      4  C   UNL     1      -1.752   9.331  27.799  0.00  0.00    +0.141 C 
BRANCH   4   7
ATOM      5  C   UNL     1      -2.915   8.755  29.902  0.00  0.00    +0.401 C 
ATOM      6  O   UNL     1      -2.243   7.741  30.106  0.00  0.00    -0.226 OA
ATOM      7  N   UNL     1      -2.757   9.554  28.846  0.00  0.00    -0.279 N 
ATOM      8  H   UNL     1      -3.364  10.357  28.761  0.00  0.00    +0.152 HD
BRANCH   5   9
ATOM      9  O   UNL     1      -3.934   9.113  30.839  0.00  0.00    -0.444 OA
BRANCH   9  10
ATOM     10  C   UNL     1      -5.078   9.605  30.136  0.00  0.00    +0.292 C 
BRANCH  10  12
ATOM     11  N   UNL     1      -6.276  11.319  31.454  0.00  0.00    -0.131 NA
ATOM     12  C   UNL     1      -5.345  11.008  30.505  0.00  0.00    +0.121 A 
ATOM     13  C   UNL     1      -4.795  12.171  30.022  0.00  0.00    +0.145 A 
ATOM     14  N   UNL     1      -5.457  13.183  30.687  0.00  0.00    -0.200 N 
ATOM     15  N   UNL     1      -6.331  12.640  31.562  0.00  0.00    -0.059 NA
BRANCH  14  16
ATOM     16  C   UNL     1      -5.309  14.584  30.463  0.00  0.00    +0.173 A 
ATOM     17  C   UNL     1      -4.247  15.319  30.998  0.00  0.00    +0.096 A 
ATOM     18  C   UNL     1      -4.252  16.710  30.797  0.00  0.00    +0.024 A 
ATOM     19  C   UNL     1      -5.270  17.316  30.066  0.00  0.00    +0.021 A 
ATOM     20  C   UNL     1      -6.259  16.509  29.541  0.00  0.00    +0.113 A 
ATOM     21  N   UNL     1      -6.303  15.173  29.724  0.00  0.00    -0.235 NA
BRANCH  17  22
ATOM     22  C   UNL     1      -3.137  14.773  31.721  0.00  0.00    +0.103 C 
ATOM     23  N   UNL     1      -2.184  14.330  32.215  0.00  0.00    -0.191 NA
ENDBRANCH  17  22
ENDBRANCH  14  16
ENDBRANCH  10  12
ENDBRANCH   9  10
ENDBRANCH   5   9
ENDBRANCH   4   7
ENDBRANCH   1   4
BRANCH   1  24
ATOM     24  C   UNL     1      -3.612  10.375  26.491  0.00  0.00    +0.175 C 
BRANCH  24  25
ATOM     25  C   UNL     1      -4.421  10.339  25.186  0.00  0.00    +0.176 C 
ATOM     26  O   UNL     1      -3.484  10.429  24.077  0.00  0.00    -0.332 OA
ATOM     27  C   UNL     1      -4.072  10.304  22.740  0.00  0.00    +0.277 C 
ATOM     28  C   UNL     1      -5.209  11.337  22.549  0.00  0.00    +0.110 C 
ATOM     29  C   UNL     1      -6.213  11.301  23.720  0.00  0.00    +0.143 C 
ATOM     30  C   UNL     1      -5.495  11.437  25.063  0.00  0.00    +0.133 C 
BRANCH  30  31
ATOM     31  N   UNL     1      -6.452  11.314  26.174  0.00  0.00    -0.308 N 
ATOM     32  H   UNL     1      -6.863  10.407  26.345  0.00  0.00    +0.149 HD
ATOM     33  C   UNL     1      -6.812  12.323  26.972  0.00  0.00    +0.210 C 
ATOM     34  C   UNL     1      -6.188  13.698  26.669  0.00  0.00    +0.109 C 
ATOM     35  O   UNL     1      -7.605  12.187  27.904  0.00  0.00    -0.276 OA
ENDBRANCH  30  31
BRANCH  27  36
ATOM     36  C   UNL     1      -4.625   8.881  22.516  0.00  0.00    +0.414 C 
ATOM     37  O   UNL     1      -4.191   7.936  23.175  0.00  0.00    -0.240 OA
ATOM     38  O   UNL     1      -5.505   8.678  21.679  0.00  0.00    -0.240 OA
ENDBRANCH  27  36
BRANCH  27  39
ATOM     39  O   UNL     1      -3.033  10.582  21.765  0.00  0.00    -0.343 OA
ATOM     40  C   UNL     1      -3.054  11.923  21.214  0.00  0.00    +0.198 C 
ENDBRANCH  27  39
BRANCH  29  41
ATOM     41  O   UNL     1      -7.154  12.366  23.581  0.00  0.00    -0.390 OA
ATOM     42  H   UNL     1      -7.350  12.737  24.445  0.00  0.00    +0.210 HD
ENDBRANCH  29  41
ENDBRANCH  24  25
BRANCH  24  43
ATOM     43  O   UNL     1      -3.282  11.735  26.834  0.00  0.00    -0.387 OA
ATOM     44  H   UNL     1      -4.012  12.312  26.596  0.00  0.00    +0.210 HD
ENDBRANCH  24  43
ENDBRANCH   1  24
TORSDOF 15
