REMARK VINA RESULT:    -5.089      3.403     10.001
REMARK INTER + INTRA:         -12.254
REMARK INTER:                  -9.289
REMARK INTRA:                  -2.965
REMARK UNBOUND:                -2.554
REMARK  Name = lig_assembled_9.pdb
REMARK  20 active torsions:
REMARK  status: ('A' for Active; 'I' for Inactive)
REMARK    1  A    between atoms: _2  and  _9
REMARK    2  A    between atoms: _4  and  _23
REMARK    3  A    between atoms: _6  and  _7
REMARK    4  A    between atoms: _6  and  _23
REMARK    5  A    between atoms: _11  and  _12
REMARK    6  A    between atoms: _12  and  _17
REMARK    7  A    between atoms: _13  and  _14
REMARK    8  A    between atoms: _13  and  _17
REMARK    9  A    between atoms: _19  and  _39
REMARK   10  A    between atoms: _21  and  _27
REMARK   11  A    between atoms: _22  and  _26
REMARK   12  A    between atoms: _26  and  _27
REMARK   13  A    between atoms: _29  and  _30
REMARK   14  A    between atoms: _31  and  _32
REMARK   15  A    between atoms: _33  and  _35
REMARK   16  A    between atoms: _35  and  _36
REMARK   17  A    between atoms: _35  and  _37
REMARK   18  A    between atoms: _37  and  _38
REMARK   19  A    between atoms: _37  and  _39
REMARK   20  A    between atoms: _40  and  _42
REMARK                            x       y       z     vdW  Elec       q    Type
REMARK                         _______ _______ _______ _____ _____    ______ ____
ROOT
ATOM      1  C   UNL     1      -2.981  11.732  23.333  0.00  0.00    +0.163 C 
ENDROOT
BRANCH   1   2
ATOM      2  O   UNL     1      -2.118  11.963  24.459  0.00  0.00    -0.388 OA
ATOM      3  H   UNL     1      -1.411  11.314  24.460  0.00  0.00    +0.210 HD
ENDBRANCH   1   2
BRANCH   1   4
ATOM      4  C   UNL     1      -3.930  10.551  23.601  0.00  0.00    +0.175 C 
BRANCH   4   5
ATOM      5  C   UNL     1      -3.874  10.085  25.063  0.00  0.00    +0.176 C 
ATOM      6  O   UNL     1      -3.013   8.916  25.127  0.00  0.00    -0.332 OA
ATOM      7  C   UNL     1      -2.755   8.391  26.471  0.00  0.00    +0.277 C 
ATOM      8  C   UNL     1      -4.088   8.100  27.203  0.00  0.00    +0.110 C 
ATOM      9  C   UNL     1      -5.050   9.304  27.135  0.00  0.00    +0.143 C 
ATOM     10  C   UNL     1      -5.244   9.770  25.691  0.00  0.00    +0.133 C 
BRANCH  10  11
ATOM     11  N   UNL     1      -6.093  10.970  25.647  0.00  0.00    -0.308 N 
ATOM     12  H   UNL     1      -5.800  11.775  26.183  0.00  0.00    +0.149 HD
ATOM     13  C   UNL     1      -7.226  11.066  24.945  0.00  0.00    +0.210 C 
ATOM     14  C   UNL     1      -7.659   9.814  24.160  0.00  0.00    +0.109 C 
ATOM     15  O   UNL     1      -7.910  12.090  24.915  0.00  0.00    -0.276 OA
ENDBRANCH  10  11
BRANCH   7  16
ATOM     16  C   UNL     1      -1.920   9.391  27.298  0.00  0.00    +0.414 C 
ATOM     17  O   UNL     1      -1.998   9.397  28.526  0.00  0.00    -0.240 OA
ATOM     18  O   UNL     1      -1.170  10.191  26.738  0.00  0.00    -0.240 OA
ENDBRANCH   7  16
BRANCH   7  19
ATOM     19  O   UNL     1      -2.026   7.144  26.334  0.00  0.00    -0.343 OA
ATOM     20  C   UNL     1      -2.612   6.191  25.411  0.00  0.00    +0.198 C 
ENDBRANCH   7  19
BRANCH   9  21
ATOM     21  O   UNL     1      -6.316   8.941  27.687  0.00  0.00    -0.390 OA
ATOM     22  H   UNL     1      -6.674   8.193  27.203  0.00  0.00    +0.210 HD
ENDBRANCH   9  21
ENDBRANCH   4   5
BRANCH   4  23
ATOM     23  O   UNL     1      -3.620   9.455  22.718  0.00  0.00    -0.387 OA
ATOM     24  H   UNL     1      -2.728   9.146  22.891  0.00  0.00    +0.210 HD
ENDBRANCH   4  23
ENDBRANCH   1   4
BRANCH   1  25
ATOM     25  C   UNL     1      -3.797  12.985  23.035  0.00  0.00    +0.141 C 
BRANCH  25  28
ATOM     26  C   UNL     1      -5.920  13.324  21.816  0.00  0.00    +0.401 C 
ATOM     27  O   UNL     1      -6.424  14.022  22.698  0.00  0.00    -0.226 OA
ATOM     28  N   UNL     1      -4.699  12.792  21.893  0.00  0.00    -0.279 N 
ATOM     29  H   UNL     1      -4.376  12.224  21.121  0.00  0.00    +0.152 HD
BRANCH  26  30
ATOM     30  O   UNL     1      -6.672  13.050  20.631  0.00  0.00    -0.444 OA
BRANCH  30  31
ATOM     31  C   UNL     1      -7.185  11.716  20.688  0.00  0.00    +0.292 C 
BRANCH  31  33
ATOM     32  N   UNL     1      -5.555   9.855  20.581  0.00  0.00    -0.131 NA
ATOM     33  C   UNL     1      -6.304  10.798  19.940  0.00  0.00    +0.121 A 
ATOM     34  C   UNL     1      -6.085  10.703  18.586  0.00  0.00    +0.143 A 
ATOM     35  N   UNL     1      -5.212   9.648  18.442  0.00  0.00    -0.220 N 
ATOM     36  N   UNL     1      -4.888   9.166  19.665  0.00  0.00    -0.060 NA
BRANCH  35  37
ATOM     37  C   UNL     1      -4.709   9.071  17.247  0.00  0.00    +0.068 A 
ATOM     38  C   UNL     1      -3.985   9.847  16.331  0.00  0.00    +0.042 A 
ATOM     39  C   UNL     1      -3.517   9.280  15.136  0.00  0.00    +0.061 A 
ATOM     40  C   UNL     1      -3.771   7.932  14.863  0.00  0.00    +0.015 A 
ATOM     41  C   UNL     1      -4.480   7.152  15.779  0.00  0.00    +0.003 A 
ATOM     42  C   UNL     1      -4.947   7.716  16.968  0.00  0.00    +0.028 A 
BRANCH  39  43
ATOM     43  C   UNL     1      -2.696  10.053  14.168  0.00  0.00    +0.339 C 
ATOM     44  O   UNL     1      -1.948   9.540  13.353  0.00  0.00    -0.245 OA
BRANCH  43  45
ATOM     45  O   UNL     1      -2.837  11.381  14.404  0.00  0.00    -0.461 OA
BRANCH  45  46
ATOM     46  C   UNL     1      -3.023  12.200  13.243  0.00  0.00    +0.229 C 
ATOM     47  C   UNL     1      -4.512  12.287  12.964  0.00  0.00    +0.048 C 
ENDBRANCH  45  46
ENDBRANCH  43  45
ENDBRANCH  39  43
ENDBRANCH  35  37
ENDBRANCH  31  33
ENDBRANCH  30  31
ENDBRANCH  26  30
ENDBRANCH  25  28
ENDBRANCH   1  25
TORSDOF 17
