REMARK VINA RESULT:    -4.706      0.000      0.000
REMARK INTER + INTRA:         -12.581
REMARK INTER:                  -7.702
REMARK INTRA:                  -4.878
REMARK UNBOUND:                -2.785
REMARK  Name = lig_assembled_54.pdb
REMARK  24 active torsions:
REMARK  status: ('A' for Active; 'I' for Inactive)
REMARK    1  A    between atoms: _2  and  _9
REMARK    2  A    between atoms: _4  and  _21
REMARK    3  A    between atoms: _5  and  _14
REMARK    4  A    between atoms: _6  and  _7
REMARK    5  A    between atoms: _6  and  _21
REMARK    6  A    between atoms: _9  and  _10
REMARK    7  A    between atoms: _10  and  _11
REMARK    8  A    between atoms: _11  and  _15
REMARK    9  A    between atoms: _11  and  _16
REMARK   10  A    between atoms: _12  and  _13
REMARK   11  A    between atoms: _12  and  _16
REMARK   12  A    between atoms: _14  and  _15
REMARK   13  A    between atoms: _17  and  _37
REMARK   14  A    between atoms: _19  and  _25
REMARK   15  A    between atoms: _20  and  _24
REMARK   16  A    between atoms: _24  and  _25
REMARK   17  A    between atoms: _27  and  _28
REMARK   18  A    between atoms: _29  and  _30
REMARK   19  A    between atoms: _31  and  _33
REMARK   20  A    between atoms: _33  and  _34
REMARK   21  A    between atoms: _33  and  _35
REMARK   22  A    between atoms: _35  and  _36
REMARK   23  A    between atoms: _35  and  _37
REMARK   24  A    between atoms: _38  and  _40
REMARK                            x       y       z     vdW  Elec       q    Type
REMARK                         _______ _______ _______ _____ _____    ______ ____
ROOT
ATOM      1  C   UNL     1      -3.445  10.762  21.463  0.00  0.00    +0.163 C 
ENDROOT
BRANCH   1   2
ATOM      2  O   UNL     1      -2.737  11.754  22.224  0.00  0.00    -0.388 OA
ATOM      3  H   UNL     1      -2.530  11.403  23.094  0.00  0.00    +0.210 HD
ENDBRANCH   1   2
BRANCH   1   4
ATOM      4  C   UNL     1      -4.181   9.779  22.389  0.00  0.00    +0.175 C 
BRANCH   4   5
ATOM      5  C   UNL     1      -4.180  10.251  23.850  0.00  0.00    +0.176 C 
ATOM      6  O   UNL     1      -2.927   9.829  24.455  0.00  0.00    -0.332 OA
ATOM      7  C   UNL     1      -2.701  10.285  25.830  0.00  0.00    +0.277 C 
ATOM      8  C   UNL     1      -3.886   9.874  26.738  0.00  0.00    +0.110 C 
ATOM      9  C   UNL     1      -5.242  10.274  26.121  0.00  0.00    +0.143 C 
ATOM     10  C   UNL     1      -5.370   9.750  24.690  0.00  0.00    +0.133 C 
BRANCH  10  11
ATOM     11  N   UNL     1      -6.628  10.211  24.083  0.00  0.00    -0.308 N 
ATOM     12  H   UNL     1      -6.804  11.206  24.060  0.00  0.00    +0.149 HD
ATOM     13  C   UNL     1      -7.553   9.401  23.560  0.00  0.00    +0.210 C 
ATOM     14  C   UNL     1      -7.266   7.889  23.634  0.00  0.00    +0.109 C 
ATOM     15  O   UNL     1      -8.591   9.816  23.045  0.00  0.00    -0.276 OA
ENDBRANCH  10  11
BRANCH   7  16
ATOM     16  C   UNL     1      -2.524  11.817  25.875  0.00  0.00    +0.414 C 
ATOM     17  O   UNL     1      -2.183  12.432  24.866  0.00  0.00    -0.240 OA
ATOM     18  O   UNL     1      -2.723  12.438  26.920  0.00  0.00    -0.240 OA
ENDBRANCH   7  16
BRANCH   9  19
ATOM     19  O   UNL     1      -6.307   9.744  26.913  0.00  0.00    -0.390 OA
ATOM     20  H   UNL     1      -5.942   9.227  27.635  0.00  0.00    +0.210 HD
ENDBRANCH   9  19
BRANCH   7  21
ATOM     21  O   UNL     1      -1.499   9.640  26.326  0.00  0.00    -0.343 OA
ATOM     22  C   UNL     1      -1.685   8.829  27.513  0.00  0.00    +0.198 C 
ENDBRANCH   7  21
ENDBRANCH   4   5
BRANCH   4  23
ATOM     23  O   UNL     1      -3.592   8.467  22.290  0.00  0.00    -0.387 OA
ATOM     24  H   UNL     1      -4.235   7.806  22.557  0.00  0.00    +0.210 HD
ENDBRANCH   4  23
ENDBRANCH   1   4
BRANCH   1  25
ATOM     25  C   UNL     1      -4.449  11.436  20.533  0.00  0.00    +0.141 C 
BRANCH  25  28
ATOM     26  C   UNL     1      -5.944  12.897  21.851  0.00  0.00    +0.401 C 
ATOM     27  O   UNL     1      -5.127  13.817  21.933  0.00  0.00    -0.226 OA
ATOM     28  N   UNL     1      -5.709  11.745  21.220  0.00  0.00    -0.279 N 
ATOM     29  H   UNL     1      -6.438  11.047  21.215  0.00  0.00    +0.152 HD
BRANCH  26  30
ATOM     30  O   UNL     1      -7.226  13.050  22.464  0.00  0.00    -0.444 OA
BRANCH  30  31
ATOM     31  C   UNL     1      -7.177  14.118  23.414  0.00  0.00    +0.292 C 
BRANCH  31  33
ATOM     32  N   UNL     1      -8.243  12.518  24.975  0.00  0.00    -0.131 NA
ATOM     33  C   UNL     1      -7.425  13.598  24.773  0.00  0.00    +0.120 A 
ATOM     34  C   UNL     1      -6.928  14.022  25.987  0.00  0.00    +0.137 A 
ATOM     35  N   UNL     1      -7.450  13.137  26.881  0.00  0.00    -0.251 N 
ATOM     36  N   UNL     1      -8.245  12.239  26.272  0.00  0.00    -0.065 NA
BRANCH  35  37
ATOM     37  C   UNL     1      -7.196  13.043  28.305  0.00  0.00    +0.150 C 
BRANCH  37  38
ATOM     38  C   UNL     1      -5.811  13.556  28.666  0.00  0.00    +0.084 C 
BRANCH  38  39
ATOM     39  C   UNL     1      -4.976  12.549  29.466  0.00  0.00    +0.252 C 
BRANCH  39  40
ATOM     40  O   UNL     1      -5.663  11.298  29.554  0.00  0.00    -0.352 OA
BRANCH  40  41
ATOM     41  C   UNL     1      -5.339  10.536  30.715  0.00  0.00    +0.159 C 
ATOM     42  C   UNL     1      -4.261   9.533  30.356  0.00  0.00    +0.034 C 
ENDBRANCH  40  41
ENDBRANCH  39  40
BRANCH  39  43
ATOM     43  O   UNL     1      -4.783  13.091  30.778  0.00  0.00    -0.352 OA
BRANCH  43  44
ATOM     44  C   UNL     1      -3.449  13.559  30.986  0.00  0.00    +0.159 C 
ATOM     45  C   UNL     1      -3.445  15.074  30.968  0.00  0.00    +0.034 C 
ENDBRANCH  43  44
ENDBRANCH  39  43
ENDBRANCH  38  39
ENDBRANCH  37  38
ENDBRANCH  35  37
ENDBRANCH  31  33
ENDBRANCH  30  31
ENDBRANCH  26  30
ENDBRANCH  25  28
ENDBRANCH   1  25
TORSDOF 20
