REMARK VINA RESULT:    -4.184      2.519      8.788
REMARK INTER + INTRA:         -13.556
REMARK INTER:                  -8.742
REMARK INTRA:                  -4.813
REMARK UNBOUND:                -3.746
REMARK  Name = lig_assembled_30.pdb
REMARK  27 active torsions:
REMARK  status: ('A' for Active; 'I' for Inactive)
REMARK    1  A    between atoms: _2  and  _9
REMARK    2  A    between atoms: _4  and  _25
REMARK    3  A    between atoms: _5  and  _18
REMARK    4  A    between atoms: _5  and  _19
REMARK    5  A    between atoms: _6  and  _7
REMARK    6  A    between atoms: _6  and  _25
REMARK    7  A    between atoms: _9  and  _10
REMARK    8  A    between atoms: _10  and  _11
REMARK    9  A    between atoms: _11  and  _12
REMARK   10  A    between atoms: _12  and  _13
REMARK   11  A    between atoms: _13  and  _14
REMARK   12  A    between atoms: _14  and  _15
REMARK   13  A    between atoms: _15  and  _16
REMARK   14  A    between atoms: _16  and  _17
REMARK   15  A    between atoms: _17  and  _18
REMARK   16  A    between atoms: _21  and  _41
REMARK   17  A    between atoms: _23  and  _29
REMARK   18  A    between atoms: _24  and  _28
REMARK   19  A    between atoms: _28  and  _29
REMARK   20  A    between atoms: _31  and  _32
REMARK   21  A    between atoms: _33  and  _34
REMARK   22  A    between atoms: _35  and  _37
REMARK   23  A    between atoms: _37  and  _38
REMARK   24  A    between atoms: _37  and  _39
REMARK   25  A    between atoms: _39  and  _40
REMARK   26  A    between atoms: _39  and  _41
REMARK   27  A    between atoms: _42  and  _44
REMARK                            x       y       z     vdW  Elec       q    Type
REMARK                         _______ _______ _______ _____ _____    ______ ____
ROOT
ATOM      1  C   UNL     1      -2.261  10.114  26.495  0.00  0.00    +0.401 C 
ATOM      2  O   UNL     1      -1.865  10.932  25.663  0.00  0.00    -0.226 OA
ATOM      3  N   UNL     1      -2.952  10.438  27.589  0.00  0.00    -0.279 N 
ATOM      4  H   UNL     1      -3.242   9.694  28.208  0.00  0.00    +0.152 HD
ENDROOT
BRANCH   1   5
ATOM      5  O   UNL     1      -1.978   8.727  26.295  0.00  0.00    -0.444 OA
BRANCH   5   6
ATOM      6  C   UNL     1      -3.099   7.944  26.714  0.00  0.00    +0.292 C 
BRANCH   6   8
ATOM      7  N   UNL     1      -5.213   8.898  25.847  0.00  0.00    -0.131 NA
ATOM      8  C   UNL     1      -4.175   8.014  25.708  0.00  0.00    +0.120 A 
ATOM      9  C   UNL     1      -4.352   7.289  24.550  0.00  0.00    +0.137 A 
ATOM     10  N   UNL     1      -5.513   7.779  24.035  0.00  0.00    -0.251 N 
ATOM     11  N   UNL     1      -6.030   8.743  24.813  0.00  0.00    -0.065 NA
BRANCH  10  12
ATOM     12  C   UNL     1      -6.204   7.352  22.838  0.00  0.00    +0.145 C 
BRANCH  12  13
ATOM     13  C   UNL     1      -5.589   7.978  21.591  0.00  0.00    +0.023 C 
BRANCH  13  14
ATOM     14  C   UNL     1      -6.599   8.820  20.815  0.00  0.00    +0.002 C 
BRANCH  14  15
ATOM     15  C   UNL     1      -6.785   8.256  19.407  0.00  0.00    +0.000 C 
BRANCH  15  16
ATOM     16  C   UNL     1      -6.429   9.281  18.334  0.00  0.00    +0.000 C 
BRANCH  16  17
ATOM     17  C   UNL     1      -4.923   9.546  18.315  0.00  0.00    +0.000 C 
BRANCH  17  18
ATOM     18  C   UNL     1      -4.632  11.017  18.029  0.00  0.00    +0.000 C 
BRANCH  18  19
ATOM     19  C   UNL     1      -4.795  11.878  19.281  0.00  0.00    +0.001 C 
BRANCH  19  20
ATOM     20  C   UNL     1      -3.931  11.335  20.419  0.00  0.00    +0.011 C 
BRANCH  20  21
ATOM     21  C   UNL     1      -4.409  11.828  21.782  0.00  0.00    +0.120 C 
BRANCH  21  22
ATOM     22  C   UNL     1      -3.908  10.939  22.897  0.00  0.00    +0.305 C 
ATOM     23  O   UNL     1      -3.105  10.027  22.771  0.00  0.00    -0.251 OA
BRANCH  22  24
ATOM     24  O   UNL     1      -4.453  11.258  24.094  0.00  0.00    -0.481 OA
ATOM     25  H   UNL     1      -4.906  12.122  24.100  0.00  0.00    +0.295 HD
ENDBRANCH  22  24
ENDBRANCH  21  22
ENDBRANCH  20  21
ENDBRANCH  19  20
ENDBRANCH  18  19
ENDBRANCH  17  18
ENDBRANCH  16  17
ENDBRANCH  15  16
ENDBRANCH  14  15
ENDBRANCH  13  14
ENDBRANCH  12  13
ENDBRANCH  10  12
ENDBRANCH   6   8
ENDBRANCH   5   6
ENDBRANCH   1   5
BRANCH   3  26
ATOM     26  C   UNL     1      -3.316  11.815  27.944  0.00  0.00    +0.141 C 
BRANCH  26  27
ATOM     27  C   UNL     1      -4.776  11.926  28.372  0.00  0.00    +0.163 C 
BRANCH  27  28
ATOM     28  O   UNL     1      -5.463  10.694  28.096  0.00  0.00    -0.388 OA
ATOM     29  H   UNL     1      -5.799  10.324  28.916  0.00  0.00    +0.210 HD
ENDBRANCH  27  28
BRANCH  27  30
ATOM     30  C   UNL     1      -4.848  12.273  29.869  0.00  0.00    +0.175 C 
BRANCH  30  31
ATOM     31  C   UNL     1      -4.518  11.065  30.758  0.00  0.00    +0.176 C 
ATOM     32  O   UNL     1      -5.757  10.350  31.019  0.00  0.00    -0.332 OA
ATOM     33  C   UNL     1      -5.621   9.099  31.771  0.00  0.00    +0.277 C 
ATOM     34  C   UNL     1      -4.870   9.348  33.103  0.00  0.00    +0.110 C 
ATOM     35  C   UNL     1      -3.561  10.134  32.880  0.00  0.00    +0.143 C 
ATOM     36  C   UNL     1      -3.818  11.415  32.085  0.00  0.00    +0.133 C 
BRANCH  36  37
ATOM     37  N   UNL     1      -2.552  12.110  31.805  0.00  0.00    -0.308 N 
ATOM     38  H   UNL     1      -1.857  11.622  31.258  0.00  0.00    +0.149 HD
ATOM     39  C   UNL     1      -2.262  13.344  32.227  0.00  0.00    +0.210 C 
ATOM     40  C   UNL     1      -3.331  14.050  33.081  0.00  0.00    +0.109 C 
ATOM     41  O   UNL     1      -1.199  13.907  31.965  0.00  0.00    -0.276 OA
ENDBRANCH  36  37
BRANCH  33  42
ATOM     42  C   UNL     1      -4.863   8.042  30.942  0.00  0.00    +0.414 C 
ATOM     43  O   UNL     1      -4.459   7.009  31.475  0.00  0.00    -0.240 OA
ATOM     44  O   UNL     1      -4.655   8.222  29.742  0.00  0.00    -0.240 OA
ENDBRANCH  33  42
BRANCH  35  45
ATOM     45  O   UNL     1      -2.982  10.472  34.141  0.00  0.00    -0.390 OA
ATOM     46  H   UNL     1      -2.733  11.399  34.142  0.00  0.00    +0.210 HD
ENDBRANCH  35  45
BRANCH  33  47
ATOM     47  O   UNL     1      -6.953   8.614  32.080  0.00  0.00    -0.343 OA
ATOM     48  C   UNL     1      -7.696   9.427  33.024  0.00  0.00    +0.198 C 
ENDBRANCH  33  47
ENDBRANCH  30  31
BRANCH  30  49
ATOM     49  O   UNL     1      -6.153  12.790  30.196  0.00  0.00    -0.387 OA
ATOM     50  H   UNL     1      -6.061  13.536  30.794  0.00  0.00    +0.210 HD
ENDBRANCH  30  49
ENDBRANCH  27  30
ENDBRANCH  26  27
ENDBRANCH   3  26
TORSDOF 25
