REMARK VINA RESULT:    -4.788      7.508     12.409
REMARK INTER + INTRA:         -11.661
REMARK INTER:                  -9.261
REMARK INTRA:                  -2.399
REMARK UNBOUND:                -3.373
REMARK  Name = lig_assembled_27.pdb
REMARK  16 active torsions:
REMARK  status: ('A' for Active; 'I' for Inactive)
REMARK    1  A    between atoms: _2  and  _9
REMARK    2  A    between atoms: _4  and  _18
REMARK    3  A    between atoms: _6  and  _7
REMARK    4  A    between atoms: _6  and  _18
REMARK    5  A    between atoms: _14  and  _34
REMARK    6  A    between atoms: _16  and  _22
REMARK    7  A    between atoms: _17  and  _21
REMARK    8  A    between atoms: _21  and  _22
REMARK    9  A    between atoms: _24  and  _25
REMARK   10  A    between atoms: _26  and  _27
REMARK   11  A    between atoms: _28  and  _30
REMARK   12  A    between atoms: _30  and  _31
REMARK   13  A    between atoms: _30  and  _32
REMARK   14  A    between atoms: _32  and  _33
REMARK   15  A    between atoms: _32  and  _34
REMARK   16  A    between atoms: _35  and  _37
REMARK                            x       y       z     vdW  Elec       q    Type
REMARK                         _______ _______ _______ _____ _____    ______ ____
ROOT
ATOM      1  C   UNL     1      -3.023   9.515  14.133  0.00  0.00    +0.163 C 
ENDROOT
BRANCH   1   2
ATOM      2  O   UNL     1      -1.698   9.218  13.661  0.00  0.00    -0.388 OA
ATOM      3  H   UNL     1      -1.342   9.984  13.203  0.00  0.00    +0.210 HD
ENDBRANCH   1   2
BRANCH   1   4
ATOM      4  C   UNL     1      -3.649   8.268  14.747  0.00  0.00    +0.141 C 
BRANCH   4   7
ATOM      5  C   UNL     1      -4.870   8.824  16.822  0.00  0.00    +0.401 C 
ATOM      6  O   UNL     1      -5.888   9.199  16.235  0.00  0.00    -0.226 OA
ATOM      7  N   UNL     1      -3.774   8.380  16.206  0.00  0.00    -0.279 N 
ATOM      8  H   UNL     1      -2.986   8.104  16.774  0.00  0.00    +0.152 HD
BRANCH   5   9
ATOM      9  O   UNL     1      -4.839   8.865  18.251  0.00  0.00    -0.444 OA
BRANCH   9  10
ATOM     10  C   UNL     1      -5.799   9.814  18.724  0.00  0.00    +0.292 C 
BRANCH  10  12
ATOM     11  N   UNL     1      -5.122  11.959  19.756  0.00  0.00    -0.131 NA
ATOM     12  C   UNL     1      -5.238  10.601  19.837  0.00  0.00    +0.121 A 
ATOM     13  C   UNL     1      -4.767  10.183  21.060  0.00  0.00    +0.143 A 
ATOM     14  N   UNL     1      -4.377  11.334  21.706  0.00  0.00    -0.220 N 
ATOM     15  N   UNL     1      -4.598  12.397  20.893  0.00  0.00    -0.060 NA
BRANCH  14  16
ATOM     16  C   UNL     1      -3.826  11.482  23.004  0.00  0.00    +0.068 A 
ATOM     17  C   UNL     1      -3.460  12.757  23.464  0.00  0.00    +0.028 A 
ATOM     18  C   UNL     1      -2.914  12.915  24.740  0.00  0.00    +0.003 A 
ATOM     19  C   UNL     1      -2.728  11.806  25.563  0.00  0.00    +0.020 A 
ATOM     20  C   UNL     1      -3.092  10.541  25.109  0.00  0.00    +0.043 A 
ATOM     21 CL   UNL     1      -2.865   9.170  26.126  0.00  0.00    -0.083 Cl
ATOM     22  C   UNL     1      -3.641  10.369  23.836  0.00  0.00    +0.047 A 
ENDBRANCH  14  16
ENDBRANCH  10  12
ENDBRANCH   9  10
ENDBRANCH   5   9
ENDBRANCH   4   7
ENDBRANCH   1   4
BRANCH   1  23
ATOM     23  C   UNL     1      -3.913  10.027  12.988  0.00  0.00    +0.175 C 
BRANCH  23  24
ATOM     24  C   UNL     1      -3.546  11.457  12.566  0.00  0.00    +0.176 C 
ATOM     25  O   UNL     1      -2.253  11.410  11.903  0.00  0.00    -0.332 OA
ATOM     26  C   UNL     1      -1.785  12.678  11.334  0.00  0.00    +0.277 C 
ATOM     27  C   UNL     1      -1.780  13.787  12.414  0.00  0.00    +0.110 C 
ATOM     28  C   UNL     1      -3.125  13.854  13.168  0.00  0.00    +0.143 C 
ATOM     29  C   UNL     1      -3.516  12.481  13.716  0.00  0.00    +0.133 C 
BRANCH  29  30
ATOM     30  N   UNL     1      -4.840  12.540  14.356  0.00  0.00    -0.308 N 
ATOM     31  H   UNL     1      -5.649  12.636  13.758  0.00  0.00    +0.149 HD
ATOM     32  C   UNL     1      -5.041  12.476  15.675  0.00  0.00    +0.210 C 
ATOM     33  C   UNL     1      -3.786  12.357  16.559  0.00  0.00    +0.109 C 
ATOM     34  O   UNL     1      -6.163  12.513  16.182  0.00  0.00    -0.276 OA
ENDBRANCH  29  30
BRANCH  26  35
ATOM     35  C   UNL     1      -2.681  13.111  10.155  0.00  0.00    +0.414 C 
ATOM     36  O   UNL     1      -2.798  12.388   9.166  0.00  0.00    -0.240 OA
ATOM     37  O   UNL     1      -3.287  14.183  10.192  0.00  0.00    -0.240 OA
ENDBRANCH  26  35
BRANCH  28  38
ATOM     38  O   UNL     1      -3.024  14.781  14.250  0.00  0.00    -0.390 OA
ATOM     39  H   UNL     1      -2.619  14.350  15.005  0.00  0.00    +0.210 HD
ENDBRANCH  28  38
BRANCH  26  40
ATOM     40  O   UNL     1      -0.425  12.486  10.868  0.00  0.00    -0.343 OA
ATOM     41  C   UNL     1       0.398  13.680  10.872  0.00  0.00    +0.198 C 
ENDBRANCH  26  40
ENDBRANCH  23  24
BRANCH  23  42
ATOM     42  O   UNL     1      -5.301   9.963  13.372  0.00  0.00    -0.387 OA
ATOM     43  H   UNL     1      -5.370   9.630  14.270  0.00  0.00    +0.210 HD
ENDBRANCH  23  42
ENDBRANCH   1  23
TORSDOF 14
