REMARK VINA RESULT:    -3.532      1.959      4.095
REMARK INTER + INTRA:         -11.782
REMARK INTER:                  -7.441
REMARK INTRA:                  -4.342
REMARK UNBOUND:                -4.638
REMARK  Name = lig_assembled_11.pdb
REMARK  22 active torsions:
REMARK  status: ('A' for Active; 'I' for Inactive)
REMARK    1  A    between atoms: _2  and  _9
REMARK    2  A    between atoms: _4  and  _21
REMARK    3  A    between atoms: _5  and  _9
REMARK    4  A    between atoms: _5  and  _13
REMARK    5  A    between atoms: _6  and  _7
REMARK    6  A    between atoms: _6  and  _21
REMARK    7  A    between atoms: _9  and  _10
REMARK    8  A    between atoms: _10  and  _11
REMARK    9  A    between atoms: _11  and  _12
REMARK   10  A    between atoms: _12  and  _15
REMARK   11  A    between atoms: _17  and  _37
REMARK   12  A    between atoms: _19  and  _25
REMARK   13  A    between atoms: _20  and  _24
REMARK   14  A    between atoms: _24  and  _25
REMARK   15  A    between atoms: _27  and  _28
REMARK   16  A    between atoms: _29  and  _30
REMARK   17  A    between atoms: _31  and  _33
REMARK   18  A    between atoms: _33  and  _34
REMARK   19  A    between atoms: _33  and  _35
REMARK   20  A    between atoms: _35  and  _36
REMARK   21  A    between atoms: _35  and  _37
REMARK   22  A    between atoms: _38  and  _40
REMARK                            x       y       z     vdW  Elec       q    Type
REMARK                         _______ _______ _______ _____ _____    ______ ____
ROOT
ATOM      1  C   UNL     1      -7.693   9.978  23.393  0.00  0.00    +0.163 C 
ENDROOT
BRANCH   1   2
ATOM      2  O   UNL     1      -8.300   9.276  22.296  0.00  0.00    -0.388 OA
ATOM      3  H   UNL     1      -8.565   9.905  21.620  0.00  0.00    +0.210 HD
ENDBRANCH   1   2
BRANCH   1   4
ATOM      4  C   UNL     1      -6.498  10.819  22.914  0.00  0.00    +0.175 C 
BRANCH   4   5
ATOM      5  C   UNL     1      -5.213  10.490  23.688  0.00  0.00    +0.176 C 
ATOM      6  O   UNL     1      -5.587  10.149  25.051  0.00  0.00    -0.332 OA
ATOM      7  C   UNL     1      -4.491   9.702  25.916  0.00  0.00    +0.277 C 
ATOM      8  C   UNL     1      -3.351  10.750  25.933  0.00  0.00    +0.110 C 
ATOM      9  C   UNL     1      -2.941  11.168  24.505  0.00  0.00    +0.143 C 
ATOM     10  C   UNL     1      -4.158  11.612  23.692  0.00  0.00    +0.133 C 
BRANCH  10  11
ATOM     11  N   UNL     1      -3.767  11.925  22.309  0.00  0.00    -0.308 N 
ATOM     12  H   UNL     1      -3.564  11.152  21.690  0.00  0.00    +0.149 HD
ATOM     13  C   UNL     1      -3.663  13.162  21.817  0.00  0.00    +0.210 C 
ATOM     14  C   UNL     1      -3.953  14.319  22.792  0.00  0.00    +0.109 C 
ATOM     15  O   UNL     1      -3.348  13.394  20.649  0.00  0.00    -0.276 OA
ENDBRANCH  10  11
BRANCH   7  16
ATOM     16  C   UNL     1      -3.935   8.344  25.437  0.00  0.00    +0.414 C 
ATOM     17  O   UNL     1      -4.608   7.624  24.700  0.00  0.00    -0.240 OA
ATOM     18  O   UNL     1      -2.816   7.970  25.787  0.00  0.00    -0.240 OA
ENDBRANCH   7  16
BRANCH   7  19
ATOM     19  O   UNL     1      -5.009   9.568  27.265  0.00  0.00    -0.343 OA
ATOM     20  C   UNL     1      -6.243   8.814  27.375  0.00  0.00    +0.198 C 
ENDBRANCH   7  19
BRANCH   9  21
ATOM     21  O   UNL     1      -2.000  12.240  24.568  0.00  0.00    -0.390 OA
ATOM     22  H   UNL     1      -2.346  12.937  25.130  0.00  0.00    +0.210 HD
ENDBRANCH   9  21
ENDBRANCH   4   5
BRANCH   4  23
ATOM     23  O   UNL     1      -6.801  12.224  23.029  0.00  0.00    -0.387 OA
ATOM     24  H   UNL     1      -6.005  12.705  23.267  0.00  0.00    +0.210 HD
ENDBRANCH   4  23
ENDBRANCH   1   4
BRANCH   1  25
ATOM     25  C   UNL     1      -8.720  10.887  24.063  0.00  0.00    +0.141 C 
BRANCH  25  28
ATOM     26  C   UNL     1      -8.110  11.937  26.215  0.00  0.00    +0.401 C 
ATOM     27  O   UNL     1      -7.746  12.998  25.702  0.00  0.00    -0.226 OA
ATOM     28  N   UNL     1      -8.573  10.895  25.524  0.00  0.00    -0.279 N 
ATOM     29  H   UNL     1      -8.838  10.064  26.034  0.00  0.00    +0.152 HD
BRANCH  26  30
ATOM     30  O   UNL     1      -8.036  11.792  27.635  0.00  0.00    -0.444 OA
BRANCH  30  31
ATOM     31  C   UNL     1      -7.376  12.929  28.198  0.00  0.00    +0.292 C 
BRANCH  31  33
ATOM     32  N   UNL     1      -4.905  12.838  28.320  0.00  0.00    -0.131 NA
ATOM     33  C   UNL     1      -6.123  12.523  28.859  0.00  0.00    +0.120 A 
ATOM     34  C   UNL     1      -5.926  11.827  30.031  0.00  0.00    +0.138 A 
ATOM     35  N   UNL     1      -4.570  11.711  30.131  0.00  0.00    -0.238 N 
ATOM     36  N   UNL     1      -3.962  12.348  29.113  0.00  0.00    -0.065 NA
BRANCH  35  37
ATOM     37  C   UNL     1      -3.745  11.153  31.198  0.00  0.00    +0.217 C 
BRANCH  37  38
ATOM     38  C   UNL     1      -3.031  12.204  32.035  0.00  0.00    +0.330 C 
ATOM     39  O   UNL     1      -3.514  13.255  32.428  0.00  0.00    -0.249 OA
BRANCH  38  40
ATOM     40  O   UNL     1      -1.745  11.891  32.334  0.00  0.00    -0.479 OA
ATOM     41  H   UNL     1      -1.202  12.587  32.750  0.00  0.00    +0.295 HD
ENDBRANCH  38  40
ENDBRANCH  37  38
BRANCH  37  42
ATOM     42  C   UNL     1      -2.791  10.064  30.675  0.00  0.00    +0.049 C 
BRANCH  42  43
ATOM     43  C   UNL     1      -3.392   8.653  30.616  0.00  0.00    +0.123 C 
BRANCH  43  44
ATOM     44  C   UNL     1      -2.970   7.937  29.353  0.00  0.00    +0.305 C 
ATOM     45  O   UNL     1      -3.253   6.783  29.080  0.00  0.00    -0.251 OA
BRANCH  44  46
ATOM     46  O   UNL     1      -2.210   8.711  28.546  0.00  0.00    -0.481 OA
ATOM     47  H   UNL     1      -2.622   8.929  27.688  0.00  0.00    +0.295 HD
ENDBRANCH  44  46
ENDBRANCH  43  44
ENDBRANCH  42  43
ENDBRANCH  37  42
ENDBRANCH  35  37
ENDBRANCH  31  33
ENDBRANCH  30  31
ENDBRANCH  26  30
ENDBRANCH  25  28
ENDBRANCH   1  25
TORSDOF 20
