REMARK VINA RESULT:    -5.024      3.950     10.274
REMARK INTER + INTRA:         -11.435
REMARK INTER:                  -7.687
REMARK INTRA:                  -3.748
REMARK UNBOUND:                -2.447
REMARK  Name = lig_assembled_85.pdb
REMARK  19 active torsions:
REMARK  status: ('A' for Active; 'I' for Inactive)
REMARK    1  A    between atoms: _2  and  _10
REMARK    2  A    between atoms: _3  and  _6
REMARK    3  A    between atoms: _3  and  _17
REMARK    4  A    between atoms: _5  and  _23
REMARK    5  A    between atoms: _7  and  _8
REMARK    6  A    between atoms: _7  and  _23
REMARK    7  A    between atoms: _15  and  _16
REMARK    8  A    between atoms: _19  and  _39
REMARK    9  A    between atoms: _21  and  _27
REMARK   10  A    between atoms: _22  and  _26
REMARK   11  A    between atoms: _26  and  _27
REMARK   12  A    between atoms: _29  and  _30
REMARK   13  A    between atoms: _31  and  _32
REMARK   14  A    between atoms: _33  and  _35
REMARK   15  A    between atoms: _35  and  _36
REMARK   16  A    between atoms: _35  and  _37
REMARK   17  A    between atoms: _37  and  _38
REMARK   18  A    between atoms: _37  and  _39
REMARK   19  A    between atoms: _40  and  _42
REMARK                            x       y       z     vdW  Elec       q    Type
REMARK                         _______ _______ _______ _____ _____    ______ ____
ROOT
ATOM      1  C   UNL     1      -6.276   6.789  17.563  0.00  0.00    +0.141 C 
ENDROOT
BRANCH   1   4
ATOM      2  C   UNL     1      -7.729   7.942  19.195  0.00  0.00    +0.401 C 
ATOM      3  O   UNL     1      -8.570   8.271  18.356  0.00  0.00    -0.226 OA
ATOM      4  N   UNL     1      -6.623   7.253  18.912  0.00  0.00    -0.279 N 
ATOM      5  H   UNL     1      -5.988   7.039  19.668  0.00  0.00    +0.152 HD
BRANCH   2   6
ATOM      6  O   UNL     1      -7.929   8.314  20.561  0.00  0.00    -0.444 OA
BRANCH   6   7
ATOM      7  C   UNL     1      -7.170   7.447  21.409  0.00  0.00    +0.292 C 
BRANCH   7   9
ATOM      8  N   UNL     1      -4.774   8.040  21.472  0.00  0.00    -0.131 NA
ATOM      9  C   UNL     1      -6.030   8.176  21.991  0.00  0.00    +0.121 A 
ATOM     10  C   UNL     1      -6.000   9.086  23.023  0.00  0.00    +0.143 A 
ATOM     11  N   UNL     1      -4.689   9.488  23.094  0.00  0.00    -0.219 N 
ATOM     12  N   UNL     1      -3.971   8.863  22.131  0.00  0.00    -0.060 NA
BRANCH  11  13
ATOM     13  C   UNL     1      -4.091  10.466  23.919  0.00  0.00    +0.080 A 
ATOM     14  C   UNL     1      -3.978  11.823  23.579  0.00  0.00    +0.062 A 
ATOM     15  C   UNL     1      -3.139  12.633  24.380  0.00  0.00    +0.016 A 
ATOM     16  C   UNL     1      -2.458  12.122  25.490  0.00  0.00    +0.021 A 
ATOM     17  C   UNL     1      -2.642  10.796  25.851  0.00  0.00    +0.043 A 
ATOM     18 CL   UNL     1      -1.786  10.143  27.192  0.00  0.00    -0.083 Cl
ATOM     19  C   UNL     1      -3.471   9.977  25.092  0.00  0.00    +0.048 A 
BRANCH  14  20
ATOM     20  C   UNL     1      -4.571  12.544  22.413  0.00  0.00    +0.248 C 
ATOM     21  O   UNL     1      -3.789  12.770  21.486  0.00  0.00    -0.270 OA
ATOM     22  N   UNL     1      -5.892  13.003  22.370  0.00  0.00    -0.304 N 
ATOM     23  C   UNL     1      -6.969  12.715  23.307  0.00  0.00    +0.132 C 
ATOM     24  C   UNL     1      -6.297  13.698  21.152  0.00  0.00    +0.132 C 
ENDBRANCH  14  20
ENDBRANCH  11  13
ENDBRANCH   7   9
ENDBRANCH   6   7
ENDBRANCH   2   6
ENDBRANCH   1   4
BRANCH   1  25
ATOM     25  C   UNL     1      -5.302   7.736  16.869  0.00  0.00    +0.163 C 
BRANCH  25  26
ATOM     26  O   UNL     1      -4.076   7.048  16.571  0.00  0.00    -0.388 OA
ATOM     27  H   UNL     1      -3.925   6.362  17.227  0.00  0.00    +0.210 HD
ENDBRANCH  25  26
BRANCH  25  28
ATOM     28  C   UNL     1      -5.948   8.288  15.587  0.00  0.00    +0.175 C 
BRANCH  28  29
ATOM     29  C   UNL     1      -5.207   9.523  15.053  0.00  0.00    +0.176 C 
ATOM     30  O   UNL     1      -3.964   9.072  14.448  0.00  0.00    -0.332 OA
ATOM     31  C   UNL     1      -3.168  10.110  13.786  0.00  0.00    +0.277 C 
ATOM     32  C   UNL     1      -2.882  11.278  14.763  0.00  0.00    +0.110 C 
ATOM     33  C   UNL     1      -4.171  11.770  15.454  0.00  0.00    +0.143 C 
ATOM     34  C   UNL     1      -4.921  10.609  16.107  0.00  0.00    +0.133 C 
BRANCH  34  35
ATOM     35  N   UNL     1      -6.190  11.077  16.687  0.00  0.00    -0.308 N 
ATOM     36  H   UNL     1      -6.925  11.355  16.052  0.00  0.00    +0.149 HD
ATOM     37  C   UNL     1      -6.434  11.159  17.998  0.00  0.00    +0.210 C 
ATOM     38  C   UNL     1      -5.284  10.753  18.939  0.00  0.00    +0.109 C 
ATOM     39  O   UNL     1      -7.511  11.541  18.455  0.00  0.00    -0.276 OA
ENDBRANCH  34  35
BRANCH  31  40
ATOM     40  C   UNL     1      -3.899  10.648  12.539  0.00  0.00    +0.414 C 
ATOM     41  O   UNL     1      -4.664   9.921  11.907  0.00  0.00    -0.240 OA
ATOM     42  O   UNL     1      -3.725  11.809  12.166  0.00  0.00    -0.240 OA
ENDBRANCH  31  40
BRANCH  33  43
ATOM     43  O   UNL     1      -3.842  12.738  16.452  0.00  0.00    -0.390 OA
ATOM     44  H   UNL     1      -4.447  13.481  16.389  0.00  0.00    +0.210 HD
ENDBRANCH  33  43
BRANCH  31  45
ATOM     45  O   UNL     1      -1.901   9.522  13.394  0.00  0.00    -0.343 OA
ATOM     46  C   UNL     1      -1.901   8.075  13.298  0.00  0.00    +0.198 C 
ENDBRANCH  31  45
ENDBRANCH  28  29
BRANCH  28  47
ATOM     47  O   UNL     1      -7.334   8.605  15.826  0.00  0.00    -0.387 OA
ATOM     48  H   UNL     1      -7.413   9.529  16.076  0.00  0.00    +0.210 HD
ENDBRANCH  28  47
ENDBRANCH  25  28
ENDBRANCH   1  25
TORSDOF 15
