REMARK VINA RESULT:    -5.767      2.315      3.888
REMARK INTER + INTRA:         -12.456
REMARK INTER:                  -8.707
REMARK INTRA:                  -3.749
REMARK UNBOUND:                -2.475
REMARK  Name = lig_assembled_25.pdb
REMARK  16 active torsions:
REMARK  status: ('A' for Active; 'I' for Inactive)
REMARK    1  A    between atoms: _2  and  _9
REMARK    2  A    between atoms: _4  and  _25
REMARK    3  A    between atoms: _6  and  _7
REMARK    4  A    between atoms: _6  and  _25
REMARK    5  A    between atoms: _21  and  _41
REMARK    6  A    between atoms: _23  and  _29
REMARK    7  A    between atoms: _24  and  _28
REMARK    8  A    between atoms: _28  and  _29
REMARK    9  A    between atoms: _31  and  _32
REMARK   10  A    between atoms: _33  and  _34
REMARK   11  A    between atoms: _35  and  _37
REMARK   12  A    between atoms: _37  and  _38
REMARK   13  A    between atoms: _37  and  _39
REMARK   14  A    between atoms: _39  and  _40
REMARK   15  A    between atoms: _39  and  _41
REMARK   16  A    between atoms: _42  and  _44
REMARK                            x       y       z     vdW  Elec       q    Type
REMARK                         _______ _______ _______ _____ _____    ______ ____
ROOT
ATOM      1  C   UNL     1      -3.263  13.160  24.409  0.00  0.00    +0.141 C 
ENDROOT
BRANCH   1   4
ATOM      2  C   UNL     1      -4.604  14.198  22.611  0.00  0.00    +0.401 C 
ATOM      3  O   UNL     1      -3.884  15.195  22.521  0.00  0.00    -0.226 OA
ATOM      4  N   UNL     1      -4.391  13.200  23.470  0.00  0.00    -0.279 N 
ATOM      5  H   UNL     1      -5.044  12.429  23.476  0.00  0.00    +0.152 HD
BRANCH   2   6
ATOM      6  O   UNL     1      -5.744  14.084  21.755  0.00  0.00    -0.444 OA
BRANCH   6   7
ATOM      7  C   UNL     1      -6.263  12.754  21.825  0.00  0.00    +0.292 C 
BRANCH   7   9
ATOM      8  N   UNL     1      -4.553  11.493  20.566  0.00  0.00    -0.131 NA
ATOM      9  C   UNL     1      -5.832  11.970  20.651  0.00  0.00    +0.120 A 
ATOM     10  C   UNL     1      -6.524  11.610  19.516  0.00  0.00    +0.138 A 
ATOM     11  N   UNL     1      -5.607  10.929  18.767  0.00  0.00    -0.240 N 
ATOM     12  N   UNL     1      -4.423  10.854  19.412  0.00  0.00    -0.064 NA
BRANCH  11  13
ATOM     13  C   UNL     1      -5.715  10.392  17.420  0.00  0.00    +0.170 C 
ATOM     14  C   UNL     1      -5.240   8.948  17.330  0.00  0.00    -0.011 A 
ATOM     15  C   UNL     1      -4.230   8.833  16.348  0.00  0.00    -0.012 A 
ATOM     16  C   UNL     1      -3.979  10.141  15.776  0.00  0.00    -0.012 A 
ATOM     17  C   UNL     1      -3.114  10.525  14.765  0.00  0.00    +0.009 A 
ATOM     18  C   UNL     1      -3.096  11.869  14.381  0.00  0.00    +0.001 A 
ATOM     19  C   UNL     1      -3.930  12.809  15.009  0.00  0.00    +0.000 A 
ATOM     20  C   UNL     1      -4.803  12.424  16.030  0.00  0.00    +0.006 A 
ATOM     21  C   UNL     1      -3.658   7.603  16.071  0.00  0.00    +0.009 A 
ATOM     22  C   UNL     1      -4.105   6.485  16.783  0.00  0.00    +0.001 A 
ATOM     23  C   UNL     1      -5.112   6.604  17.754  0.00  0.00    +0.000 A 
ATOM     24  C   UNL     1      -5.693   7.842  18.035  0.00  0.00    +0.006 A 
ATOM     25  C   UNL     1      -4.818  11.090  16.406  0.00  0.00    -0.011 A 
ENDBRANCH  11  13
ENDBRANCH   7   9
ENDBRANCH   6   7
ENDBRANCH   2   6
ENDBRANCH   1   4
BRANCH   1  26
ATOM     26  C   UNL     1      -2.815  11.732  24.699  0.00  0.00    +0.163 C 
BRANCH  26  27
ATOM     27  O   UNL     1      -2.786  11.505  26.118  0.00  0.00    -0.388 OA
ATOM     28  H   UNL     1      -3.268  10.700  26.324  0.00  0.00    +0.210 HD
ENDBRANCH  26  27
BRANCH  26  29
ATOM     29  C   UNL     1      -3.767  10.743  24.004  0.00  0.00    +0.175 C 
BRANCH  29  30
ATOM     30  C   UNL     1      -4.128   9.555  24.908  0.00  0.00    +0.176 C 
ATOM     31  O   UNL     1      -2.889   8.915  25.320  0.00  0.00    -0.332 OA
ATOM     32  C   UNL     1      -3.033   7.816  26.279  0.00  0.00    +0.277 C 
ATOM     33  C   UNL     1      -4.018   6.750  25.738  0.00  0.00    +0.110 C 
ATOM     34  C   UNL     1      -5.338   7.388  25.258  0.00  0.00    +0.143 C 
ATOM     35  C   UNL     1      -5.072   8.521  24.266  0.00  0.00    +0.133 C 
BRANCH  35  36
ATOM     36  N   UNL     1      -6.332   9.177  23.883  0.00  0.00    -0.308 N 
ATOM     37  H   UNL     1      -6.831   9.692  24.595  0.00  0.00    +0.149 HD
ATOM     38  C   UNL     1      -6.859   9.137  22.656  0.00  0.00    +0.210 C 
ATOM     39  C   UNL     1      -6.087   8.323  21.601  0.00  0.00    +0.109 C 
ATOM     40  O   UNL     1      -7.909   9.708  22.360  0.00  0.00    -0.276 OA
ENDBRANCH  35  36
BRANCH  32  41
ATOM     41  C   UNL     1      -3.536   8.339  27.640  0.00  0.00    +0.414 C 
ATOM     42  O   UNL     1      -3.133   9.416  28.078  0.00  0.00    -0.240 OA
ATOM     43  O   UNL     1      -4.345   7.686  28.300  0.00  0.00    -0.240 OA
ENDBRANCH  32  41
BRANCH  34  44
ATOM     44  O   UNL     1      -6.152   6.396  24.631  0.00  0.00    -0.390 OA
ATOM     45  H   UNL     1      -7.074   6.556  24.843  0.00  0.00    +0.210 HD
ENDBRANCH  34  44
BRANCH  32  46
ATOM     46  O   UNL     1      -1.733   7.193  26.446  0.00  0.00    -0.343 OA
ATOM     47  C   UNL     1      -1.753   5.746  26.528  0.00  0.00    +0.198 C 
ENDBRANCH  32  46
ENDBRANCH  29  30
BRANCH  29  48
ATOM     48  O   UNL     1      -3.182  10.272  22.774  0.00  0.00    -0.387 OA
ATOM     49  H   UNL     1      -3.596   9.444  22.518  0.00  0.00    +0.210 HD
ENDBRANCH  29  48
ENDBRANCH  26  29
ENDBRANCH   1  26
TORSDOF 14
