REMARK VINA RESULT:    -4.752      4.257      8.462
REMARK INTER + INTRA:         -11.138
REMARK INTER:                  -8.334
REMARK INTRA:                  -2.804
REMARK UNBOUND:                -2.913
REMARK  Name = lig_assembled_93.pdb
REMARK  16 active torsions:
REMARK  status: ('A' for Active; 'I' for Inactive)
REMARK    1  A    between atoms: _2  and  _9
REMARK    2  A    between atoms: _4  and  _18
REMARK    3  A    between atoms: _6  and  _7
REMARK    4  A    between atoms: _6  and  _18
REMARK    5  A    between atoms: _14  and  _34
REMARK    6  A    between atoms: _16  and  _22
REMARK    7  A    between atoms: _17  and  _21
REMARK    8  A    between atoms: _21  and  _22
REMARK    9  A    between atoms: _24  and  _25
REMARK   10  A    between atoms: _26  and  _27
REMARK   11  A    between atoms: _28  and  _30
REMARK   12  A    between atoms: _30  and  _31
REMARK   13  A    between atoms: _30  and  _32
REMARK   14  A    between atoms: _32  and  _33
REMARK   15  A    between atoms: _32  and  _34
REMARK   16  A    between atoms: _35  and  _37
REMARK                            x       y       z     vdW  Elec       q    Type
REMARK                         _______ _______ _______ _____ _____    ______ ____
ROOT
ATOM      1  C   UNL     1      -4.908   7.214  23.730  0.00  0.00    +0.163 C 
ENDROOT
BRANCH   1   2
ATOM      2  O   UNL     1      -3.626   6.877  24.285  0.00  0.00    -0.388 OA
ATOM      3  H   UNL     1      -3.667   6.932  25.243  0.00  0.00    +0.210 HD
ENDBRANCH   1   2
BRANCH   1   4
ATOM      4  C   UNL     1      -5.154   6.408  22.459  0.00  0.00    +0.141 C 
BRANCH   4   7
ATOM      5  C   UNL     1      -6.087   7.032  20.258  0.00  0.00    +0.401 C 
ATOM      6  O   UNL     1      -5.183   6.493  19.616  0.00  0.00    -0.226 OA
ATOM      7  N   UNL     1      -6.150   7.046  21.590  0.00  0.00    -0.279 N 
ATOM      8  H   UNL     1      -6.927   7.522  22.026  0.00  0.00    +0.152 HD
BRANCH   5   9
ATOM      9  O   UNL     1      -7.142   7.692  19.552  0.00  0.00    -0.444 OA
BRANCH   9  10
ATOM     10  C   UNL     1      -7.451   8.928  20.202  0.00  0.00    +0.292 C 
BRANCH  10  12
ATOM     11  N   UNL     1      -7.743  11.280  19.514  0.00  0.00    -0.131 NA
ATOM     12  C   UNL     1      -7.177  10.063  19.301  0.00  0.00    +0.121 A 
ATOM     13  C   UNL     1      -6.379  10.134  18.183  0.00  0.00    +0.143 A 
ATOM     14  N   UNL     1      -6.471  11.444  17.743  0.00  0.00    -0.219 N 
ATOM     15  N   UNL     1      -7.315  12.101  18.568  0.00  0.00    -0.060 NA
BRANCH  14  16
ATOM     16  C   UNL     1      -5.804  12.051  16.632  0.00  0.00    +0.080 A 
ATOM     17  C   UNL     1      -4.405  12.243  16.733  0.00  0.00    +0.029 A 
ATOM     18  C   UNL     1      -3.669  12.845  15.709  0.00  0.00    +0.002 A 
ATOM     19  C   UNL     1      -4.306  13.269  14.555  0.00  0.00    +0.001 A 
ATOM     20  C   UNL     1      -5.681  13.087  14.425  0.00  0.00    +0.016 A 
ATOM     21  C   UNL     1      -6.441  12.481  15.448  0.00  0.00    +0.039 A 
ATOM     22  I   UNL     1      -8.493  12.342  14.952  0.00  0.00    -0.042 I 
ENDBRANCH  14  16
ENDBRANCH  10  12
ENDBRANCH   9  10
ENDBRANCH   5   9
ENDBRANCH   4   7
ENDBRANCH   1   4
BRANCH   1  23
ATOM     23  C   UNL     1      -4.991   8.716  23.410  0.00  0.00    +0.175 C 
BRANCH  23  24
ATOM     24  C   UNL     1      -3.934   9.529  24.172  0.00  0.00    +0.176 C 
ATOM     25  O   UNL     1      -4.277   9.495  25.584  0.00  0.00    -0.332 OA
ATOM     26  C   UNL     1      -3.313  10.135  26.486  0.00  0.00    +0.277 C 
ATOM     27  C   UNL     1      -3.049  11.596  26.046  0.00  0.00    +0.110 C 
ATOM     28  C   UNL     1      -2.712  11.686  24.543  0.00  0.00    +0.143 C 
ATOM     29  C   UNL     1      -3.777  10.986  23.698  0.00  0.00    +0.133 C 
BRANCH  29  30
ATOM     30  N   UNL     1      -3.401  11.003  22.276  0.00  0.00    -0.308 N 
ATOM     31  H   UNL     1      -2.566  10.504  22.003  0.00  0.00    +0.149 HD
ATOM     32  C   UNL     1      -4.090  11.635  21.322  0.00  0.00    +0.210 C 
ATOM     33  C   UNL     1      -5.343  12.408  21.775  0.00  0.00    +0.109 C 
ATOM     34  O   UNL     1      -3.759  11.620  20.136  0.00  0.00    -0.276 OA
ENDBRANCH  29  30
BRANCH  26  35
ATOM     35  C   UNL     1      -1.983   9.355  26.508  0.00  0.00    +0.414 C 
ATOM     36  O   UNL     1      -0.912   9.956  26.584  0.00  0.00    -0.240 OA
ATOM     37  O   UNL     1      -1.980   8.124  26.449  0.00  0.00    -0.240 OA
ENDBRANCH  26  35
BRANCH  28  38
ATOM     38  O   UNL     1      -2.626  13.056  24.150  0.00  0.00    -0.390 OA
ATOM     39  H   UNL     1      -1.925  13.160  23.501  0.00  0.00    +0.210 HD
ENDBRANCH  28  38
BRANCH  26  40
ATOM     40  O   UNL     1      -3.890  10.156  27.817  0.00  0.00    -0.343 OA
ATOM     41  C   UNL     1      -4.872  11.198  28.043  0.00  0.00    +0.198 C 
ENDBRANCH  26  40
ENDBRANCH  23  24
BRANCH  23  42
ATOM     42  O   UNL     1      -6.311   9.215  23.708  0.00  0.00    -0.387 OA
ATOM     43  H   UNL     1      -6.240  10.056  24.165  0.00  0.00    +0.210 HD
ENDBRANCH  23  42
ENDBRANCH   1  23
TORSDOF 14
