REMARK VINA RESULT:    -4.839      2.852      5.204
REMARK INTER + INTRA:         -11.441
REMARK INTER:                  -9.201
REMARK INTRA:                  -2.241
REMARK UNBOUND:                -3.067
REMARK  Name = lig_assembled_8.pdb
REMARK  16 active torsions:
REMARK  status: ('A' for Active; 'I' for Inactive)
REMARK    1  A    between atoms: _2  and  _9
REMARK    2  A    between atoms: _4  and  _18
REMARK    3  A    between atoms: _6  and  _7
REMARK    4  A    between atoms: _6  and  _18
REMARK    5  A    between atoms: _14  and  _34
REMARK    6  A    between atoms: _16  and  _22
REMARK    7  A    between atoms: _17  and  _21
REMARK    8  A    between atoms: _21  and  _22
REMARK    9  A    between atoms: _24  and  _25
REMARK   10  A    between atoms: _26  and  _27
REMARK   11  A    between atoms: _28  and  _30
REMARK   12  A    between atoms: _30  and  _31
REMARK   13  A    between atoms: _30  and  _32
REMARK   14  A    between atoms: _32  and  _33
REMARK   15  A    between atoms: _32  and  _34
REMARK   16  A    between atoms: _35  and  _37
REMARK                            x       y       z     vdW  Elec       q    Type
REMARK                         _______ _______ _______ _____ _____    ______ ____
ROOT
ATOM      1  C   UNL     1      -1.917   9.514  27.346  0.00  0.00    +0.163 C 
ENDROOT
BRANCH   1   2
ATOM      2  O   UNL     1      -1.816   8.411  26.431  0.00  0.00    -0.388 OA
ATOM      3  H   UNL     1      -2.534   8.455  25.794  0.00  0.00    +0.210 HD
ENDBRANCH   1   2
BRANCH   1   4
ATOM      4  C   UNL     1      -2.470   9.033  28.683  0.00  0.00    +0.141 C 
BRANCH   4   7
ATOM      5  C   UNL     1      -4.088  10.091  30.222  0.00  0.00    +0.401 C 
ATOM      6  O   UNL     1      -4.831   9.107  30.268  0.00  0.00    -0.226 OA
ATOM      7  N   UNL     1      -2.967  10.146  29.502  0.00  0.00    -0.279 N 
ATOM      8  H   UNL     1      -2.430  11.001  29.521  0.00  0.00    +0.152 HD
BRANCH   5   9
ATOM      9  O   UNL     1      -4.433  11.257  30.975  0.00  0.00    -0.444 OA
BRANCH   9  10
ATOM     10  C   UNL     1      -3.629  11.317  32.156  0.00  0.00    +0.292 C 
BRANCH  10  12
ATOM     11  N   UNL     1      -1.830  12.992  32.380  0.00  0.00    -0.131 NA
ATOM     12  C   UNL     1      -3.156  12.696  32.382  0.00  0.00    +0.121 A 
ATOM     13  C   UNL     1      -3.870  13.850  32.611  0.00  0.00    +0.143 A 
ATOM     14  N   UNL     1      -2.924  14.854  32.722  0.00  0.00    -0.219 N 
ATOM     15  N   UNL     1      -1.701  14.294  32.591  0.00  0.00    -0.060 NA
BRANCH  14  16
ATOM     16  C   UNL     1      -3.142  16.252  32.923  0.00  0.00    +0.081 A 
ATOM     17  C   UNL     1      -2.594  16.852  34.079  0.00  0.00    +0.029 A 
ATOM     18  C   UNL     1      -2.781  18.208  34.360  0.00  0.00    +0.002 A 
ATOM     19  C   UNL     1      -3.518  19.000  33.493  0.00  0.00    +0.001 A 
ATOM     20  C   UNL     1      -4.061  18.434  32.343  0.00  0.00    +0.017 A 
ATOM     21  C   UNL     1      -3.881  17.070  32.044  0.00  0.00    +0.043 A 
ATOM     22 BR   UNL     1      -4.712  16.532  30.416  0.00  0.00    -0.048 Br
ENDBRANCH  14  16
ENDBRANCH  10  12
ENDBRANCH   9  10
ENDBRANCH   5   9
ENDBRANCH   4   7
ENDBRANCH   1   4
BRANCH   1  23
ATOM     23  C   UNL     1      -2.829  10.616  26.779  0.00  0.00    +0.175 C 
BRANCH  23  24
ATOM     24  C   UNL     1      -3.831  10.067  25.753  0.00  0.00    +0.176 C 
ATOM     25  O   UNL     1      -3.165  10.017  24.461  0.00  0.00    -0.332 OA
ATOM     26  C   UNL     1      -3.940   9.415  23.372  0.00  0.00    +0.277 C 
ATOM     27  C   UNL     1      -5.310  10.122  23.227  0.00  0.00    +0.110 C 
ATOM     28  C   UNL     1      -6.041  10.228  24.582  0.00  0.00    +0.143 C 
ATOM     29  C   UNL     1      -5.143  10.865  25.642  0.00  0.00    +0.133 C 
BRANCH  29  30
ATOM     30  N   UNL     1      -5.820  10.881  26.949  0.00  0.00    -0.308 N 
ATOM     31  H   UNL     1      -6.024   9.993  27.385  0.00  0.00    +0.149 HD
ATOM     32  C   UNL     1      -6.183  11.992  27.595  0.00  0.00    +0.210 C 
ATOM     33  C   UNL     1      -5.881  13.329  26.891  0.00  0.00    +0.109 C 
ATOM     34  O   UNL     1      -6.735  11.976  28.696  0.00  0.00    -0.276 OA
ENDBRANCH  29  30
BRANCH  26  35
ATOM     35  C   UNL     1      -4.161   7.909  23.624  0.00  0.00    +0.414 C 
ATOM     36  O   UNL     1      -3.350   7.266  24.290  0.00  0.00    -0.240 OA
ATOM     37  O   UNL     1      -5.150   7.338  23.164  0.00  0.00    -0.240 OA
ENDBRANCH  26  35
BRANCH  28  38
ATOM     38  O   UNL     1      -7.223  11.016  24.431  0.00  0.00    -0.390 OA
ATOM     39  H   UNL     1      -7.139  11.574  23.654  0.00  0.00    +0.210 HD
ENDBRANCH  28  38
BRANCH  26  40
ATOM     40  O   UNL     1      -3.198   9.599  22.138  0.00  0.00    -0.343 OA
ATOM     41  C   UNL     1      -3.296  10.924  21.557  0.00  0.00    +0.198 C 
ENDBRANCH  26  40
ENDBRANCH  23  24
BRANCH  23  42
ATOM     42  O   UNL     1      -2.034  11.662  26.187  0.00  0.00    -0.387 OA
ATOM     43  H   UNL     1      -2.392  11.888  25.325  0.00  0.00    +0.210 HD
ENDBRANCH  23  42
ENDBRANCH   1  23
TORSDOF 14
