REMARK VINA RESULT:    -5.027      4.136      6.746
REMARK INTER + INTRA:         -11.774
REMARK INTER:                  -8.038
REMARK INTRA:                  -3.736
REMARK UNBOUND:                -2.779
REMARK  Name = lig_assembled_39.pdb
REMARK  17 active torsions:
REMARK  status: ('A' for Active; 'I' for Inactive)
REMARK    1  A    between atoms: _2  and  _9
REMARK    2  A    between atoms: _4  and  _19
REMARK    3  A    between atoms: _6  and  _7
REMARK    4  A    between atoms: _6  and  _19
REMARK    5  A    between atoms: _9  and  _10
REMARK    6  A    between atoms: _15  and  _35
REMARK    7  A    between atoms: _17  and  _23
REMARK    8  A    between atoms: _18  and  _22
REMARK    9  A    between atoms: _22  and  _23
REMARK   10  A    between atoms: _25  and  _26
REMARK   11  A    between atoms: _27  and  _28
REMARK   12  A    between atoms: _29  and  _31
REMARK   13  A    between atoms: _31  and  _32
REMARK   14  A    between atoms: _31  and  _33
REMARK   15  A    between atoms: _33  and  _34
REMARK   16  A    between atoms: _33  and  _35
REMARK   17  A    between atoms: _36  and  _38
REMARK                            x       y       z     vdW  Elec       q    Type
REMARK                         _______ _______ _______ _____ _____    ______ ____
ROOT
ATOM      1  C   UNL     1      -5.814   7.725  23.261  0.00  0.00    +0.163 C 
ENDROOT
BRANCH   1   2
ATOM      2  O   UNL     1      -5.034   6.519  23.275  0.00  0.00    -0.388 OA
ATOM      3  H   UNL     1      -4.653   6.373  22.405  0.00  0.00    +0.210 HD
ENDBRANCH   1   2
BRANCH   1   4
ATOM      4  C   UNL     1      -6.522   7.873  21.918  0.00  0.00    +0.141 C 
BRANCH   4   7
ATOM      5  C   UNL     1      -6.029   9.018  19.784  0.00  0.00    +0.401 C 
ATOM      6  O   UNL     1      -7.212   9.261  19.533  0.00  0.00    -0.226 OA
ATOM      7  N   UNL     1      -5.617   8.368  20.873  0.00  0.00    -0.279 N 
ATOM      8  H   UNL     1      -4.626   8.208  20.986  0.00  0.00    +0.152 HD
BRANCH   5   9
ATOM      9  O   UNL     1      -5.022   9.444  18.863  0.00  0.00    -0.444 OA
BRANCH   9  10
ATOM     10  C   UNL     1      -4.995  10.873  18.813  0.00  0.00    +0.292 C 
BRANCH  10  12
ATOM     11  N   UNL     1      -3.458  10.734  20.748  0.00  0.00    -0.131 NA
ATOM     12  C   UNL     1      -4.420  11.421  20.055  0.00  0.00    +0.120 A 
ATOM     13  C   UNL     1      -4.676  12.611  20.699  0.00  0.00    +0.137 A 
ATOM     14  N   UNL     1      -3.781  12.624  21.728  0.00  0.00    -0.247 N 
ATOM     15  N   UNL     1      -3.094  11.468  21.790  0.00  0.00    -0.065 NA
BRANCH  14  16
ATOM     16  C   UNL     1      -3.478  13.719  22.638  0.00  0.00    +0.181 C 
BRANCH  16  17
ATOM     17  C   UNL     1      -4.396  13.764  23.847  0.00  0.00    -0.012 A 
ATOM     18  C   UNL     1      -4.182  12.917  24.953  0.00  0.00    +0.006 A 
ATOM     19  C   UNL     1      -5.022  12.944  26.070  0.00  0.00    +0.000 A 
ATOM     20  C   UNL     1      -6.113  13.803  26.097  0.00  0.00    +0.001 A 
ATOM     21  C   UNL     1      -6.375  14.620  25.000  0.00  0.00    +0.015 A 
ATOM     22  C   UNL     1      -5.533  14.594  23.879  0.00  0.00    +0.023 A 
ATOM     23 BR   UNL     1      -6.024  15.710  22.419  0.00  0.00    -0.050 Br
ENDBRANCH  16  17
ENDBRANCH  14  16
ENDBRANCH  10  12
ENDBRANCH   9  10
ENDBRANCH   5   9
ENDBRANCH   4   7
ENDBRANCH   1   4
BRANCH   1  24
ATOM     24  C   UNL     1      -4.927   8.957  23.512  0.00  0.00    +0.175 C 
BRANCH  24  25
ATOM     25  C   UNL     1      -4.435   9.028  24.965  0.00  0.00    +0.176 C 
ATOM     26  O   UNL     1      -3.343   8.079  25.115  0.00  0.00    -0.332 OA
ATOM     27  C   UNL     1      -2.673   8.083  26.419  0.00  0.00    +0.277 C 
ATOM     28  C   UNL     1      -3.704   7.878  27.557  0.00  0.00    +0.110 C 
ATOM     29  C   UNL     1      -4.900   8.844  27.422  0.00  0.00    +0.143 C 
ATOM     30  C   UNL     1      -5.519   8.760  26.026  0.00  0.00    +0.133 C 
BRANCH  30  31
ATOM     31  N   UNL     1      -6.601   9.746  25.882  0.00  0.00    -0.308 N 
ATOM     32  H   UNL     1      -6.347  10.723  25.844  0.00  0.00    +0.149 HD
ATOM     33  C   UNL     1      -7.898   9.434  25.800  0.00  0.00    +0.210 C 
ATOM     34  C   UNL     1      -8.254   7.938  25.889  0.00  0.00    +0.109 C 
ATOM     35  O   UNL     1      -8.782  10.280  25.665  0.00  0.00    -0.276 OA
ENDBRANCH  30  31
BRANCH  27  36
ATOM     36  C   UNL     1      -1.917   9.409  26.641  0.00  0.00    +0.414 C 
ATOM     37  O   UNL     1      -1.465   9.687  27.752  0.00  0.00    -0.240 OA
ATOM     38  O   UNL     1      -1.759  10.201  25.711  0.00  0.00    -0.240 OA
ENDBRANCH  27  36
BRANCH  27  39
ATOM     39  O   UNL     1      -1.736   6.976  26.446  0.00  0.00    -0.343 OA
ATOM     40  C   UNL     1      -2.064   5.919  27.383  0.00  0.00    +0.198 C 
ENDBRANCH  27  39
BRANCH  29  41
ATOM     41  O   UNL     1      -5.892   8.520  28.397  0.00  0.00    -0.390 OA
ATOM     42  H   UNL     1      -6.494   7.865  28.036  0.00  0.00    +0.210 HD
ENDBRANCH  29  41
ENDBRANCH  24  25
BRANCH  24  43
ATOM     43  O   UNL     1      -5.641  10.161  23.170  0.00  0.00    -0.387 OA
ATOM     44  H   UNL     1      -6.585   9.987  23.176  0.00  0.00    +0.210 HD
ENDBRANCH  24  43
ENDBRANCH   1  24
TORSDOF 15
