REMARK VINA RESULT:    -4.740      1.312      1.665
REMARK INTER + INTRA:         -11.589
REMARK INTER:                  -7.896
REMARK INTRA:                  -3.693
REMARK UNBOUND:                -2.554
REMARK  Name = lig_assembled_9.pdb
REMARK  20 active torsions:
REMARK  status: ('A' for Active; 'I' for Inactive)
REMARK    1  A    between atoms: _2  and  _9
REMARK    2  A    between atoms: _4  and  _23
REMARK    3  A    between atoms: _6  and  _7
REMARK    4  A    between atoms: _6  and  _23
REMARK    5  A    between atoms: _11  and  _12
REMARK    6  A    between atoms: _12  and  _17
REMARK    7  A    between atoms: _13  and  _14
REMARK    8  A    between atoms: _13  and  _17
REMARK    9  A    between atoms: _19  and  _39
REMARK   10  A    between atoms: _21  and  _27
REMARK   11  A    between atoms: _22  and  _26
REMARK   12  A    between atoms: _26  and  _27
REMARK   13  A    between atoms: _29  and  _30
REMARK   14  A    between atoms: _31  and  _32
REMARK   15  A    between atoms: _33  and  _35
REMARK   16  A    between atoms: _35  and  _36
REMARK   17  A    between atoms: _35  and  _37
REMARK   18  A    between atoms: _37  and  _38
REMARK   19  A    between atoms: _37  and  _39
REMARK   20  A    between atoms: _40  and  _42
REMARK                            x       y       z     vdW  Elec       q    Type
REMARK                         _______ _______ _______ _____ _____    ______ ____
ROOT
ATOM      1  C   UNL     1      -6.243   8.278  23.901  0.00  0.00    +0.163 C 
ENDROOT
BRANCH   1   2
ATOM      2  O   UNL     1      -6.066   8.502  25.309  0.00  0.00    -0.388 OA
ATOM      3  H   UNL     1      -6.377   7.735  25.797  0.00  0.00    +0.210 HD
ENDBRANCH   1   2
BRANCH   1   4
ATOM      4  C   UNL     1      -6.129   9.596  23.116  0.00  0.00    +0.175 C 
BRANCH   4   5
ATOM      5  C   UNL     1      -4.906  10.420  23.545  0.00  0.00    +0.176 C 
ATOM      6  O   UNL     1      -5.203  11.022  24.835  0.00  0.00    -0.332 OA
ATOM      7  C   UNL     1      -4.102  11.765  25.456  0.00  0.00    +0.277 C 
ATOM      8  C   UNL     1      -3.565  12.846  24.486  0.00  0.00    +0.110 C 
ATOM      9  C   UNL     1      -3.265  12.260  23.090  0.00  0.00    +0.143 C 
ATOM     10  C   UNL     1      -4.476  11.505  22.540  0.00  0.00    +0.133 C 
BRANCH  10  11
ATOM     11  N   UNL     1      -4.150  10.879  21.250  0.00  0.00    -0.308 N 
ATOM     12  H   UNL     1      -3.426  10.174  21.237  0.00  0.00    +0.149 HD
ATOM     13  C   UNL     1      -4.748  11.180  20.094  0.00  0.00    +0.210 C 
ATOM     14  C   UNL     1      -5.829  12.276  20.142  0.00  0.00    +0.109 C 
ATOM     15  O   UNL     1      -4.464  10.628  19.030  0.00  0.00    -0.276 OA
ENDBRANCH  10  11
BRANCH   7  16
ATOM     16  C   UNL     1      -2.955  10.813  25.854  0.00  0.00    +0.414 C 
ATOM     17  O   UNL     1      -3.142   9.598  25.890  0.00  0.00    -0.240 OA
ATOM     18  O   UNL     1      -1.843  11.261  26.140  0.00  0.00    -0.240 OA
ENDBRANCH   7  16
BRANCH   7  19
ATOM     19  O   UNL     1      -4.619  12.428  26.638  0.00  0.00    -0.343 OA
ATOM     20  C   UNL     1      -5.767  11.786  27.248  0.00  0.00    +0.198 C 
ENDBRANCH   7  19
BRANCH   9  21
ATOM     21  O   UNL     1      -2.918  13.313  22.190  0.00  0.00    -0.390 OA
ATOM     22  H   UNL     1      -3.144  13.056  21.293  0.00  0.00    +0.210 HD
ENDBRANCH   9  21
ENDBRANCH   4   5
BRANCH   4  23
ATOM     23  O   UNL     1      -7.332  10.374  23.274  0.00  0.00    -0.387 OA
ATOM     24  H   UNL     1      -7.265  11.178  22.754  0.00  0.00    +0.210 HD
ENDBRANCH   4  23
ENDBRANCH   1   4
BRANCH   1  25
ATOM     25  C   UNL     1      -5.196   7.291  23.394  0.00  0.00    +0.141 C 
BRANCH  25  28
ATOM     26  C   UNL     1      -3.165   6.160  24.232  0.00  0.00    +0.401 C 
ATOM     27  O   UNL     1      -3.063   5.415  23.254  0.00  0.00    -0.226 OA
ATOM     28  N   UNL     1      -4.135   7.063  24.382  0.00  0.00    -0.279 N 
ATOM     29  H   UNL     1      -4.140   7.622  25.224  0.00  0.00    +0.152 HD
BRANCH  26  30
ATOM     30  O   UNL     1      -2.199   6.065  25.281  0.00  0.00    -0.444 OA
BRANCH  30  31
ATOM     31  C   UNL     1      -2.798   5.456  26.428  0.00  0.00    +0.292 C 
BRANCH  31  33
ATOM     32  N   UNL     1      -4.625   6.888  27.289  0.00  0.00    -0.131 NA
ATOM     33  C   UNL     1      -3.321   6.490  27.341  0.00  0.00    +0.121 A 
ATOM     34  C   UNL     1      -2.677   7.187  28.337  0.00  0.00    +0.143 A 
ATOM     35  N   UNL     1      -3.651   7.982  28.899  0.00  0.00    -0.220 N 
ATOM     36  N   UNL     1      -4.816   7.801  28.232  0.00  0.00    -0.060 NA
BRANCH  35  37
ATOM     37  C   UNL     1      -3.549   8.854  30.014  0.00  0.00    +0.068 A 
ATOM     38  C   UNL     1      -3.625  10.243  29.842  0.00  0.00    +0.042 A 
ATOM     39  C   UNL     1      -3.492  11.101  30.943  0.00  0.00    +0.061 A 
ATOM     40  C   UNL     1      -3.286  10.565  32.219  0.00  0.00    +0.015 A 
ATOM     41  C   UNL     1      -3.223   9.181  32.396  0.00  0.00    +0.003 A 
ATOM     42  C   UNL     1      -3.355   8.327  31.300  0.00  0.00    +0.028 A 
BRANCH  39  43
ATOM     43  C   UNL     1      -3.626  12.576  30.812  0.00  0.00    +0.339 C 
ATOM     44  O   UNL     1      -3.735  13.154  29.743  0.00  0.00    -0.245 OA
BRANCH  43  45
ATOM     45  O   UNL     1      -3.507  13.157  32.031  0.00  0.00    -0.461 OA
BRANCH  45  46
ATOM     46  C   UNL     1      -2.387  14.037  32.190  0.00  0.00    +0.229 C 
ATOM     47  C   UNL     1      -1.958  13.992  33.645  0.00  0.00    +0.048 C 
ENDBRANCH  45  46
ENDBRANCH  43  45
ENDBRANCH  39  43
ENDBRANCH  35  37
ENDBRANCH  31  33
ENDBRANCH  30  31
ENDBRANCH  26  30
ENDBRANCH  25  28
ENDBRANCH   1  25
TORSDOF 17
