REMARK VINA RESULT:    -5.572      6.863     12.935
REMARK INTER + INTRA:         -12.684
REMARK INTER:                 -10.294
REMARK INTRA:                  -2.389
REMARK UNBOUND:                -2.389
REMARK  Name = lig_assembled_92.pdb
REMARK  18 active torsions:
REMARK  status: ('A' for Active; 'I' for Inactive)
REMARK    1  A    between atoms: _2  and  _11
REMARK    2  A    between atoms: _3  and  _46
REMARK    3  A    between atoms: _6  and  _25
REMARK    4  A    between atoms: _8  and  _9
REMARK    5  A    between atoms: _8  and  _25
REMARK    6  A    between atoms: _14  and  _46
REMARK    7  A    between atoms: _21  and  _41
REMARK    8  A    between atoms: _23  and  _29
REMARK    9  A    between atoms: _24  and  _28
REMARK   10  A    between atoms: _28  and  _29
REMARK   11  A    between atoms: _31  and  _32
REMARK   12  A    between atoms: _33  and  _34
REMARK   13  A    between atoms: _35  and  _37
REMARK   14  A    between atoms: _37  and  _38
REMARK   15  A    between atoms: _37  and  _39
REMARK   16  A    between atoms: _39  and  _40
REMARK   17  A    between atoms: _39  and  _41
REMARK   18  A    between atoms: _42  and  _44
REMARK                            x       y       z     vdW  Elec       q    Type
REMARK                         _______ _______ _______ _____ _____    ______ ____
ROOT
ATOM      1  C   UNL     1      -4.288  12.461  21.062  0.00  0.00    +0.401 C 
ATOM      2  O   UNL     1      -5.463  12.458  21.436  0.00  0.00    -0.226 OA
ATOM      3  N   UNL     1      -3.254  12.742  21.855  0.00  0.00    -0.279 N 
ATOM      4  H   UNL     1      -2.326  12.710  21.458  0.00  0.00    +0.152 HD
ENDROOT
BRANCH   3   5
ATOM      5  C   UNL     1      -3.389  13.098  23.273  0.00  0.00    +0.141 C 
BRANCH   5   6
ATOM      6  C   UNL     1      -3.075  11.918  24.188  0.00  0.00    +0.163 C 
BRANCH   6   7
ATOM      7  O   UNL     1      -1.957  12.234  25.032  0.00  0.00    -0.388 OA
ATOM      8  H   UNL     1      -1.799  13.181  25.015  0.00  0.00    +0.210 HD
ENDBRANCH   6   7
BRANCH   6   9
ATOM      9  C   UNL     1      -4.318  11.573  25.026  0.00  0.00    +0.175 C 
BRANCH   9  10
ATOM     10  C   UNL     1      -4.004  10.558  26.135  0.00  0.00    +0.176 C 
ATOM     11  O   UNL     1      -3.270   9.454  25.536  0.00  0.00    -0.332 OA
ATOM     12  C   UNL     1      -2.790   8.432  26.470  0.00  0.00    +0.277 C 
ATOM     13  C   UNL     1      -3.962   7.881  27.319  0.00  0.00    +0.110 C 
ATOM     14  C   UNL     1      -4.791   9.019  27.951  0.00  0.00    +0.143 C 
ATOM     15  C   UNL     1      -5.236  10.027  26.891  0.00  0.00    +0.133 C 
BRANCH  15  16
ATOM     16  N   UNL     1      -5.950  11.151  27.517  0.00  0.00    -0.308 N 
ATOM     17  H   UNL     1      -5.428  11.756  28.135  0.00  0.00    +0.149 HD
ATOM     18  C   UNL     1      -7.243  11.424  27.321  0.00  0.00    +0.210 C 
ATOM     19  C   UNL     1      -8.017  10.468  26.394  0.00  0.00    +0.109 C 
ATOM     20  O   UNL     1      -7.812  12.382  27.848  0.00  0.00    -0.276 OA
ENDBRANCH  15  16
BRANCH  12  21
ATOM     21  C   UNL     1      -1.704   9.008  27.402  0.00  0.00    +0.414 C 
ATOM     22  O   UNL     1      -1.609   8.612  28.563  0.00  0.00    -0.240 OA
ATOM     23  O   UNL     1      -0.924   9.869  26.994  0.00  0.00    -0.240 OA
ENDBRANCH  12  21
BRANCH  14  24
ATOM     24  O   UNL     1      -5.943   8.475  28.596  0.00  0.00    -0.390 OA
ATOM     25  H   UNL     1      -6.128   7.603  28.240  0.00  0.00    +0.210 HD
ENDBRANCH  14  24
BRANCH  12  26
ATOM     26  O   UNL     1      -2.236   7.339  25.693  0.00  0.00    -0.343 OA
ATOM     27  C   UNL     1      -2.386   6.026  26.289  0.00  0.00    +0.198 C 
ENDBRANCH  12  26
ENDBRANCH   9  10
BRANCH   9  28
ATOM     28  O   UNL     1      -5.368  11.070  24.175  0.00  0.00    -0.387 OA
ATOM     29  H   UNL     1      -5.399  10.113  24.237  0.00  0.00    +0.210 HD
ENDBRANCH   9  28
ENDBRANCH   6   9
ENDBRANCH   5   6
ENDBRANCH   3   5
BRANCH   1  30
ATOM     30  O   UNL     1      -3.992  12.142  19.700  0.00  0.00    -0.444 OA
BRANCH  30  31
ATOM     31  C   UNL     1      -5.135  11.532  19.093  0.00  0.00    +0.292 C 
BRANCH  31  33
ATOM     32  N   UNL     1      -6.322  12.156  17.008  0.00  0.00    -0.131 NA
ATOM     33  C   UNL     1      -5.163  11.820  17.646  0.00  0.00    +0.121 A 
ATOM     34  C   UNL     1      -4.133  11.821  16.736  0.00  0.00    +0.143 A 
ATOM     35  N   UNL     1      -4.710  12.197  15.545  0.00  0.00    -0.220 N 
ATOM     36  N   UNL     1      -6.040  12.377  15.729  0.00  0.00    -0.060 NA
BRANCH  35  37
ATOM     37  C   UNL     1      -4.081  12.419  14.294  0.00  0.00    +0.067 A 
ATOM     38  C   UNL     1      -3.356  11.390  13.671  0.00  0.00    +0.030 A 
ATOM     39  C   UNL     1      -2.690  11.630  12.470  0.00  0.00    +0.031 A 
ATOM     40  C   UNL     1      -2.754  12.893  11.880  0.00  0.00    +0.109 A 
ATOM     41  C   UNL     1      -3.479  13.925  12.482  0.00  0.00    +0.031 A 
ATOM     42  C   UNL     1      -4.152  13.683  13.685  0.00  0.00    +0.030 A 
BRANCH  40  43
ATOM     43  S   UNL     1      -1.771  13.203  10.436  0.00  0.00    +0.074 S 
ATOM     44  O   UNL     1      -1.943  12.075   9.541  0.00  0.00    -0.150 OA
ATOM     45  O   UNL     1      -2.041  14.543   9.973  0.00  0.00    -0.150 OA
BRANCH  43  46
ATOM     46  N   UNL     1      -0.186  13.073  11.004  0.00  0.00    -0.194 N 
ATOM     47  H   UNL     1       0.313  12.504  10.325  0.00  0.00    +0.176 HD
ATOM     48  C   UNL     1       0.405  14.335  11.223  0.00  0.00    +0.177 A 
ATOM     49  S   UNL     1       1.434  15.083  10.082  0.00  0.00    -0.059 S 
ATOM     50  C   UNL     1       1.716  16.351  11.204  0.00  0.00    +0.068 A 
ATOM     51  C   UNL     1       1.068  16.070  12.388  0.00  0.00    +0.120 A 
ATOM     52  N   UNL     1       0.289  14.927  12.386  0.00  0.00    -0.232 NA
ENDBRANCH  43  46
ENDBRANCH  40  43
ENDBRANCH  35  37
ENDBRANCH  31  33
ENDBRANCH  30  31
ENDBRANCH   1  30
TORSDOF 16
