REMARK VINA RESULT:    -4.600      4.851     12.167
REMARK INTER + INTRA:         -11.210
REMARK INTER:                  -8.429
REMARK INTRA:                  -2.780
REMARK UNBOUND:                -2.711
REMARK  Name = lig_assembled_36.pdb
REMARK  18 active torsions:
REMARK  status: ('A' for Active; 'I' for Inactive)
REMARK    1  A    between atoms: _2  and  _10
REMARK    2  A    between atoms: _5  and  _21
REMARK    3  A    between atoms: _7  and  _8
REMARK    4  A    between atoms: _7  and  _21
REMARK    5  A    between atoms: _10  and  _11
REMARK    6  A    between atoms: _14  and  _15
REMARK    7  A    between atoms: _17  and  _37
REMARK    8  A    between atoms: _19  and  _25
REMARK    9  A    between atoms: _20  and  _24
REMARK   10  A    between atoms: _24  and  _25
REMARK   11  A    between atoms: _27  and  _28
REMARK   12  A    between atoms: _29  and  _30
REMARK   13  A    between atoms: _31  and  _33
REMARK   14  A    between atoms: _33  and  _34
REMARK   15  A    between atoms: _33  and  _35
REMARK   16  A    between atoms: _35  and  _36
REMARK   17  A    between atoms: _35  and  _37
REMARK   18  A    between atoms: _38  and  _40
REMARK                            x       y       z     vdW  Elec       q    Type
REMARK                         _______ _______ _______ _____ _____    ______ ____
ROOT
ATOM      1  C   UNL     1      -5.362  10.936  16.846  0.00  0.00    +0.163 C 
ENDROOT
BRANCH   1   2
ATOM      2  O   UNL     1      -4.769  11.570  17.991  0.00  0.00    -0.388 OA
ATOM      3  H   UNL     1      -5.159  12.439  18.114  0.00  0.00    +0.210 HD
ENDBRANCH   1   2
BRANCH   1   4
ATOM      4  C   UNL     1      -4.693   9.581  16.559  0.00  0.00    +0.175 C 
BRANCH   4   5
ATOM      5  C   UNL     1      -3.868   9.606  15.264  0.00  0.00    +0.176 C 
ATOM      6  O   UNL     1      -4.657  10.277  14.244  0.00  0.00    -0.332 OA
ATOM      7  C   UNL     1      -3.985  10.489  12.959  0.00  0.00    +0.277 C 
ATOM      8  C   UNL     1      -3.443   9.148  12.404  0.00  0.00    +0.110 C 
ATOM      9  C   UNL     1      -2.623   8.383  13.464  0.00  0.00    +0.143 C 
ATOM     10  C   UNL     1      -3.417   8.222  14.761  0.00  0.00    +0.133 C 
BRANCH  10  11
ATOM     11  N   UNL     1      -2.594   7.568  15.791  0.00  0.00    -0.308 N 
ATOM     12  H   UNL     1      -1.788   8.069  16.138  0.00  0.00    +0.149 HD
ATOM     13  C   UNL     1      -2.843   6.357  16.296  0.00  0.00    +0.210 C 
ATOM     14  C   UNL     1      -4.064   5.610  15.728  0.00  0.00    +0.109 C 
ATOM     15  O   UNL     1      -2.145   5.841  17.169  0.00  0.00    -0.276 OA
ENDBRANCH  10  11
BRANCH   7  16
ATOM     16  C   UNL     1      -2.822  11.492  13.109  0.00  0.00    +0.414 C 
ATOM     17  O   UNL     1      -1.826  11.398  12.393  0.00  0.00    -0.240 OA
ATOM     18  O   UNL     1      -2.880  12.394  13.945  0.00  0.00    -0.240 OA
ENDBRANCH   7  16
BRANCH   7  19
ATOM     19  O   UNL     1      -4.961  11.011  12.021  0.00  0.00    -0.343 OA
ATOM     20  C   UNL     1      -6.157  11.564  12.627  0.00  0.00    +0.198 C 
ENDBRANCH   7  19
BRANCH   9  21
ATOM     21  O   UNL     1      -2.274   7.092  12.962  0.00  0.00    -0.390 OA
ATOM     22  H   UNL     1      -3.026   6.713  12.502  0.00  0.00    +0.210 HD
ENDBRANCH   9  21
ENDBRANCH   4   5
BRANCH   4  23
ATOM     23  O   UNL     1      -5.688   8.540  16.495  0.00  0.00    -0.387 OA
ATOM     24  H   UNL     1      -6.529   8.917  16.224  0.00  0.00    +0.210 HD
ENDBRANCH   4  23
ENDBRANCH   1   4
BRANCH   1  25
ATOM     25  C   UNL     1      -6.854  10.729  17.079  0.00  0.00    +0.141 C 
BRANCH  25  28
ATOM     26  C   UNL     1      -7.608   9.388  19.012  0.00  0.00    +0.401 C 
ATOM     27  O   UNL     1      -7.815   8.371  18.346  0.00  0.00    -0.226 OA
ATOM     28  N   UNL     1      -7.165  10.537  18.501  0.00  0.00    -0.279 N 
ATOM     29  H   UNL     1      -7.035  11.319  19.127  0.00  0.00    +0.152 HD
BRANCH  26  30
ATOM     30  O   UNL     1      -7.856   9.358  20.420  0.00  0.00    -0.444 OA
BRANCH  30  31
ATOM     31  C   UNL     1      -6.771   8.703  21.083  0.00  0.00    +0.292 C 
BRANCH  31  33
ATOM     32  N   UNL     1      -4.583   9.673  20.442  0.00  0.00    -0.131 NA
ATOM     33  C   UNL     1      -5.656   9.647  21.292  0.00  0.00    +0.120 A 
ATOM     34  C   UNL     1      -5.488  10.611  22.261  0.00  0.00    +0.137 A 
ATOM     35  N   UNL     1      -4.342  11.249  21.887  0.00  0.00    -0.247 N 
ATOM     36  N   UNL     1      -3.772  10.648  20.827  0.00  0.00    -0.065 NA
BRANCH  35  37
ATOM     37  C   UNL     1      -3.748  12.433  22.475  0.00  0.00    +0.180 C 
BRANCH  37  38
ATOM     38  C   UNL     1      -3.764  12.363  23.985  0.00  0.00    -0.026 A 
ATOM     39  C   UNL     1      -4.787  12.976  24.723  0.00  0.00    +0.007 A 
ATOM     40  C   UNL     1      -4.797  12.902  26.120  0.00  0.00    +0.019 A 
ATOM     41  C   UNL     1      -3.782  12.218  26.796  0.00  0.00    +0.052 A 
ATOM     42  C   UNL     1      -2.747  11.625  26.069  0.00  0.00    +0.019 A 
ATOM     43  C   UNL     1      -2.736  11.701  24.673  0.00  0.00    +0.007 A 
BRANCH  41  44
ATOM     44  C   UNL     1      -3.806  12.125  28.229  0.00  0.00    +0.099 C 
ATOM     45  N   UNL     1      -3.827  12.039  29.385  0.00  0.00    -0.191 NA
ENDBRANCH  41  44
ENDBRANCH  37  38
ENDBRANCH  35  37
ENDBRANCH  31  33
ENDBRANCH  30  31
ENDBRANCH  26  30
ENDBRANCH  25  28
ENDBRANCH   1  25
TORSDOF 16
