REMARK VINA RESULT:    -4.789      3.787      9.309
REMARK INTER + INTRA:         -12.308
REMARK INTER:                  -9.860
REMARK INTRA:                  -2.448
REMARK UNBOUND:                -3.320
REMARK  Name = lig_assembled_16.pdb
REMARK  19 active torsions:
REMARK  status: ('A' for Active; 'I' for Inactive)
REMARK    1  A    between atoms: _2  and  _9
REMARK    2  A    between atoms: _4  and  _22
REMARK    3  A    between atoms: _6  and  _7
REMARK    4  A    between atoms: _6  and  _22
REMARK    5  A    between atoms: _9  and  _10
REMARK    6  A    between atoms: _13  and  _14
REMARK    7  A    between atoms: _14  and  _16
REMARK    8  A    between atoms: _18  and  _38
REMARK    9  A    between atoms: _20  and  _26
REMARK   10  A    between atoms: _21  and  _25
REMARK   11  A    between atoms: _25  and  _26
REMARK   12  A    between atoms: _28  and  _29
REMARK   13  A    between atoms: _30  and  _31
REMARK   14  A    between atoms: _32  and  _34
REMARK   15  A    between atoms: _34  and  _35
REMARK   16  A    between atoms: _34  and  _36
REMARK   17  A    between atoms: _36  and  _37
REMARK   18  A    between atoms: _36  and  _38
REMARK   19  A    between atoms: _39  and  _41
REMARK                            x       y       z     vdW  Elec       q    Type
REMARK                         _______ _______ _______ _____ _____    ______ ____
ROOT
ATOM      1  C   UNL     1      -6.020  11.944  25.719  0.00  0.00    +0.163 C 
ENDROOT
BRANCH   1   2
ATOM      2  O   UNL     1      -5.783  10.988  24.673  0.00  0.00    -0.388 OA
ATOM      3  H   UNL     1      -6.393  11.147  23.948  0.00  0.00    +0.210 HD
ENDBRANCH   1   2
BRANCH   1   4
ATOM      4  C   UNL     1      -5.966  11.271  27.101  0.00  0.00    +0.175 C 
BRANCH   4   5
ATOM      5  C   UNL     1      -4.579  10.689  27.407  0.00  0.00    +0.176 C 
ATOM      6  O   UNL     1      -4.382   9.530  26.552  0.00  0.00    -0.332 OA
ATOM      7  C   UNL     1      -3.059   8.901  26.630  0.00  0.00    +0.277 C 
ATOM      8  C   UNL     1      -2.721   8.534  28.096  0.00  0.00    +0.110 C 
ATOM      9  C   UNL     1      -2.946   9.727  29.049  0.00  0.00    +0.143 C 
ATOM     10  C   UNL     1      -4.352  10.305  28.881  0.00  0.00    +0.133 C 
BRANCH  10  11
ATOM     11  N   UNL     1      -4.524  11.494  29.731  0.00  0.00    -0.308 N 
ATOM     12  H   UNL     1      -3.932  12.293  29.551  0.00  0.00    +0.149 HD
ATOM     13  C   UNL     1      -5.412  11.587  30.725  0.00  0.00    +0.210 C 
ATOM     14  C   UNL     1      -6.281  10.343  30.991  0.00  0.00    +0.109 C 
ATOM     15  O   UNL     1      -5.544  12.601  31.411  0.00  0.00    -0.276 OA
ENDBRANCH  10  11
BRANCH   7  16
ATOM     16  C   UNL     1      -1.972   9.843  26.071  0.00  0.00    +0.414 C 
ATOM     17  O   UNL     1      -2.245  10.643  25.178  0.00  0.00    -0.240 OA
ATOM     18  O   UNL     1      -0.823   9.801  26.513  0.00  0.00    -0.240 OA
ENDBRANCH   7  16
BRANCH   7  19
ATOM     19  O   UNL     1      -3.096   7.679  25.849  0.00  0.00    -0.343 OA
ATOM     20  C   UNL     1      -4.132   7.632  24.835  0.00  0.00    +0.198 C 
ENDBRANCH   7  19
BRANCH   9  21
ATOM     21  O   UNL     1      -2.770   9.303  30.401  0.00  0.00    -0.390 OA
ATOM     22  H   UNL     1      -3.590   9.426  30.885  0.00  0.00    +0.210 HD
ENDBRANCH   9  21
ENDBRANCH   4   5
BRANCH   4  23
ATOM     23  O   UNL     1      -6.969  10.240  27.191  0.00  0.00    -0.387 OA
ATOM     24  H   UNL     1      -6.615   9.490  27.675  0.00  0.00    +0.210 HD
ENDBRANCH   4  23
ENDBRANCH   1   4
BRANCH   1  25
ATOM     25  C   UNL     1      -4.980  13.058  25.653  0.00  0.00    +0.141 C 
BRANCH  25  28
ATOM     26  C   UNL     1      -4.206  13.749  23.411  0.00  0.00    +0.401 C 
ATOM     27  O   UNL     1      -5.015  14.675  23.314  0.00  0.00    -0.226 OA
ATOM     28  N   UNL     1      -4.124  12.938  24.466  0.00  0.00    -0.279 N 
ATOM     29  H   UNL     1      -3.434  12.201  24.448  0.00  0.00    +0.152 HD
BRANCH  26  30
ATOM     30  O   UNL     1      -3.295  13.508  22.336  0.00  0.00    -0.444 OA
BRANCH  30  31
ATOM     31  C   UNL     1      -2.892  12.136  22.349  0.00  0.00    +0.292 C 
BRANCH  31  33
ATOM     32  N   UNL     1      -3.849  10.053  21.412  0.00  0.00    -0.131 NA
ATOM     33  C   UNL     1      -3.581  11.391  21.281  0.00  0.00    +0.120 A 
ATOM     34  C   UNL     1      -4.074  11.833  20.074  0.00  0.00    +0.137 A 
ATOM     35  N   UNL     1      -4.711  10.741  19.564  0.00  0.00    -0.247 N 
ATOM     36  N   UNL     1      -4.530   9.659  20.343  0.00  0.00    -0.065 NA
BRANCH  35  37
ATOM     37  C   UNL     1      -5.523  10.661  18.367  0.00  0.00    +0.180 C 
BRANCH  37  38
ATOM     38  C   UNL     1      -4.669  10.459  17.136  0.00  0.00    -0.026 A 
ATOM     39  C   UNL     1      -4.352   9.169  16.689  0.00  0.00    +0.006 A 
ATOM     40  C   UNL     1      -3.593   8.988  15.529  0.00  0.00    +0.015 A 
ATOM     41  C   UNL     1      -3.132  10.091  14.807  0.00  0.00    +0.059 A 
ATOM     42  C   UNL     1      -3.425  11.387  15.256  0.00  0.00    +0.015 A 
ATOM     43  C   UNL     1      -4.178  11.565  16.421  0.00  0.00    +0.006 A 
BRANCH  41  44
ATOM     44  C   UNL     1      -2.393   9.841  13.541  0.00  0.00    +0.337 C 
ATOM     45  O   UNL     1      -1.451   9.069  13.472  0.00  0.00    -0.245 OA
BRANCH  44  46
ATOM     46  O   UNL     1      -2.832  10.565  12.494  0.00  0.00    -0.477 OA
ATOM     47  H   UNL     1      -3.784  10.772  12.501  0.00  0.00    +0.295 HD
ENDBRANCH  44  46
ENDBRANCH  41  44
ENDBRANCH  37  38
ENDBRANCH  35  37
ENDBRANCH  31  33
ENDBRANCH  30  31
ENDBRANCH  26  30
ENDBRANCH  25  28
ENDBRANCH   1  25
TORSDOF 17
