REMARK VINA RESULT:    -4.589      1.500      2.696
REMARK INTER + INTRA:         -11.176
REMARK INTER:                  -8.700
REMARK INTRA:                  -2.476
REMARK UNBOUND:                -2.966
REMARK  Name = lig_assembled_89.pdb
REMARK  19 active torsions:
REMARK  status: ('A' for Active; 'I' for Inactive)
REMARK    1  A    between atoms: _2  and  _12
REMARK    2  A    between atoms: _5  and  _20
REMARK    3  A    between atoms: _7  and  _29
REMARK    4  A    between atoms: _9  and  _10
REMARK    5  A    between atoms: _9  and  _29
REMARK    6  A    between atoms: _20  and  _21
REMARK    7  A    between atoms: _20  and  _22
REMARK    8  A    between atoms: _25  and  _45
REMARK    9  A    between atoms: _27  and  _33
REMARK   10  A    between atoms: _28  and  _32
REMARK   11  A    between atoms: _32  and  _33
REMARK   12  A    between atoms: _35  and  _36
REMARK   13  A    between atoms: _37  and  _38
REMARK   14  A    between atoms: _39  and  _41
REMARK   15  A    between atoms: _41  and  _42
REMARK   16  A    between atoms: _41  and  _43
REMARK   17  A    between atoms: _43  and  _44
REMARK   18  A    between atoms: _43  and  _45
REMARK   19  A    between atoms: _46  and  _48
REMARK                            x       y       z     vdW  Elec       q    Type
REMARK                         _______ _______ _______ _____ _____    ______ ____
ROOT
ATOM      1  C   UNL     1      -3.579   7.391  14.810  0.00  0.00    +0.401 C 
ATOM      2  O   UNL     1      -2.443   7.732  15.146  0.00  0.00    -0.226 OA
ATOM      3  N   UNL     1      -4.044   7.474  13.563  0.00  0.00    -0.279 N 
ATOM      4  H   UNL     1      -4.988   7.160  13.384  0.00  0.00    +0.152 HD
ENDROOT
BRANCH   3   5
ATOM      5  C   UNL     1      -3.263   7.997  12.436  0.00  0.00    +0.141 C 
BRANCH   5   6
ATOM      6  C   UNL     1      -3.706   9.402  12.039  0.00  0.00    +0.163 C 
BRANCH   6   7
ATOM      7  O   UNL     1      -5.138   9.502  12.106  0.00  0.00    -0.388 OA
ATOM      8  H   UNL     1      -5.506   8.661  12.387  0.00  0.00    +0.210 HD
ENDBRANCH   6   7
BRANCH   6   9
ATOM      9  C   UNL     1      -3.039  10.432  12.966  0.00  0.00    +0.175 C 
BRANCH   9  10
ATOM     10  C   UNL     1      -2.994  11.832  12.336  0.00  0.00    +0.176 C 
ATOM     11  O   UNL     1      -1.600  12.235  12.240  0.00  0.00    -0.332 OA
ATOM     12  C   UNL     1      -1.354  13.511  11.562  0.00  0.00    +0.277 C 
ATOM     13  C   UNL     1      -2.182  14.642  12.220  0.00  0.00    +0.110 C 
ATOM     14  C   UNL     1      -3.666  14.247  12.372  0.00  0.00    +0.143 C 
ATOM     15  C   UNL     1      -3.805  12.903  13.088  0.00  0.00    +0.133 C 
BRANCH  15  16
ATOM     16  N   UNL     1      -5.218  12.497  13.150  0.00  0.00    -0.308 N 
ATOM     17  H   UNL     1      -5.709  12.363  12.277  0.00  0.00    +0.149 HD
ATOM     18  C   UNL     1      -5.894  12.293  14.284  0.00  0.00    +0.210 C 
ATOM     19  C   UNL     1      -5.125  12.530  15.597  0.00  0.00    +0.109 C 
ATOM     20  O   UNL     1      -7.073  11.938  14.305  0.00  0.00    -0.276 OA
ENDBRANCH  15  16
BRANCH  12  21
ATOM     21  C   UNL     1      -1.714  13.413  10.065  0.00  0.00    +0.414 C 
ATOM     22  O   UNL     1      -2.188  14.383   9.476  0.00  0.00    -0.240 OA
ATOM     23  O   UNL     1      -1.530  12.364   9.446  0.00  0.00    -0.240 OA
ENDBRANCH  12  21
BRANCH  14  24
ATOM     24  O   UNL     1      -4.358  15.251  13.116  0.00  0.00    -0.390 OA
ATOM     25  H   UNL     1      -3.969  16.110  12.934  0.00  0.00    +0.210 HD
ENDBRANCH  14  24
BRANCH  12  26
ATOM     26  O   UNL     1       0.054  13.832  11.706  0.00  0.00    -0.343 OA
ATOM     27  C   UNL     1       0.330  15.128  12.293  0.00  0.00    +0.198 C 
ENDBRANCH  12  26
ENDBRANCH   9  10
BRANCH   9  28
ATOM     28  O   UNL     1      -1.708  10.000  13.312  0.00  0.00    -0.387 OA
ATOM     29  H   UNL     1      -1.758   9.309  13.976  0.00  0.00    +0.210 HD
ENDBRANCH   9  28
ENDBRANCH   6   9
ENDBRANCH   5   6
ENDBRANCH   3   5
BRANCH   1  30
ATOM     30  O   UNL     1      -4.468   6.867  15.800  0.00  0.00    -0.444 OA
BRANCH  30  31
ATOM     31  C   UNL     1      -5.737   7.518  15.696  0.00  0.00    +0.292 C 
BRANCH  31  33
ATOM     32  N   UNL     1      -7.001   9.293  16.849  0.00  0.00    -0.131 NA
ATOM     33  C   UNL     1      -5.840   8.594  16.696  0.00  0.00    +0.121 A 
ATOM     34  C   UNL     1      -4.916   9.058  17.601  0.00  0.00    +0.145 A 
ATOM     35  N   UNL     1      -5.572  10.041  18.318  0.00  0.00    -0.199 N 
ATOM     36  N   UNL     1      -6.832  10.160  17.837  0.00  0.00    -0.059 NA
BRANCH  35  37
ATOM     37  C   UNL     1      -5.047  10.742  19.442  0.00  0.00    +0.186 A 
ATOM     38  C   UNL     1      -4.982  10.362  20.767  0.00  0.00    +0.158 A 
ATOM     39  C   UNL     1      -5.504   9.245  21.493  0.00  0.00    +0.280 A 
ATOM     40  O   UNL     1      -6.431   8.565  21.073  0.00  0.00    -0.265 OA
ATOM     41  N   UNL     1      -4.897   9.002  22.742  0.00  0.00    -0.302 N 
ATOM     42  C   UNL     1      -4.166  10.056  23.411  0.00  0.00    +0.069 A 
ATOM     43  C   UNL     1      -3.780   9.974  24.757  0.00  0.00    +0.028 A 
ATOM     44  C   UNL     1      -3.117  11.036  25.388  0.00  0.00    +0.002 A 
ATOM     45  C   UNL     1      -2.816  12.198  24.687  0.00  0.00    +0.002 A 
ATOM     46  C   UNL     1      -3.173  12.308  23.346  0.00  0.00    +0.028 A 
ATOM     47  C   UNL     1      -3.849  11.248  22.724  0.00  0.00    +0.072 A 
ATOM     48  N   UNL     1      -4.230  11.331  21.375  0.00  0.00    -0.291 N 
ATOM     49  C   UNL     1      -3.972  12.298  20.437  0.00  0.00    +0.207 A 
ATOM     50  N   UNL     1      -4.442  11.970  19.252  0.00  0.00    -0.216 NA
BRANCH  41  51
ATOM     51  C   UNL     1      -5.205   7.725  23.427  0.00  0.00    +0.085 C 
ATOM     52  C   UNL     1      -6.077   7.893  24.687  0.00  0.00    +0.030 C 
ATOM     53  C   UNL     1      -3.939   6.935  23.754  0.00  0.00    +0.030 C 
ENDBRANCH  41  51
ENDBRANCH  35  37
ENDBRANCH  31  33
ENDBRANCH  30  31
ENDBRANCH   1  30
TORSDOF 15
