REMARK VINA RESULT:    -4.757      2.676      8.265
REMARK INTER + INTRA:         -12.666
REMARK INTER:                  -9.224
REMARK INTRA:                  -3.442
REMARK UNBOUND:                -3.181
REMARK  Name = lig_assembled_76.pdb
REMARK  21 active torsions:
REMARK  status: ('A' for Active; 'I' for Inactive)
REMARK    1  A    between atoms: _2  and  _9
REMARK    2  A    between atoms: _4  and  _23
REMARK    3  A    between atoms: _6  and  _7
REMARK    4  A    between atoms: _6  and  _23
REMARK    5  A    between atoms: _9  and  _10
REMARK    6  A    between atoms: _10  and  _11
REMARK    7  A    between atoms: _10  and  _18
REMARK    8  A    between atoms: _11  and  _12
REMARK    9  A    between atoms: _12  and  _13
REMARK   10  A    between atoms: _19  and  _39
REMARK   11  A    between atoms: _21  and  _27
REMARK   12  A    between atoms: _22  and  _26
REMARK   13  A    between atoms: _26  and  _27
REMARK   14  A    between atoms: _29  and  _30
REMARK   15  A    between atoms: _31  and  _32
REMARK   16  A    between atoms: _33  and  _35
REMARK   17  A    between atoms: _35  and  _36
REMARK   18  A    between atoms: _35  and  _37
REMARK   19  A    between atoms: _37  and  _38
REMARK   20  A    between atoms: _37  and  _39
REMARK   21  A    between atoms: _40  and  _42
REMARK                            x       y       z     vdW  Elec       q    Type
REMARK                         _______ _______ _______ _____ _____    ______ ____
ROOT
ATOM      1  C   UNL     1      -4.079  12.164  26.946  0.00  0.00    +0.141 C 
ENDROOT
BRANCH   1   4
ATOM      2  C   UNL     1      -2.898  11.178  25.013  0.00  0.00    +0.401 C 
ATOM      3  O   UNL     1      -2.073  12.091  24.932  0.00  0.00    -0.226 OA
ATOM      4  N   UNL     1      -3.874  11.135  25.920  0.00  0.00    -0.279 N 
ATOM      5  H   UNL     1      -4.509  10.349  25.901  0.00  0.00    +0.152 HD
BRANCH   2   6
ATOM      6  O   UNL     1      -2.826  10.092  24.085  0.00  0.00    -0.444 OA
BRANCH   6   7
ATOM      7  C   UNL     1      -4.145   9.735  23.664  0.00  0.00    +0.292 C 
BRANCH   7   9
ATOM      8  N   UNL     1      -3.539  11.048  21.650  0.00  0.00    -0.131 NA
ATOM      9  C   UNL     1      -4.369  10.149  22.269  0.00  0.00    +0.120 A 
ATOM     10  C   UNL     1      -5.361   9.771  21.391  0.00  0.00    +0.137 A 
ATOM     11  N   UNL     1      -5.075  10.469  20.259  0.00  0.00    -0.249 N 
ATOM     12  N   UNL     1      -3.989  11.243  20.417  0.00  0.00    -0.065 NA
BRANCH  11  13
ATOM     13  C   UNL     1      -5.861  10.550  19.048  0.00  0.00    +0.176 C 
BRANCH  13  14
ATOM     14  C   UNL     1      -6.582  11.893  18.892  0.00  0.00    +0.136 C 
BRANCH  14  15
ATOM     15  O   UNL     1      -7.052  12.049  17.546  0.00  0.00    -0.390 OA
ATOM     16  H   UNL     1      -8.023  11.992  17.539  0.00  0.00    +0.210 HD
ENDBRANCH  14  15
BRANCH  14  17
ATOM     17  C   UNL     1      -7.799  12.018  19.822  0.00  0.00    +0.038 C 
BRANCH  17  18
ATOM     18  C   UNL     1      -7.890  13.371  20.528  0.00  0.00    +0.038 C 
BRANCH  18  19
ATOM     19  C   UNL     1      -6.877  13.503  21.636  0.00  0.00    -0.047 A 
ATOM     20  C   UNL     1      -5.751  14.322  21.470  0.00  0.00    +0.003 A 
ATOM     21  C   UNL     1      -4.820  14.460  22.501  0.00  0.00    +0.000 A 
ATOM     22  C   UNL     1      -5.003  13.778  23.701  0.00  0.00    +0.000 A 
ATOM     23  C   UNL     1      -6.114  12.952  23.870  0.00  0.00    +0.000 A 
ATOM     24  C   UNL     1      -7.045  12.811  22.841  0.00  0.00    +0.003 A 
ENDBRANCH  18  19
ENDBRANCH  17  18
ENDBRANCH  14  17
ENDBRANCH  13  14
ENDBRANCH  11  13
ENDBRANCH   7   9
ENDBRANCH   6   7
ENDBRANCH   2   6
ENDBRANCH   1   4
BRANCH   1  25
ATOM     25  C   UNL     1      -5.486  12.110  27.534  0.00  0.00    +0.163 C 
BRANCH  25  26
ATOM     26  O   UNL     1      -6.186  10.963  27.026  0.00  0.00    -0.388 OA
ATOM     27  H   UNL     1      -5.948  10.188  27.541  0.00  0.00    +0.210 HD
ENDBRANCH  25  26
BRANCH  25  28
ATOM     28  C   UNL     1      -5.400  12.068  29.069  0.00  0.00    +0.175 C 
BRANCH  28  29
ATOM     29  C   UNL     1      -4.277  11.143  29.560  0.00  0.00    +0.176 C 
ATOM     30  O   UNL     1      -4.828   9.805  29.701  0.00  0.00    -0.332 OA
ATOM     31  C   UNL     1      -3.868   8.759  30.063  0.00  0.00    +0.277 C 
ATOM     32  C   UNL     1      -3.103   9.148  31.352  0.00  0.00    +0.110 C 
ATOM     33  C   UNL     1      -2.525  10.576  31.262  0.00  0.00    +0.143 C 
ATOM     34  C   UNL     1      -3.609  11.583  30.877  0.00  0.00    +0.133 C 
BRANCH  34  35
ATOM     35  N   UNL     1      -3.030  12.925  30.709  0.00  0.00    -0.308 N 
ATOM     36  H   UNL     1      -2.336  13.053  29.985  0.00  0.00    +0.149 HD
ATOM     37  C   UNL     1      -3.360  13.986  31.451  0.00  0.00    +0.210 C 
ATOM     38  C   UNL     1      -4.400  13.753  32.563  0.00  0.00    +0.109 C 
ATOM     39  O   UNL     1      -2.868  15.102  31.278  0.00  0.00    -0.276 OA
ENDBRANCH  34  35
BRANCH  31  40
ATOM     40  C   UNL     1      -2.861   8.521  28.919  0.00  0.00    +0.414 C 
ATOM     41  O   UNL     1      -3.114   8.908  27.779  0.00  0.00    -0.240 OA
ATOM     42  O   UNL     1      -1.795   7.942  29.135  0.00  0.00    -0.240 OA
ENDBRANCH  31  40
BRANCH  33  43
ATOM     43  O   UNL     1      -1.963  10.949  32.521  0.00  0.00    -0.390 OA
ATOM     44  H   UNL     1      -2.639  11.361  33.064  0.00  0.00    +0.210 HD
ENDBRANCH  33  43
BRANCH  31  45
ATOM     45  O   UNL     1      -4.609   7.539  30.322  0.00  0.00    -0.343 OA
ATOM     46  C   UNL     1      -4.375   6.944  31.623  0.00  0.00    +0.198 C 
ENDBRANCH  31  45
ENDBRANCH  28  29
BRANCH  28  47
ATOM     47  O   UNL     1      -6.664  11.653  29.626  0.00  0.00    -0.387 OA
ATOM     48  H   UNL     1      -7.139  11.123  28.981  0.00  0.00    +0.210 HD
ENDBRANCH  28  47
ENDBRANCH  25  28
ENDBRANCH   1  25
TORSDOF 19
