REMARK VINA RESULT:    -4.705      6.831      9.725
REMARK INTER + INTRA:         -11.447
REMARK INTER:                  -8.780
REMARK INTRA:                  -2.666
REMARK UNBOUND:                -2.890
REMARK  Name = lig_assembled_73.pdb
REMARK  18 active torsions:
REMARK  status: ('A' for Active; 'I' for Inactive)
REMARK    1  A    between atoms: _2  and  _10
REMARK    2  A    between atoms: _3  and  _14
REMARK    3  A    between atoms: _5  and  _22
REMARK    4  A    between atoms: _7  and  _8
REMARK    5  A    between atoms: _7  and  _22
REMARK    6  A    between atoms: _13  and  _16
REMARK    7  A    between atoms: _18  and  _38
REMARK    8  A    between atoms: _20  and  _26
REMARK    9  A    between atoms: _21  and  _25
REMARK   10  A    between atoms: _25  and  _26
REMARK   11  A    between atoms: _28  and  _29
REMARK   12  A    between atoms: _30  and  _31
REMARK   13  A    between atoms: _32  and  _34
REMARK   14  A    between atoms: _34  and  _35
REMARK   15  A    between atoms: _34  and  _36
REMARK   16  A    between atoms: _36  and  _37
REMARK   17  A    between atoms: _36  and  _38
REMARK   18  A    between atoms: _39  and  _41
REMARK                            x       y       z     vdW  Elec       q    Type
REMARK                         _______ _______ _______ _____ _____    ______ ____
ROOT
ATOM      1  C   UNL     1      -7.414  11.640  15.559  0.00  0.00    +0.163 C 
ENDROOT
BRANCH   1   2
ATOM      2  O   UNL     1      -6.772  12.908  15.347  0.00  0.00    -0.388 OA
ATOM      3  H   UNL     1      -6.953  13.487  16.091  0.00  0.00    +0.210 HD
ENDBRANCH   1   2
BRANCH   1   4
ATOM      4  C   UNL     1      -6.594  10.497  14.938  0.00  0.00    +0.175 C 
BRANCH   4   5
ATOM      5  C   UNL     1      -5.267  10.993  14.346  0.00  0.00    +0.176 C 
ATOM      6  O   UNL     1      -5.553  11.606  13.059  0.00  0.00    -0.332 OA
ATOM      7  C   UNL     1      -4.411  12.236  12.389  0.00  0.00    +0.277 C 
ATOM      8  C   UNL     1      -3.246  11.226  12.241  0.00  0.00    +0.110 C 
ATOM      9  C   UNL     1      -2.926  10.526  13.578  0.00  0.00    +0.143 C 
ATOM     10  C   UNL     1      -4.185   9.908  14.189  0.00  0.00    +0.133 C 
BRANCH  10  11
ATOM     11  N   UNL     1      -3.884   9.320  15.503  0.00  0.00    -0.308 N 
ATOM     12  H   UNL     1      -3.628   9.946  16.253  0.00  0.00    +0.149 HD
ATOM     13  C   UNL     1      -3.928   8.012  15.770  0.00  0.00    +0.210 C 
ATOM     14  C   UNL     1      -4.297   7.081  14.600  0.00  0.00    +0.109 C 
ATOM     15  O   UNL     1      -3.686   7.548  16.885  0.00  0.00    -0.276 OA
ENDBRANCH  10  11
BRANCH   7  16
ATOM     16  C   UNL     1      -3.926  13.470  13.177  0.00  0.00    +0.414 C 
ATOM     17  O   UNL     1      -4.736  14.195  13.754  0.00  0.00    -0.240 OA
ATOM     18  O   UNL     1      -2.726  13.740  13.238  0.00  0.00    -0.240 OA
ENDBRANCH   7  16
BRANCH   9  19
ATOM     19  O   UNL     1      -1.956   9.500  13.364  0.00  0.00    -0.390 OA
ATOM     20  H   UNL     1      -2.318   8.654  13.637  0.00  0.00    +0.210 HD
ENDBRANCH   9  19
BRANCH   7  21
ATOM     21  O   UNL     1      -4.837  12.640  11.062  0.00  0.00    -0.343 OA
ATOM     22  C   UNL     1      -5.301  11.561  10.212  0.00  0.00    +0.198 C 
ENDBRANCH   7  21
ENDBRANCH   4   5
BRANCH   4  23
ATOM     23  O   UNL     1      -7.368   9.823  13.926  0.00  0.00    -0.387 OA
ATOM     24  H   UNL     1      -6.953   9.947  13.069  0.00  0.00    +0.210 HD
ENDBRANCH   4  23
ENDBRANCH   1   4
BRANCH   1  25
ATOM     25  C   UNL     1      -7.590  11.388  17.053  0.00  0.00    +0.141 C 
BRANCH  25  28
ATOM     26  C   UNL     1      -5.506  11.250  18.373  0.00  0.00    +0.401 C 
ATOM     27  O   UNL     1      -5.413  10.025  18.273  0.00  0.00    -0.226 OA
ATOM     28  N   UNL     1      -6.495  11.968  17.839  0.00  0.00    -0.279 N 
ATOM     29  H   UNL     1      -6.489  12.968  17.983  0.00  0.00    +0.152 HD
BRANCH  26  30
ATOM     30  O   UNL     1      -4.507  11.966  19.104  0.00  0.00    -0.444 OA
BRANCH  30  31
ATOM     31  C   UNL     1      -5.058  12.426  20.341  0.00  0.00    +0.292 C 
BRANCH  31  33
ATOM     32  N   UNL     1      -3.294  10.967  21.283  0.00  0.00    -0.131 NA
ATOM     33  C   UNL     1      -4.331  11.833  21.479  0.00  0.00    +0.121 A 
ATOM     34  C   UNL     1      -4.521  12.007  22.830  0.00  0.00    +0.143 A 
ATOM     35  N   UNL     1      -3.560  11.225  23.428  0.00  0.00    -0.220 N 
ATOM     36  N   UNL     1      -2.831  10.603  22.470  0.00  0.00    -0.060 NA
BRANCH  35  37
ATOM     37  C   UNL     1      -3.303  11.032  24.810  0.00  0.00    +0.074 A 
ATOM     38  C   UNL     1      -3.272  12.140  25.675  0.00  0.00    +0.032 A 
ATOM     39  C   UNL     1      -3.010  11.974  27.042  0.00  0.00    +0.054 A 
ATOM     40  C   UNL     1      -2.775  10.701  27.557  0.00  0.00    +0.195 A 
ATOM     41  C   UNL     1      -2.808   9.607  26.695  0.00  0.00    +0.316 A 
ATOM     42  C   UNL     1      -3.075   9.750  25.326  0.00  0.00    +0.116 A 
BRANCH  41  43
ATOM     43  N   UNL     1      -2.557   8.271  27.198  0.00  0.00    +0.083 N 
ATOM     44  O   UNL     1      -1.872   7.514  26.497  0.00  0.00    +0.042 OA
ATOM     45  O   UNL     1      -3.128   7.958  28.253  0.00  0.00    -0.576 OA
ENDBRANCH  41  43
BRANCH  40  46
ATOM     46  O   UNL     1      -2.542  10.539  28.890  0.00  0.00    -0.501 OA
ATOM     47  H   UNL     1      -1.957   9.775  29.036  0.00  0.00    +0.292 HD
ENDBRANCH  40  46
ENDBRANCH  35  37
ENDBRANCH  31  33
ENDBRANCH  30  31
ENDBRANCH  26  30
ENDBRANCH  25  28
ENDBRANCH   1  25
TORSDOF 16
