REMARK VINA RESULT:    -4.558      2.407      4.924
REMARK INTER + INTRA:         -11.876
REMARK INTER:                  -8.555
REMARK INTRA:                  -3.320
REMARK UNBOUND:                -3.320
REMARK  Name = lig_assembled_16.pdb
REMARK  19 active torsions:
REMARK  status: ('A' for Active; 'I' for Inactive)
REMARK    1  A    between atoms: _2  and  _9
REMARK    2  A    between atoms: _4  and  _22
REMARK    3  A    between atoms: _6  and  _7
REMARK    4  A    between atoms: _6  and  _22
REMARK    5  A    between atoms: _9  and  _10
REMARK    6  A    between atoms: _13  and  _14
REMARK    7  A    between atoms: _14  and  _16
REMARK    8  A    between atoms: _18  and  _38
REMARK    9  A    between atoms: _20  and  _26
REMARK   10  A    between atoms: _21  and  _25
REMARK   11  A    between atoms: _25  and  _26
REMARK   12  A    between atoms: _28  and  _29
REMARK   13  A    between atoms: _30  and  _31
REMARK   14  A    between atoms: _32  and  _34
REMARK   15  A    between atoms: _34  and  _35
REMARK   16  A    between atoms: _34  and  _36
REMARK   17  A    between atoms: _36  and  _37
REMARK   18  A    between atoms: _36  and  _38
REMARK   19  A    between atoms: _39  and  _41
REMARK                            x       y       z     vdW  Elec       q    Type
REMARK                         _______ _______ _______ _____ _____    ______ ____
ROOT
ATOM      1  C   UNL     1      -3.936   7.999  24.100  0.00  0.00    +0.163 C 
ENDROOT
BRANCH   1   2
ATOM      2  O   UNL     1      -3.756   7.976  22.675  0.00  0.00    -0.388 OA
ATOM      3  H   UNL     1      -3.640   7.069  22.382  0.00  0.00    +0.210 HD
ENDBRANCH   1   2
BRANCH   1   4
ATOM      4  C   UNL     1      -5.309   8.585  24.471  0.00  0.00    +0.175 C 
BRANCH   4   5
ATOM      5  C   UNL     1      -5.385  10.095  24.202  0.00  0.00    +0.176 C 
ATOM      6  O   UNL     1      -5.389  10.293  22.761  0.00  0.00    -0.332 OA
ATOM      7  C   UNL     1      -5.565  11.677  22.311  0.00  0.00    +0.277 C 
ATOM      8  C   UNL     1      -4.503  12.596  22.963  0.00  0.00    +0.110 C 
ATOM      9  C   UNL     1      -4.439  12.399  24.492  0.00  0.00    +0.143 C 
ATOM     10  C   UNL     1      -4.258  10.923  24.847  0.00  0.00    +0.133 C 
BRANCH  10  11
ATOM     11  N   UNL     1      -4.287  10.737  26.307  0.00  0.00    -0.308 N 
ATOM     12  H   UNL     1      -5.162  10.899  26.786  0.00  0.00    +0.149 HD
ATOM     13  C   UNL     1      -3.233  10.369  27.040  0.00  0.00    +0.210 C 
ATOM     14  C   UNL     1      -1.908  10.156  26.283  0.00  0.00    +0.109 C 
ATOM     15  O   UNL     1      -3.289  10.207  28.259  0.00  0.00    -0.276 OA
ENDBRANCH  10  11
BRANCH   7  16
ATOM     16  C   UNL     1      -6.976  12.191  22.662  0.00  0.00    +0.414 C 
ATOM     17  O   UNL     1      -7.947  11.439  22.585  0.00  0.00    -0.240 OA
ATOM     18  O   UNL     1      -7.145  13.357  23.020  0.00  0.00    -0.240 OA
ENDBRANCH   7  16
BRANCH   7  19
ATOM     19  O   UNL     1      -5.376  11.708  20.873  0.00  0.00    -0.343 OA
ATOM     20  C   UNL     1      -4.259  10.925  20.384  0.00  0.00    +0.198 C 
ENDBRANCH   7  19
BRANCH   9  21
ATOM     21  O   UNL     1      -3.350  13.150  25.030  0.00  0.00    -0.390 OA
ATOM     22  H   UNL     1      -2.657  12.549  25.316  0.00  0.00    +0.210 HD
ENDBRANCH   9  21
ENDBRANCH   4   5
BRANCH   4  23
ATOM     23  O   UNL     1      -5.608   8.312  25.855  0.00  0.00    -0.387 OA
ATOM     24  H   UNL     1      -6.548   8.141  25.952  0.00  0.00    +0.210 HD
ENDBRANCH   4  23
ENDBRANCH   1   4
BRANCH   1  25
ATOM     25  C   UNL     1      -3.815   6.588  24.665  0.00  0.00    +0.141 C 
BRANCH  25  28
ATOM     26  C   UNL     1      -2.007   6.393  26.338  0.00  0.00    +0.401 C 
ATOM     27  O   UNL     1      -1.128   6.177  25.501  0.00  0.00    -0.226 OA
ATOM     28  N   UNL     1      -3.291   6.590  26.037  0.00  0.00    -0.279 N 
ATOM     29  H   UNL     1      -3.940   6.751  26.794  0.00  0.00    +0.152 HD
BRANCH  26  30
ATOM     30  O   UNL     1      -1.652   6.435  27.723  0.00  0.00    -0.444 OA
BRANCH  30  31
ATOM     31  C   UNL     1      -2.633   5.730  28.489  0.00  0.00    +0.292 C 
BRANCH  31  33
ATOM     32  N   UNL     1      -4.750   6.999  28.700  0.00  0.00    -0.131 NA
ATOM     33  C   UNL     1      -3.511   6.680  29.194  0.00  0.00    +0.120 A 
ATOM     34  C   UNL     1      -3.311   7.353  30.379  0.00  0.00    +0.137 A 
ATOM     35  N   UNL     1      -4.499   7.985  30.596  0.00  0.00    -0.247 N 
ATOM     36  N   UNL     1      -5.343   7.815  29.562  0.00  0.00    -0.065 NA
BRANCH  35  37
ATOM     37  C   UNL     1      -4.906   8.740  31.764  0.00  0.00    +0.180 C 
BRANCH  37  38
ATOM     38  C   UNL     1      -4.303  10.127  31.760  0.00  0.00    -0.026 A 
ATOM     39  C   UNL     1      -3.105  10.388  32.440  0.00  0.00    +0.006 A 
ATOM     40  C   UNL     1      -2.532  11.663  32.402  0.00  0.00    +0.015 A 
ATOM     41  C   UNL     1      -3.153  12.695  31.695  0.00  0.00    +0.059 A 
ATOM     42  C   UNL     1      -4.363  12.451  31.029  0.00  0.00    +0.015 A 
ATOM     43  C   UNL     1      -4.937  11.177  31.075  0.00  0.00    +0.006 A 
BRANCH  41  44
ATOM     44  C   UNL     1      -2.464  14.011  31.626  0.00  0.00    +0.337 C 
ATOM     45  O   UNL     1      -3.071  15.068  31.584  0.00  0.00    -0.245 OA
BRANCH  44  46
ATOM     46  O   UNL     1      -1.121  13.929  31.579  0.00  0.00    -0.477 OA
ATOM     47  H   UNL     1      -0.649  14.775  31.681  0.00  0.00    +0.295 HD
ENDBRANCH  44  46
ENDBRANCH  41  44
ENDBRANCH  37  38
ENDBRANCH  35  37
ENDBRANCH  31  33
ENDBRANCH  30  31
ENDBRANCH  26  30
ENDBRANCH  25  28
ENDBRANCH   1  25
TORSDOF 17
