REMARK VINA RESULT:    -5.054      1.516      2.881
REMARK INTER + INTRA:         -11.732
REMARK INTER:                  -9.179
REMARK INTRA:                  -2.552
REMARK UNBOUND:                -2.541
REMARK  Name = lig_assembled_23.pdb
REMARK  18 active torsions:
REMARK  status: ('A' for Active; 'I' for Inactive)
REMARK    1  A    between atoms: _2  and  _10
REMARK    2  A    between atoms: _3  and  _41
REMARK    3  A    between atoms: _5  and  _21
REMARK    4  A    between atoms: _7  and  _8
REMARK    5  A    between atoms: _7  and  _21
REMARK    6  A    between atoms: _12  and  _41
REMARK    7  A    between atoms: _17  and  _37
REMARK    8  A    between atoms: _19  and  _25
REMARK    9  A    between atoms: _20  and  _24
REMARK   10  A    between atoms: _24  and  _25
REMARK   11  A    between atoms: _27  and  _28
REMARK   12  A    between atoms: _29  and  _30
REMARK   13  A    between atoms: _31  and  _33
REMARK   14  A    between atoms: _33  and  _34
REMARK   15  A    between atoms: _33  and  _35
REMARK   16  A    between atoms: _35  and  _36
REMARK   17  A    between atoms: _35  and  _37
REMARK   18  A    between atoms: _38  and  _40
REMARK                            x       y       z     vdW  Elec       q    Type
REMARK                         _______ _______ _______ _____ _____    ______ ____
ROOT
ATOM      1  C   UNL     1      -5.128   8.569  24.036  0.00  0.00    +0.141 C 
ENDROOT
BRANCH   1   4
ATOM      2  C   UNL     1      -4.267  10.226  22.417  0.00  0.00    +0.401 C 
ATOM      3  O   UNL     1      -3.111   9.800  22.454  0.00  0.00    -0.226 OA
ATOM      4  N   UNL     1      -5.273   9.714  23.129  0.00  0.00    -0.279 N 
ATOM      5  H   UNL     1      -6.185  10.138  23.038  0.00  0.00    +0.152 HD
BRANCH   2   6
ATOM      6  O   UNL     1      -4.572  11.337  21.571  0.00  0.00    -0.444 OA
BRANCH   6   7
ATOM      7  C   UNL     1      -5.693  11.015  20.743  0.00  0.00    +0.292 C 
BRANCH   7   9
ATOM      8  N   UNL     1      -5.304   9.038  19.309  0.00  0.00    -0.131 NA
ATOM      9  C   UNL     1      -5.239  10.390  19.488  0.00  0.00    +0.121 A 
ATOM     10  C   UNL     1      -4.714  10.968  18.354  0.00  0.00    +0.143 A 
ATOM     11  N   UNL     1      -4.480   9.918  17.496  0.00  0.00    -0.220 N 
ATOM     12  N   UNL     1      -4.838   8.759  18.100  0.00  0.00    -0.060 NA
BRANCH  11  13
ATOM     13  C   UNL     1      -3.943   9.942  16.183  0.00  0.00    +0.069 A 
ATOM     14  C   UNL     1      -3.351   8.784  15.659  0.00  0.00    +0.056 A 
ATOM     15  C   UNL     1      -2.789   8.814  14.377  0.00  0.00    +0.107 A 
ATOM     16  C   UNL     1      -2.834   9.974  13.602  0.00  0.00    +0.028 A 
ATOM     17  C   UNL     1      -3.436  11.120  14.119  0.00  0.00    +0.004 A 
ATOM     18  C   UNL     1      -3.986  11.109  15.406  0.00  0.00    +0.028 A 
BRANCH  15  19
ATOM     19  S   UNL     1      -1.996   7.363  13.756  0.00  0.00    +0.056 S 
ATOM     20  O   UNL     1      -1.738   7.541  12.346  0.00  0.00    -0.153 OA
ATOM     21  O   UNL     1      -0.978   6.939  14.689  0.00  0.00    -0.153 OA
BRANCH  19  22
ATOM     22  N   UNL     1      -3.218   6.217  13.879  0.00  0.00    -0.204 NA
ATOM     23  H   UNL     1      -3.839   6.452  14.652  0.00  0.00    +0.144 HD
ATOM     24  H   UNL     1      -2.814   5.281  13.940  0.00  0.00    +0.144 HD
ENDBRANCH  19  22
ENDBRANCH  15  19
ENDBRANCH  11  13
ENDBRANCH   7   9
ENDBRANCH   6   7
ENDBRANCH   2   6
ENDBRANCH   1   4
BRANCH   1  25
ATOM     25  C   UNL     1      -5.226   8.986  25.499  0.00  0.00    +0.163 C 
BRANCH  25  26
ATOM     26  O   UNL     1      -6.215   8.191  26.172  0.00  0.00    -0.388 OA
ATOM     27  H   UNL     1      -7.025   8.181  25.656  0.00  0.00    +0.210 HD
ENDBRANCH  25  26
BRANCH  25  28
ATOM     28  C   UNL     1      -3.849   8.835  26.169  0.00  0.00    +0.175 C 
BRANCH  28  29
ATOM     29  C   UNL     1      -3.747   9.647  27.469  0.00  0.00    +0.176 C 
ATOM     30  O   UNL     1      -4.575   8.994  28.471  0.00  0.00    -0.332 OA
ATOM     31  C   UNL     1      -4.518   9.574  29.816  0.00  0.00    +0.277 C 
ATOM     32  C   UNL     1      -4.849  11.085  29.768  0.00  0.00    +0.110 C 
ATOM     33  C   UNL     1      -4.016  11.817  28.695  0.00  0.00    +0.143 C 
ATOM     34  C   UNL     1      -4.146  11.129  27.336  0.00  0.00    +0.133 C 
BRANCH  34  35
ATOM     35  N   UNL     1      -3.280  11.783  26.342  0.00  0.00    -0.308 N 
ATOM     36  H   UNL     1      -2.284  11.628  26.410  0.00  0.00    +0.149 HD
ATOM     37  C   UNL     1      -3.724  12.569  25.358  0.00  0.00    +0.210 C 
ATOM     38  C   UNL     1      -5.245  12.807  25.299  0.00  0.00    +0.109 C 
ATOM     39  O   UNL     1      -2.977  13.092  24.531  0.00  0.00    -0.276 OA
ENDBRANCH  34  35
BRANCH  31  40
ATOM     40  C   UNL     1      -3.122   9.371  30.440  0.00  0.00    +0.414 C 
ATOM     41  O   UNL     1      -2.431   8.406  30.115  0.00  0.00    -0.240 OA
ATOM     42  O   UNL     1      -2.686  10.172  31.268  0.00  0.00    -0.240 OA
ENDBRANCH  31  40
BRANCH  33  43
ATOM     43  O   UNL     1      -4.459  13.170  28.582  0.00  0.00    -0.390 OA
ATOM     44  H   UNL     1      -5.419  13.194  28.574  0.00  0.00    +0.210 HD
ENDBRANCH  33  43
BRANCH  31  45
ATOM     45  O   UNL     1      -5.518   8.912  30.632  0.00  0.00    -0.343 OA
ATOM     46  C   UNL     1      -6.172   7.781  30.003  0.00  0.00    +0.198 C 
ENDBRANCH  31  45
ENDBRANCH  28  29
BRANCH  28  47
ATOM     47  O   UNL     1      -2.806   9.228  25.255  0.00  0.00    -0.387 OA
ATOM     48  H   UNL     1      -3.017  10.085  24.877  0.00  0.00    +0.210 HD
ENDBRANCH  28  47
ENDBRANCH  25  28
ENDBRANCH   1  25
TORSDOF 16
