REMARK VINA RESULT:    -5.326      6.231     11.184
REMARK INTER + INTRA:         -11.055
REMARK INTER:                  -8.357
REMARK INTRA:                  -2.698
REMARK UNBOUND:                -1.837
REMARK  Name = lig_assembled_2.pdb
REMARK  16 active torsions:
REMARK  status: ('A' for Active; 'I' for Inactive)
REMARK    1  A    between atoms: _2  and  _9
REMARK    2  A    between atoms: _4  and  _18
REMARK    3  A    between atoms: _6  and  _7
REMARK    4  A    between atoms: _6  and  _18
REMARK    5  A    between atoms: _14  and  _34
REMARK    6  A    between atoms: _16  and  _22
REMARK    7  A    between atoms: _17  and  _21
REMARK    8  A    between atoms: _21  and  _22
REMARK    9  A    between atoms: _24  and  _25
REMARK   10  A    between atoms: _26  and  _27
REMARK   11  A    between atoms: _28  and  _30
REMARK   12  A    between atoms: _30  and  _31
REMARK   13  A    between atoms: _30  and  _32
REMARK   14  A    between atoms: _32  and  _33
REMARK   15  A    between atoms: _32  and  _34
REMARK   16  A    between atoms: _35  and  _37
REMARK                            x       y       z     vdW  Elec       q    Type
REMARK                         _______ _______ _______ _____ _____    ______ ____
ROOT
ATOM      1  C   UNL     1      -3.034  12.045  24.142  0.00  0.00    +0.163 C 
ENDROOT
BRANCH   1   2
ATOM      2  O   UNL     1      -2.096  11.919  25.223  0.00  0.00    -0.388 OA
ATOM      3  H   UNL     1      -1.530  12.695  25.249  0.00  0.00    +0.210 HD
ENDBRANCH   1   2
BRANCH   1   4
ATOM      4  C   UNL     1      -4.028  13.161  24.441  0.00  0.00    +0.141 C 
BRANCH   4   7
ATOM      5  C   UNL     1      -5.011  14.043  22.352  0.00  0.00    +0.401 C 
ATOM      6  O   UNL     1      -4.066  14.800  22.116  0.00  0.00    -0.226 OA
ATOM      7  N   UNL     1      -5.079  13.247  23.420  0.00  0.00    -0.279 N 
ATOM      8  H   UNL     1      -5.901  12.669  23.532  0.00  0.00    +0.152 HD
BRANCH   5   9
ATOM      9  O   UNL     1      -6.114  14.005  21.443  0.00  0.00    -0.444 OA
BRANCH   9  10
ATOM     10  C   UNL     1      -6.656  12.682  21.405  0.00  0.00    +0.292 C 
BRANCH  10  12
ATOM     11  N   UNL     1      -5.128  10.793  20.941  0.00  0.00    -0.131 NA
ATOM     12  C   UNL     1      -5.878  11.836  20.481  0.00  0.00    +0.121 A 
ATOM     13  C   UNL     1      -5.765  11.902  19.111  0.00  0.00    +0.143 A 
ATOM     14  N   UNL     1      -4.947  10.849  18.772  0.00  0.00    -0.220 N 
ATOM     15  N   UNL     1      -4.559  10.203  19.898  0.00  0.00    -0.060 NA
BRANCH  14  16
ATOM     16  C   UNL     1      -4.547  10.416  17.480  0.00  0.00    +0.067 A 
ATOM     17  C   UNL     1      -4.583   9.058  17.132  0.00  0.00    +0.029 A 
ATOM     18  C   UNL     1      -4.150   8.648  15.866  0.00  0.00    +0.022 A 
ATOM     19  C   UNL     1      -3.683   9.588  14.949  0.00  0.00    +0.041 A 
ATOM     20 CL   UNL     1      -3.131   9.072  13.405  0.00  0.00    -0.084 Cl
ATOM     21  C   UNL     1      -3.657  10.941  15.280  0.00  0.00    +0.022 A 
ATOM     22  C   UNL     1      -4.089  11.358  16.543  0.00  0.00    +0.029 A 
ENDBRANCH  14  16
ENDBRANCH  10  12
ENDBRANCH   9  10
ENDBRANCH   5   9
ENDBRANCH   4   7
ENDBRANCH   1   4
BRANCH   1  23
ATOM     23  C   UNL     1      -3.793  10.726  23.916  0.00  0.00    +0.175 C 
BRANCH  23  24
ATOM     24  C   UNL     1      -3.939   9.914  25.212  0.00  0.00    +0.176 C 
ATOM     25  O   UNL     1      -2.879   8.919  25.237  0.00  0.00    -0.332 OA
ATOM     26  C   UNL     1      -2.794   8.113  26.458  0.00  0.00    +0.277 C 
ATOM     27  C   UNL     1      -4.155   7.437  26.756  0.00  0.00    +0.110 C 
ATOM     28  C   UNL     1      -5.317   8.450  26.709  0.00  0.00    +0.143 C 
ATOM     29  C   UNL     1      -5.308   9.235  25.396  0.00  0.00    +0.133 C 
BRANCH  29  30
ATOM     30  N   UNL     1      -6.367  10.257  25.400  0.00  0.00    -0.308 N 
ATOM     31  H   UNL     1      -6.349  10.952  26.133  0.00  0.00    +0.149 HD
ATOM     32  C   UNL     1      -7.350  10.326  24.498  0.00  0.00    +0.210 C 
ATOM     33  C   UNL     1      -7.365   9.237  23.409  0.00  0.00    +0.109 C 
ATOM     34  O   UNL     1      -8.215  11.202  24.517  0.00  0.00    -0.276 OA
ENDBRANCH  29  30
BRANCH  26  35
ATOM     35  C   UNL     1      -2.379   8.986  27.661  0.00  0.00    +0.414 C 
ATOM     36  O   UNL     1      -1.705  10.001  27.488  0.00  0.00    -0.240 OA
ATOM     37  O   UNL     1      -2.718   8.676  28.804  0.00  0.00    -0.240 OA
ENDBRANCH  26  35
BRANCH  28  38
ATOM     38  O   UNL     1      -6.562   7.762  26.837  0.00  0.00    -0.390 OA
ATOM     39  H   UNL     1      -6.478   7.067  27.494  0.00  0.00    +0.210 HD
ENDBRANCH  28  38
BRANCH  26  40
ATOM     40  O   UNL     1      -1.804   7.075  26.244  0.00  0.00    -0.343 OA
ATOM     41  C   UNL     1      -2.032   5.849  26.984  0.00  0.00    +0.198 C 
ENDBRANCH  26  40
ENDBRANCH  23  24
BRANCH  23  42
ATOM     42  O   UNL     1      -3.131   9.938  22.907  0.00  0.00    -0.387 OA
ATOM     43  H   UNL     1      -3.564   9.084  22.833  0.00  0.00    +0.210 HD
ENDBRANCH  23  42
ENDBRANCH   1  23
TORSDOF 14
