REMARK VINA RESULT:    -4.391      4.660      9.443
REMARK INTER + INTRA:         -10.512
REMARK INTER:                  -7.908
REMARK INTRA:                  -2.604
REMARK UNBOUND:                -2.913
REMARK  Name = lig_assembled_93.pdb
REMARK  16 active torsions:
REMARK  status: ('A' for Active; 'I' for Inactive)
REMARK    1  A    between atoms: _2  and  _9
REMARK    2  A    between atoms: _4  and  _18
REMARK    3  A    between atoms: _6  and  _7
REMARK    4  A    between atoms: _6  and  _18
REMARK    5  A    between atoms: _14  and  _34
REMARK    6  A    between atoms: _16  and  _22
REMARK    7  A    between atoms: _17  and  _21
REMARK    8  A    between atoms: _21  and  _22
REMARK    9  A    between atoms: _24  and  _25
REMARK   10  A    between atoms: _26  and  _27
REMARK   11  A    between atoms: _28  and  _30
REMARK   12  A    between atoms: _30  and  _31
REMARK   13  A    between atoms: _30  and  _32
REMARK   14  A    between atoms: _32  and  _33
REMARK   15  A    between atoms: _32  and  _34
REMARK   16  A    between atoms: _35  and  _37
REMARK                            x       y       z     vdW  Elec       q    Type
REMARK                         _______ _______ _______ _____ _____    ______ ____
ROOT
ATOM      1  C   UNL     1      -6.425   9.445  23.453  0.00  0.00    +0.163 C 
ENDROOT
BRANCH   1   2
ATOM      2  O   UNL     1      -7.094   9.408  24.724  0.00  0.00    -0.388 OA
ATOM      3  H   UNL     1      -6.831  10.169  25.247  0.00  0.00    +0.210 HD
ENDBRANCH   1   2
BRANCH   1   4
ATOM      4  C   UNL     1      -7.305   8.810  22.381  0.00  0.00    +0.141 C 
BRANCH   4   7
ATOM      5  C   UNL     1      -6.911   9.416  20.019  0.00  0.00    +0.401 C 
ATOM      6  O   UNL     1      -6.219   8.423  19.781  0.00  0.00    -0.226 OA
ATOM      7  N   UNL     1      -7.453   9.679  21.208  0.00  0.00    -0.279 N 
ATOM      8  H   UNL     1      -7.997  10.525  21.307  0.00  0.00    +0.152 HD
BRANCH   5   9
ATOM      9  O   UNL     1      -7.155  10.358  18.971  0.00  0.00    -0.444 OA
BRANCH   9  10
ATOM     10  C   UNL     1      -7.054   9.701  17.705  0.00  0.00    +0.292 C 
BRANCH  10  12
ATOM     11  N   UNL     1      -4.654   9.941  17.184  0.00  0.00    -0.131 NA
ATOM     12  C   UNL     1      -5.945  10.273  16.919  0.00  0.00    +0.121 A 
ATOM     13  C   UNL     1      -5.968  11.155  15.864  0.00  0.00    +0.143 A 
ATOM     14  N   UNL     1      -4.645  11.329  15.494  0.00  0.00    -0.219 N 
ATOM     15  N   UNL     1      -3.880  10.586  16.325  0.00  0.00    -0.060 NA
BRANCH  14  16
ATOM     16  C   UNL     1      -4.123  12.123  14.425  0.00  0.00    +0.080 A 
ATOM     17  C   UNL     1      -3.763  13.460  14.718  0.00  0.00    +0.029 A 
ATOM     18  C   UNL     1      -3.262  14.320  13.737  0.00  0.00    +0.002 A 
ATOM     19  C   UNL     1      -3.105  13.870  12.437  0.00  0.00    +0.001 A 
ATOM     20  C   UNL     1      -3.445  12.557  12.121  0.00  0.00    +0.016 A 
ATOM     21  C   UNL     1      -3.951  11.674  13.099  0.00  0.00    +0.039 A 
ATOM     22  I   UNL     1      -4.366   9.754  12.312  0.00  0.00    -0.042 I 
ENDBRANCH  14  16
ENDBRANCH  10  12
ENDBRANCH   9  10
ENDBRANCH   5   9
ENDBRANCH   4   7
ENDBRANCH   1   4
BRANCH   1  23
ATOM     23  C   UNL     1      -5.078   8.704  23.517  0.00  0.00    +0.175 C 
BRANCH  23  24
ATOM     24  C   UNL     1      -3.992   9.539  24.211  0.00  0.00    +0.176 C 
ATOM     25  O   UNL     1      -4.304   9.588  25.631  0.00  0.00    -0.332 OA
ATOM     26  C   UNL     1      -3.312  10.260  26.475  0.00  0.00    +0.277 C 
ATOM     27  C   UNL     1      -3.034  11.690  25.951  0.00  0.00    +0.110 C 
ATOM     28  C   UNL     1      -2.728  11.693  24.438  0.00  0.00    +0.143 C 
ATOM     29  C   UNL     1      -3.823  10.966  23.656  0.00  0.00    +0.133 C 
BRANCH  29  30
ATOM     30  N   UNL     1      -3.477  10.899  22.227  0.00  0.00    -0.308 N 
ATOM     31  H   UNL     1      -2.713  10.297  21.954  0.00  0.00    +0.149 HD
ATOM     32  C   UNL     1      -4.107  11.582  21.267  0.00  0.00    +0.210 C 
ATOM     33  C   UNL     1      -5.250  12.511  21.719  0.00  0.00    +0.109 C 
ATOM     34  O   UNL     1      -3.805  11.495  20.077  0.00  0.00    -0.276 OA
ENDBRANCH  29  30
BRANCH  26  35
ATOM     35  C   UNL     1      -1.994   9.459  26.512  0.00  0.00    +0.414 C 
ATOM     36  O   UNL     1      -0.913  10.046  26.567  0.00  0.00    -0.240 OA
ATOM     37  O   UNL     1      -2.010   8.228  26.488  0.00  0.00    -0.240 OA
ENDBRANCH  26  35
BRANCH  28  38
ATOM     38  O   UNL     1      -2.629  13.038  23.969  0.00  0.00    -0.390 OA
ATOM     39  H   UNL     1      -2.553  13.634  24.718  0.00  0.00    +0.210 HD
ENDBRANCH  28  38
BRANCH  26  40
ATOM     40  O   UNL     1      -3.859  10.362  27.815  0.00  0.00    -0.343 OA
ATOM     41  C   UNL     1      -3.924  11.709  28.348  0.00  0.00    +0.198 C 
ENDBRANCH  26  40
ENDBRANCH  23  24
BRANCH  23  42
ATOM     42  O   UNL     1      -4.650   8.336  22.191  0.00  0.00    -0.387 OA
ATOM     43  H   UNL     1      -4.665   7.380  22.104  0.00  0.00    +0.210 HD
ENDBRANCH  23  42
ENDBRANCH   1  23
TORSDOF 14
