REMARK VINA RESULT:    -4.660      2.640      5.221
REMARK INTER + INTRA:         -10.573
REMARK INTER:                  -7.107
REMARK INTRA:                  -3.465
REMARK UNBOUND:                -2.508
REMARK  Name = lig_assembled_48.pdb
REMARK  16 active torsions:
REMARK  status: ('A' for Active; 'I' for Inactive)
REMARK    1  A    between atoms: _2  and  _9
REMARK    2  A    between atoms: _4  and  _18
REMARK    3  A    between atoms: _6  and  _7
REMARK    4  A    between atoms: _6  and  _18
REMARK    5  A    between atoms: _14  and  _34
REMARK    6  A    between atoms: _16  and  _22
REMARK    7  A    between atoms: _17  and  _21
REMARK    8  A    between atoms: _21  and  _22
REMARK    9  A    between atoms: _24  and  _25
REMARK   10  A    between atoms: _26  and  _27
REMARK   11  A    between atoms: _28  and  _30
REMARK   12  A    between atoms: _30  and  _31
REMARK   13  A    between atoms: _30  and  _32
REMARK   14  A    between atoms: _32  and  _33
REMARK   15  A    between atoms: _32  and  _34
REMARK   16  A    between atoms: _35  and  _37
REMARK                            x       y       z     vdW  Elec       q    Type
REMARK                         _______ _______ _______ _____ _____    ______ ____
ROOT
ATOM      1  C   UNL     1      -6.726   8.146  29.377  0.00  0.00    +0.163 C 
ENDROOT
BRANCH   1   2
ATOM      2  O   UNL     1      -6.157   7.131  28.534  0.00  0.00    -0.388 OA
ATOM      3  H   UNL     1      -6.851   6.542  28.229  0.00  0.00    +0.210 HD
ENDBRANCH   1   2
BRANCH   1   4
ATOM      4  C   UNL     1      -7.948   8.760  28.703  0.00  0.00    +0.141 C 
BRANCH   4   7
ATOM      5  C   UNL     1      -7.725   9.754  26.451  0.00  0.00    +0.401 C 
ATOM      6  O   UNL     1      -7.671  10.914  26.866  0.00  0.00    -0.226 OA
ATOM      7  N   UNL     1      -7.860   8.686  27.239  0.00  0.00    -0.279 N 
ATOM      8  H   UNL     1      -7.905   7.775  26.804  0.00  0.00    +0.152 HD
BRANCH   5   9
ATOM      9  O   UNL     1      -7.645   9.515  25.044  0.00  0.00    -0.444 OA
BRANCH   9  10
ATOM     10  C   UNL     1      -6.604   8.571  24.778  0.00  0.00    +0.292 C 
BRANCH  10  12
ATOM     11  N   UNL     1      -4.837   8.696  23.054  0.00  0.00    -0.131 NA
ATOM     12  C   UNL     1      -5.459   9.246  24.140  0.00  0.00    +0.120 A 
ATOM     13  C   UNL     1      -4.855  10.446  24.444  0.00  0.00    +0.137 A 
ATOM     14  N   UNL     1      -3.936  10.619  23.452  0.00  0.00    -0.248 N 
ATOM     15  N   UNL     1      -3.881   9.525  22.664  0.00  0.00    -0.065 NA
BRANCH  14  16
ATOM     16  C   UNL     1      -3.104  11.769  23.116  0.00  0.00    +0.109 C 
ATOM     17  C   UNL     1      -3.269  12.157  21.634  0.00  0.00    +0.027 C 
ATOM     18  C   UNL     1      -4.627  12.804  21.374  0.00  0.00    +0.002 C 
ATOM     19  C   UNL     1      -4.798  14.064  22.214  0.00  0.00    +0.000 C 
ATOM     20  C   UNL     1      -4.578  13.808  23.703  0.00  0.00    +0.002 C 
ATOM     21  C   UNL     1      -3.298  13.018  23.999  0.00  0.00    +0.027 C 
ENDBRANCH  14  16
ENDBRANCH  10  12
ENDBRANCH   9  10
ENDBRANCH   5   9
ENDBRANCH   4   7
ENDBRANCH   1   4
BRANCH   1  22
ATOM     22  C   UNL     1      -5.697   9.250  29.680  0.00  0.00    +0.175 C 
BRANCH  22  23
ATOM     23  C   UNL     1      -4.585   9.309  28.623  0.00  0.00    +0.176 C 
ATOM     24  O   UNL     1      -3.566   8.340  28.991  0.00  0.00    -0.332 OA
ATOM     25  C   UNL     1      -2.467   8.180  28.033  0.00  0.00    +0.277 C 
ATOM     26  C   UNL     1      -1.806   9.548  27.736  0.00  0.00    +0.110 C 
ATOM     27  C   UNL     1      -2.854  10.621  27.370  0.00  0.00    +0.143 C 
ATOM     28  C   UNL     1      -3.951  10.700  28.432  0.00  0.00    +0.133 C 
BRANCH  28  29
ATOM     29  N   UNL     1      -4.989  11.662  28.031  0.00  0.00    -0.308 N 
ATOM     30  H   UNL     1      -5.574  11.423  27.243  0.00  0.00    +0.149 HD
ATOM     31  C   UNL     1      -5.207  12.831  28.639  0.00  0.00    +0.210 C 
ATOM     32  C   UNL     1      -4.281  13.178  29.820  0.00  0.00    +0.109 C 
ATOM     33  O   UNL     1      -6.093  13.612  28.289  0.00  0.00    -0.276 OA
ENDBRANCH  28  29
BRANCH  25  34
ATOM     34  C   UNL     1      -2.976   7.557  26.716  0.00  0.00    +0.414 C 
ATOM     35  O   UNL     1      -3.985   6.853  26.713  0.00  0.00    -0.240 OA
ATOM     36  O   UNL     1      -2.378   7.758  25.659  0.00  0.00    -0.240 OA
ENDBRANCH  25  34
BRANCH  27  37
ATOM     37  O   UNL     1      -2.219  11.895  27.253  0.00  0.00    -0.390 OA
ATOM     38  H   UNL     1      -2.885  12.586  27.257  0.00  0.00    +0.210 HD
ENDBRANCH  27  37
BRANCH  25  39
ATOM     39  O   UNL     1      -1.472   7.312  28.632  0.00  0.00    -0.343 OA
ATOM     40  C   UNL     1      -1.882   6.671  29.866  0.00  0.00    +0.198 C 
ENDBRANCH  25  39
ENDBRANCH  22  23
BRANCH  22  41
ATOM     41  O   UNL     1      -5.128   9.052  30.989  0.00  0.00    -0.387 OA
ATOM     42  H   UNL     1      -4.497   8.328  30.958  0.00  0.00    +0.210 HD
ENDBRANCH  22  41
ENDBRANCH   1  22
TORSDOF 14
