REMARK VINA RESULT:    -4.982      4.833      9.473
REMARK INTER + INTRA:         -11.804
REMARK INTER:                  -7.766
REMARK INTRA:                  -4.038
REMARK UNBOUND:                -2.453
REMARK  Name = lig_assembled_75.pdb
REMARK  19 active torsions:
REMARK  status: ('A' for Active; 'I' for Inactive)
REMARK    1  A    between atoms: _2  and  _9
REMARK    2  A    between atoms: _4  and  _23
REMARK    3  A    between atoms: _6  and  _7
REMARK    4  A    between atoms: _6  and  _23
REMARK    5  A    between atoms: _11  and  _12
REMARK    6  A    between atoms: _13  and  _14
REMARK    7  A    between atoms: _14  and  _17
REMARK    8  A    between atoms: _19  and  _39
REMARK    9  A    between atoms: _21  and  _27
REMARK   10  A    between atoms: _22  and  _26
REMARK   11  A    between atoms: _26  and  _27
REMARK   12  A    between atoms: _29  and  _30
REMARK   13  A    between atoms: _31  and  _32
REMARK   14  A    between atoms: _33  and  _35
REMARK   15  A    between atoms: _35  and  _36
REMARK   16  A    between atoms: _35  and  _37
REMARK   17  A    between atoms: _37  and  _38
REMARK   18  A    between atoms: _37  and  _39
REMARK   19  A    between atoms: _40  and  _42
REMARK                            x       y       z     vdW  Elec       q    Type
REMARK                         _______ _______ _______ _____ _____    ______ ____
ROOT
ATOM      1  C   UNL     1      -8.124  11.634  23.414  0.00  0.00    +0.141 C 
ENDROOT
BRANCH   1   4
ATOM      2  C   UNL     1      -6.510  10.008  22.488  0.00  0.00    +0.401 C 
ATOM      3  O   UNL     1      -6.201  10.718  21.528  0.00  0.00    -0.226 OA
ATOM      4  N   UNL     1      -7.404  10.354  23.415  0.00  0.00    -0.279 N 
ATOM      5  H   UNL     1      -7.597   9.700  24.160  0.00  0.00    +0.152 HD
BRANCH   2   6
ATOM      6  O   UNL     1      -5.886   8.730  22.635  0.00  0.00    -0.444 OA
BRANCH   6   7
ATOM      7  C   UNL     1      -6.324   8.121  23.853  0.00  0.00    +0.292 C 
BRANCH   7   9
ATOM      8  N   UNL     1      -3.911   8.190  24.387  0.00  0.00    -0.131 NA
ATOM      9  C   UNL     1      -5.197   7.987  24.795  0.00  0.00    +0.121 A 
ATOM     10  C   UNL     1      -5.201   7.664  26.132  0.00  0.00    +0.143 A 
ATOM     11  N   UNL     1      -3.878   7.679  26.506  0.00  0.00    -0.220 N 
ATOM     12  N   UNL     1      -3.114   7.999  25.430  0.00  0.00    -0.060 NA
BRANCH  11  13
ATOM     13  C   UNL     1      -3.306   7.391  27.771  0.00  0.00    +0.068 A 
ATOM     14  C   UNL     1      -3.476   8.302  28.828  0.00  0.00    +0.035 A 
ATOM     15  C   UNL     1      -2.869   8.081  30.072  0.00  0.00    -0.023 A 
ATOM     16  C   UNL     1      -2.141   6.900  30.264  0.00  0.00    +0.008 A 
ATOM     17  C   UNL     1      -1.987   5.980  29.225  0.00  0.00    +0.003 A 
ATOM     18  C   UNL     1      -2.559   6.226  27.978  0.00  0.00    +0.028 A 
BRANCH  15  19
ATOM     19  C   UNL     1      -2.985   9.032  31.188  0.00  0.00    +0.015 C 
ATOM     20  C   UNL     1      -2.694  10.339  31.088  0.00  0.00    +0.092 C 
BRANCH  20  21
ATOM     21  C   UNL     1      -2.791  11.203  32.279  0.00  0.00    +0.330 C 
ATOM     22  O   UNL     1      -3.682  11.146  33.108  0.00  0.00    -0.246 OA
BRANCH  21  23
ATOM     23  O   UNL     1      -1.761  12.069  32.359  0.00  0.00    -0.478 OA
ATOM     24  H   UNL     1      -0.949  11.803  31.892  0.00  0.00    +0.295 HD
ENDBRANCH  21  23
ENDBRANCH  20  21
ENDBRANCH  15  19
ENDBRANCH  11  13
ENDBRANCH   7   9
ENDBRANCH   6   7
ENDBRANCH   2   6
ENDBRANCH   1   4
BRANCH   1  25
ATOM     25  C   UNL     1      -7.858  12.437  24.682  0.00  0.00    +0.163 C 
BRANCH  25  26
ATOM     26  O   UNL     1      -8.221  11.665  25.838  0.00  0.00    -0.388 OA
ATOM     27  H   UNL     1      -8.613  12.241  26.499  0.00  0.00    +0.210 HD
ENDBRANCH  25  26
BRANCH  25  28
ATOM     28  C   UNL     1      -6.374  12.841  24.734  0.00  0.00    +0.175 C 
BRANCH  28  29
ATOM     29  C   UNL     1      -5.642  12.202  25.923  0.00  0.00    +0.176 C 
ATOM     30  O   UNL     1      -5.965  12.973  27.113  0.00  0.00    -0.332 OA
ATOM     31  C   UNL     1      -5.435  12.444  28.374  0.00  0.00    +0.277 C 
ATOM     32  C   UNL     1      -3.903  12.248  28.277  0.00  0.00    +0.110 C 
ATOM     33  C   UNL     1      -3.508  11.461  27.009  0.00  0.00    +0.143 C 
ATOM     34  C   UNL     1      -4.115  12.096  25.758  0.00  0.00    +0.133 C 
BRANCH  34  35
ATOM     35  N   UNL     1      -3.804  11.288  24.568  0.00  0.00    -0.308 N 
ATOM     36  H   UNL     1      -3.977  10.293  24.615  0.00  0.00    +0.149 HD
ATOM     37  C   UNL     1      -3.309  11.783  23.430  0.00  0.00    +0.210 C 
ATOM     38  C   UNL     1      -3.033  13.298  23.400  0.00  0.00    +0.109 C 
ATOM     39  O   UNL     1      -3.072  11.084  22.444  0.00  0.00    -0.276 OA
ENDBRANCH  34  35
BRANCH  31  40
ATOM     40  C   UNL     1      -6.106  11.100  28.727  0.00  0.00    +0.414 C 
ATOM     41  O   UNL     1      -6.744  10.482  27.876  0.00  0.00    -0.240 OA
ATOM     42  O   UNL     1      -6.008  10.634  29.863  0.00  0.00    -0.240 OA
ENDBRANCH  31  40
BRANCH  31  43
ATOM     43  O   UNL     1      -5.707  13.415  29.417  0.00  0.00    -0.343 OA
ATOM     44  C   UNL     1      -4.574  13.740  30.261  0.00  0.00    +0.198 C 
ENDBRANCH  31  43
BRANCH  33  45
ATOM     45  O   UNL     1      -2.086  11.435  26.881  0.00  0.00    -0.390 OA
ATOM     46  H   UNL     1      -1.684  11.540  27.747  0.00  0.00    +0.210 HD
ENDBRANCH  33  45
ENDBRANCH  28  29
BRANCH  28  47
ATOM     47  O   UNL     1      -6.252  14.276  24.788  0.00  0.00    -0.387 OA
ATOM     48  H   UNL     1      -5.323  14.520  24.760  0.00  0.00    +0.210 HD
ENDBRANCH  28  47
ENDBRANCH  25  28
ENDBRANCH   1  25
TORSDOF 17
