REMARK VINA RESULT:    -5.534      4.790      6.525
REMARK INTER + INTRA:         -12.244
REMARK INTER:                 -10.174
REMARK INTRA:                  -2.069
REMARK UNBOUND:                -1.695
REMARK  Name = lig_assembled_12.pdb
REMARK  19 active torsions:
REMARK  status: ('A' for Active; 'I' for Inactive)
REMARK    1  A    between atoms: _2  and  _9
REMARK    2  A    between atoms: _4  and  _21
REMARK    3  A    between atoms: _6  and  _7
REMARK    4  A    between atoms: _6  and  _21
REMARK    5  A    between atoms: _9  and  _16
REMARK    6  A    between atoms: _10  and  _11
REMARK    7  A    between atoms: _10  and  _16
REMARK    8  A    between atoms: _17  and  _37
REMARK    9  A    between atoms: _19  and  _25
REMARK   10  A    between atoms: _20  and  _24
REMARK   11  A    between atoms: _24  and  _25
REMARK   12  A    between atoms: _27  and  _28
REMARK   13  A    between atoms: _29  and  _30
REMARK   14  A    between atoms: _31  and  _33
REMARK   15  A    between atoms: _33  and  _34
REMARK   16  A    between atoms: _33  and  _35
REMARK   17  A    between atoms: _35  and  _36
REMARK   18  A    between atoms: _35  and  _37
REMARK   19  A    between atoms: _38  and  _40
REMARK                            x       y       z     vdW  Elec       q    Type
REMARK                         _______ _______ _______ _____ _____    ______ ____
ROOT
ATOM      1  C   UNL     1      -4.130  11.285  21.544  0.00  0.00    +0.163 C 
ENDROOT
BRANCH   1   2
ATOM      2  O   UNL     1      -3.968   9.880  21.290  0.00  0.00    -0.388 OA
ATOM      3  H   UNL     1      -4.712   9.559  20.774  0.00  0.00    +0.210 HD
ENDBRANCH   1   2
BRANCH   1   4
ATOM      4  C   UNL     1      -3.066  11.792  22.532  0.00  0.00    +0.175 C 
BRANCH   4   5
ATOM      5  C   UNL     1      -3.418  11.448  23.987  0.00  0.00    +0.176 C 
ATOM      6  O   UNL     1      -3.194  10.024  24.177  0.00  0.00    -0.332 OA
ATOM      7  C   UNL     1      -3.379   9.530  25.545  0.00  0.00    +0.277 C 
ATOM      8  C   UNL     1      -4.783   9.915  26.074  0.00  0.00    +0.110 C 
ATOM      9  C   UNL     1      -5.080  11.414  25.864  0.00  0.00    +0.143 C 
ATOM     10  C   UNL     1      -4.852  11.821  24.408  0.00  0.00    +0.133 C 
BRANCH  10  11
ATOM     11  N   UNL     1      -5.054  13.268  24.239  0.00  0.00    -0.308 N 
ATOM     12  H   UNL     1      -4.389  13.891  24.677  0.00  0.00    +0.149 HD
ATOM     13  C   UNL     1      -6.057  13.813  23.546  0.00  0.00    +0.210 C 
ATOM     14  C   UNL     1      -7.067  12.838  22.913  0.00  0.00    +0.109 C 
ATOM     15  O   UNL     1      -6.192  15.030  23.409  0.00  0.00    -0.276 OA
ENDBRANCH  10  11
BRANCH   7  16
ATOM     16  C   UNL     1      -2.299  10.105  26.485  0.00  0.00    +0.414 C 
ATOM     17  O   UNL     1      -2.614  10.868  27.398  0.00  0.00    -0.240 OA
ATOM     18  O   UNL     1      -1.114   9.807  26.330  0.00  0.00    -0.240 OA
ENDBRANCH   7  16
BRANCH   9  19
ATOM     19  O   UNL     1      -6.433  11.693  26.225  0.00  0.00    -0.390 OA
ATOM     20  H   UNL     1      -6.759  11.002  26.806  0.00  0.00    +0.210 HD
ENDBRANCH   9  19
BRANCH   7  21
ATOM     21  O   UNL     1      -3.282   8.083  25.516  0.00  0.00    -0.343 OA
ATOM     22  C   UNL     1      -3.936   7.403  26.617  0.00  0.00    +0.198 C 
ENDBRANCH   7  21
ENDBRANCH   4   5
BRANCH   4  23
ATOM     23  O   UNL     1      -2.891  13.215  22.386  0.00  0.00    -0.387 OA
ATOM     24  H   UNL     1      -2.557  13.409  21.507  0.00  0.00    +0.210 HD
ENDBRANCH   4  23
ENDBRANCH   1   4
BRANCH   1  25
ATOM     25  C   UNL     1      -4.026  12.066  20.238  0.00  0.00    +0.141 C 
BRANCH  25  28
ATOM     26  C   UNL     1      -5.831  11.578  18.622  0.00  0.00    +0.401 C 
ATOM     27  O   UNL     1      -6.592  12.440  19.068  0.00  0.00    -0.226 OA
ATOM     28  N   UNL     1      -4.615  11.331  19.112  0.00  0.00    -0.279 N 
ATOM     29  H   UNL     1      -4.069  10.597  18.684  0.00  0.00    +0.152 HD
BRANCH  26  30
ATOM     30  O   UNL     1      -6.258  10.780  17.515  0.00  0.00    -0.444 OA
BRANCH  30  31
ATOM     31  C   UNL     1      -6.127  11.532  16.305  0.00  0.00    +0.292 C 
BRANCH  31  33
ATOM     32  N   UNL     1      -4.035  10.232  16.028  0.00  0.00    -0.131 NA
ATOM     33  C   UNL     1      -5.036  10.989  15.476  0.00  0.00    +0.120 A 
ATOM     34  C   UNL     1      -4.813  11.114  14.125  0.00  0.00    +0.139 A 
ATOM     35  N   UNL     1      -3.647  10.436  13.919  0.00  0.00    -0.226 N 
ATOM     36  N   UNL     1      -3.194   9.887  15.061  0.00  0.00    -0.063 NA
BRANCH  35  37
ATOM     37  C   UNL     1      -2.931  10.223  12.673  0.00  0.00    +0.305 C 
BRANCH  37  38
ATOM     38  O   UNL     1      -1.836  11.133  12.601  0.00  0.00    -0.353 OA
BRANCH  38  39
ATOM     39  C   UNL     1      -1.956  12.013  11.491  0.00  0.00    +0.197 C 
BRANCH  39  40
ATOM     40  C   UNL     1      -1.782  13.416  12.006  0.00  0.00    -0.022 A 
ATOM     41  C   UNL     1      -0.576  14.104  11.808  0.00  0.00    +0.006 A 
ATOM     42  C   UNL     1      -0.402  15.390  12.320  0.00  0.00    +0.000 A 
ATOM     43  C   UNL     1      -1.427  15.999  13.041  0.00  0.00    +0.000 A 
ATOM     44  C   UNL     1      -2.626  15.322  13.255  0.00  0.00    +0.000 A 
ATOM     45  C   UNL     1      -2.802  14.035  12.743  0.00  0.00    +0.006 A 
ENDBRANCH  39  40
ENDBRANCH  38  39
ENDBRANCH  37  38
ENDBRANCH  35  37
ENDBRANCH  31  33
ENDBRANCH  30  31
ENDBRANCH  26  30
ENDBRANCH  25  28
ENDBRANCH   1  25
TORSDOF 17
