REMARK VINA RESULT:    -4.687      4.636     10.137
REMARK INTER + INTRA:         -11.206
REMARK INTER:                  -8.314
REMARK INTRA:                  -2.892
REMARK UNBOUND:                -3.093
REMARK  Name = lig_assembled_80.pdb
REMARK  16 active torsions:
REMARK  status: ('A' for Active; 'I' for Inactive)
REMARK    1  A    between atoms: _2  and  _10
REMARK    2  A    between atoms: _5  and  _24
REMARK    3  A    between atoms: _7  and  _8
REMARK    4  A    between atoms: _7  and  _24
REMARK    5  A    between atoms: _20  and  _40
REMARK    6  A    between atoms: _22  and  _28
REMARK    7  A    between atoms: _23  and  _27
REMARK    8  A    between atoms: _27  and  _28
REMARK    9  A    between atoms: _30  and  _31
REMARK   10  A    between atoms: _32  and  _33
REMARK   11  A    between atoms: _34  and  _36
REMARK   12  A    between atoms: _36  and  _37
REMARK   13  A    between atoms: _36  and  _38
REMARK   14  A    between atoms: _38  and  _39
REMARK   15  A    between atoms: _38  and  _40
REMARK   16  A    between atoms: _41  and  _43
REMARK                            x       y       z     vdW  Elec       q    Type
REMARK                         _______ _______ _______ _____ _____    ______ ____
ROOT
ATOM      1  C   UNL     1      -7.370   7.980  22.775  0.00  0.00    +0.141 C 
ENDROOT
BRANCH   1   4
ATOM      2  C   UNL     1      -7.495   8.430  20.348  0.00  0.00    +0.401 C 
ATOM      3  O   UNL     1      -6.462   7.809  20.085  0.00  0.00    -0.226 OA
ATOM      4  N   UNL     1      -7.989   8.566  21.579  0.00  0.00    -0.279 N 
ATOM      5  H   UNL     1      -8.837   9.102  21.696  0.00  0.00    +0.152 HD
BRANCH   2   6
ATOM      6  O   UNL     1      -8.220   9.054  19.286  0.00  0.00    -0.444 OA
BRANCH   6   7
ATOM      7  C   UNL     1      -7.975  10.463  19.303  0.00  0.00    +0.292 C 
BRANCH   7   9
ATOM      8  N   UNL     1      -6.621  12.134  18.102  0.00  0.00    -0.131 NA
ATOM      9  C   UNL     1      -7.004  10.830  18.253  0.00  0.00    +0.120 A 
ATOM     10  C   UNL     1      -6.352  10.049  17.325  0.00  0.00    +0.138 A 
ATOM     11  N   UNL     1      -5.623  10.951  16.596  0.00  0.00    -0.239 N 
ATOM     12  N   UNL     1      -5.762  12.199  17.093  0.00  0.00    -0.065 NA
BRANCH  11  13
ATOM     13  C   UNL     1      -4.638  10.721  15.532  0.00  0.00    +0.195 C 
ATOM     14  C   UNL     1      -3.745   9.559  15.946  0.00  0.00    +0.041 C 
ATOM     15  C   UNL     1      -2.535   9.453  15.042  0.00  0.00    +0.039 C 
ATOM     16  C   UNL     1      -2.882   8.662  13.820  0.00  0.00    -0.026 A 
ATOM     17  C   UNL     1      -3.819   9.100  12.882  0.00  0.00    +0.037 A 
ATOM     18  C   UNL     1      -4.001   8.362  11.700  0.00  0.00    +0.023 A 
ATOM     19  C   UNL     1      -3.352   7.145  11.503  0.00  0.00    +0.002 A 
ATOM     20  C   UNL     1      -2.476   6.671  12.468  0.00  0.00    +0.000 A 
ATOM     21  N   UNL     1      -4.686  10.195  13.040  0.00  0.00    -0.284 N 
ATOM     22  H   UNL     1      -5.283  10.381  12.239  0.00  0.00    +0.155 HD
ATOM     23  C   UNL     1      -2.223   7.436  13.606  0.00  0.00    +0.005 A 
ATOM     24  C   UNL     1      -5.303  10.668  14.162  0.00  0.00    +0.242 C 
ATOM     25  O   UNL     1      -6.420  11.162  13.966  0.00  0.00    -0.273 OA
ENDBRANCH  11  13
ENDBRANCH   7   9
ENDBRANCH   6   7
ENDBRANCH   2   6
ENDBRANCH   1   4
BRANCH   1  26
ATOM     26  C   UNL     1      -6.396   8.945  23.442  0.00  0.00    +0.163 C 
BRANCH  26  27
ATOM     27  O   UNL     1      -6.884   9.317  24.741  0.00  0.00    -0.388 OA
ATOM     28  H   UNL     1      -7.080  10.257  24.753  0.00  0.00    +0.210 HD
ENDBRANCH  26  27
BRANCH  26  29
ATOM     29  C   UNL     1      -5.009   8.287  23.543  0.00  0.00    +0.175 C 
BRANCH  29  30
ATOM     30  C   UNL     1      -3.976   9.213  24.201  0.00  0.00    +0.176 C 
ATOM     31  O   UNL     1      -4.293   9.301  25.618  0.00  0.00    -0.332 OA
ATOM     32  C   UNL     1      -3.345  10.065  26.433  0.00  0.00    +0.277 C 
ATOM     33  C   UNL     1      -3.152  11.487  25.851  0.00  0.00    +0.110 C 
ATOM     34  C   UNL     1      -2.844  11.446  24.339  0.00  0.00    +0.143 C 
ATOM     35  C   UNL     1      -3.891  10.623  23.588  0.00  0.00    +0.133 C 
BRANCH  35  36
ATOM     36  N   UNL     1      -3.539  10.519  22.163  0.00  0.00    -0.308 N 
ATOM     37  H   UNL     1      -2.730   9.967  21.916  0.00  0.00    +0.149 HD
ATOM     38  C   UNL     1      -4.220  11.105  21.175  0.00  0.00    +0.210 C 
ATOM     39  C   UNL     1      -5.433  11.961  21.586  0.00  0.00    +0.109 C 
ATOM     40  O   UNL     1      -3.910  10.989  19.988  0.00  0.00    -0.276 OA
ENDBRANCH  35  36
BRANCH  32  41
ATOM     41  C   UNL     1      -1.981   9.347  26.503  0.00  0.00    +0.414 C 
ATOM     42  O   UNL     1      -0.937   9.999  26.526  0.00  0.00    -0.240 OA
ATOM     43  O   UNL     1      -1.924   8.117  26.535  0.00  0.00    -0.240 OA
ENDBRANCH  32  41
BRANCH  34  44
ATOM     44  O   UNL     1      -2.824  12.774  23.815  0.00  0.00    -0.390 OA
ATOM     45  H   UNL     1      -3.309  12.799  22.987  0.00  0.00    +0.210 HD
ENDBRANCH  34  44
BRANCH  32  46
ATOM     46  O   UNL     1      -3.899  10.189  27.768  0.00  0.00    -0.343 OA
ATOM     47  C   UNL     1      -5.337  10.373  27.820  0.00  0.00    +0.198 C 
ENDBRANCH  32  46
ENDBRANCH  29  30
BRANCH  29  48
ATOM     48  O   UNL     1      -4.553   7.885  22.235  0.00  0.00    -0.387 OA
ATOM     49  H   UNL     1      -3.670   8.229  22.084  0.00  0.00    +0.210 HD
ENDBRANCH  29  48
ENDBRANCH  26  29
ENDBRANCH   1  26
TORSDOF 14
