REMARK VINA RESULT:    -4.288      5.241      6.871
REMARK INTER + INTRA:         -10.795
REMARK INTER:                  -8.512
REMARK INTRA:                  -2.284
REMARK UNBOUND:                -3.373
REMARK  Name = lig_assembled_27.pdb
REMARK  16 active torsions:
REMARK  status: ('A' for Active; 'I' for Inactive)
REMARK    1  A    between atoms: _2  and  _9
REMARK    2  A    between atoms: _4  and  _18
REMARK    3  A    between atoms: _6  and  _7
REMARK    4  A    between atoms: _6  and  _18
REMARK    5  A    between atoms: _14  and  _34
REMARK    6  A    between atoms: _16  and  _22
REMARK    7  A    between atoms: _17  and  _21
REMARK    8  A    between atoms: _21  and  _22
REMARK    9  A    between atoms: _24  and  _25
REMARK   10  A    between atoms: _26  and  _27
REMARK   11  A    between atoms: _28  and  _30
REMARK   12  A    between atoms: _30  and  _31
REMARK   13  A    between atoms: _30  and  _32
REMARK   14  A    between atoms: _32  and  _33
REMARK   15  A    between atoms: _32  and  _34
REMARK   16  A    between atoms: _35  and  _37
REMARK                            x       y       z     vdW  Elec       q    Type
REMARK                         _______ _______ _______ _____ _____    ______ ____
ROOT
ATOM      1  C   UNL     1      -6.105   9.854  22.368  0.00  0.00    +0.163 C 
ENDROOT
BRANCH   1   2
ATOM      2  O   UNL     1      -7.061   9.502  23.381  0.00  0.00    -0.388 OA
ATOM      3  H   UNL     1      -7.719   8.909  23.009  0.00  0.00    +0.210 HD
ENDBRANCH   1   2
BRANCH   1   4
ATOM      4  C   UNL     1      -6.649   9.496  20.989  0.00  0.00    +0.141 C 
BRANCH   4   7
ATOM      5  C   UNL     1      -5.575  10.408  18.960  0.00  0.00    +0.401 C 
ATOM      6  O   UNL     1      -4.947   9.376  18.714  0.00  0.00    -0.226 OA
ATOM      7  N   UNL     1      -6.389  10.554  20.006  0.00  0.00    -0.279 N 
ATOM      8  H   UNL     1      -6.853  11.443  20.128  0.00  0.00    +0.152 HD
BRANCH   5   9
ATOM      9  O   UNL     1      -5.433  11.531  18.086  0.00  0.00    -0.444 OA
BRANCH   9  10
ATOM     10  C   UNL     1      -5.783  11.148  16.754  0.00  0.00    +0.292 C 
BRANCH  10  12
ATOM     11  N   UNL     1      -3.645  10.786  15.560  0.00  0.00    -0.131 NA
ATOM     12  C   UNL     1      -4.736  11.570  15.806  0.00  0.00    +0.121 A 
ATOM     13  C   UNL     1      -4.645  12.714  15.048  0.00  0.00    +0.143 A 
ATOM     14  N   UNL     1      -3.473  12.582  14.339  0.00  0.00    -0.220 N 
ATOM     15  N   UNL     1      -2.883  11.407  14.671  0.00  0.00    -0.060 NA
BRANCH  14  16
ATOM     16  C   UNL     1      -2.899  13.473  13.397  0.00  0.00    +0.068 A 
ATOM     17  C   UNL     1      -3.353  14.800  13.327  0.00  0.00    +0.028 A 
ATOM     18  C   UNL     1      -2.797  15.686  12.401  0.00  0.00    +0.003 A 
ATOM     19  C   UNL     1      -1.789  15.256  11.541  0.00  0.00    +0.020 A 
ATOM     20  C   UNL     1      -1.336  13.941  11.610  0.00  0.00    +0.043 A 
ATOM     21 CL   UNL     1      -0.089  13.410  10.549  0.00  0.00    -0.083 Cl
ATOM     22  C   UNL     1      -1.882  13.046  12.532  0.00  0.00    +0.047 A 
ENDBRANCH  14  16
ENDBRANCH  10  12
ENDBRANCH   9  10
ENDBRANCH   5   9
ENDBRANCH   4   7
ENDBRANCH   1   4
BRANCH   1  23
ATOM     23  C   UNL     1      -4.768   9.128  22.597  0.00  0.00    +0.175 C 
BRANCH  23  24
ATOM     24  C   UNL     1      -3.911   9.819  23.668  0.00  0.00    +0.176 C 
ATOM     25  O   UNL     1      -4.468   9.485  24.969  0.00  0.00    -0.332 OA
ATOM     26  C   UNL     1      -3.712   9.974  26.127  0.00  0.00    +0.277 C 
ATOM     27  C   UNL     1      -3.499  11.505  26.026  0.00  0.00    +0.110 C 
ATOM     28  C   UNL     1      -2.938  11.912  24.647  0.00  0.00    +0.143 C 
ATOM     29  C   UNL     1      -3.799  11.348  23.516  0.00  0.00    +0.133 C 
BRANCH  29  30
ATOM     30  N   UNL     1      -3.206  11.669  22.208  0.00  0.00    -0.308 N 
ATOM     31  H   UNL     1      -2.346  11.204  21.953  0.00  0.00    +0.149 HD
ATOM     32  C   UNL     1      -3.730  12.535  21.337  0.00  0.00    +0.210 C 
ATOM     33  C   UNL     1      -5.027  13.246  21.766  0.00  0.00    +0.109 C 
ATOM     34  O   UNL     1      -3.220  12.773  20.242  0.00  0.00    -0.276 OA
ENDBRANCH  29  30
BRANCH  26  35
ATOM     35  C   UNL     1      -2.344   9.268  26.224  0.00  0.00    +0.414 C 
ATOM     36  O   UNL     1      -1.307   9.930  26.279  0.00  0.00    -0.240 OA
ATOM     37  O   UNL     1      -2.276   8.039  26.248  0.00  0.00    -0.240 OA
ENDBRANCH  26  35
BRANCH  28  38
ATOM     38  O   UNL     1      -2.900  13.336  24.544  0.00  0.00    -0.390 OA
ATOM     39  H   UNL     1      -2.360  13.589  23.792  0.00  0.00    +0.210 HD
ENDBRANCH  28  38
BRANCH  26  40
ATOM     40  O   UNL     1      -4.490   9.698  27.320  0.00  0.00    -0.343 OA
ATOM     41  C   UNL     1      -4.501  10.764  28.303  0.00  0.00    +0.198 C 
ENDBRANCH  26  40
ENDBRANCH  23  24
BRANCH  23  42
ATOM     42  O   UNL     1      -4.035   9.035  21.359  0.00  0.00    -0.387 OA
ATOM     43  H   UNL     1      -3.698   8.142  21.253  0.00  0.00    +0.210 HD
ENDBRANCH  23  42
ENDBRANCH   1  23
TORSDOF 14
