REMARK VINA RESULT:    -5.135      2.069      3.163
REMARK INTER + INTRA:         -12.466
REMARK INTER:                  -9.392
REMARK INTRA:                  -3.074
REMARK UNBOUND:                -2.678
REMARK  Name = lig_assembled_26.pdb
REMARK  20 active torsions:
REMARK  status: ('A' for Active; 'I' for Inactive)
REMARK    1  A    between atoms: _2  and  _9
REMARK    2  A    between atoms: _4  and  _23
REMARK    3  A    between atoms: _6  and  _7
REMARK    4  A    between atoms: _6  and  _23
REMARK    5  A    between atoms: _9  and  _10
REMARK    6  A    between atoms: _9  and  _11
REMARK    7  A    between atoms: _11  and  _12
REMARK    8  A    between atoms: _12  and  _13
REMARK    9  A    between atoms: _19  and  _39
REMARK   10  A    between atoms: _21  and  _27
REMARK   11  A    between atoms: _22  and  _26
REMARK   12  A    between atoms: _26  and  _27
REMARK   13  A    between atoms: _29  and  _30
REMARK   14  A    between atoms: _31  and  _32
REMARK   15  A    between atoms: _33  and  _35
REMARK   16  A    between atoms: _35  and  _36
REMARK   17  A    between atoms: _35  and  _37
REMARK   18  A    between atoms: _37  and  _38
REMARK   19  A    between atoms: _37  and  _39
REMARK   20  A    between atoms: _40  and  _42
REMARK                            x       y       z     vdW  Elec       q    Type
REMARK                         _______ _______ _______ _____ _____    ______ ____
ROOT
ATOM      1  C   UNL     1      -2.911  11.816  24.283  0.00  0.00    +0.163 C 
ENDROOT
BRANCH   1   2
ATOM      2  O   UNL     1      -2.021  11.619  25.394  0.00  0.00    -0.388 OA
ATOM      3  H   UNL     1      -1.798  12.469  25.781  0.00  0.00    +0.210 HD
ENDBRANCH   1   2
BRANCH   1   4
ATOM      4  C   UNL     1      -3.805  10.582  24.068  0.00  0.00    +0.175 C 
BRANCH   4   5
ATOM      5  C   UNL     1      -3.932   9.732  25.341  0.00  0.00    +0.176 C 
ATOM      6  O   UNL     1      -2.826   8.788  25.360  0.00  0.00    -0.332 OA
ATOM      7  C   UNL     1      -2.723   7.957  26.563  0.00  0.00    +0.277 C 
ATOM      8  C   UNL     1      -4.055   7.209  26.821  0.00  0.00    +0.110 C 
ATOM      9  C   UNL     1      -5.263   8.168  26.778  0.00  0.00    +0.143 C 
ATOM     10  C   UNL     1      -5.271   8.985  25.486  0.00  0.00    +0.133 C 
BRANCH  10  11
ATOM     11  N   UNL     1      -6.376   9.956  25.496  0.00  0.00    -0.308 N 
ATOM     12  H   UNL     1      -6.394  10.643  26.237  0.00  0.00    +0.149 HD
ATOM     13  C   UNL     1      -7.358   9.988  24.591  0.00  0.00    +0.210 C 
ATOM     14  C   UNL     1      -7.317   8.912  23.490  0.00  0.00    +0.109 C 
ATOM     15  O   UNL     1      -8.264  10.822  24.616  0.00  0.00    -0.276 OA
ENDBRANCH  10  11
BRANCH   7  16
ATOM     16  C   UNL     1      -2.369   8.817  27.794  0.00  0.00    +0.414 C 
ATOM     17  O   UNL     1      -1.650   9.808  27.671  0.00  0.00    -0.240 OA
ATOM     18  O   UNL     1      -2.802   8.521  28.908  0.00  0.00    -0.240 OA
ENDBRANCH   7  16
BRANCH   7  19
ATOM     19  O   UNL     1      -1.682   6.971  26.340  0.00  0.00    -0.343 OA
ATOM     20  C   UNL     1      -1.898   5.694  26.991  0.00  0.00    +0.198 C 
ENDBRANCH   7  19
BRANCH   9  21
ATOM     21  O   UNL     1      -6.476   7.419  26.868  0.00  0.00    -0.390 OA
ATOM     22  H   UNL     1      -7.226   8.009  26.761  0.00  0.00    +0.210 HD
ENDBRANCH   9  21
ENDBRANCH   4   5
BRANCH   4  23
ATOM     23  O   UNL     1      -3.293   9.781  22.985  0.00  0.00    -0.387 OA
ATOM     24  H   UNL     1      -3.474  10.219  22.149  0.00  0.00    +0.210 HD
ENDBRANCH   4  23
ENDBRANCH   1   4
BRANCH   1  25
ATOM     25  C   UNL     1      -3.784  13.042  24.525  0.00  0.00    +0.141 C 
BRANCH  25  28
ATOM     26  C   UNL     1      -5.146  13.574  22.533  0.00  0.00    +0.401 C 
ATOM     27  O   UNL     1      -4.249  14.208  21.973  0.00  0.00    -0.226 OA
ATOM     28  N   UNL     1      -5.018  13.001  23.730  0.00  0.00    -0.279 N 
ATOM     29  H   UNL     1      -5.815  12.511  24.112  0.00  0.00    +0.152 HD
BRANCH  26  30
ATOM     30  O   UNL     1      -6.411  13.436  21.881  0.00  0.00    -0.444 OA
BRANCH  30  31
ATOM     31  C   UNL     1      -6.724  12.049  21.734  0.00  0.00    +0.292 C 
BRANCH  31  33
ATOM     32  N   UNL     1      -5.220  10.356  20.718  0.00  0.00    -0.131 NA
ATOM     33  C   UNL     1      -5.997  11.476  20.587  0.00  0.00    +0.120 A 
ATOM     34  C   UNL     1      -5.958  11.901  19.279  0.00  0.00    +0.137 A 
ATOM     35  N   UNL     1      -5.120  11.019  18.666  0.00  0.00    -0.248 N 
ATOM     36  N   UNL     1      -4.700  10.073  19.531  0.00  0.00    -0.065 NA
BRANCH  35  37
ATOM     37  C   UNL     1      -4.719  10.942  17.269  0.00  0.00    +0.113 C 
ATOM     38  C   UNL     1      -5.737  10.248  16.354  0.00  0.00    +0.033 C 
BRANCH  37  39
ATOM     39  C   UNL     1      -4.279  12.304  16.702  0.00  0.00    +0.106 C 
BRANCH  39  40
ATOM     40  C   UNL     1      -3.698  12.232  15.302  0.00  0.00    +0.165 C 
ATOM     41  O   UNL     1      -2.852  11.399  14.983  0.00  0.00    -0.292 OA
BRANCH  40  42
ATOM     42  C   UNL     1      -4.141  13.235  14.286  0.00  0.00    +0.017 A 
ATOM     43  C   UNL     1      -5.490  13.529  14.059  0.00  0.00    +0.011 A 
ATOM     44  C   UNL     1      -5.845  14.506  13.126  0.00  0.00    +0.001 A 
ATOM     45  C   UNL     1      -4.860  15.188  12.413  0.00  0.00    +0.000 A 
ATOM     46  C   UNL     1      -3.517  14.893  12.625  0.00  0.00    +0.001 A 
ATOM     47  C   UNL     1      -3.157  13.920  13.560  0.00  0.00    +0.011 A 
ENDBRANCH  40  42
ENDBRANCH  39  40
ENDBRANCH  37  39
ENDBRANCH  35  37
ENDBRANCH  31  33
ENDBRANCH  30  31
ENDBRANCH  26  30
ENDBRANCH  25  28
ENDBRANCH   1  25
TORSDOF 17
