REMARK VINA RESULT:    -5.907      1.047      1.463
REMARK INTER + INTRA:         -12.699
REMARK INTER:                  -9.889
REMARK INTRA:                  -2.810
REMARK UNBOUND:                -2.475
REMARK  Name = lig_assembled_25.pdb
REMARK  16 active torsions:
REMARK  status: ('A' for Active; 'I' for Inactive)
REMARK    1  A    between atoms: _2  and  _9
REMARK    2  A    between atoms: _4  and  _25
REMARK    3  A    between atoms: _6  and  _7
REMARK    4  A    between atoms: _6  and  _25
REMARK    5  A    between atoms: _21  and  _41
REMARK    6  A    between atoms: _23  and  _29
REMARK    7  A    between atoms: _24  and  _28
REMARK    8  A    between atoms: _28  and  _29
REMARK    9  A    between atoms: _31  and  _32
REMARK   10  A    between atoms: _33  and  _34
REMARK   11  A    between atoms: _35  and  _37
REMARK   12  A    between atoms: _37  and  _38
REMARK   13  A    between atoms: _37  and  _39
REMARK   14  A    between atoms: _39  and  _40
REMARK   15  A    between atoms: _39  and  _41
REMARK   16  A    between atoms: _42  and  _44
REMARK                            x       y       z     vdW  Elec       q    Type
REMARK                         _______ _______ _______ _____ _____    ______ ____
ROOT
ATOM      1  C   UNL     1      -2.992  13.099  24.400  0.00  0.00    +0.141 C 
ENDROOT
BRANCH   1   4
ATOM      2  C   UNL     1      -5.102  13.800  23.321  0.00  0.00    +0.401 C 
ATOM      3  O   UNL     1      -5.595  14.245  24.359  0.00  0.00    -0.226 OA
ATOM      4  N   UNL     1      -3.893  13.241  23.249  0.00  0.00    -0.279 N 
ATOM      5  H   UNL     1      -3.580  12.895  22.353  0.00  0.00    +0.152 HD
BRANCH   2   6
ATOM      6  O   UNL     1      -5.856  13.872  22.108  0.00  0.00    -0.444 OA
BRANCH   6   7
ATOM      7  C   UNL     1      -6.633  12.681  21.957  0.00  0.00    +0.292 C 
BRANCH   7   9
ATOM      8  N   UNL     1      -4.887  11.404  20.765  0.00  0.00    -0.131 NA
ATOM      9  C   UNL     1      -6.161  11.901  20.796  0.00  0.00    +0.120 A 
ATOM     10  C   UNL     1      -6.806  11.563  19.627  0.00  0.00    +0.138 A 
ATOM     11  N   UNL     1      -5.866  10.874  18.914  0.00  0.00    -0.240 N 
ATOM     12  N   UNL     1      -4.715  10.773  19.612  0.00  0.00    -0.064 NA
BRANCH  11  13
ATOM     13  C   UNL     1      -5.921  10.351  17.558  0.00  0.00    +0.170 C 
ATOM     14  C   UNL     1      -5.450   8.906  17.473  0.00  0.00    -0.011 A 
ATOM     15  C   UNL     1      -4.400   8.795  16.533  0.00  0.00    -0.012 A 
ATOM     16  C   UNL     1      -4.119  10.107  15.985  0.00  0.00    -0.012 A 
ATOM     17  C   UNL     1      -3.211  10.497  15.015  0.00  0.00    +0.009 A 
ATOM     18  C   UNL     1      -3.170  11.845  14.646  0.00  0.00    +0.001 A 
ATOM     19  C   UNL     1      -4.025  12.783  15.249  0.00  0.00    +0.000 A 
ATOM     20  C   UNL     1      -4.942  12.393  16.228  0.00  0.00    +0.006 A 
ATOM     21  C   UNL     1      -3.824   7.565  16.267  0.00  0.00    +0.009 A 
ATOM     22  C   UNL     1      -4.306   6.443  16.948  0.00  0.00    +0.001 A 
ATOM     23  C   UNL     1      -5.351   6.557  17.878  0.00  0.00    +0.000 A 
ATOM     24  C   UNL     1      -5.937   7.795  18.147  0.00  0.00    +0.006 A 
ATOM     25  C   UNL     1      -4.979  11.054  16.590  0.00  0.00    -0.011 A 
ENDBRANCH  11  13
ENDBRANCH   7   9
ENDBRANCH   6   7
ENDBRANCH   2   6
ENDBRANCH   1   4
BRANCH   1  26
ATOM     26  C   UNL     1      -3.267  11.819  25.183  0.00  0.00    +0.163 C 
BRANCH  26  27
ATOM     27  O   UNL     1      -2.139  10.934  25.088  0.00  0.00    -0.388 OA
ATOM     28  H   UNL     1      -1.511  11.282  24.451  0.00  0.00    +0.210 HD
ENDBRANCH  26  27
BRANCH  26  29
ATOM     29  C   UNL     1      -3.570  12.170  26.650  0.00  0.00    +0.175 C 
BRANCH  29  30
ATOM     30  C   UNL     1      -3.350  10.973  27.587  0.00  0.00    +0.176 C 
ATOM     31  O   UNL     1      -3.989   9.812  26.987  0.00  0.00    -0.332 OA
ATOM     32  C   UNL     1      -3.793   8.544  27.695  0.00  0.00    +0.277 C 
ATOM     33  C   UNL     1      -4.230   8.676  29.174  0.00  0.00    +0.110 C 
ATOM     34  C   UNL     1      -3.601   9.914  29.846  0.00  0.00    +0.143 C 
ATOM     35  C   UNL     1      -3.864  11.177  29.024  0.00  0.00    +0.133 C 
BRANCH  35  36
ATOM     36  N   UNL     1      -3.186  12.335  29.628  0.00  0.00    -0.308 N 
ATOM     37  H   UNL     1      -2.176  12.329  29.656  0.00  0.00    +0.149 HD
ATOM     38  C   UNL     1      -3.818  13.393  30.143  0.00  0.00    +0.210 C 
ATOM     39  C   UNL     1      -5.358  13.360  30.109  0.00  0.00    +0.109 C 
ATOM     40  O   UNL     1      -3.224  14.356  30.629  0.00  0.00    -0.276 OA
ENDBRANCH  35  36
BRANCH  32  41
ATOM     41  C   UNL     1      -2.315   8.105  27.632  0.00  0.00    +0.414 C 
ATOM     42  O   UNL     1      -1.806   7.502  28.575  0.00  0.00    -0.240 OA
ATOM     43  O   UNL     1      -1.631   8.355  26.638  0.00  0.00    -0.240 OA
ENDBRANCH  32  41
BRANCH  34  44
ATOM     44  O   UNL     1      -4.147  10.082  31.155  0.00  0.00    -0.390 OA
ATOM     45  H   UNL     1      -4.834   9.428  31.302  0.00  0.00    +0.210 HD
ENDBRANCH  34  44
BRANCH  32  46
ATOM     46  O   UNL     1      -4.627   7.541  27.059  0.00  0.00    -0.343 OA
ATOM     47  C   UNL     1      -5.519   8.047  26.034  0.00  0.00    +0.198 C 
ENDBRANCH  32  46
ENDBRANCH  29  30
BRANCH  29  48
ATOM     48  O   UNL     1      -4.920  12.658  26.776  0.00  0.00    -0.387 OA
ATOM     49  H   UNL     1      -5.537  11.940  26.612  0.00  0.00    +0.210 HD
ENDBRANCH  29  48
ENDBRANCH  26  29
ENDBRANCH   1  26
TORSDOF 14
