REMARK VINA RESULT:    -4.824      4.130      7.387
REMARK INTER + INTRA:         -11.533
REMARK INTER:                  -9.248
REMARK INTRA:                  -2.285
REMARK UNBOUND:                -2.903
REMARK  Name = lig_assembled_69.pdb
REMARK  18 active torsions:
REMARK  status: ('A' for Active; 'I' for Inactive)
REMARK    1  A    between atoms: _2  and  _9
REMARK    2  A    between atoms: _4  and  _21
REMARK    3  A    between atoms: _6  and  _7
REMARK    4  A    between atoms: _6  and  _21
REMARK    5  A    between atoms: _11  and  _16
REMARK    6  A    between atoms: _14  and  _15
REMARK    7  A    between atoms: _17  and  _37
REMARK    8  A    between atoms: _19  and  _25
REMARK    9  A    between atoms: _20  and  _24
REMARK   10  A    between atoms: _24  and  _25
REMARK   11  A    between atoms: _27  and  _28
REMARK   12  A    between atoms: _29  and  _30
REMARK   13  A    between atoms: _31  and  _33
REMARK   14  A    between atoms: _33  and  _34
REMARK   15  A    between atoms: _33  and  _35
REMARK   16  A    between atoms: _35  and  _36
REMARK   17  A    between atoms: _35  and  _37
REMARK   18  A    between atoms: _38  and  _40
REMARK                            x       y       z     vdW  Elec       q    Type
REMARK                         _______ _______ _______ _____ _____    ______ ____
ROOT
ATOM      1  C   UNL     1      -3.629  11.968  25.127  0.00  0.00    +0.163 C 
ENDROOT
BRANCH   1   2
ATOM      2  O   UNL     1      -2.437  11.203  24.884  0.00  0.00    -0.388 OA
ATOM      3  H   UNL     1      -2.322  10.557  25.586  0.00  0.00    +0.210 HD
ENDBRANCH   1   2
BRANCH   1   4
ATOM      4  C   UNL     1      -3.774  12.302  26.621  0.00  0.00    +0.175 C 
BRANCH   4   5
ATOM      5  C   UNL     1      -3.377  11.121  27.519  0.00  0.00    +0.176 C 
ATOM      6  O   UNL     1      -3.966   9.916  26.958  0.00  0.00    -0.332 OA
ATOM      7  C   UNL     1      -3.605   8.663  27.628  0.00  0.00    +0.277 C 
ATOM      8  C   UNL     1      -3.926   8.746  29.140  0.00  0.00    +0.110 C 
ATOM      9  C   UNL     1      -3.347  10.028  29.775  0.00  0.00    +0.143 C 
ATOM     10  C   UNL     1      -3.783  11.271  28.997  0.00  0.00    +0.133 C 
BRANCH  10  11
ATOM     11  N   UNL     1      -3.155  12.477  29.559  0.00  0.00    -0.308 N 
ATOM     12  H   UNL     1      -2.157  12.585  29.448  0.00  0.00    +0.149 HD
ATOM     13  C   UNL     1      -3.818  13.438  30.207  0.00  0.00    +0.210 C 
ATOM     14  C   UNL     1      -5.335  13.232  30.383  0.00  0.00    +0.109 C 
ATOM     15  O   UNL     1      -3.268  14.445  30.654  0.00  0.00    -0.276 OA
ENDBRANCH  10  11
BRANCH   7  16
ATOM     16  C   UNL     1      -2.107   8.351  27.435  0.00  0.00    +0.414 C 
ATOM     17  O   UNL     1      -1.530   8.692  26.403  0.00  0.00    -0.240 OA
ATOM     18  O   UNL     1      -1.474   7.759  28.311  0.00  0.00    -0.240 OA
ENDBRANCH   7  16
BRANCH   7  19
ATOM     19  O   UNL     1      -4.404   7.598  27.049  0.00  0.00    -0.343 OA
ATOM     20  C   UNL     1      -5.032   7.923  25.783  0.00  0.00    +0.198 C 
ENDBRANCH   7  19
BRANCH   9  21
ATOM     21  O   UNL     1      -3.793  10.140  31.127  0.00  0.00    -0.390 OA
ATOM     22  H   UNL     1      -4.743  10.011  31.163  0.00  0.00    +0.210 HD
ENDBRANCH   9  21
ENDBRANCH   4   5
BRANCH   4  23
ATOM     23  O   UNL     1      -5.125  12.714  26.910  0.00  0.00    -0.387 OA
ATOM     24  H   UNL     1      -5.319  12.551  27.836  0.00  0.00    +0.210 HD
ENDBRANCH   4  23
ENDBRANCH   1   4
BRANCH   1  25
ATOM     25  C   UNL     1      -3.594  13.260  24.316  0.00  0.00    +0.141 C 
BRANCH  25  28
ATOM     26  C   UNL     1      -4.040  12.515  22.003  0.00  0.00    +0.401 C 
ATOM     27  O   UNL     1      -2.961  11.930  21.883  0.00  0.00    -0.226 OA
ATOM     28  N   UNL     1      -4.415  13.168  23.103  0.00  0.00    -0.279 N 
ATOM     29  H   UNL     1      -5.317  13.625  23.103  0.00  0.00    +0.152 HD
BRANCH  26  30
ATOM     30  O   UNL     1      -4.958  12.510  20.907  0.00  0.00    -0.444 OA
BRANCH  30  31
ATOM     31  C   UNL     1      -5.732  11.308  20.938  0.00  0.00    +0.292 C 
BRANCH  31  33
ATOM     32  N   UNL     1      -5.043   9.293  19.685  0.00  0.00    -0.131 NA
ATOM     33  C   UNL     1      -5.568  10.557  19.680  0.00  0.00    +0.120 A 
ATOM     34  C   UNL     1      -5.860  10.919  18.384  0.00  0.00    +0.137 A 
ATOM     35  N   UNL     1      -5.477   9.838  17.647  0.00  0.00    -0.248 N 
ATOM     36  N   UNL     1      -4.987   8.864  18.433  0.00  0.00    -0.065 NA
BRANCH  35  37
ATOM     37  C   UNL     1      -5.501   9.685  16.193  0.00  0.00    +0.114 C 
ATOM     38  C   UNL     1      -4.154   9.184  15.657  0.00  0.00    +0.062 C 
ATOM     39  C   UNL     1      -3.090  10.252  15.400  0.00  0.00    +0.139 C 
ATOM     40  C   UNL     1      -3.332  11.172  14.237  0.00  0.00    +0.002 C 
ATOM     41  C   UNL     1      -4.491  11.465  13.625  0.00  0.00    +0.002 C 
ATOM     42  C   UNL     1      -5.873  11.061  14.038  0.00  0.00    +0.139 C 
ATOM     43  C   UNL     1      -6.077  10.952  15.545  0.00  0.00    +0.062 C 
BRANCH  39  44
ATOM     44  O   UNL     1      -1.871   9.562  15.095  0.00  0.00    -0.388 OA
ATOM     45  H   UNL     1      -1.159  10.225  15.076  0.00  0.00    +0.210 HD
ENDBRANCH  39  44
BRANCH  42  46
ATOM     46  O   UNL     1      -6.217   9.841  13.401  0.00  0.00    -0.388 OA
ATOM     47  H   UNL     1      -5.482   9.606  12.809  0.00  0.00    +0.210 HD
ENDBRANCH  42  46
ENDBRANCH  35  37
ENDBRANCH  31  33
ENDBRANCH  30  31
ENDBRANCH  26  30
ENDBRANCH  25  28
ENDBRANCH   1  25
TORSDOF 16
