REMARK VINA RESULT:    -4.671      2.742      4.168
REMARK INTER + INTRA:         -11.113
REMARK INTER:                  -8.350
REMARK INTRA:                  -2.764
REMARK UNBOUND:                -2.756
REMARK  Name = lig_assembled_41.pdb
REMARK  18 active torsions:
REMARK  status: ('A' for Active; 'I' for Inactive)
REMARK    1  A    between atoms: _2  and  _9
REMARK    2  A    between atoms: _4  and  _21
REMARK    3  A    between atoms: _6  and  _7
REMARK    4  A    between atoms: _6  and  _21
REMARK    5  A    between atoms: _10  and  _11
REMARK    6  A    between atoms: _11  and  _12
REMARK    7  A    between atoms: _17  and  _37
REMARK    8  A    between atoms: _19  and  _25
REMARK    9  A    between atoms: _20  and  _24
REMARK   10  A    between atoms: _24  and  _25
REMARK   11  A    between atoms: _27  and  _28
REMARK   12  A    between atoms: _29  and  _30
REMARK   13  A    between atoms: _31  and  _33
REMARK   14  A    between atoms: _33  and  _34
REMARK   15  A    between atoms: _33  and  _35
REMARK   16  A    between atoms: _35  and  _36
REMARK   17  A    between atoms: _35  and  _37
REMARK   18  A    between atoms: _38  and  _40
REMARK                            x       y       z     vdW  Elec       q    Type
REMARK                         _______ _______ _______ _____ _____    ______ ____
ROOT
ATOM      1  C   UNL     1      -3.969   7.833  23.545  0.00  0.00    +0.163 C 
ENDROOT
BRANCH   1   2
ATOM      2  O   UNL     1      -3.803   6.821  22.538  0.00  0.00    -0.388 OA
ATOM      3  H   UNL     1      -3.769   7.234  21.672  0.00  0.00    +0.210 HD
ENDBRANCH   1   2
BRANCH   1   4
ATOM      4  C   UNL     1      -4.350   7.189  24.874  0.00  0.00    +0.141 C 
BRANCH   4   7
ATOM      5  C   UNL     1      -2.884   8.115  26.635  0.00  0.00    +0.401 C 
ATOM      6  O   UNL     1      -1.917   7.413  26.331  0.00  0.00    -0.226 OA
ATOM      7  N   UNL     1      -4.063   8.071  26.012  0.00  0.00    -0.279 N 
ATOM      8  H   UNL     1      -4.799   8.679  26.341  0.00  0.00    +0.152 HD
BRANCH   5   9
ATOM      9  O   UNL     1      -2.760   9.035  27.722  0.00  0.00    -0.444 OA
BRANCH   9  10
ATOM     10  C   UNL     1      -3.755   8.748  28.708  0.00  0.00    +0.292 C 
BRANCH  10  12
ATOM     11  N   UNL     1      -5.233   9.978  30.252  0.00  0.00    -0.131 NA
ATOM     12  C   UNL     1      -4.192   9.988  29.374  0.00  0.00    +0.121 A 
ATOM     13  C   UNL     1      -3.691  11.269  29.285  0.00  0.00    +0.143 A 
ATOM     14  N   UNL     1      -4.536  12.039  30.052  0.00  0.00    -0.219 N 
ATOM     15  N   UNL     1      -5.403  11.213  30.700  0.00  0.00    -0.060 NA
BRANCH  14  16
ATOM     16  C   UNL     1      -4.537  13.438  30.315  0.00  0.00    +0.077 A 
ATOM     17  C   UNL     1      -3.718  14.078  31.268  0.00  0.00    +0.043 A 
ATOM     18  C   UNL     1      -3.860  15.469  31.461  0.00  0.00    +0.013 A 
ATOM     19  C   UNL     1      -4.794  16.211  30.735  0.00  0.00    +0.001 A 
ATOM     20  C   UNL     1      -5.582  15.586  29.780  0.00  0.00    +0.002 A 
ATOM     21  C   UNL     1      -5.448  14.216  29.563  0.00  0.00    +0.028 A 
BRANCH  17  22
ATOM     22  C   UNL     1      -2.559  13.422  31.946  0.00  0.00    +0.162 C 
ATOM     23  O   UNL     1      -1.419  13.812  31.702  0.00  0.00    -0.292 OA
ATOM     24  C   UNL     1      -2.788  12.292  32.921  0.00  0.00    +0.091 C 
ENDBRANCH  17  22
ENDBRANCH  14  16
ENDBRANCH  10  12
ENDBRANCH   9  10
ENDBRANCH   5   9
ENDBRANCH   4   7
ENDBRANCH   1   4
BRANCH   1  25
ATOM     25  C   UNL     1      -5.053   8.844  23.135  0.00  0.00    +0.175 C 
BRANCH  25  26
ATOM     26  C   UNL     1      -4.569  10.296  23.268  0.00  0.00    +0.176 C 
ATOM     27  O   UNL     1      -4.819  10.727  24.634  0.00  0.00    -0.332 OA
ATOM     28  C   UNL     1      -4.321  12.063  24.978  0.00  0.00    +0.277 C 
ATOM     29  C   UNL     1      -4.873  13.117  23.987  0.00  0.00    +0.110 C 
ATOM     30  C   UNL     1      -4.660  12.687  22.521  0.00  0.00    +0.143 C 
ATOM     31  C   UNL     1      -5.211  11.283  22.275  0.00  0.00    +0.133 C 
BRANCH  31  32
ATOM     32  N   UNL     1      -4.925  10.850  20.898  0.00  0.00    -0.308 N 
ATOM     33  H   UNL     1      -3.957  10.793  20.613  0.00  0.00    +0.149 HD
ATOM     34  C   UNL     1      -5.860  10.528  20.000  0.00  0.00    +0.210 C 
ATOM     35  C   UNL     1      -7.326  10.649  20.457  0.00  0.00    +0.109 C 
ATOM     36  O   UNL     1      -5.590  10.155  18.858  0.00  0.00    -0.276 OA
ENDBRANCH  31  32
BRANCH  28  37
ATOM     37  C   UNL     1      -2.779  12.094  24.958  0.00  0.00    +0.414 C 
ATOM     38  O   UNL     1      -2.134  11.148  25.408  0.00  0.00    -0.240 OA
ATOM     39  O   UNL     1      -2.180  13.064  24.492  0.00  0.00    -0.240 OA
ENDBRANCH  28  37
BRANCH  30  40
ATOM     40  O   UNL     1      -5.314  13.609  21.648  0.00  0.00    -0.390 OA
ATOM     41  H   UNL     1      -5.395  13.221  20.774  0.00  0.00    +0.210 HD
ENDBRANCH  30  40
BRANCH  28  42
ATOM     42  O   UNL     1      -4.799  12.391  26.308  0.00  0.00    -0.343 OA
ATOM     43  C   UNL     1      -6.192  12.071  26.555  0.00  0.00    +0.198 C 
ENDBRANCH  28  42
ENDBRANCH  25  26
BRANCH  25  44
ATOM     44  O   UNL     1      -6.244   8.644  23.924  0.00  0.00    -0.387 OA
ATOM     45  H   UNL     1      -6.042   8.789  24.851  0.00  0.00    +0.210 HD
ENDBRANCH  25  44
ENDBRANCH   1  25
TORSDOF 15
