REMARK VINA RESULT:    -5.207      3.129      7.238
REMARK INTER + INTRA:         -11.009
REMARK INTER:                  -7.685
REMARK INTRA:                  -3.324
REMARK UNBOUND:                -1.997
REMARK  Name = lig_assembled_57.pdb
REMARK  17 active torsions:
REMARK  status: ('A' for Active; 'I' for Inactive)
REMARK    1  A    between atoms: _2  and  _10
REMARK    2  A    between atoms: _3  and  _13
REMARK    3  A    between atoms: _5  and  _19
REMARK    4  A    between atoms: _7  and  _8
REMARK    5  A    between atoms: _7  and  _19
REMARK    6  A    between atoms: _15  and  _35
REMARK    7  A    between atoms: _17  and  _23
REMARK    8  A    between atoms: _18  and  _22
REMARK    9  A    between atoms: _22  and  _23
REMARK   10  A    between atoms: _25  and  _26
REMARK   11  A    between atoms: _27  and  _28
REMARK   12  A    between atoms: _29  and  _31
REMARK   13  A    between atoms: _31  and  _32
REMARK   14  A    between atoms: _31  and  _33
REMARK   15  A    between atoms: _33  and  _34
REMARK   16  A    between atoms: _33  and  _35
REMARK   17  A    between atoms: _36  and  _38
REMARK                            x       y       z     vdW  Elec       q    Type
REMARK                         _______ _______ _______ _____ _____    ______ ____
ROOT
ATOM      1  C   UNL     1      -2.019   9.217  27.750  0.00  0.00    +0.163 C 
ENDROOT
BRANCH   1   2
ATOM      2  O   UNL     1      -1.866   9.164  26.322  0.00  0.00    -0.388 OA
ATOM      3  H   UNL     1      -2.695   8.891  25.921  0.00  0.00    +0.210 HD
ENDBRANCH   1   2
BRANCH   1   4
ATOM      4  C   UNL     1      -2.195   7.809  28.308  0.00  0.00    +0.141 C 
BRANCH   4   7
ATOM      5  C   UNL     1      -3.676   7.495  30.262  0.00  0.00    +0.401 C 
ATOM      6  O   UNL     1      -4.651   7.157  29.587  0.00  0.00    -0.226 OA
ATOM      7  N   UNL     1      -2.490   7.823  29.747  0.00  0.00    -0.279 N 
ATOM      8  H   UNL     1      -1.754   8.097  30.381  0.00  0.00    +0.152 HD
BRANCH   5   9
ATOM      9  O   UNL     1      -3.802   7.551  31.685  0.00  0.00    -0.444 OA
BRANCH   9  10
ATOM     10  C   UNL     1      -4.674   8.625  32.046  0.00  0.00    +0.292 C 
BRANCH  10  12
ATOM     11  N   UNL     1      -2.645   9.997  31.731  0.00  0.00    -0.131 NA
ATOM     12  C   UNL     1      -3.894   9.857  32.266  0.00  0.00    +0.120 A 
ATOM     13  C   UNL     1      -4.223  11.007  32.950  0.00  0.00    +0.137 A 
ATOM     14  N   UNL     1      -3.172  11.843  32.721  0.00  0.00    -0.248 N 
ATOM     15  N   UNL     1      -2.195  11.200  32.047  0.00  0.00    -0.065 NA
BRANCH  14  16
ATOM     16  C   UNL     1      -2.991  13.260  33.020  0.00  0.00    +0.111 C 
ATOM     17  C   UNL     1      -2.387  13.998  31.816  0.00  0.00    +0.042 C 
ATOM     18  C   UNL     1      -3.435  14.184  30.721  0.00  0.00    +0.086 C 
ATOM     19  N   UNL     1      -4.608  14.939  31.176  0.00  0.00    -0.305 NA
ATOM     20  C   UNL     1      -5.221  14.358  32.371  0.00  0.00    +0.086 C 
ATOM     21  C   UNL     1      -4.330  16.365  31.317  0.00  0.00    +0.104 C 
ATOM     22  C   UNL     1      -4.241  14.017  33.502  0.00  0.00    +0.042 C 
ENDBRANCH  14  16
ENDBRANCH  10  12
ENDBRANCH   9  10
ENDBRANCH   5   9
ENDBRANCH   4   7
ENDBRANCH   1   4
BRANCH   1  23
ATOM     23  C   UNL     1      -3.230  10.081  28.142  0.00  0.00    +0.175 C 
BRANCH  23  24
ATOM     24  C   UNL     1      -4.023  10.555  26.915  0.00  0.00    +0.176 C 
ATOM     25  O   UNL     1      -3.195  11.504  26.187  0.00  0.00    -0.332 OA
ATOM     26  C   UNL     1      -3.750  11.987  24.919  0.00  0.00    +0.277 C 
ATOM     27  C   UNL     1      -5.161  12.586  25.140  0.00  0.00    +0.110 C 
ATOM     28  C   UNL     1      -6.068  11.626  25.938  0.00  0.00    +0.143 C 
ATOM     29  C   UNL     1      -5.392  11.184  27.236  0.00  0.00    +0.133 C 
BRANCH  29  30
ATOM     30  N   UNL     1      -6.229  10.203  27.944  0.00  0.00    -0.308 N 
ATOM     31  H   UNL     1      -6.500   9.367  27.446  0.00  0.00    +0.149 HD
ATOM     32  C   UNL     1      -6.653  10.345  29.203  0.00  0.00    +0.210 C 
ATOM     33  C   UNL     1      -6.245  11.642  29.926  0.00  0.00    +0.109 C 
ATOM     34  O   UNL     1      -7.342   9.500  29.776  0.00  0.00    -0.276 OA
ENDBRANCH  29  30
BRANCH  26  35
ATOM     35  C   UNL     1      -3.830  10.845  23.886  0.00  0.00    +0.414 C 
ATOM     36  O   UNL     1      -2.947   9.989  23.837  0.00  0.00    -0.240 OA
ATOM     37  O   UNL     1      -4.778  10.778  23.102  0.00  0.00    -0.240 OA
ENDBRANCH  26  35
BRANCH  28  38
ATOM     38  O   UNL     1      -7.302  12.276  26.248  0.00  0.00    -0.390 OA
ATOM     39  H   UNL     1      -7.806  12.407  25.442  0.00  0.00    +0.210 HD
ENDBRANCH  28  38
BRANCH  26  40
ATOM     40  O   UNL     1      -2.881  13.037  24.420  0.00  0.00    -0.343 OA
ATOM     41  C   UNL     1      -3.451  13.856  23.369  0.00  0.00    +0.198 C 
ENDBRANCH  26  40
ENDBRANCH  23  24
BRANCH  23  42
ATOM     42  O   UNL     1      -2.800  11.213  28.924  0.00  0.00    -0.387 OA
ATOM     43  H   UNL     1      -2.298  11.813  28.369  0.00  0.00    +0.210 HD
ENDBRANCH  23  42
ENDBRANCH   1  23
TORSDOF 14
