REMARK VINA RESULT:    -4.979      3.956      7.033
REMARK INTER + INTRA:         -11.664
REMARK INTER:                  -8.373
REMARK INTRA:                  -3.290
REMARK UNBOUND:                -2.756
REMARK  Name = lig_assembled_41.pdb
REMARK  18 active torsions:
REMARK  status: ('A' for Active; 'I' for Inactive)
REMARK    1  A    between atoms: _2  and  _9
REMARK    2  A    between atoms: _4  and  _21
REMARK    3  A    between atoms: _6  and  _7
REMARK    4  A    between atoms: _6  and  _21
REMARK    5  A    between atoms: _10  and  _11
REMARK    6  A    between atoms: _11  and  _12
REMARK    7  A    between atoms: _17  and  _37
REMARK    8  A    between atoms: _19  and  _25
REMARK    9  A    between atoms: _20  and  _24
REMARK   10  A    between atoms: _24  and  _25
REMARK   11  A    between atoms: _27  and  _28
REMARK   12  A    between atoms: _29  and  _30
REMARK   13  A    between atoms: _31  and  _33
REMARK   14  A    between atoms: _33  and  _34
REMARK   15  A    between atoms: _33  and  _35
REMARK   16  A    between atoms: _35  and  _36
REMARK   17  A    between atoms: _35  and  _37
REMARK   18  A    between atoms: _38  and  _40
REMARK                            x       y       z     vdW  Elec       q    Type
REMARK                         _______ _______ _______ _____ _____    ______ ____
ROOT
ATOM      1  C   UNL     1      -4.523   6.754  17.057  0.00  0.00    +0.163 C 
ENDROOT
BRANCH   1   2
ATOM      2  O   UNL     1      -3.778   5.669  16.479  0.00  0.00    -0.388 OA
ATOM      3  H   UNL     1      -3.908   4.876  17.004  0.00  0.00    +0.210 HD
ENDBRANCH   1   2
BRANCH   1   4
ATOM      4  C   UNL     1      -5.774   6.219  17.746  0.00  0.00    +0.141 C 
BRANCH   4   7
ATOM      5  C   UNL     1      -7.272   7.685  19.054  0.00  0.00    +0.401 C 
ATOM      6  O   UNL     1      -8.148   7.723  18.186  0.00  0.00    -0.226 OA
ATOM      7  N   UNL     1      -6.128   7.012  18.930  0.00  0.00    -0.279 N 
ATOM      8  H   UNL     1      -5.467   7.049  19.693  0.00  0.00    +0.152 HD
BRANCH   5   9
ATOM      9  O   UNL     1      -7.473   8.403  20.275  0.00  0.00    -0.444 OA
BRANCH   9  10
ATOM     10  C   UNL     1      -7.014   7.613  21.374  0.00  0.00    +0.292 C 
BRANCH  10  12
ATOM     11  N   UNL     1      -4.595   7.826  21.806  0.00  0.00    -0.131 NA
ATOM     12  C   UNL     1      -5.865   8.263  22.030  0.00  0.00    +0.121 A 
ATOM     13  C   UNL     1      -5.825   9.339  22.891  0.00  0.00    +0.143 A 
ATOM     14  N   UNL     1      -4.503   9.457  23.256  0.00  0.00    -0.219 N 
ATOM     15  N   UNL     1      -3.769   8.587  22.509  0.00  0.00    -0.060 NA
BRANCH  14  16
ATOM     16  C   UNL     1      -3.861  10.368  24.142  0.00  0.00    +0.077 A 
ATOM     17  C   UNL     1      -3.296  11.602  23.757  0.00  0.00    +0.043 A 
ATOM     18  C   UNL     1      -2.644  12.384  24.734  0.00  0.00    +0.013 A 
ATOM     19  C   UNL     1      -2.545  11.956  26.060  0.00  0.00    +0.001 A 
ATOM     20  C   UNL     1      -3.122  10.755  26.443  0.00  0.00    +0.002 A 
ATOM     21  C   UNL     1      -3.784   9.973  25.498  0.00  0.00    +0.028 A 
BRANCH  17  22
ATOM     22  C   UNL     1      -3.520  12.241  22.425  0.00  0.00    +0.162 C 
ATOM     23  O   UNL     1      -2.648  12.158  21.563  0.00  0.00    -0.292 OA
ATOM     24  C   UNL     1      -4.807  12.979  22.142  0.00  0.00    +0.091 C 
ENDBRANCH  17  22
ENDBRANCH  14  16
ENDBRANCH  10  12
ENDBRANCH   9  10
ENDBRANCH   5   9
ENDBRANCH   4   7
ENDBRANCH   1   4
BRANCH   1  25
ATOM     25  C   UNL     1      -4.926   7.778  15.982  0.00  0.00    +0.175 C 
BRANCH  25  26
ATOM     26  C   UNL     1      -4.498   9.205  16.354  0.00  0.00    +0.176 C 
ATOM     27  O   UNL     1      -5.693   9.951  16.715  0.00  0.00    -0.332 OA
ATOM     28  C   UNL     1      -5.466  11.315  17.203  0.00  0.00    +0.277 C 
ATOM     29  C   UNL     1      -4.633  12.124  16.180  0.00  0.00    +0.110 C 
ATOM     30  C   UNL     1      -3.367  11.358  15.742  0.00  0.00    +0.143 C 
ATOM     31  C   UNL     1      -3.719   9.952  15.255  0.00  0.00    +0.133 C 
BRANCH  31  32
ATOM     32  N   UNL     1      -2.497   9.201  14.923  0.00  0.00    -0.308 N 
ATOM     33  H   UNL     1      -1.867   8.968  15.677  0.00  0.00    +0.149 HD
ATOM     34  C   UNL     1      -2.167   8.808  13.689  0.00  0.00    +0.210 C 
ATOM     35  C   UNL     1      -3.135   9.203  12.558  0.00  0.00    +0.109 C 
ATOM     36  O   UNL     1      -1.145   8.168  13.443  0.00  0.00    -0.276 OA
ENDBRANCH  31  32
BRANCH  28  37
ATOM     37  C   UNL     1      -4.735  11.294  18.562  0.00  0.00    +0.414 C 
ATOM     38  O   UNL     1      -4.860  10.332  19.319  0.00  0.00    -0.240 OA
ATOM     39  O   UNL     1      -4.021  12.239  18.901  0.00  0.00    -0.240 OA
ENDBRANCH  28  37
BRANCH  30  40
ATOM     40  O   UNL     1      -2.712  12.070  14.691  0.00  0.00    -0.390 OA
ATOM     41  H   UNL     1      -3.303  12.741  14.342  0.00  0.00    +0.210 HD
ENDBRANCH  30  40
BRANCH  28  42
ATOM     42  O   UNL     1      -6.757  11.958  17.353  0.00  0.00    -0.343 OA
ATOM     43  C   UNL     1      -7.901  11.099  17.118  0.00  0.00    +0.198 C 
ENDBRANCH  28  42
ENDBRANCH  25  26
BRANCH  25  44
ATOM     44  O   UNL     1      -6.349   7.729  15.758  0.00  0.00    -0.387 OA
ATOM     45  H   UNL     1      -6.793   8.293  16.396  0.00  0.00    +0.210 HD
ENDBRANCH  25  44
ENDBRANCH   1  25
TORSDOF 15
