REMARK VINA RESULT:    -4.826      3.647      7.657
REMARK INTER + INTRA:         -11.847
REMARK INTER:                  -8.187
REMARK INTRA:                  -3.660
REMARK UNBOUND:                -3.213
REMARK  Name = lig_assembled_46.pdb
REMARK  17 active torsions:
REMARK  status: ('A' for Active; 'I' for Inactive)
REMARK    1  A    between atoms: _2  and  _9
REMARK    2  A    between atoms: _4  and  _19
REMARK    3  A    between atoms: _6  and  _7
REMARK    4  A    between atoms: _6  and  _19
REMARK    5  A    between atoms: _9  and  _10
REMARK    6  A    between atoms: _15  and  _35
REMARK    7  A    between atoms: _17  and  _23
REMARK    8  A    between atoms: _18  and  _22
REMARK    9  A    between atoms: _22  and  _23
REMARK   10  A    between atoms: _25  and  _26
REMARK   11  A    between atoms: _27  and  _28
REMARK   12  A    between atoms: _29  and  _31
REMARK   13  A    between atoms: _31  and  _32
REMARK   14  A    between atoms: _31  and  _33
REMARK   15  A    between atoms: _33  and  _34
REMARK   16  A    between atoms: _33  and  _35
REMARK   17  A    between atoms: _36  and  _38
REMARK                            x       y       z     vdW  Elec       q    Type
REMARK                         _______ _______ _______ _____ _____    ______ ____
ROOT
ATOM      1  C   UNL     1      -3.020  11.232  23.061  0.00  0.00    +0.163 C 
ENDROOT
BRANCH   1   2
ATOM      2  O   UNL     1      -2.449  11.833  24.235  0.00  0.00    -0.388 OA
ATOM      3  H   UNL     1      -1.725  12.410  23.979  0.00  0.00    +0.210 HD
ENDBRANCH   1   2
BRANCH   1   4
ATOM      4  C   UNL     1      -3.724  12.293  22.221  0.00  0.00    +0.141 C 
BRANCH   4   7
ATOM      5  C   UNL     1      -6.013  13.114  22.663  0.00  0.00    +0.401 C 
ATOM      6  O   UNL     1      -6.496  12.588  21.657  0.00  0.00    -0.226 OA
ATOM      7  N   UNL     1      -4.725  13.032  23.000  0.00  0.00    -0.279 N 
ATOM      8  H   UNL     1      -4.421  13.506  23.840  0.00  0.00    +0.152 HD
BRANCH   5   9
ATOM      9  O   UNL     1      -6.865  13.865  23.532  0.00  0.00    -0.444 OA
BRANCH   9  10
ATOM     10  C   UNL     1      -6.067  14.613  24.453  0.00  0.00    +0.292 C 
BRANCH  10  12
ATOM     11  N   UNL     1      -4.862  13.072  25.969  0.00  0.00    -0.131 NA
ATOM     12  C   UNL     1      -5.936  13.885  25.729  0.00  0.00    +0.120 A 
ATOM     13  C   UNL     1      -6.749  13.897  26.842  0.00  0.00    +0.137 A 
ATOM     14  N   UNL     1      -6.084  13.119  27.746  0.00  0.00    -0.247 N 
ATOM     15  N   UNL     1      -4.956  12.613  27.211  0.00  0.00    -0.065 NA
BRANCH  14  16
ATOM     16  C   UNL     1      -6.323  13.021  29.176  0.00  0.00    +0.180 C 
BRANCH  16  17
ATOM     17  C   UNL     1      -5.163  13.489  30.019  0.00  0.00    -0.026 A 
ATOM     18  C   UNL     1      -4.229  12.576  30.532  0.00  0.00    +0.005 A 
ATOM     19  C   UNL     1      -3.106  13.028  31.230  0.00  0.00    +0.000 A 
ATOM     20  C   UNL     1      -2.903  14.392  31.420  0.00  0.00    +0.000 A 
ATOM     21  C   UNL     1      -3.827  15.309  30.924  0.00  0.00    +0.000 A 
ATOM     22  C   UNL     1      -4.951  14.861  30.226  0.00  0.00    +0.005 A 
ENDBRANCH  16  17
ENDBRANCH  14  16
ENDBRANCH  10  12
ENDBRANCH   9  10
ENDBRANCH   5   9
ENDBRANCH   4   7
ENDBRANCH   1   4
BRANCH   1  23
ATOM     23  C   UNL     1      -4.023  10.129  23.441  0.00  0.00    +0.175 C 
BRANCH  23  24
ATOM     24  C   UNL     1      -3.975   9.795  24.939  0.00  0.00    +0.176 C 
ATOM     25  O   UNL     1      -2.993   8.741  25.132  0.00  0.00    -0.332 OA
ATOM     26  C   UNL     1      -2.733   8.363  26.524  0.00  0.00    +0.277 C 
ATOM     27  C   UNL     1      -4.054   7.984  27.237  0.00  0.00    +0.110 C 
ATOM     28  C   UNL     1      -5.140   9.061  27.034  0.00  0.00    +0.143 C 
ATOM     29  C   UNL     1      -5.326   9.380  25.550  0.00  0.00    +0.133 C 
BRANCH  29  30
ATOM     30  N   UNL     1      -6.300  10.468  25.375  0.00  0.00    -0.308 N 
ATOM     31  H   UNL     1      -6.069  11.375  25.757  0.00  0.00    +0.149 HD
ATOM     32  C   UNL     1      -7.470  10.337  24.744  0.00  0.00    +0.210 C 
ATOM     33  C   UNL     1      -7.805   8.938  24.195  0.00  0.00    +0.109 C 
ATOM     34  O   UNL     1      -8.260  11.271  24.599  0.00  0.00    -0.276 OA
ENDBRANCH  29  30
BRANCH  26  35
ATOM     35  C   UNL     1      -2.049   9.517  27.286  0.00  0.00    +0.414 C 
ATOM     36  O   UNL     1      -1.231  10.237  26.715  0.00  0.00    -0.240 OA
ATOM     37  O   UNL     1      -2.314   9.727  28.470  0.00  0.00    -0.240 OA
ENDBRANCH  26  35
BRANCH  26  38
ATOM     38  O   UNL     1      -1.866   7.199  26.519  0.00  0.00    -0.343 OA
ATOM     39  C   UNL     1      -2.127   6.236  27.571  0.00  0.00    +0.198 C 
ENDBRANCH  26  38
BRANCH  28  40
ATOM     40  O   UNL     1      -6.380   8.604  27.576  0.00  0.00    -0.390 OA
ATOM     41  H   UNL     1      -6.787   9.309  28.085  0.00  0.00    +0.210 HD
ENDBRANCH  28  40
ENDBRANCH  23  24
BRANCH  23  42
ATOM     42  O   UNL     1      -3.775   8.943  22.660  0.00  0.00    -0.387 OA
ATOM     43  H   UNL     1      -4.343   8.944  21.886  0.00  0.00    +0.210 HD
ENDBRANCH  23  42
ENDBRANCH   1  23
TORSDOF 15
