REMARK VINA RESULT:    -4.072      3.196      7.452
REMARK INTER + INTRA:         -11.459
REMARK INTER:                  -7.873
REMARK INTRA:                  -3.585
REMARK UNBOUND:                -3.458
REMARK  Name = lig_assembled_43.pdb
REMARK  20 active torsions:
REMARK  status: ('A' for Active; 'I' for Inactive)
REMARK    1  A    between atoms: _2  and  _9
REMARK    2  A    between atoms: _4  and  _18
REMARK    3  A    between atoms: _6  and  _7
REMARK    4  A    between atoms: _6  and  _18
REMARK    5  A    between atoms: _9  and  _10
REMARK    6  A    between atoms: _10  and  _11
REMARK    7  A    between atoms: _11  and  _12
REMARK    8  A    between atoms: _12  and  _13
REMARK    9  A    between atoms: _14  and  _34
REMARK   10  A    between atoms: _16  and  _22
REMARK   11  A    between atoms: _17  and  _21
REMARK   12  A    between atoms: _21  and  _22
REMARK   13  A    between atoms: _24  and  _25
REMARK   14  A    between atoms: _26  and  _27
REMARK   15  A    between atoms: _28  and  _30
REMARK   16  A    between atoms: _30  and  _31
REMARK   17  A    between atoms: _30  and  _32
REMARK   18  A    between atoms: _32  and  _33
REMARK   19  A    between atoms: _32  and  _34
REMARK   20  A    between atoms: _35  and  _37
REMARK                            x       y       z     vdW  Elec       q    Type
REMARK                         _______ _______ _______ _____ _____    ______ ____
ROOT
ATOM      1  C   UNL     1      -4.016  13.190  21.979  0.00  0.00    +0.163 C 
ENDROOT
BRANCH   1   2
ATOM      2  O   UNL     1      -5.171  13.112  21.127  0.00  0.00    -0.388 OA
ATOM      3  H   UNL     1      -5.131  13.808  20.468  0.00  0.00    +0.210 HD
ENDBRANCH   1   2
BRANCH   1   4
ATOM      4  C   UNL     1      -4.383  12.857  23.435  0.00  0.00    +0.175 C 
BRANCH   4   5
ATOM      5  C   UNL     1      -5.575  13.685  23.935  0.00  0.00    +0.176 C 
ATOM      6  O   UNL     1      -5.375  15.061  23.508  0.00  0.00    -0.332 OA
ATOM      7  C   UNL     1      -6.473  15.984  23.807  0.00  0.00    +0.277 C 
ATOM      8  C   UNL     1      -6.813  15.950  25.317  0.00  0.00    +0.110 C 
ATOM      9  C   UNL     1      -7.004  14.505  25.825  0.00  0.00    +0.143 C 
ATOM     10  C   UNL     1      -5.804  13.631  25.457  0.00  0.00    +0.133 C 
BRANCH  10  11
ATOM     11  N   UNL     1      -6.036  12.238  25.870  0.00  0.00    -0.308 N 
ATOM     12  H   UNL     1      -6.730  11.705  25.364  0.00  0.00    +0.149 HD
ATOM     13  C   UNL     1      -5.389  11.631  26.869  0.00  0.00    +0.210 C 
ATOM     14  C   UNL     1      -4.357  12.477  27.636  0.00  0.00    +0.109 C 
ATOM     15  O   UNL     1      -5.594  10.458  27.183  0.00  0.00    -0.276 OA
ENDBRANCH  10  11
BRANCH   7  16
ATOM     16  C   UNL     1      -7.730  15.623  22.988  0.00  0.00    +0.414 C 
ATOM     17  O   UNL     1      -8.813  16.142  23.253  0.00  0.00    -0.240 OA
ATOM     18  O   UNL     1      -7.660  14.813  22.062  0.00  0.00    -0.240 OA
ENDBRANCH   7  16
BRANCH   9  19
ATOM     19  O   UNL     1      -7.164  14.511  27.244  0.00  0.00    -0.390 OA
ATOM     20  H   UNL     1      -6.302  14.555  27.664  0.00  0.00    +0.210 HD
ENDBRANCH   9  19
BRANCH   7  21
ATOM     21  O   UNL     1      -6.037  17.325  23.467  0.00  0.00    -0.343 OA
ATOM     22  C   UNL     1      -6.082  18.279  24.558  0.00  0.00    +0.198 C 
ENDBRANCH   7  21
ENDBRANCH   4   5
BRANCH   4  23
ATOM     23  O   UNL     1      -3.242  13.060  24.293  0.00  0.00    -0.387 OA
ATOM     24  H   UNL     1      -3.262  12.420  25.009  0.00  0.00    +0.210 HD
ENDBRANCH   4  23
ENDBRANCH   1   4
BRANCH   1  25
ATOM     25  C   UNL     1      -2.942  12.225  21.490  0.00  0.00    +0.141 C 
BRANCH  25  28
ATOM     26  C   UNL     1      -3.752   9.920  21.860  0.00  0.00    +0.401 C 
ATOM     27  O   UNL     1      -4.520   9.935  20.895  0.00  0.00    -0.226 OA
ATOM     28  N   UNL     1      -2.981  10.949  22.215  0.00  0.00    -0.279 N 
ATOM     29  H   UNL     1      -2.391  10.844  23.028  0.00  0.00    +0.152 HD
BRANCH  26  30
ATOM     30  O   UNL     1      -3.670   8.741  22.664  0.00  0.00    -0.444 OA
BRANCH  30  31
ATOM     31  C   UNL     1      -4.413   8.932  23.871  0.00  0.00    +0.292 C 
BRANCH  31  33
ATOM     32  N   UNL     1      -2.660  10.144  25.131  0.00  0.00    -0.131 NA
ATOM     33  C   UNL     1      -3.500   9.066  25.020  0.00  0.00    +0.120 A 
ATOM     34  C   UNL     1      -3.310   8.234  26.101  0.00  0.00    +0.137 A 
ATOM     35  N   UNL     1      -2.340   8.859  26.826  0.00  0.00    -0.251 N 
ATOM     36  N   UNL     1      -1.952  10.005  26.244  0.00  0.00    -0.065 NA
BRANCH  35  37
ATOM     37  C   UNL     1      -1.716   8.411  28.053  0.00  0.00    +0.145 C 
BRANCH  37  38
ATOM     38  C   UNL     1      -2.685   8.478  29.230  0.00  0.00    +0.024 C 
BRANCH  38  39
ATOM     39  C   UNL     1      -2.867   9.908  29.745  0.00  0.00    +0.006 C 
BRANCH  39  40
ATOM     40  C   UNL     1      -2.937   9.923  31.273  0.00  0.00    +0.026 C 
BRANCH  40  41
ATOM     41  C   UNL     1      -2.996  11.319  31.820  0.00  0.00    -0.034 C 
ATOM     42  C   UNL     1      -3.477  12.366  31.139  0.00  0.00    +0.004 C 
ENDBRANCH  40  41
ENDBRANCH  39  40
ENDBRANCH  38  39
ENDBRANCH  37  38
ENDBRANCH  35  37
ENDBRANCH  31  33
ENDBRANCH  30  31
ENDBRANCH  26  30
ENDBRANCH  25  28
ENDBRANCH   1  25
TORSDOF 18
