REMARK VINA RESULT:    -4.295      3.486      5.794
REMARK INTER + INTRA:         -10.898
REMARK INTER:                  -7.852
REMARK INTRA:                  -3.046
REMARK UNBOUND:                -3.213
REMARK  Name = lig_assembled_46.pdb
REMARK  17 active torsions:
REMARK  status: ('A' for Active; 'I' for Inactive)
REMARK    1  A    between atoms: _2  and  _9
REMARK    2  A    between atoms: _4  and  _19
REMARK    3  A    between atoms: _6  and  _7
REMARK    4  A    between atoms: _6  and  _19
REMARK    5  A    between atoms: _9  and  _10
REMARK    6  A    between atoms: _15  and  _35
REMARK    7  A    between atoms: _17  and  _23
REMARK    8  A    between atoms: _18  and  _22
REMARK    9  A    between atoms: _22  and  _23
REMARK   10  A    between atoms: _25  and  _26
REMARK   11  A    between atoms: _27  and  _28
REMARK   12  A    between atoms: _29  and  _31
REMARK   13  A    between atoms: _31  and  _32
REMARK   14  A    between atoms: _31  and  _33
REMARK   15  A    between atoms: _33  and  _34
REMARK   16  A    between atoms: _33  and  _35
REMARK   17  A    between atoms: _36  and  _38
REMARK                            x       y       z     vdW  Elec       q    Type
REMARK                         _______ _______ _______ _____ _____    ______ ____
ROOT
ATOM      1  C   UNL     1      -3.097  11.163  30.770  0.00  0.00    +0.163 C 
ENDROOT
BRANCH   1   2
ATOM      2  O   UNL     1      -2.036  11.380  31.714  0.00  0.00    -0.388 OA
ATOM      3  H   UNL     1      -1.344  10.729  31.573  0.00  0.00    +0.210 HD
ENDBRANCH   1   2
BRANCH   1   4
ATOM      4  C   UNL     1      -4.426  11.617  31.365  0.00  0.00    +0.141 C 
BRANCH   4   7
ATOM      5  C   UNL     1      -5.690  13.031  29.781  0.00  0.00    +0.401 C 
ATOM      6  O   UNL     1      -5.102  14.069  30.093  0.00  0.00    -0.226 OA
ATOM      7  N   UNL     1      -5.442  11.841  30.329  0.00  0.00    -0.279 N 
ATOM      8  H   UNL     1      -5.983  11.048  30.014  0.00  0.00    +0.152 HD
BRANCH   5   9
ATOM      9  O   UNL     1      -6.706  13.083  28.776  0.00  0.00    -0.444 OA
BRANCH   9  10
ATOM     10  C   UNL     1      -6.461  14.191  27.906  0.00  0.00    +0.292 C 
BRANCH  10  12
ATOM     11  N   UNL     1      -7.865  13.324  26.061  0.00  0.00    -0.131 NA
ATOM     12  C   UNL     1      -6.655  13.792  26.499  0.00  0.00    +0.120 A 
ATOM     13  C   UNL     1      -5.779  13.840  25.436  0.00  0.00    +0.137 A 
ATOM     14  N   UNL     1      -6.532  13.444  24.368  0.00  0.00    -0.247 N 
ATOM     15  N   UNL     1      -7.783  13.121  24.752  0.00  0.00    -0.065 NA
BRANCH  14  16
ATOM     16  C   UNL     1      -6.214  13.588  22.958  0.00  0.00    +0.180 C 
BRANCH  16  17
ATOM     17  C   UNL     1      -5.086  12.699  22.497  0.00  0.00    -0.026 A 
ATOM     18  C   UNL     1      -5.042  11.343  22.857  0.00  0.00    +0.005 A 
ATOM     19  C   UNL     1      -4.047  10.506  22.346  0.00  0.00    +0.000 A 
ATOM     20  C   UNL     1      -3.090  11.011  21.470  0.00  0.00    +0.000 A 
ATOM     21  C   UNL     1      -3.117  12.357  21.111  0.00  0.00    +0.000 A 
ATOM     22  C   UNL     1      -4.110  13.196  21.620  0.00  0.00    +0.005 A 
ENDBRANCH  16  17
ENDBRANCH  14  16
ENDBRANCH  10  12
ENDBRANCH   9  10
ENDBRANCH   5   9
ENDBRANCH   4   7
ENDBRANCH   1   4
BRANCH   1  23
ATOM     23  C   UNL     1      -3.190   9.678  30.378  0.00  0.00    +0.175 C 
BRANCH  23  24
ATOM     24  C   UNL     1      -3.003   9.467  28.868  0.00  0.00    +0.176 C 
ATOM     25  O   UNL     1      -4.115  10.108  28.185  0.00  0.00    -0.332 OA
ATOM     26  C   UNL     1      -4.050  10.100  26.721  0.00  0.00    +0.277 C 
ATOM     27  C   UNL     1      -3.877   8.654  26.195  0.00  0.00    +0.110 C 
ATOM     28  C   UNL     1      -2.726   7.920  26.915  0.00  0.00    +0.143 C 
ATOM     29  C   UNL     1      -2.892   7.994  28.433  0.00  0.00    +0.133 C 
BRANCH  29  30
ATOM     30  N   UNL     1      -1.745   7.367  29.108  0.00  0.00    -0.308 N 
ATOM     31  H   UNL     1      -0.833   7.780  28.970  0.00  0.00    +0.149 HD
ATOM     32  C   UNL     1      -1.830   6.288  29.891  0.00  0.00    +0.210 C 
ATOM     33  C   UNL     1      -3.229   5.666  30.059  0.00  0.00    +0.109 C 
ATOM     34  O   UNL     1      -0.853   5.793  30.455  0.00  0.00    -0.276 OA
ENDBRANCH  29  30
BRANCH  26  35
ATOM     35  C   UNL     1      -2.880  10.973  26.220  0.00  0.00    +0.414 C 
ATOM     36  O   UNL     1      -2.106  10.543  25.366  0.00  0.00    -0.240 OA
ATOM     37  O   UNL     1      -2.711  12.107  26.670  0.00  0.00    -0.240 OA
ENDBRANCH  26  35
BRANCH  26  38
ATOM     38  O   UNL     1      -5.303  10.624  26.212  0.00  0.00    -0.343 OA
ATOM     39  C   UNL     1      -6.493   9.983  26.737  0.00  0.00    +0.198 C 
ENDBRANCH  26  38
BRANCH  28  40
ATOM     40  O   UNL     1      -2.700   6.550  26.510  0.00  0.00    -0.390 OA
ATOM     41  H   UNL     1      -1.963   6.406  25.912  0.00  0.00    +0.210 HD
ENDBRANCH  28  40
ENDBRANCH  23  24
BRANCH  23  42
ATOM     42  O   UNL     1      -4.454   9.130  30.803  0.00  0.00    -0.387 OA
ATOM     43  H   UNL     1      -4.801   8.555  30.117  0.00  0.00    +0.210 HD
ENDBRANCH  23  42
ENDBRANCH   1  23
TORSDOF 15
