REMARK VINA RESULT:    -5.342      3.673      6.535
REMARK INTER + INTRA:         -12.523
REMARK INTER:                 -10.662
REMARK INTRA:                  -1.861
REMARK UNBOUND:                -2.966
REMARK  Name = lig_assembled_89.pdb
REMARK  19 active torsions:
REMARK  status: ('A' for Active; 'I' for Inactive)
REMARK    1  A    between atoms: _2  and  _12
REMARK    2  A    between atoms: _5  and  _20
REMARK    3  A    between atoms: _7  and  _29
REMARK    4  A    between atoms: _9  and  _10
REMARK    5  A    between atoms: _9  and  _29
REMARK    6  A    between atoms: _20  and  _21
REMARK    7  A    between atoms: _20  and  _22
REMARK    8  A    between atoms: _25  and  _45
REMARK    9  A    between atoms: _27  and  _33
REMARK   10  A    between atoms: _28  and  _32
REMARK   11  A    between atoms: _32  and  _33
REMARK   12  A    between atoms: _35  and  _36
REMARK   13  A    between atoms: _37  and  _38
REMARK   14  A    between atoms: _39  and  _41
REMARK   15  A    between atoms: _41  and  _42
REMARK   16  A    between atoms: _41  and  _43
REMARK   17  A    between atoms: _43  and  _44
REMARK   18  A    between atoms: _43  and  _45
REMARK   19  A    between atoms: _46  and  _48
REMARK                            x       y       z     vdW  Elec       q    Type
REMARK                         _______ _______ _______ _____ _____    ______ ____
ROOT
ATOM      1  C   UNL     1      -4.234  10.704  20.504  0.00  0.00    +0.401 C 
ATOM      2  O   UNL     1      -4.370   9.596  21.028  0.00  0.00    -0.226 OA
ATOM      3  N   UNL     1      -4.727  11.027  19.307  0.00  0.00    -0.279 N 
ATOM      4  H   UNL     1      -4.571  11.965  18.965  0.00  0.00    +0.152 HD
ENDROOT
BRANCH   3   5
ATOM      5  C   UNL     1      -5.483  10.097  18.460  0.00  0.00    +0.141 C 
BRANCH   5   6
ATOM      6  C   UNL     1      -4.583   9.380  17.459  0.00  0.00    +0.163 C 
BRANCH   6   7
ATOM      7  O   UNL     1      -5.082   8.056  17.209  0.00  0.00    -0.388 OA
ATOM      8  H   UNL     1      -5.144   7.911  16.262  0.00  0.00    +0.210 HD
ENDBRANCH   6   7
BRANCH   6   9
ATOM      9  C   UNL     1      -4.510  10.196  16.156  0.00  0.00    +0.175 C 
BRANCH   9  10
ATOM     10  C   UNL     1      -3.983   9.361  14.980  0.00  0.00    +0.176 C 
ATOM     11  O   UNL     1      -2.878   8.551  15.466  0.00  0.00    -0.332 OA
ATOM     12  C   UNL     1      -2.313   7.605  14.500  0.00  0.00    +0.277 C 
ATOM     13  C   UNL     1      -1.891   8.340  13.205  0.00  0.00    +0.110 C 
ATOM     14  C   UNL     1      -3.024   9.240  12.667  0.00  0.00    +0.143 C 
ATOM     15  C   UNL     1      -3.540  10.182  13.755  0.00  0.00    +0.133 C 
BRANCH  15  16
ATOM     16  N   UNL     1      -4.676  10.972  13.255  0.00  0.00    -0.308 N 
ATOM     17  H   UNL     1      -5.538  10.484  13.053  0.00  0.00    +0.149 HD
ATOM     18  C   UNL     1      -4.644  12.292  13.053  0.00  0.00    +0.210 C 
ATOM     19  C   UNL     1      -3.310  13.003  13.346  0.00  0.00    +0.109 C 
ATOM     20  O   UNL     1      -5.616  12.931  12.648  0.00  0.00    -0.276 OA
ENDBRANCH  15  16
BRANCH  12  21
ATOM     21  C   UNL     1      -3.332   6.499  14.157  0.00  0.00    +0.414 C 
ATOM     22  O   UNL     1      -4.333   6.340  14.855  0.00  0.00    -0.240 OA
ATOM     23  O   UNL     1      -3.155   5.766  13.183  0.00  0.00    -0.240 OA
ENDBRANCH  12  21
BRANCH  14  24
ATOM     24  O   UNL     1      -2.545  10.011  11.564  0.00  0.00    -0.390 OA
ATOM     25  H   UNL     1      -2.454   9.446  10.793  0.00  0.00    +0.210 HD
ENDBRANCH  14  24
BRANCH  12  26
ATOM     26  O   UNL     1      -1.129   7.010  15.094  0.00  0.00    -0.343 OA
ATOM     27  C   UNL     1      -1.354   6.325  16.352  0.00  0.00    +0.198 C 
ENDBRANCH  12  26
ENDBRANCH   9  10
BRANCH   9  28
ATOM     28  O   UNL     1      -3.686  11.363  16.346  0.00  0.00    -0.387 OA
ATOM     29  H   UNL     1      -4.102  12.121  15.929  0.00  0.00    +0.210 HD
ENDBRANCH   9  28
ENDBRANCH   6   9
ENDBRANCH   5   6
ENDBRANCH   3   5
BRANCH   1  30
ATOM     30  O   UNL     1      -3.511  11.720  21.204  0.00  0.00    -0.444 OA
BRANCH  30  31
ATOM     31  C   UNL     1      -4.257  12.131  22.352  0.00  0.00    +0.292 C 
BRANCH  31  33
ATOM     32  N   UNL     1      -2.635  12.617  24.144  0.00  0.00    -0.131 NA
ATOM     33  C   UNL     1      -3.538  11.763  23.584  0.00  0.00    +0.121 A 
ATOM     34  C   UNL     1      -3.626  10.632  24.359  0.00  0.00    +0.145 A 
ATOM     35  N   UNL     1      -2.763  10.849  25.416  0.00  0.00    -0.199 N 
ATOM     36  N   UNL     1      -2.177  12.058  25.257  0.00  0.00    -0.059 NA
BRANCH  35  37
ATOM     37  C   UNL     1      -2.592   9.990  26.542  0.00  0.00    +0.186 A 
ATOM     38  C   UNL     1      -3.035  10.139  27.840  0.00  0.00    +0.158 A 
ATOM     39  C   UNL     1      -3.680  11.208  28.539  0.00  0.00    +0.280 A 
ATOM     40  O   UNL     1      -3.649  12.365  28.141  0.00  0.00    -0.265 OA
ATOM     41  N   UNL     1      -4.326  10.840  29.736  0.00  0.00    -0.302 N 
ATOM     42  C   UNL     1      -3.959   9.616  30.413  0.00  0.00    +0.069 A 
ATOM     43  C   UNL     1      -4.352   9.329  31.728  0.00  0.00    +0.028 A 
ATOM     44  C   UNL     1      -3.935   8.155  32.371  0.00  0.00    +0.002 A 
ATOM     45  C   UNL     1      -3.125   7.237  31.712  0.00  0.00    +0.002 A 
ATOM     46  C   UNL     1      -2.727   7.483  30.402  0.00  0.00    +0.028 A 
ATOM     47  C   UNL     1      -3.135   8.666  29.768  0.00  0.00    +0.072 A 
ATOM     48  N   UNL     1      -2.743   8.949  28.450  0.00  0.00    -0.291 N 
ATOM     49  C   UNL     1      -2.047   8.186  27.547  0.00  0.00    +0.207 A 
ATOM     50  N   UNL     1      -1.946   8.780  26.377  0.00  0.00    -0.216 NA
BRANCH  41  51
ATOM     51  C   UNL     1      -5.223  11.832  30.374  0.00  0.00    +0.085 C 
ATOM     52  C   UNL     1      -6.367  12.311  29.459  0.00  0.00    +0.030 C 
ATOM     53  C   UNL     1      -4.447  13.025  30.929  0.00  0.00    +0.030 C 
ENDBRANCH  41  51
ENDBRANCH  35  37
ENDBRANCH  31  33
ENDBRANCH  30  31
ENDBRANCH   1  30
TORSDOF 15
