REMARK VINA RESULT:    -5.008      2.936      6.912
REMARK INTER + INTRA:         -11.176
REMARK INTER:                  -8.193
REMARK INTRA:                  -2.983
REMARK UNBOUND:                -2.508
REMARK  Name = lig_assembled_48.pdb
REMARK  16 active torsions:
REMARK  status: ('A' for Active; 'I' for Inactive)
REMARK    1  A    between atoms: _2  and  _9
REMARK    2  A    between atoms: _4  and  _18
REMARK    3  A    between atoms: _6  and  _7
REMARK    4  A    between atoms: _6  and  _18
REMARK    5  A    between atoms: _14  and  _34
REMARK    6  A    between atoms: _16  and  _22
REMARK    7  A    between atoms: _17  and  _21
REMARK    8  A    between atoms: _21  and  _22
REMARK    9  A    between atoms: _24  and  _25
REMARK   10  A    between atoms: _26  and  _27
REMARK   11  A    between atoms: _28  and  _30
REMARK   12  A    between atoms: _30  and  _31
REMARK   13  A    between atoms: _30  and  _32
REMARK   14  A    between atoms: _32  and  _33
REMARK   15  A    between atoms: _32  and  _34
REMARK   16  A    between atoms: _35  and  _37
REMARK                            x       y       z     vdW  Elec       q    Type
REMARK                         _______ _______ _______ _____ _____    ______ ____
ROOT
ATOM      1  C   UNL     1      -5.456   8.350  25.254  0.00  0.00    +0.163 C 
ENDROOT
BRANCH   1   2
ATOM      2  O   UNL     1      -5.797   9.036  26.470  0.00  0.00    -0.388 OA
ATOM      3  H   UNL     1      -6.583   9.568  26.328  0.00  0.00    +0.210 HD
ENDBRANCH   1   2
BRANCH   1   4
ATOM      4  C   UNL     1      -3.983   7.954  25.274  0.00  0.00    +0.141 C 
BRANCH   4   7
ATOM      5  C   UNL     1      -2.178   7.895  26.961  0.00  0.00    +0.401 C 
ATOM      6  O   UNL     1      -1.594   6.942  26.439  0.00  0.00    -0.226 OA
ATOM      7  N   UNL     1      -3.305   8.428  26.486  0.00  0.00    -0.279 N 
ATOM      8  H   UNL     1      -3.715   9.202  26.990  0.00  0.00    +0.152 HD
BRANCH   5   9
ATOM      9  O   UNL     1      -1.636   8.476  28.149  0.00  0.00    -0.444 OA
BRANCH   9  10
ATOM     10  C   UNL     1      -2.472   8.154  29.263  0.00  0.00    +0.292 C 
BRANCH  10  12
ATOM     11  N   UNL     1      -4.324   9.779  29.084  0.00  0.00    -0.131 NA
ATOM     12  C   UNL     1      -3.192   9.356  29.721  0.00  0.00    +0.120 A 
ATOM     13  C   UNL     1      -2.928  10.199  30.778  0.00  0.00    +0.137 A 
ATOM     14  N   UNL     1      -3.987  11.059  30.793  0.00  0.00    -0.248 N 
ATOM     15  N   UNL     1      -4.783  10.844  29.723  0.00  0.00    -0.065 NA
BRANCH  14  16
ATOM     16  C   UNL     1      -4.379  12.068  31.769  0.00  0.00    +0.109 C 
ATOM     17  C   UNL     1      -3.144  12.749  32.389  0.00  0.00    +0.027 C 
ATOM     18  C   UNL     1      -2.462  13.683  31.392  0.00  0.00    +0.002 C 
ATOM     19  C   UNL     1      -3.419  14.774  30.928  0.00  0.00    +0.000 C 
ATOM     20  C   UNL     1      -4.719  14.208  30.363  0.00  0.00    +0.002 C 
ATOM     21  C   UNL     1      -5.359  13.145  31.264  0.00  0.00    +0.027 C 
ENDBRANCH  14  16
ENDBRANCH  10  12
ENDBRANCH   9  10
ENDBRANCH   5   9
ENDBRANCH   4   7
ENDBRANCH   1   4
BRANCH   1  22
ATOM     22  C   UNL     1      -5.734   9.234  24.027  0.00  0.00    +0.175 C 
BRANCH  22  23
ATOM     23  C   UNL     1      -4.827  10.473  23.989  0.00  0.00    +0.176 C 
ATOM     24  O   UNL     1      -5.205  11.338  25.095  0.00  0.00    -0.332 OA
ATOM     25  C   UNL     1      -4.370  12.529  25.282  0.00  0.00    +0.277 C 
ATOM     26  C   UNL     1      -4.302  13.352  23.973  0.00  0.00    +0.110 C 
ATOM     27  C   UNL     1      -3.934  12.469  22.762  0.00  0.00    +0.143 C 
ATOM     28  C   UNL     1      -4.863  11.258  22.665  0.00  0.00    +0.133 C 
BRANCH  28  29
ATOM     29  N   UNL     1      -4.448  10.378  21.560  0.00  0.00    -0.308 N 
ATOM     30  H   UNL     1      -3.535   9.951  21.615  0.00  0.00    +0.149 HD
ATOM     31  C   UNL     1      -5.200  10.108  20.490  0.00  0.00    +0.210 C 
ATOM     32  C   UNL     1      -6.577  10.796  20.423  0.00  0.00    +0.109 C 
ATOM     33  O   UNL     1      -4.833   9.356  19.587  0.00  0.00    -0.276 OA
ENDBRANCH  28  29
BRANCH  25  34
ATOM     34  C   UNL     1      -2.944  12.134  25.718  0.00  0.00    +0.414 C 
ATOM     35  O   UNL     1      -2.772  11.425  26.709  0.00  0.00    -0.240 OA
ATOM     36  O   UNL     1      -1.966  12.524  25.080  0.00  0.00    -0.240 OA
ENDBRANCH  25  34
BRANCH  27  37
ATOM     37  O   UNL     1      -4.030  13.234  21.560  0.00  0.00    -0.390 OA
ATOM     38  H   UNL     1      -3.842  12.670  20.806  0.00  0.00    +0.210 HD
ENDBRANCH  27  37
BRANCH  25  39
ATOM     39  O   UNL     1      -4.985  13.351  26.308  0.00  0.00    -0.343 OA
ATOM     40  C   UNL     1      -6.176  12.786  26.912  0.00  0.00    +0.198 C 
ENDBRANCH  25  39
ENDBRANCH  22  23
BRANCH  22  41
ATOM     41  O   UNL     1      -7.119   9.633  24.006  0.00  0.00    -0.387 OA
ATOM     42  H   UNL     1      -7.643   8.998  24.501  0.00  0.00    +0.210 HD
ENDBRANCH  22  41
ENDBRANCH   1  22
TORSDOF 14
