REMARK VINA RESULT:    -4.912      2.897      5.923
REMARK INTER + INTRA:         -12.975
REMARK INTER:                  -8.595
REMARK INTRA:                  -4.380
REMARK UNBOUND:                -3.181
REMARK  Name = lig_assembled_76.pdb
REMARK  21 active torsions:
REMARK  status: ('A' for Active; 'I' for Inactive)
REMARK    1  A    between atoms: _2  and  _9
REMARK    2  A    between atoms: _4  and  _23
REMARK    3  A    between atoms: _6  and  _7
REMARK    4  A    between atoms: _6  and  _23
REMARK    5  A    between atoms: _9  and  _10
REMARK    6  A    between atoms: _10  and  _11
REMARK    7  A    between atoms: _10  and  _18
REMARK    8  A    between atoms: _11  and  _12
REMARK    9  A    between atoms: _12  and  _13
REMARK   10  A    between atoms: _19  and  _39
REMARK   11  A    between atoms: _21  and  _27
REMARK   12  A    between atoms: _22  and  _26
REMARK   13  A    between atoms: _26  and  _27
REMARK   14  A    between atoms: _29  and  _30
REMARK   15  A    between atoms: _31  and  _32
REMARK   16  A    between atoms: _33  and  _35
REMARK   17  A    between atoms: _35  and  _36
REMARK   18  A    between atoms: _35  and  _37
REMARK   19  A    between atoms: _37  and  _38
REMARK   20  A    between atoms: _37  and  _39
REMARK   21  A    between atoms: _40  and  _42
REMARK                            x       y       z     vdW  Elec       q    Type
REMARK                         _______ _______ _______ _____ _____    ______ ____
ROOT
ATOM      1  C   UNL     1      -2.194   7.871  28.506  0.00  0.00    +0.141 C 
ENDROOT
BRANCH   1   4
ATOM      2  C   UNL     1      -3.489   7.469  30.573  0.00  0.00    +0.401 C 
ATOM      3  O   UNL     1      -4.332   6.760  30.018  0.00  0.00    -0.226 OA
ATOM      4  N   UNL     1      -2.459   8.035  29.941  0.00  0.00    -0.279 N 
ATOM      5  H   UNL     1      -1.825   8.608  30.480  0.00  0.00    +0.152 HD
BRANCH   2   6
ATOM      6  O   UNL     1      -3.604   7.717  31.976  0.00  0.00    -0.444 OA
BRANCH   6   7
ATOM      7  C   UNL     1      -4.552   8.765  32.200  0.00  0.00    +0.292 C 
BRANCH   7   9
ATOM      8  N   UNL     1      -2.540  10.195  31.964  0.00  0.00    -0.131 NA
ATOM      9  C   UNL     1      -3.871  10.068  32.271  0.00  0.00    +0.120 A 
ATOM     10  C   UNL     1      -4.369  11.300  32.635  0.00  0.00    +0.137 A 
ATOM     11  N   UNL     1      -3.297  12.129  32.524  0.00  0.00    -0.249 N 
ATOM     12  N   UNL     1      -2.197  11.466  32.131  0.00  0.00    -0.065 NA
BRANCH  11  13
ATOM     13  C   UNL     1      -3.215  13.523  32.900  0.00  0.00    +0.176 C 
BRANCH  13  14
ATOM     14  C   UNL     1      -3.153  14.464  31.693  0.00  0.00    +0.136 C 
BRANCH  14  15
ATOM     15  O   UNL     1      -2.585  13.784  30.564  0.00  0.00    -0.390 OA
ATOM     16  H   UNL     1      -1.618  13.752  30.665  0.00  0.00    +0.210 HD
ENDBRANCH  14  15
BRANCH  14  17
ATOM     17  C   UNL     1      -4.541  14.973  31.272  0.00  0.00    +0.038 C 
BRANCH  17  18
ATOM     18  C   UNL     1      -4.528  16.402  30.732  0.00  0.00    +0.038 C 
BRANCH  18  19
ATOM     19  C   UNL     1      -5.682  16.667  29.799  0.00  0.00    -0.047 A 
ATOM     20  C   UNL     1      -6.203  17.962  29.670  0.00  0.00    +0.003 A 
ATOM     21  C   UNL     1      -7.260  18.215  28.794  0.00  0.00    +0.000 A 
ATOM     22  C   UNL     1      -7.808  17.175  28.045  0.00  0.00    +0.000 A 
ATOM     23  C   UNL     1      -7.302  15.882  28.176  0.00  0.00    +0.000 A 
ATOM     24  C   UNL     1      -6.247  15.628  29.052  0.00  0.00    +0.003 A 
ENDBRANCH  18  19
ENDBRANCH  17  18
ENDBRANCH  14  17
ENDBRANCH  13  14
ENDBRANCH  11  13
ENDBRANCH   7   9
ENDBRANCH   6   7
ENDBRANCH   2   6
ENDBRANCH   1   4
BRANCH   1  25
ATOM     25  C   UNL     1      -2.108   9.213  27.787  0.00  0.00    +0.163 C 
BRANCH  25  26
ATOM     26  O   UNL     1      -2.089   9.009  26.365  0.00  0.00    -0.388 OA
ATOM     27  H   UNL     1      -1.488   9.638  25.959  0.00  0.00    +0.210 HD
ENDBRANCH  25  26
BRANCH  25  28
ATOM     28  C   UNL     1      -3.299  10.095  28.200  0.00  0.00    +0.175 C 
BRANCH  28  29
ATOM     29  C   UNL     1      -4.091  10.603  26.986  0.00  0.00    +0.176 C 
ATOM     30  O   UNL     1      -3.217  11.471  26.214  0.00  0.00    -0.332 OA
ATOM     31  C   UNL     1      -3.772  11.970  24.952  0.00  0.00    +0.277 C 
ATOM     32  C   UNL     1      -5.128  12.676  25.199  0.00  0.00    +0.110 C 
ATOM     33  C   UNL     1      -6.080  11.804  26.044  0.00  0.00    +0.143 C 
ATOM     34  C   UNL     1      -5.399  11.338  27.332  0.00  0.00    +0.133 C 
BRANCH  34  35
ATOM     35  N   UNL     1      -6.285  10.437  28.086  0.00  0.00    -0.308 N 
ATOM     36  H   UNL     1      -6.477   9.526  27.692  0.00  0.00    +0.149 HD
ATOM     37  C   UNL     1      -6.851  10.744  29.256  0.00  0.00    +0.210 C 
ATOM     38  C   UNL     1      -6.560  12.148  29.816  0.00  0.00    +0.109 C 
ATOM     39  O   UNL     1      -7.578   9.963  29.872  0.00  0.00    -0.276 OA
ENDBRANCH  34  35
BRANCH  31  40
ATOM     40  C   UNL     1      -3.968  10.815  23.947  0.00  0.00    +0.414 C 
ATOM     41  O   UNL     1      -3.113   9.938  23.836  0.00  0.00    -0.240 OA
ATOM     42  O   UNL     1      -4.982  10.761  23.249  0.00  0.00    -0.240 OA
ENDBRANCH  31  40
BRANCH  33  43
ATOM     43  O   UNL     1      -7.252  12.550  26.374  0.00  0.00    -0.390 OA
ATOM     44  H   UNL     1      -7.901  11.967  26.773  0.00  0.00    +0.210 HD
ENDBRANCH  33  43
BRANCH  31  45
ATOM     45  O   UNL     1      -2.843  12.940  24.405  0.00  0.00    -0.343 OA
ATOM     46  C   UNL     1      -3.398  13.815  23.391  0.00  0.00    +0.198 C 
ENDBRANCH  31  45
ENDBRANCH  28  29
BRANCH  28  47
ATOM     47  O   UNL     1      -2.842  11.207  28.996  0.00  0.00    -0.387 OA
ATOM     48  H   UNL     1      -3.598  11.712  29.305  0.00  0.00    +0.210 HD
ENDBRANCH  28  47
ENDBRANCH  25  28
ENDBRANCH   1  25
TORSDOF 19
