REMARK VINA RESULT:    -4.002      4.527      9.840
REMARK INTER + INTRA:         -10.934
REMARK INTER:                  -7.862
REMARK INTRA:                  -3.072
REMARK UNBOUND:                -3.657
REMARK  Name = lig_assembled_88.pdb
REMARK  18 active torsions:
REMARK  status: ('A' for Active; 'I' for Inactive)
REMARK    1  A    between atoms: _2  and  _9
REMARK    2  A    between atoms: _4  and  _20
REMARK    3  A    between atoms: _5  and  _15
REMARK    4  A    between atoms: _6  and  _7
REMARK    5  A    between atoms: _6  and  _20
REMARK    6  A    between atoms: _9  and  _10
REMARK    7  A    between atoms: _16  and  _36
REMARK    8  A    between atoms: _18  and  _24
REMARK    9  A    between atoms: _19  and  _23
REMARK   10  A    between atoms: _23  and  _24
REMARK   11  A    between atoms: _26  and  _27
REMARK   12  A    between atoms: _28  and  _29
REMARK   13  A    between atoms: _30  and  _32
REMARK   14  A    between atoms: _32  and  _33
REMARK   15  A    between atoms: _32  and  _34
REMARK   16  A    between atoms: _34  and  _35
REMARK   17  A    between atoms: _34  and  _36
REMARK   18  A    between atoms: _37  and  _39
REMARK                            x       y       z     vdW  Elec       q    Type
REMARK                         _______ _______ _______ _____ _____    ______ ____
ROOT
ATOM      1  C   UNL     1      -6.290   8.458  23.581  0.00  0.00    +0.163 C 
ENDROOT
BRANCH   1   2
ATOM      2  O   UNL     1      -6.296   8.505  25.017  0.00  0.00    -0.388 OA
ATOM      3  H   UNL     1      -5.746   9.233  25.317  0.00  0.00    +0.210 HD
ENDBRANCH   1   2
BRANCH   1   4
ATOM      4  C   UNL     1      -6.548   9.852  22.984  0.00  0.00    +0.175 C 
BRANCH   4   5
ATOM      5  C   UNL     1      -5.414  10.837  23.304  0.00  0.00    +0.176 C 
ATOM      6  O   UNL     1      -5.498  11.170  24.718  0.00  0.00    -0.332 OA
ATOM      7  C   UNL     1      -4.423  12.024  25.232  0.00  0.00    +0.277 C 
ATOM      8  C   UNL     1      -4.315  13.322  24.394  0.00  0.00    +0.110 C 
ATOM      9  C   UNL     1      -4.256  13.020  22.882  0.00  0.00    +0.143 C 
ATOM     10  C   UNL     1      -5.418  12.122  22.456  0.00  0.00    +0.133 C 
BRANCH  10  11
ATOM     11  N   UNL     1      -5.303  11.771  21.032  0.00  0.00    -0.308 N 
ATOM     12  H   UNL     1      -4.503  11.224  20.744  0.00  0.00    +0.149 HD
ATOM     13  C   UNL     1      -6.184  12.128  20.094  0.00  0.00    +0.210 C 
ATOM     14  C   UNL     1      -7.377  12.984  20.560  0.00  0.00    +0.109 C 
ATOM     15  O   UNL     1      -6.069  11.807  18.911  0.00  0.00    -0.276 OA
ENDBRANCH  10  11
BRANCH   7  16
ATOM     16  C   UNL     1      -3.072  11.280  25.205  0.00  0.00    +0.414 C 
ATOM     17  O   UNL     1      -2.017  11.911  25.150  0.00  0.00    -0.240 OA
ATOM     18  O   UNL     1      -3.037  10.049  25.238  0.00  0.00    -0.240 OA
ENDBRANCH   7  16
BRANCH   7  19
ATOM     19  O   UNL     1      -4.753  12.388  26.597  0.00  0.00    -0.343 OA
ATOM     20  C   UNL     1      -5.872  13.299  26.735  0.00  0.00    +0.198 C 
ENDBRANCH   7  19
BRANCH   9  21
ATOM     21  O   UNL     1      -4.310  14.242  22.144  0.00  0.00    -0.390 OA
ATOM     22  H   UNL     1      -5.099  14.251  21.596  0.00  0.00    +0.210 HD
ENDBRANCH   9  21
ENDBRANCH   4   5
BRANCH   4  23
ATOM     23  O   UNL     1      -7.806  10.371  23.459  0.00  0.00    -0.387 OA
ATOM     24  H   UNL     1      -7.723  10.617  24.383  0.00  0.00    +0.210 HD
ENDBRANCH   4  23
ENDBRANCH   1   4
BRANCH   1  25
ATOM     25  C   UNL     1      -4.949   7.931  23.082  0.00  0.00    +0.141 C 
BRANCH  25  28
ATOM     26  C   UNL     1      -3.224   6.525  24.158  0.00  0.00    +0.401 C 
ATOM     27  O   UNL     1      -3.121   5.754  23.200  0.00  0.00    -0.226 OA
ATOM     28  N   UNL     1      -4.058   7.565  24.191  0.00  0.00    -0.279 N 
ATOM     29  H   UNL     1      -4.077   8.135  25.025  0.00  0.00    +0.152 HD
BRANCH  26  30
ATOM     30  O   UNL     1      -2.413   6.307  25.315  0.00  0.00    -0.444 OA
BRANCH  30  31
ATOM     31  C   UNL     1      -3.253   6.068  26.448  0.00  0.00    +0.292 C 
BRANCH  31  33
ATOM     32  N   UNL     1      -1.759   7.700  27.560  0.00  0.00    -0.131 NA
ATOM     33  C   UNL     1      -2.954   7.031  27.525  0.00  0.00    +0.120 A 
ATOM     34  C   UNL     1      -3.713   7.406  28.611  0.00  0.00    +0.137 A 
ATOM     35  N   UNL     1      -2.894   8.247  29.306  0.00  0.00    -0.247 N 
ATOM     36  N   UNL     1      -1.741   8.461  28.646  0.00  0.00    -0.065 NA
BRANCH  35  37
ATOM     37  C   UNL     1      -3.108   8.822  30.625  0.00  0.00    +0.184 C 
BRANCH  37  38
ATOM     38  C   UNL     1      -3.882  10.125  30.590  0.00  0.00    +0.017 A 
ATOM     39  C   UNL     1      -5.213  10.202  30.137  0.00  0.00    +0.024 A 
ATOM     40  C   UNL     1      -5.896  11.421  30.118  0.00  0.00    +0.019 A 
ATOM     41 BR   UNL     1      -7.666  11.492  29.456  0.00  0.00    -0.050 Br
ATOM     42  C   UNL     1      -5.288  12.585  30.577  0.00  0.00    +0.034 A 
ATOM     43  C   UNL     1      -3.988  12.517  31.072  0.00  0.00    +0.061 A 
ATOM     44 BR   UNL     1      -3.176  14.099  31.731  0.00  0.00    -0.046 Br
ATOM     45  C   UNL     1      -3.294  11.299  31.082  0.00  0.00    +0.136 A 
BRANCH  45  46
ATOM     46  O   UNL     1      -2.021  11.218  31.581  0.00  0.00    -0.505 OA
ATOM     47  H   UNL     1      -1.704  12.130  31.727  0.00  0.00    +0.292 HD
ENDBRANCH  45  46
ENDBRANCH  37  38
ENDBRANCH  35  37
ENDBRANCH  31  33
ENDBRANCH  30  31
ENDBRANCH  26  30
ENDBRANCH  25  28
ENDBRANCH   1  25
TORSDOF 16
