REMARK VINA RESULT:    -4.398      1.852      2.641
REMARK INTER + INTRA:         -11.549
REMARK INTER:                  -8.032
REMARK INTRA:                  -3.516
REMARK UNBOUND:                -3.679
REMARK  Name = lig_assembled_0.pdb
REMARK  17 active torsions:
REMARK  status: ('A' for Active; 'I' for Inactive)
REMARK    1  A    between atoms: _2  and  _10
REMARK    2  A    between atoms: _5  and  _21
REMARK    3  A    between atoms: _7  and  _8
REMARK    4  A    between atoms: _7  and  _21
REMARK    5  A    between atoms: _11  and  _12
REMARK    6  A    between atoms: _17  and  _37
REMARK    7  A    between atoms: _19  and  _25
REMARK    8  A    between atoms: _20  and  _24
REMARK    9  A    between atoms: _24  and  _25
REMARK   10  A    between atoms: _27  and  _28
REMARK   11  A    between atoms: _29  and  _30
REMARK   12  A    between atoms: _31  and  _33
REMARK   13  A    between atoms: _33  and  _34
REMARK   14  A    between atoms: _33  and  _35
REMARK   15  A    between atoms: _35  and  _36
REMARK   16  A    between atoms: _35  and  _37
REMARK   17  A    between atoms: _38  and  _40
REMARK                            x       y       z     vdW  Elec       q    Type
REMARK                         _______ _______ _______ _____ _____    ______ ____
ROOT
ATOM      1  C   UNL     1      -6.135   8.351  24.664  0.00  0.00    +0.163 C 
ENDROOT
BRANCH   1   2
ATOM      2  O   UNL     1      -5.941   9.082  25.885  0.00  0.00    -0.388 OA
ATOM      3  H   UNL     1      -6.774   9.140  26.360  0.00  0.00    +0.210 HD
ENDBRANCH   1   2
BRANCH   1   4
ATOM      4  C   UNL     1      -4.961   7.406  24.430  0.00  0.00    +0.141 C 
BRANCH   4   7
ATOM      5  C   UNL     1      -2.917   6.820  25.688  0.00  0.00    +0.401 C 
ATOM      6  O   UNL     1      -2.943   5.631  25.361  0.00  0.00    -0.226 OA
ATOM      7  N   UNL     1      -3.824   7.719  25.303  0.00  0.00    -0.279 N 
ATOM      8  H   UNL     1      -3.722   8.669  25.632  0.00  0.00    +0.152 HD
BRANCH   5   9
ATOM      9  O   UNL     1      -1.862   7.285  26.534  0.00  0.00    -0.444 OA
BRANCH   9  10
ATOM     10  C   UNL     1      -2.219   7.075  27.903  0.00  0.00    +0.292 C 
BRANCH  10  12
ATOM     11  N   UNL     1      -4.426   8.052  28.415  0.00  0.00    -0.131 NA
ATOM     12  C   UNL     1      -3.069   8.179  28.386  0.00  0.00    +0.121 A 
ATOM     13  C   UNL     1      -2.721   9.416  28.878  0.00  0.00    +0.143 A 
ATOM     14  N   UNL     1      -3.916  10.060  29.111  0.00  0.00    -0.219 N 
ATOM     15  N   UNL     1      -4.930   9.175  28.903  0.00  0.00    -0.060 NA
BRANCH  14  16
ATOM     16  C   UNL     1      -4.189  11.364  29.612  0.00  0.00    +0.079 A 
ATOM     17  C   UNL     1      -3.895  11.801  30.919  0.00  0.00    +0.062 A 
ATOM     18  C   UNL     1      -4.260  13.112  31.296  0.00  0.00    +0.015 A 
ATOM     19  C   UNL     1      -4.913  13.969  30.409  0.00  0.00    +0.001 A 
ATOM     20  C   UNL     1      -5.188  13.543  29.118  0.00  0.00    +0.002 A 
ATOM     21  C   UNL     1      -4.820  12.258  28.718  0.00  0.00    +0.028 A 
BRANCH  17  22
ATOM     22  C   UNL     1      -3.055  11.040  31.886  0.00  0.00    +0.244 C 
ATOM     23  O   UNL     1      -1.893  11.335  32.115  0.00  0.00    -0.270 OA
ATOM     24  N   UNL     1      -3.643  10.000  32.556  0.00  0.00    -0.325 N 
ATOM     25  H   UNL     1      -3.080   9.520  33.248  0.00  0.00    +0.145 HD
ATOM     26  H   UNL     1      -4.600   9.702  32.434  0.00  0.00    +0.145 HD
ENDBRANCH  17  22
ENDBRANCH  14  16
ENDBRANCH  10  12
ENDBRANCH   9  10
ENDBRANCH   5   9
ENDBRANCH   4   7
ENDBRANCH   1   4
BRANCH   1  27
ATOM     27  C   UNL     1      -6.272   9.307  23.466  0.00  0.00    +0.175 C 
BRANCH  27  28
ATOM     28  C   UNL     1      -5.134  10.337  23.416  0.00  0.00    +0.176 C 
ATOM     29  O   UNL     1      -5.406  11.353  24.420  0.00  0.00    -0.332 OA
ATOM     30  C   UNL     1      -4.364  12.370  24.590  0.00  0.00    +0.277 C 
ATOM     31  C   UNL     1      -4.041  13.047  23.235  0.00  0.00    +0.110 C 
ATOM     32  C   UNL     1      -3.776  12.005  22.128  0.00  0.00    +0.143 C 
ATOM     33  C   UNL     1      -4.920  10.994  22.040  0.00  0.00    +0.133 C 
BRANCH  33  34
ATOM     34  N   UNL     1      -4.616   9.957  21.041  0.00  0.00    -0.308 N 
ATOM     35  H   UNL     1      -3.846   9.331  21.231  0.00  0.00    +0.149 HD
ATOM     36  C   UNL     1      -5.290   9.790  19.900  0.00  0.00    +0.210 C 
ATOM     37  C   UNL     1      -6.440  10.777  19.628  0.00  0.00    +0.109 C 
ATOM     38  O   UNL     1      -5.022   8.903  19.089  0.00  0.00    -0.276 OA
ENDBRANCH  33  34
BRANCH  30  39
ATOM     39  C   UNL     1      -3.080  11.746  25.173  0.00  0.00    +0.414 C 
ATOM     40  O   UNL     1      -2.004  12.336  25.077  0.00  0.00    -0.240 OA
ATOM     41  O   UNL     1      -3.119  10.653  25.740  0.00  0.00    -0.240 OA
ENDBRANCH  30  39
BRANCH  32  42
ATOM     42  O   UNL     1      -3.633  12.665  20.869  0.00  0.00    -0.390 OA
ATOM     43  H   UNL     1      -2.850  13.221  20.886  0.00  0.00    +0.210 HD
ENDBRANCH  32  42
BRANCH  30  44
ATOM     44  O   UNL     1      -4.870  13.383  25.497  0.00  0.00    -0.343 OA
ATOM     45  C   UNL     1      -6.141  13.968  25.115  0.00  0.00    +0.198 C 
ENDBRANCH  30  44
ENDBRANCH  27  28
BRANCH  27  46
ATOM     46  O   UNL     1      -7.547   9.978  23.509  0.00  0.00    -0.387 OA
ATOM     47  H   UNL     1      -7.703  10.424  22.673  0.00  0.00    +0.210 HD
ENDBRANCH  27  46
ENDBRANCH   1  27
TORSDOF 15
