REMARK VINA RESULT:    -4.841     10.039     14.577
REMARK INTER + INTRA:         -11.220
REMARK INTER:                  -7.966
REMARK INTRA:                  -3.254
REMARK UNBOUND:                -2.841
REMARK  Name = lig_assembled_86.pdb
REMARK  17 active torsions:
REMARK  status: ('A' for Active; 'I' for Inactive)
REMARK    1  A    between atoms: _2  and  _10
REMARK    2  A    between atoms: _3  and  _13
REMARK    3  A    between atoms: _5  and  _21
REMARK    4  A    between atoms: _7  and  _8
REMARK    5  A    between atoms: _7  and  _21
REMARK    6  A    between atoms: _17  and  _37
REMARK    7  A    between atoms: _19  and  _25
REMARK    8  A    between atoms: _20  and  _24
REMARK    9  A    between atoms: _24  and  _25
REMARK   10  A    between atoms: _27  and  _28
REMARK   11  A    between atoms: _29  and  _30
REMARK   12  A    between atoms: _31  and  _33
REMARK   13  A    between atoms: _33  and  _34
REMARK   14  A    between atoms: _33  and  _35
REMARK   15  A    between atoms: _35  and  _36
REMARK   16  A    between atoms: _35  and  _37
REMARK   17  A    between atoms: _38  and  _40
REMARK                            x       y       z     vdW  Elec       q    Type
REMARK                         _______ _______ _______ _____ _____    ______ ____
ROOT
ATOM      1  C   UNL     1      -2.871   9.246  30.942  0.00  0.00    +0.163 C 
ENDROOT
BRANCH   1   2
ATOM      2  O   UNL     1      -2.648   9.714  29.602  0.00  0.00    -0.388 OA
ATOM      3  H   UNL     1      -1.918  10.338  29.598  0.00  0.00    +0.210 HD
ENDBRANCH   1   2
BRANCH   1   4
ATOM      4  C   UNL     1      -3.070   7.734  30.941  0.00  0.00    +0.141 C 
BRANCH   4   7
ATOM      5  C   UNL     1      -4.333   6.929  28.975  0.00  0.00    +0.401 C 
ATOM      6  O   UNL     1      -5.437   7.092  29.500  0.00  0.00    -0.226 OA
ATOM      7  N   UNL     1      -3.174   7.197  29.578  0.00  0.00    -0.279 N 
ATOM      8  H   UNL     1      -2.319   7.021  29.069  0.00  0.00    +0.152 HD
BRANCH   5   9
ATOM      9  O   UNL     1      -4.267   6.418  27.641  0.00  0.00    -0.444 OA
BRANCH   9  10
ATOM     10  C   UNL     1      -2.931   6.545  27.147  0.00  0.00    +0.292 C 
BRANCH  10  12
ATOM     11  N   UNL     1      -1.655   8.669  27.039  0.00  0.00    -0.131 NA
ATOM     12  C   UNL     1      -2.711   7.904  26.617  0.00  0.00    +0.120 A 
ATOM     13  C   UNL     1      -3.427   8.611  25.679  0.00  0.00    +0.137 A 
ATOM     14  N   UNL     1      -2.740   9.778  25.548  0.00  0.00    -0.248 N 
ATOM     15  N   UNL     1      -1.692   9.825  26.389  0.00  0.00    -0.065 NA
BRANCH  14  16
ATOM     16  C   UNL     1      -3.029  10.875  24.636  0.00  0.00    +0.112 C 
ATOM     17  C   UNL     1      -4.313  10.621  23.821  0.00  0.00    +0.045 C 
ATOM     18  C   UNL     1      -5.271  11.814  23.750  0.00  0.00    +0.059 C 
ATOM     19  C   UNL     1      -6.046  11.979  25.061  0.00  0.00    +0.020 C 
ATOM     20  C   UNL     1      -5.227  12.983  25.869  0.00  0.00    +0.020 C 
ATOM     21  C   UNL     1      -3.997  13.261  25.001  0.00  0.00    +0.059 C 
ATOM     22  N   UNL     1      -4.572  13.096  23.666  0.00  0.00    -0.299 NA
ATOM     23  C   UNL     1      -3.667  13.275  22.546  0.00  0.00    +0.105 C 
ATOM     24  C   UNL     1      -2.869  12.263  25.297  0.00  0.00    +0.045 C 
ENDBRANCH  14  16
ENDBRANCH  10  12
ENDBRANCH   9  10
ENDBRANCH   5   9
ENDBRANCH   4   7
ENDBRANCH   1   4
BRANCH   1  25
ATOM     25  C   UNL     1      -4.103   9.925  31.564  0.00  0.00    +0.175 C 
BRANCH  25  26
ATOM     26  C   UNL     1      -4.162  11.425  31.238  0.00  0.00    +0.176 C 
ATOM     27  O   UNL     1      -4.154  12.157  32.495  0.00  0.00    -0.332 OA
ATOM     28  C   UNL     1      -4.099  13.617  32.378  0.00  0.00    +0.277 C 
ATOM     29  C   UNL     1      -5.251  14.131  31.481  0.00  0.00    +0.110 C 
ATOM     30  C   UNL     1      -5.321  13.361  30.145  0.00  0.00    +0.143 C 
ATOM     31  C   UNL     1      -5.371  11.852  30.384  0.00  0.00    +0.133 C 
BRANCH  31  32
ATOM     32  N   UNL     1      -5.349  11.126  29.104  0.00  0.00    -0.308 N 
ATOM     33  H   UNL     1      -4.534  11.233  28.516  0.00  0.00    +0.149 HD
ATOM     34  C   UNL     1      -6.335  10.337  28.669  0.00  0.00    +0.210 C 
ATOM     35  C   UNL     1      -7.573  10.216  29.577  0.00  0.00    +0.109 C 
ATOM     36  O   UNL     1      -6.282   9.730  27.599  0.00  0.00    -0.276 OA
ENDBRANCH  31  32
BRANCH  28  37
ATOM     37  C   UNL     1      -2.746  14.068  31.789  0.00  0.00    +0.414 C 
ATOM     38  O   UNL     1      -2.695  15.021  31.012  0.00  0.00    -0.240 OA
ATOM     39  O   UNL     1      -1.707  13.480  32.090  0.00  0.00    -0.240 OA
ENDBRANCH  28  37
BRANCH  30  40
ATOM     40  O   UNL     1      -6.483  13.761  29.418  0.00  0.00    -0.390 OA
ATOM     41  H   UNL     1      -6.995  12.985  29.179  0.00  0.00    +0.210 HD
ENDBRANCH  30  40
BRANCH  28  42
ATOM     42  O   UNL     1      -4.266  14.180  33.704  0.00  0.00    -0.343 OA
ATOM     43  C   UNL     1      -5.109  15.358  33.768  0.00  0.00    +0.198 C 
ENDBRANCH  28  42
ENDBRANCH  25  26
BRANCH  25  44
ATOM     44  O   UNL     1      -4.113   9.727  32.992  0.00  0.00    -0.387 OA
ATOM     45  H   UNL     1      -3.966   8.798  33.187  0.00  0.00    +0.210 HD
ENDBRANCH  25  44
ENDBRANCH   1  25
TORSDOF 14
