REMARK VINA RESULT:    -5.486      4.362     10.693
REMARK INTER + INTRA:         -12.516
REMARK INTER:                  -9.632
REMARK INTRA:                  -2.884
REMARK UNBOUND:                -2.541
REMARK  Name = lig_assembled_23.pdb
REMARK  18 active torsions:
REMARK  status: ('A' for Active; 'I' for Inactive)
REMARK    1  A    between atoms: _2  and  _10
REMARK    2  A    between atoms: _3  and  _41
REMARK    3  A    between atoms: _5  and  _21
REMARK    4  A    between atoms: _7  and  _8
REMARK    5  A    between atoms: _7  and  _21
REMARK    6  A    between atoms: _12  and  _41
REMARK    7  A    between atoms: _17  and  _37
REMARK    8  A    between atoms: _19  and  _25
REMARK    9  A    between atoms: _20  and  _24
REMARK   10  A    between atoms: _24  and  _25
REMARK   11  A    between atoms: _27  and  _28
REMARK   12  A    between atoms: _29  and  _30
REMARK   13  A    between atoms: _31  and  _33
REMARK   14  A    between atoms: _33  and  _34
REMARK   15  A    between atoms: _33  and  _35
REMARK   16  A    between atoms: _35  and  _36
REMARK   17  A    between atoms: _35  and  _37
REMARK   18  A    between atoms: _38  and  _40
REMARK                            x       y       z     vdW  Elec       q    Type
REMARK                         _______ _______ _______ _____ _____    ______ ____
ROOT
ATOM      1  C   UNL     1      -5.776   7.496  22.838  0.00  0.00    +0.141 C 
ENDROOT
BRANCH   1   4
ATOM      2  C   UNL     1      -3.553   6.566  23.388  0.00  0.00    +0.401 C 
ATOM      3  O   UNL     1      -3.266   6.313  22.216  0.00  0.00    -0.226 OA
ATOM      4  N   UNL     1      -4.708   7.114  23.770  0.00  0.00    -0.279 N 
ATOM      5  H   UNL     1      -4.856   7.275  24.757  0.00  0.00    +0.152 HD
BRANCH   2   6
ATOM      6  O   UNL     1      -2.609   6.259  24.417  0.00  0.00    -0.444 OA
BRANCH   6   7
ATOM      7  C   UNL     1      -3.305   5.839  25.593  0.00  0.00    +0.292 C 
BRANCH   7   9
ATOM      8  N   UNL     1      -1.713   7.303  26.792  0.00  0.00    -0.131 NA
ATOM      9  C   UNL     1      -2.931   6.688  26.739  0.00  0.00    +0.121 A 
ATOM     10  C   UNL     1      -3.644   7.007  27.872  0.00  0.00    +0.143 A 
ATOM     11  N   UNL     1      -2.817   7.838  28.591  0.00  0.00    -0.220 N 
ATOM     12  N   UNL     1      -1.650   7.997  27.920  0.00  0.00    -0.060 NA
BRANCH  11  13
ATOM     13  C   UNL     1      -3.052   8.465  29.843  0.00  0.00    +0.069 A 
ATOM     14  C   UNL     1      -3.185   9.860  29.901  0.00  0.00    +0.056 A 
ATOM     15  C   UNL     1      -3.381  10.484  31.138  0.00  0.00    +0.107 A 
ATOM     16  C   UNL     1      -3.472   9.735  32.313  0.00  0.00    +0.028 A 
ATOM     17  C   UNL     1      -3.354   8.347  32.251  0.00  0.00    +0.004 A 
ATOM     18  C   UNL     1      -3.140   7.711  31.023  0.00  0.00    +0.028 A 
BRANCH  15  19
ATOM     19  S   UNL     1      -3.489  12.247  31.200  0.00  0.00    +0.056 S 
ATOM     20  O   UNL     1      -3.486  12.761  29.851  0.00  0.00    -0.153 OA
ATOM     21  O   UNL     1      -4.480  12.629  32.179  0.00  0.00    -0.153 OA
BRANCH  19  22
ATOM     22  N   UNL     1      -2.010  12.663  31.877  0.00  0.00    -0.204 NA
ATOM     23  H   UNL     1      -1.504  13.288  31.251  0.00  0.00    +0.144 HD
ATOM     24  H   UNL     1      -1.493  11.821  32.133  0.00  0.00    +0.144 HD
ENDBRANCH  19  22
ENDBRANCH  15  19
ENDBRANCH  11  13
ENDBRANCH   7   9
ENDBRANCH   6   7
ENDBRANCH   2   6
ENDBRANCH   1   4
BRANCH   1  25
ATOM     25  C   UNL     1      -6.626   8.638  23.385  0.00  0.00    +0.163 C 
BRANCH  25  26
ATOM     26  O   UNL     1      -6.338   8.842  24.778  0.00  0.00    -0.388 OA
ATOM     27  H   UNL     1      -5.984   9.725  24.907  0.00  0.00    +0.210 HD
ENDBRANCH  25  26
BRANCH  25  28
ATOM     28  C   UNL     1      -6.352   9.916  22.574  0.00  0.00    +0.175 C 
BRANCH  28  29
ATOM     29  C   UNL     1      -5.009  10.561  22.947  0.00  0.00    +0.176 C 
ATOM     30  O   UNL     1      -5.192  11.289  24.192  0.00  0.00    -0.332 OA
ATOM     31  C   UNL     1      -3.980  11.886  24.762  0.00  0.00    +0.277 C 
ATOM     32  C   UNL     1      -3.286  12.798  23.720  0.00  0.00    +0.110 C 
ATOM     33  C   UNL     1      -3.098  12.077  22.368  0.00  0.00    +0.143 C 
ATOM     34  C   UNL     1      -4.419  11.491  21.870  0.00  0.00    +0.133 C 
BRANCH  34  35
ATOM     35  N   UNL     1      -4.211  10.733  20.627  0.00  0.00    -0.308 N 
ATOM     36  H   UNL     1      -3.538   9.980  20.641  0.00  0.00    +0.149 HD
ATOM     37  C   UNL     1      -4.853  10.976  19.481  0.00  0.00    +0.210 C 
ATOM     38  C   UNL     1      -5.853  12.148  19.485  0.00  0.00    +0.109 C 
ATOM     39  O   UNL     1      -4.668  10.315  18.458  0.00  0.00    -0.276 OA
ENDBRANCH  34  35
BRANCH  31  40
ATOM     40  C   UNL     1      -2.997  10.792  25.226  0.00  0.00    +0.414 C 
ATOM     41  O   UNL     1      -1.891  11.100  25.668  0.00  0.00    -0.240 OA
ATOM     42  O   UNL     1      -3.310   9.603  25.159  0.00  0.00    -0.240 OA
ENDBRANCH  31  40
BRANCH  33  43
ATOM     43  O   UNL     1      -2.596  12.997  21.398  0.00  0.00    -0.390 OA
ATOM     44  H   UNL     1      -3.287  13.618  21.158  0.00  0.00    +0.210 HD
ENDBRANCH  33  43
BRANCH  31  45
ATOM     45  O   UNL     1      -4.373  12.703  25.895  0.00  0.00    -0.343 OA
ATOM     46  C   UNL     1      -5.630  12.330  26.512  0.00  0.00    +0.198 C 
ENDBRANCH  31  45
ENDBRANCH  28  29
BRANCH  28  47
ATOM     47  O   UNL     1      -7.424  10.862  22.760  0.00  0.00    -0.387 OA
ATOM     48  H   UNL     1      -7.654  10.907  23.691  0.00  0.00    +0.210 HD
ENDBRANCH  28  47
ENDBRANCH  25  28
ENDBRANCH   1  25
TORSDOF 16
