REMARK VINA RESULT:    -4.833      2.938      5.413
REMARK INTER + INTRA:         -10.745
REMARK INTER:                  -8.025
REMARK INTRA:                  -2.721
REMARK UNBOUND:                -2.381
REMARK  Name = lig_assembled_7.pdb
REMARK  19 active torsions:
REMARK  status: ('A' for Active; 'I' for Inactive)
REMARK    1  A    between atoms: _2  and  _9
REMARK    2  A    between atoms: _4  and  _21
REMARK    3  A    between atoms: _5  and  _16
REMARK    4  A    between atoms: _6  and  _7
REMARK    5  A    between atoms: _6  and  _21
REMARK    6  A    between atoms: _10  and  _11
REMARK    7  A    between atoms: _13  and  _14
REMARK    8  A    between atoms: _17  and  _37
REMARK    9  A    between atoms: _19  and  _25
REMARK   10  A    between atoms: _20  and  _24
REMARK   11  A    between atoms: _24  and  _25
REMARK   12  A    between atoms: _27  and  _28
REMARK   13  A    between atoms: _29  and  _30
REMARK   14  A    between atoms: _31  and  _33
REMARK   15  A    between atoms: _33  and  _34
REMARK   16  A    between atoms: _33  and  _35
REMARK   17  A    between atoms: _35  and  _36
REMARK   18  A    between atoms: _35  and  _37
REMARK   19  A    between atoms: _38  and  _40
REMARK                            x       y       z     vdW  Elec       q    Type
REMARK                         _______ _______ _______ _____ _____    ______ ____
ROOT
ATOM      1  C   UNL     1      -6.522   9.057  23.234  0.00  0.00    +0.163 C 
ENDROOT
BRANCH   1   2
ATOM      2  O   UNL     1      -7.260   9.111  24.466  0.00  0.00    -0.388 OA
ATOM      3  H   UNL     1      -7.593  10.002  24.601  0.00  0.00    +0.210 HD
ENDBRANCH   1   2
BRANCH   1   4
ATOM      4  C   UNL     1      -7.353   8.367  22.157  0.00  0.00    +0.141 C 
BRANCH   4   7
ATOM      5  C   UNL     1      -6.865   8.726  19.762  0.00  0.00    +0.401 C 
ATOM      6  O   UNL     1      -6.282   7.649  19.622  0.00  0.00    -0.226 OA
ATOM      7  N   UNL     1      -7.391   9.146  20.913  0.00  0.00    -0.279 N 
ATOM      8  H   UNL     1      -7.842  10.050  20.930  0.00  0.00    +0.152 HD
BRANCH   5   9
ATOM      9  O   UNL     1      -6.993   9.597  18.635  0.00  0.00    -0.444 OA
BRANCH   9  10
ATOM     10  C   UNL     1      -6.928   8.832  17.429  0.00  0.00    +0.292 C 
BRANCH  10  12
ATOM     11  N   UNL     1      -4.516   8.960  16.938  0.00  0.00    -0.131 NA
ATOM     12  C   UNL     1      -5.794   9.279  16.600  0.00  0.00    +0.121 A 
ATOM     13  C   UNL     1      -5.775  10.022  15.435  0.00  0.00    +0.143 A 
ATOM     14  N   UNL     1      -4.440  10.173  15.120  0.00  0.00    -0.219 N 
ATOM     15  N   UNL     1      -3.708   9.478  16.027  0.00  0.00    -0.060 NA
BRANCH  14  16
ATOM     16  C   UNL     1      -3.832  10.901  14.046  0.00  0.00    +0.073 A 
ATOM     17  C   UNL     1      -3.586  12.299  14.199  0.00  0.00    -0.024 A 
ATOM     18  C   UNL     1      -2.986  13.023  13.146  0.00  0.00    +0.008 A 
ATOM     19  C   UNL     1      -2.615  12.405  11.955  0.00  0.00    -0.050 A 
ATOM     20  C   UNL     1      -1.977  13.203  10.858  0.00  0.00    +0.044 C 
ATOM     21  C   UNL     1      -2.855  11.041  11.811  0.00  0.00    +0.008 A 
ATOM     22  C   UNL     1      -3.878  13.089  15.456  0.00  0.00    +0.046 C 
ATOM     23  C   UNL     1      -3.477  10.273  12.824  0.00  0.00    -0.024 A 
ATOM     24  C   UNL     1      -3.757   8.849  12.417  0.00  0.00    +0.046 C 
ENDBRANCH  14  16
ENDBRANCH  10  12
ENDBRANCH   9  10
ENDBRANCH   5   9
ENDBRANCH   4   7
ENDBRANCH   1   4
BRANCH   1  25
ATOM     25  C   UNL     1      -5.195   8.302  23.422  0.00  0.00    +0.175 C 
BRANCH  25  26
ATOM     26  C   UNL     1      -4.118   9.180  24.076  0.00  0.00    +0.176 C 
ATOM     27  O   UNL     1      -4.437   9.300  25.490  0.00  0.00    -0.332 OA
ATOM     28  C   UNL     1      -3.454  10.022  26.303  0.00  0.00    +0.277 C 
ATOM     29  C   UNL     1      -3.184  11.425  25.706  0.00  0.00    +0.110 C 
ATOM     30  C   UNL     1      -2.870  11.351  24.197  0.00  0.00    +0.143 C 
ATOM     31  C   UNL     1      -3.956  10.577  23.448  0.00  0.00    +0.133 C 
BRANCH  31  32
ATOM     32  N   UNL     1      -3.602  10.438  22.027  0.00  0.00    -0.308 N 
ATOM     33  H   UNL     1      -2.838   9.822  21.788  0.00  0.00    +0.149 HD
ATOM     34  C   UNL     1      -4.226  11.074  21.031  0.00  0.00    +0.210 C 
ATOM     35  C   UNL     1      -5.369  12.026  21.429  0.00  0.00    +0.109 C 
ATOM     36  O   UNL     1      -3.918  10.927  19.847  0.00  0.00    -0.276 OA
ENDBRANCH  31  32
BRANCH  28  37
ATOM     37  C   UNL     1      -2.130   9.234  26.387  0.00  0.00    +0.414 C 
ATOM     38  O   UNL     1      -2.140   8.004  26.383  0.00  0.00    -0.240 OA
ATOM     39  O   UNL     1      -1.054   9.828  26.460  0.00  0.00    -0.240 OA
ENDBRANCH  28  37
BRANCH  30  40
ATOM     40  O   UNL     1      -2.778  12.671  23.659  0.00  0.00    -0.390 OA
ATOM     41  H   UNL     1      -2.757  13.309  24.376  0.00  0.00    +0.210 HD
ENDBRANCH  30  40
BRANCH  28  42
ATOM     42  O   UNL     1      -4.008  10.190  27.633  0.00  0.00    -0.343 OA
ATOM     43  C   UNL     1      -4.015  11.554  28.126  0.00  0.00    +0.198 C 
ENDBRANCH  28  42
ENDBRANCH  25  26
BRANCH  25  44
ATOM     44  O   UNL     1      -4.725   7.802  22.154  0.00  0.00    -0.387 OA
ATOM     45  H   UNL     1      -4.775   6.843  22.149  0.00  0.00    +0.210 HD
ENDBRANCH  25  44
ENDBRANCH   1  25
TORSDOF 14
