REMARK VINA RESULT:    -4.234      1.599      2.316
REMARK INTER + INTRA:         -10.325
REMARK INTER:                  -7.577
REMARK INTRA:                  -2.748
REMARK UNBOUND:                -2.997
REMARK  Name = lig_assembled_15.pdb
REMARK  16 active torsions:
REMARK  status: ('A' for Active; 'I' for Inactive)
REMARK    1  A    between atoms: _2  and  _9
REMARK    2  A    between atoms: _4  and  _18
REMARK    3  A    between atoms: _6  and  _7
REMARK    4  A    between atoms: _6  and  _18
REMARK    5  A    between atoms: _14  and  _34
REMARK    6  A    between atoms: _16  and  _22
REMARK    7  A    between atoms: _17  and  _21
REMARK    8  A    between atoms: _21  and  _22
REMARK    9  A    between atoms: _24  and  _25
REMARK   10  A    between atoms: _26  and  _27
REMARK   11  A    between atoms: _28  and  _30
REMARK   12  A    between atoms: _30  and  _31
REMARK   13  A    between atoms: _30  and  _32
REMARK   14  A    between atoms: _32  and  _33
REMARK   15  A    between atoms: _32  and  _34
REMARK   16  A    between atoms: _35  and  _37
REMARK                            x       y       z     vdW  Elec       q    Type
REMARK                         _______ _______ _______ _____ _____    ______ ____
ROOT
ATOM      1  C   UNL     1      -5.054   9.048  24.095  0.00  0.00    +0.163 C 
ENDROOT
BRANCH   1   2
ATOM      2  O   UNL     1      -5.089   9.277  25.514  0.00  0.00    -0.388 OA
ATOM      3  H   UNL     1      -4.195   9.263  25.863  0.00  0.00    +0.210 HD
ENDBRANCH   1   2
BRANCH   1   4
ATOM      4  C   UNL     1      -4.844   7.565  23.811  0.00  0.00    +0.141 C 
BRANCH   4   7
ATOM      5  C   UNL     1      -3.333   6.042  25.038  0.00  0.00    +0.401 C 
ATOM      6  O   UNL     1      -2.605   5.829  24.066  0.00  0.00    -0.226 OA
ATOM      7  N   UNL     1      -4.404   6.835  25.007  0.00  0.00    -0.279 N 
ATOM      8  H   UNL     1      -4.945   6.940  25.855  0.00  0.00    +0.152 HD
BRANCH   5   9
ATOM      9  O   UNL     1      -3.031   5.409  26.284  0.00  0.00    -0.444 OA
BRANCH   9  10
ATOM     10  C   UNL     1      -1.877   6.023  26.865  0.00  0.00    +0.292 C 
BRANCH  10  12
ATOM     11  N   UNL     1      -1.928   8.441  26.346  0.00  0.00    -0.131 NA
ATOM     12  C   UNL     1      -2.169   7.424  27.223  0.00  0.00    +0.121 A 
ATOM     13  C   UNL     1      -2.697   7.947  28.382  0.00  0.00    +0.143 A 
ATOM     14  N   UNL     1      -2.788   9.300  28.152  0.00  0.00    -0.220 N 
ATOM     15  N   UNL     1      -2.301   9.578  26.919  0.00  0.00    -0.060 NA
BRANCH  14  16
ATOM     16  C   UNL     1      -3.322  10.309  28.996  0.00  0.00    +0.067 A 
ATOM     17  C   UNL     1      -4.185  11.291  28.489  0.00  0.00    +0.029 A 
ATOM     18  C   UNL     1      -4.667  12.301  29.328  0.00  0.00    +0.017 A 
ATOM     19  C   UNL     1      -4.293  12.329  30.670  0.00  0.00    +0.018 A 
ATOM     20 BR   UNL     1      -4.929  13.714  31.790  0.00  0.00    -0.050 Br
ATOM     21  C   UNL     1      -3.448  11.350  31.188  0.00  0.00    +0.017 A 
ATOM     22  C   UNL     1      -2.964  10.338  30.354  0.00  0.00    +0.029 A 
ENDBRANCH  14  16
ENDBRANCH  10  12
ENDBRANCH   9  10
ENDBRANCH   5   9
ENDBRANCH   4   7
ENDBRANCH   1   4
BRANCH   1  23
ATOM     23  C   UNL     1      -3.928   9.862  23.435  0.00  0.00    +0.175 C 
BRANCH  23  24
ATOM     24  C   UNL     1      -4.446  11.167  22.812  0.00  0.00    +0.176 C 
ATOM     25  O   UNL     1      -4.885  12.035  23.893  0.00  0.00    -0.332 OA
ATOM     26  C   UNL     1      -5.317  13.377  23.493  0.00  0.00    +0.277 C 
ATOM     27  C   UNL     1      -6.422  13.289  22.411  0.00  0.00    +0.110 C 
ATOM     28  C   UNL     1      -6.014  12.352  21.256  0.00  0.00    +0.143 C 
ATOM     29  C   UNL     1      -5.579  10.985  21.785  0.00  0.00    +0.133 C 
BRANCH  29  30
ATOM     30  N   UNL     1      -5.111  10.130  20.683  0.00  0.00    -0.308 N 
ATOM     31  H   UNL     1      -4.252  10.388  20.219  0.00  0.00    +0.149 HD
ATOM     32  C   UNL     1      -5.747   9.036  20.256  0.00  0.00    +0.210 C 
ATOM     33  C   UNL     1      -7.068   8.684  20.967  0.00  0.00    +0.109 C 
ATOM     34  O   UNL     1      -5.323   8.331  19.340  0.00  0.00    -0.276 OA
ENDBRANCH  29  30
BRANCH  26  35
ATOM     35  C   UNL     1      -4.128  14.196  22.950  0.00  0.00    +0.414 C 
ATOM     36  O   UNL     1      -4.324  15.159  22.210  0.00  0.00    -0.240 OA
ATOM     37  O   UNL     1      -2.973  13.893  23.251  0.00  0.00    -0.240 OA
ENDBRANCH  26  35
BRANCH  28  38
ATOM     38  O   UNL     1      -7.115  12.182  20.362  0.00  0.00    -0.390 OA
ATOM     39  H   UNL     1      -7.659  12.973  20.369  0.00  0.00    +0.210 HD
ENDBRANCH  28  38
BRANCH  26  40
ATOM     40  O   UNL     1      -5.872  14.037  24.660  0.00  0.00    -0.343 OA
ATOM     41  C   UNL     1      -6.085  13.175  25.807  0.00  0.00    +0.198 C 
ENDBRANCH  26  40
ENDBRANCH  23  24
BRANCH  23  42
ATOM     42  O   UNL     1      -3.260   9.066  22.436  0.00  0.00    -0.387 OA
ATOM     43  H   UNL     1      -2.883   9.642  21.767  0.00  0.00    +0.210 HD
ENDBRANCH  23  42
ENDBRANCH   1  23
TORSDOF 14
