REMARK VINA RESULT:    -4.695      2.289      5.843
REMARK INTER + INTRA:         -11.450
REMARK INTER:                  -8.574
REMARK INTRA:                  -2.876
REMARK UNBOUND:                -3.049
REMARK  Name = lig_assembled_28.pdb
REMARK  17 active torsions:
REMARK  status: ('A' for Active; 'I' for Inactive)
REMARK    1  A    between atoms: _2  and  _9
REMARK    2  A    between atoms: _4  and  _22
REMARK    3  A    between atoms: _6  and  _7
REMARK    4  A    between atoms: _6  and  _22
REMARK    5  A    between atoms: _9  and  _10
REMARK    6  A    between atoms: _18  and  _38
REMARK    7  A    between atoms: _20  and  _26
REMARK    8  A    between atoms: _21  and  _25
REMARK    9  A    between atoms: _25  and  _26
REMARK   10  A    between atoms: _28  and  _29
REMARK   11  A    between atoms: _30  and  _31
REMARK   12  A    between atoms: _32  and  _34
REMARK   13  A    between atoms: _34  and  _35
REMARK   14  A    between atoms: _34  and  _36
REMARK   15  A    between atoms: _36  and  _37
REMARK   16  A    between atoms: _36  and  _38
REMARK   17  A    between atoms: _39  and  _41
REMARK                            x       y       z     vdW  Elec       q    Type
REMARK                         _______ _______ _______ _____ _____    ______ ____
ROOT
ATOM      1  C   UNL     1      -4.283   8.207  24.248  0.00  0.00    +0.163 C 
ENDROOT
BRANCH   1   2
ATOM      2  O   UNL     1      -4.202   7.717  22.900  0.00  0.00    -0.388 OA
ATOM      3  H   UNL     1      -3.316   7.861  22.559  0.00  0.00    +0.210 HD
ENDBRANCH   1   2
BRANCH   1   4
ATOM      4  C   UNL     1      -4.541   7.051  25.210  0.00  0.00    +0.141 C 
BRANCH   4   7
ATOM      5  C   UNL     1      -2.445   6.693  26.468  0.00  0.00    +0.401 C 
ATOM      6  O   UNL     1      -1.863   6.149  25.527  0.00  0.00    -0.226 OA
ATOM      7  N   UNL     1      -3.701   7.140  26.410  0.00  0.00    -0.279 N 
ATOM      8  H   UNL     1      -4.095   7.563  27.238  0.00  0.00    +0.152 HD
BRANCH   5   9
ATOM      9  O   UNL     1      -1.755   6.861  27.709  0.00  0.00    -0.444 OA
BRANCH   9  10
ATOM     10  C   UNL     1      -2.535   6.305  28.770  0.00  0.00    +0.292 C 
BRANCH  10  12
ATOM     11  N   UNL     1      -4.540   7.695  29.214  0.00  0.00    -0.131 NA
ATOM     12  C   UNL     1      -3.241   7.373  29.502  0.00  0.00    +0.120 A 
ATOM     13  C   UNL     1      -2.803   8.161  30.542  0.00  0.00    +0.137 A 
ATOM     14  N   UNL     1      -3.909   8.874  30.909  0.00  0.00    -0.247 N 
ATOM     15  N   UNL     1      -4.936   8.624  30.073  0.00  0.00    -0.065 NA
BRANCH  14  16
ATOM     16  C   UNL     1      -4.138   9.734  32.062  0.00  0.00    +0.180 C 
BRANCH  16  17
ATOM     17  C   UNL     1      -3.741  11.174  31.834  0.00  0.00    -0.022 A 
ATOM     18  C   UNL     1      -4.641  12.067  31.225  0.00  0.00    +0.055 A 
ATOM     19  C   UNL     1      -4.279  13.394  31.144  0.00  0.00    +0.167 A 
ATOM     20  O   UNL     1      -5.050  14.396  30.638  0.00  0.00    -0.453 OA
ATOM     21  C   UNL     1      -4.224  15.542  30.930  0.00  0.00    +0.466 C 
ATOM     22  O   UNL     1      -2.927  15.194  31.460  0.00  0.00    -0.453 OA
ATOM     23  C   UNL     1      -3.070  13.849  31.608  0.00  0.00    +0.166 A 
ATOM     24  C   UNL     1      -2.147  12.998  32.179  0.00  0.00    +0.050 A 
ATOM     25  C   UNL     1      -2.492  11.649  32.299  0.00  0.00    +0.009 A 
ENDBRANCH  16  17
ENDBRANCH  14  16
ENDBRANCH  10  12
ENDBRANCH   9  10
ENDBRANCH   5   9
ENDBRANCH   4   7
ENDBRANCH   1   4
BRANCH   1  26
ATOM     26  C   UNL     1      -5.405   9.251  24.387  0.00  0.00    +0.175 C 
BRANCH  26  27
ATOM     27  C   UNL     1      -4.970  10.636  23.886  0.00  0.00    +0.176 C 
ATOM     28  O   UNL     1      -4.771  10.549  22.448  0.00  0.00    -0.332 OA
ATOM     29  C   UNL     1      -4.453  11.812  21.775  0.00  0.00    +0.277 C 
ATOM     30  C   UNL     1      -3.222  12.482  22.434  0.00  0.00    +0.110 C 
ATOM     31  C   UNL     1      -3.374  12.568  23.967  0.00  0.00    +0.143 C 
ATOM     32  C   UNL     1      -3.708  11.200  24.564  0.00  0.00    +0.133 C 
BRANCH  32  33
ATOM     33  N   UNL     1      -3.936  11.311  26.013  0.00  0.00    -0.308 N 
ATOM     34  H   UNL     1      -4.774  11.781  26.324  0.00  0.00    +0.149 HD
ATOM     35  C   UNL     1      -3.107  10.832  26.944  0.00  0.00    +0.210 C 
ATOM     36  C   UNL     1      -1.824  10.144  26.439  0.00  0.00    +0.109 C 
ATOM     37  O   UNL     1      -3.331  10.926  28.151  0.00  0.00    -0.276 OA
ENDBRANCH  32  33
BRANCH  29  38
ATOM     38  C   UNL     1      -5.655  12.777  21.826  0.00  0.00    +0.414 C 
ATOM     39  O   UNL     1      -6.804  12.341  21.771  0.00  0.00    -0.240 OA
ATOM     40  O   UNL     1      -5.476  13.992  21.923  0.00  0.00    -0.240 OA
ENDBRANCH  29  38
BRANCH  29  41
ATOM     41  O   UNL     1      -4.125  11.513  20.393  0.00  0.00    -0.343 OA
ATOM     42  C   UNL     1      -4.750  10.318  19.860  0.00  0.00    +0.198 C 
ENDBRANCH  29  41
BRANCH  31  43
ATOM     43  O   UNL     1      -2.161  13.050  24.546  0.00  0.00    -0.390 OA
ATOM     44  H   UNL     1      -1.887  13.852  24.094  0.00  0.00    +0.210 HD
ENDBRANCH  31  43
ENDBRANCH  26  27
BRANCH  26  45
ATOM     45  O   UNL     1      -5.840   9.333  25.759  0.00  0.00    -0.387 OA
ATOM     46  H   UNL     1      -5.509  10.144  26.152  0.00  0.00    +0.210 HD
ENDBRANCH  26  45
ENDBRANCH   1  26
TORSDOF 15
