REMARK VINA RESULT:    -4.994      3.370      5.704
REMARK INTER + INTRA:         -12.336
REMARK INTER:                  -9.540
REMARK INTRA:                  -2.796
REMARK UNBOUND:                -3.108
REMARK  Name = lig_assembled_58.pdb
REMARK  18 active torsions:
REMARK  status: ('A' for Active; 'I' for Inactive)
REMARK    1  A    between atoms: _2  and  _9
REMARK    2  A    between atoms: _4  and  _25
REMARK    3  A    between atoms: _6  and  _7
REMARK    4  A    between atoms: _6  and  _25
REMARK    5  A    between atoms: _9  and  _10
REMARK    6  A    between atoms: _9  and  _16
REMARK    7  A    between atoms: _21  and  _41
REMARK    8  A    between atoms: _23  and  _29
REMARK    9  A    between atoms: _24  and  _28
REMARK   10  A    between atoms: _28  and  _29
REMARK   11  A    between atoms: _31  and  _32
REMARK   12  A    between atoms: _33  and  _34
REMARK   13  A    between atoms: _35  and  _37
REMARK   14  A    between atoms: _37  and  _38
REMARK   15  A    between atoms: _37  and  _39
REMARK   16  A    between atoms: _39  and  _40
REMARK   17  A    between atoms: _39  and  _41
REMARK   18  A    between atoms: _42  and  _44
REMARK                            x       y       z     vdW  Elec       q    Type
REMARK                         _______ _______ _______ _____ _____    ______ ____
ROOT
ATOM      1  C   UNL     1      -3.644   9.689  14.479  0.00  0.00    +0.141 C 
ENDROOT
BRANCH   1   4
ATOM      2  C   UNL     1      -4.971  10.058  16.530  0.00  0.00    +0.401 C 
ATOM      3  O   UNL     1      -6.027  10.257  15.924  0.00  0.00    -0.226 OA
ATOM      4  N   UNL     1      -3.808   9.791  15.934  0.00  0.00    -0.279 N 
ATOM      5  H   UNL     1      -2.995   9.652  16.517  0.00  0.00    +0.152 HD
BRANCH   2   6
ATOM      6  O   UNL     1      -4.969  10.115  17.959  0.00  0.00    -0.444 OA
BRANCH   6   7
ATOM      7  C   UNL     1      -5.355  11.425  18.385  0.00  0.00    +0.292 C 
BRANCH   7   9
ATOM      8  N   UNL     1      -3.819  11.400  20.339  0.00  0.00    -0.131 NA
ATOM      9  C   UNL     1      -5.071  11.599  19.821  0.00  0.00    +0.120 A 
ATOM     10  C   UNL     1      -5.915  11.996  20.833  0.00  0.00    +0.138 A 
ATOM     11  N   UNL     1      -5.090  12.174  21.910  0.00  0.00    -0.240 N 
ATOM     12  N   UNL     1      -3.844  11.734  21.623  0.00  0.00    -0.064 NA
BRANCH  11  13
ATOM     13  C   UNL     1      -5.382  12.779  23.223  0.00  0.00    +0.169 C 
BRANCH  13  14
ATOM     14  C   UNL     1      -4.458  12.180  24.293  0.00  0.00    -0.019 A 
ATOM     15  C   UNL     1      -4.769  10.942  24.881  0.00  0.00    +0.006 A 
ATOM     16  C   UNL     1      -3.966  10.415  25.897  0.00  0.00    +0.000 A 
ATOM     17  C   UNL     1      -2.836  11.107  26.331  0.00  0.00    +0.000 A 
ATOM     18  C   UNL     1      -2.514  12.335  25.764  0.00  0.00    +0.000 A 
ATOM     19  C   UNL     1      -3.324  12.870  24.763  0.00  0.00    +0.006 A 
ENDBRANCH  13  14
BRANCH  13  20
ATOM     20  C   UNL     1      -5.409  14.313  23.176  0.00  0.00    -0.019 A 
ATOM     21  C   UNL     1      -4.621  15.028  22.256  0.00  0.00    +0.006 A 
ATOM     22  C   UNL     1      -4.649  16.425  22.220  0.00  0.00    +0.000 A 
ATOM     23  C   UNL     1      -5.479  17.132  23.085  0.00  0.00    +0.000 A 
ATOM     24  C   UNL     1      -6.306  16.445  23.964  0.00  0.00    +0.000 A 
ATOM     25  C   UNL     1      -6.285  15.052  23.996  0.00  0.00    +0.006 A 
ENDBRANCH  13  20
ENDBRANCH  11  13
ENDBRANCH   7   9
ENDBRANCH   6   7
ENDBRANCH   2   6
ENDBRANCH   1   4
BRANCH   1  26
ATOM     26  C   UNL     1      -2.949  10.915  13.897  0.00  0.00    +0.163 C 
BRANCH  26  27
ATOM     27  O   UNL     1      -2.060  10.521  12.839  0.00  0.00    -0.388 OA
ATOM     28  H   UNL     1      -1.213  10.959  12.952  0.00  0.00    +0.210 HD
ENDBRANCH  26  27
BRANCH  26  29
ATOM     29  C   UNL     1      -4.005  11.911  13.387  0.00  0.00    +0.175 C 
BRANCH  29  30
ATOM     30  C   UNL     1      -3.416  12.916  12.387  0.00  0.00    +0.176 C 
ATOM     31  O   UNL     1      -2.105  13.317  12.875  0.00  0.00    -0.332 OA
ATOM     32  C   UNL     1      -1.342  14.200  11.989  0.00  0.00    +0.277 C 
ATOM     33  C   UNL     1      -2.173  15.457  11.631  0.00  0.00    +0.110 C 
ATOM     34  C   UNL     1      -3.587  15.082  11.137  0.00  0.00    +0.143 C 
ATOM     35  C   UNL     1      -4.289  14.159  12.132  0.00  0.00    +0.133 C 
BRANCH  35  36
ATOM     36  N   UNL     1      -5.599  13.740  11.610  0.00  0.00    -0.308 N 
ATOM     37  H   UNL     1      -5.613  13.120  10.812  0.00  0.00    +0.149 HD
ATOM     38  C   UNL     1      -6.772  14.124  12.122  0.00  0.00    +0.210 C 
ATOM     39  C   UNL     1      -6.717  15.090  13.321  0.00  0.00    +0.109 C 
ATOM     40  O   UNL     1      -7.854  13.746  11.673  0.00  0.00    -0.276 OA
ENDBRANCH  35  36
BRANCH  32  41
ATOM     41  C   UNL     1      -0.939  13.463  10.695  0.00  0.00    +0.414 C 
ATOM     42  O   UNL     1      -0.848  12.236  10.684  0.00  0.00    -0.240 OA
ATOM     43  O   UNL     1      -0.705  14.094   9.664  0.00  0.00    -0.240 OA
ENDBRANCH  32  41
BRANCH  34  44
ATOM     44  O   UNL     1      -4.366  16.267  10.963  0.00  0.00    -0.390 OA
ATOM     45  H   UNL     1      -4.000  16.973  11.501  0.00  0.00    +0.210 HD
ENDBRANCH  34  44
BRANCH  32  46
ATOM     46  O   UNL     1      -0.151  14.628  12.699  0.00  0.00    -0.343 OA
ATOM     47  C   UNL     1       0.215  16.017  12.501  0.00  0.00    +0.198 C 
ENDBRANCH  32  46
ENDBRANCH  29  30
BRANCH  29  48
ATOM     48  O   UNL     1      -4.607  12.608  14.496  0.00  0.00    -0.387 OA
ATOM     49  H   UNL     1      -4.311  13.521  14.499  0.00  0.00    +0.210 HD
ENDBRANCH  29  48
ENDBRANCH  26  29
ENDBRANCH   1  26
TORSDOF 16
