REMARK VINA RESULT:    -4.573      3.741      9.145
REMARK INTER + INTRA:         -11.395
REMARK INTER:                  -7.756
REMARK INTRA:                  -3.639
REMARK UNBOUND:                -3.213
REMARK  Name = lig_assembled_46.pdb
REMARK  17 active torsions:
REMARK  status: ('A' for Active; 'I' for Inactive)
REMARK    1  A    between atoms: _2  and  _9
REMARK    2  A    between atoms: _4  and  _19
REMARK    3  A    between atoms: _6  and  _7
REMARK    4  A    between atoms: _6  and  _19
REMARK    5  A    between atoms: _9  and  _10
REMARK    6  A    between atoms: _15  and  _35
REMARK    7  A    between atoms: _17  and  _23
REMARK    8  A    between atoms: _18  and  _22
REMARK    9  A    between atoms: _22  and  _23
REMARK   10  A    between atoms: _25  and  _26
REMARK   11  A    between atoms: _27  and  _28
REMARK   12  A    between atoms: _29  and  _31
REMARK   13  A    between atoms: _31  and  _32
REMARK   14  A    between atoms: _31  and  _33
REMARK   15  A    between atoms: _33  and  _34
REMARK   16  A    between atoms: _33  and  _35
REMARK   17  A    between atoms: _36  and  _38
REMARK                            x       y       z     vdW  Elec       q    Type
REMARK                         _______ _______ _______ _____ _____    ______ ____
ROOT
ATOM      1  C   UNL     1      -5.855   7.035  20.515  0.00  0.00    +0.163 C 
ENDROOT
BRANCH   1   2
ATOM      2  O   UNL     1      -5.391   6.295  19.374  0.00  0.00    -0.388 OA
ATOM      3  H   UNL     1      -4.490   6.001  19.527  0.00  0.00    +0.210 HD
ENDBRANCH   1   2
BRANCH   1   4
ATOM      4  C   UNL     1      -6.331   6.076  21.601  0.00  0.00    +0.141 C 
BRANCH   4   7
ATOM      5  C   UNL     1      -6.561   6.722  23.975  0.00  0.00    +0.401 C 
ATOM      6  O   UNL     1      -7.794   6.728  23.951  0.00  0.00    -0.226 OA
ATOM      7  N   UNL     1      -5.797   6.434  22.920  0.00  0.00    -0.279 N 
ATOM      8  H   UNL     1      -4.794   6.465  23.036  0.00  0.00    +0.152 HD
BRANCH   5   9
ATOM      9  O   UNL     1      -5.888   7.042  25.195  0.00  0.00    -0.444 OA
BRANCH   9  10
ATOM     10  C   UNL     1      -4.516   6.649  25.102  0.00  0.00    +0.292 C 
BRANCH  10  12
ATOM     11  N   UNL     1      -2.299   7.446  25.861  0.00  0.00    -0.131 NA
ATOM     12  C   UNL     1      -3.651   7.639  25.771  0.00  0.00    +0.120 A 
ATOM     13  C   UNL     1      -3.972   8.851  26.345  0.00  0.00    +0.137 A 
ATOM     14  N   UNL     1      -2.765   9.373  26.713  0.00  0.00    -0.247 N 
ATOM     15  N   UNL     1      -1.763   8.518  26.432  0.00  0.00    -0.065 NA
BRANCH  14  16
ATOM     16  C   UNL     1      -2.473  10.745  27.091  0.00  0.00    +0.180 C 
BRANCH  16  17
ATOM     17  C   UNL     1      -3.084  11.772  26.171  0.00  0.00    -0.026 A 
ATOM     18  C   UNL     1      -2.495  12.074  24.933  0.00  0.00    +0.005 A 
ATOM     19  C   UNL     1      -3.120  12.955  24.047  0.00  0.00    +0.000 A 
ATOM     20  C   UNL     1      -4.337  13.540  24.384  0.00  0.00    +0.000 A 
ATOM     21  C   UNL     1      -4.928  13.256  25.614  0.00  0.00    +0.000 A 
ATOM     22  C   UNL     1      -4.306  12.377  26.502  0.00  0.00    +0.005 A 
ENDBRANCH  16  17
ENDBRANCH  14  16
ENDBRANCH  10  12
ENDBRANCH   9  10
ENDBRANCH   5   9
ENDBRANCH   4   7
ENDBRANCH   1   4
BRANCH   1  23
ATOM     23  C   UNL     1      -7.003   7.983  20.126  0.00  0.00    +0.175 C 
BRANCH  23  24
ATOM     24  C   UNL     1      -6.488   9.291  19.508  0.00  0.00    +0.176 C 
ATOM     25  O   UNL     1      -5.986   8.989  18.176  0.00  0.00    -0.332 OA
ATOM     26  C   UNL     1      -5.547  10.144  17.388  0.00  0.00    +0.277 C 
ATOM     27  C   UNL     1      -4.493  10.965  18.171  0.00  0.00    +0.110 C 
ATOM     28  C   UNL     1      -4.969  11.283  19.604  0.00  0.00    +0.143 C 
ATOM     29  C   UNL     1      -5.405  10.011  20.332  0.00  0.00    +0.133 C 
BRANCH  29  30
ATOM     30  N   UNL     1      -5.937  10.337  21.665  0.00  0.00    -0.308 N 
ATOM     31  H   UNL     1      -6.851  10.765  21.716  0.00  0.00    +0.149 HD
ATOM     32  C   UNL     1      -5.291  10.105  22.811  0.00  0.00    +0.210 C 
ATOM     33  C   UNL     1      -3.890   9.476  22.697  0.00  0.00    +0.109 C 
ATOM     34  O   UNL     1      -5.768  10.375  23.913  0.00  0.00    -0.276 OA
ENDBRANCH  29  30
BRANCH  26  35
ATOM     35  C   UNL     1      -6.744  11.050  17.030  0.00  0.00    +0.414 C 
ATOM     36  O   UNL     1      -7.823  10.553  16.708  0.00  0.00    -0.240 OA
ATOM     37  O   UNL     1      -6.632  12.276  17.065  0.00  0.00    -0.240 OA
ENDBRANCH  26  35
BRANCH  26  38
ATOM     38  O   UNL     1      -4.930   9.649  16.172  0.00  0.00    -0.343 OA
ATOM     39  C   UNL     1      -3.809  10.433  15.691  0.00  0.00    +0.198 C 
ENDBRANCH  26  38
BRANCH  28  40
ATOM     40  O   UNL     1      -3.912  11.905  20.335  0.00  0.00    -0.390 OA
ATOM     41  H   UNL     1      -3.476  12.555  19.779  0.00  0.00    +0.210 HD
ENDBRANCH  28  40
ENDBRANCH  23  24
BRANCH  23  42
ATOM     42  O   UNL     1      -7.824   8.267  21.276  0.00  0.00    -0.387 OA
ATOM     43  H   UNL     1      -8.435   7.541  21.420  0.00  0.00    +0.210 HD
ENDBRANCH  23  42
ENDBRANCH   1  23
TORSDOF 15
