REMARK VINA RESULT:    -4.055      3.233      6.575
REMARK INTER + INTRA:         -10.933
REMARK INTER:                  -7.009
REMARK INTRA:                  -3.925
REMARK UNBOUND:                -3.679
REMARK  Name = lig_assembled_0.pdb
REMARK  17 active torsions:
REMARK  status: ('A' for Active; 'I' for Inactive)
REMARK    1  A    between atoms: _2  and  _10
REMARK    2  A    between atoms: _5  and  _21
REMARK    3  A    between atoms: _7  and  _8
REMARK    4  A    between atoms: _7  and  _21
REMARK    5  A    between atoms: _11  and  _12
REMARK    6  A    between atoms: _17  and  _37
REMARK    7  A    between atoms: _19  and  _25
REMARK    8  A    between atoms: _20  and  _24
REMARK    9  A    between atoms: _24  and  _25
REMARK   10  A    between atoms: _27  and  _28
REMARK   11  A    between atoms: _29  and  _30
REMARK   12  A    between atoms: _31  and  _33
REMARK   13  A    between atoms: _33  and  _34
REMARK   14  A    between atoms: _33  and  _35
REMARK   15  A    between atoms: _35  and  _36
REMARK   16  A    between atoms: _35  and  _37
REMARK   17  A    between atoms: _38  and  _40
REMARK                            x       y       z     vdW  Elec       q    Type
REMARK                         _______ _______ _______ _____ _____    ______ ____
ROOT
ATOM      1  C   UNL     1      -4.122   9.216  29.262  0.00  0.00    +0.163 C 
ENDROOT
BRANCH   1   2
ATOM      2  O   UNL     1      -4.570  10.377  29.981  0.00  0.00    -0.388 OA
ATOM      3  H   UNL     1      -5.523  10.457  29.899  0.00  0.00    +0.210 HD
ENDBRANCH   1   2
BRANCH   1   4
ATOM      4  C   UNL     1      -3.767   8.101  30.241  0.00  0.00    +0.141 C 
BRANCH   4   7
ATOM      5  C   UNL     1      -3.789   8.604  32.661  0.00  0.00    +0.401 C 
ATOM      6  O   UNL     1      -4.921   8.150  32.840  0.00  0.00    -0.226 OA
ATOM      7  N   UNL     1      -3.174   8.627  31.477  0.00  0.00    -0.279 N 
ATOM      8  H   UNL     1      -2.248   9.029  31.429  0.00  0.00    +0.152 HD
BRANCH   5   9
ATOM      9  O   UNL     1      -3.074   9.147  33.773  0.00  0.00    -0.444 OA
BRANCH   9  10
ATOM     10  C   UNL     1      -3.783  10.275  34.293  0.00  0.00    +0.292 C 
BRANCH  10  12
ATOM     11  N   UNL     1      -2.735  11.431  32.382  0.00  0.00    -0.131 NA
ATOM     12  C   UNL     1      -3.673  11.421  33.371  0.00  0.00    +0.121 A 
ATOM     13  C   UNL     1      -4.417  12.577  33.299  0.00  0.00    +0.143 A 
ATOM     14  N   UNL     1      -3.832  13.319  32.299  0.00  0.00    -0.219 N 
ATOM     15  N   UNL     1      -2.871  12.559  31.704  0.00  0.00    -0.060 NA
BRANCH  14  16
ATOM     16  C   UNL     1      -4.159  14.603  31.780  0.00  0.00    +0.079 A 
ATOM     17  C   UNL     1      -4.833  14.832  30.563  0.00  0.00    +0.062 A 
ATOM     18  C   UNL     1      -5.056  16.163  30.148  0.00  0.00    +0.015 A 
ATOM     19  C   UNL     1      -4.613  17.245  30.908  0.00  0.00    +0.001 A 
ATOM     20  C   UNL     1      -3.963  17.020  32.113  0.00  0.00    +0.002 A 
ATOM     21  C   UNL     1      -3.748  15.714  32.551  0.00  0.00    +0.028 A 
BRANCH  17  22
ATOM     22  C   UNL     1      -5.498  13.765  29.764  0.00  0.00    +0.244 C 
ATOM     23  O   UNL     1      -6.705  13.585  29.790  0.00  0.00    -0.270 OA
ATOM     24  N   UNL     1      -4.708  12.997  28.949  0.00  0.00    -0.325 N 
ATOM     25  H   UNL     1      -5.174  12.308  28.371  0.00  0.00    +0.145 HD
ATOM     26  H   UNL     1      -3.707  13.091  28.860  0.00  0.00    +0.145 HD
ENDBRANCH  17  22
ENDBRANCH  14  16
ENDBRANCH  10  12
ENDBRANCH   9  10
ENDBRANCH   5   9
ENDBRANCH   4   7
ENDBRANCH   1   4
BRANCH   1  27
ATOM     27  C   UNL     1      -2.897   9.545  28.392  0.00  0.00    +0.175 C 
BRANCH  27  28
ATOM     28  C   UNL     1      -3.287   9.861  26.941  0.00  0.00    +0.176 C 
ATOM     29  O   UNL     1      -3.958  11.151  26.928  0.00  0.00    -0.332 OA
ATOM     30  C   UNL     1      -4.312  11.669  25.603  0.00  0.00    +0.277 C 
ATOM     31  C   UNL     1      -5.158  10.632  24.826  0.00  0.00    +0.110 C 
ATOM     32  C   UNL     1      -4.501   9.236  24.838  0.00  0.00    +0.143 C 
ATOM     33  C   UNL     1      -4.172   8.797  26.266  0.00  0.00    +0.133 C 
BRANCH  33  34
ATOM     34  N   UNL     1      -3.468   7.505  26.258  0.00  0.00    -0.308 N 
ATOM     35  H   UNL     1      -2.529   7.482  25.888  0.00  0.00    +0.149 HD
ATOM     36  C   UNL     1      -3.990   6.361  26.709  0.00  0.00    +0.210 C 
ATOM     37  C   UNL     1      -5.434   6.424  27.242  0.00  0.00    +0.109 C 
ATOM     38  O   UNL     1      -3.372   5.296  26.703  0.00  0.00    -0.276 OA
ENDBRANCH  33  34
BRANCH  30  39
ATOM     39  C   UNL     1      -3.044  12.011  24.793  0.00  0.00    +0.414 C 
ATOM     40  O   UNL     1      -1.997  12.299  25.372  0.00  0.00    -0.240 OA
ATOM     41  O   UNL     1      -3.068  11.999  23.562  0.00  0.00    -0.240 OA
ENDBRANCH  30  39
BRANCH  32  42
ATOM     42  O   UNL     1      -5.383   8.283  24.244  0.00  0.00    -0.390 OA
ATOM     43  H   UNL     1      -4.943   7.855  23.506  0.00  0.00    +0.210 HD
ENDBRANCH  32  42
BRANCH  30  44
ATOM     44  O   UNL     1      -5.111  12.866  25.788  0.00  0.00    -0.343 OA
ATOM     45  C   UNL     1      -6.545  12.650  25.790  0.00  0.00    +0.198 C 
ENDBRANCH  30  44
ENDBRANCH  27  28
BRANCH  27  46
ATOM     46  O   UNL     1      -1.955   8.455  28.428  0.00  0.00    -0.387 OA
ATOM     47  H   UNL     1      -1.084   8.791  28.652  0.00  0.00    +0.210 HD
ENDBRANCH  27  46
ENDBRANCH   1  27
TORSDOF 15
