REMARK VINA RESULT:    -4.606      3.347      9.736
REMARK INTER + INTRA:         -11.032
REMARK INTER:                  -8.822
REMARK INTRA:                  -2.210
REMARK UNBOUND:                -2.792
REMARK  Name = lig_assembled_5.pdb
REMARK  18 active torsions:
REMARK  status: ('A' for Active; 'I' for Inactive)
REMARK    1  A    between atoms: _2  and  _9
REMARK    2  A    between atoms: _4  and  _20
REMARK    3  A    between atoms: _6  and  _7
REMARK    4  A    between atoms: _6  and  _20
REMARK    5  A    between atoms: _12  and  _15
REMARK    6  A    between atoms: _13  and  _15
REMARK    7  A    between atoms: _16  and  _36
REMARK    8  A    between atoms: _18  and  _24
REMARK    9  A    between atoms: _19  and  _23
REMARK   10  A    between atoms: _23  and  _24
REMARK   11  A    between atoms: _26  and  _27
REMARK   12  A    between atoms: _28  and  _29
REMARK   13  A    between atoms: _30  and  _32
REMARK   14  A    between atoms: _32  and  _33
REMARK   15  A    between atoms: _32  and  _34
REMARK   16  A    between atoms: _34  and  _35
REMARK   17  A    between atoms: _34  and  _36
REMARK   18  A    between atoms: _37  and  _39
REMARK                            x       y       z     vdW  Elec       q    Type
REMARK                         _______ _______ _______ _____ _____    ______ ____
ROOT
ATOM      1  C   UNL     1      -3.157  12.276  23.394  0.00  0.00    +0.163 C 
ENDROOT
BRANCH   1   2
ATOM      2  O   UNL     1      -3.786  13.169  24.327  0.00  0.00    -0.388 OA
ATOM      3  H   UNL     1      -3.465  12.985  25.213  0.00  0.00    +0.210 HD
ENDBRANCH   1   2
BRANCH   1   4
ATOM      4  C   UNL     1      -3.336  12.796  21.971  0.00  0.00    +0.141 C 
BRANCH   4   7
ATOM      5  C   UNL     1      -5.739  13.126  21.498  0.00  0.00    +0.401 C 
ATOM      6  O   UNL     1      -5.802  14.209  22.084  0.00  0.00    -0.226 OA
ATOM      7  N   UNL     1      -4.628  12.394  21.401  0.00  0.00    -0.279 N 
ATOM      8  H   UNL     1      -4.678  11.514  20.908  0.00  0.00    +0.152 HD
BRANCH   5   9
ATOM      9  O   UNL     1      -6.917  12.601  20.880  0.00  0.00    -0.444 OA
BRANCH   9  10
ATOM     10  C   UNL     1      -6.619  11.337  20.281  0.00  0.00    +0.292 C 
BRANCH  10  12
ATOM     11  N   UNL     1      -7.116  12.163  18.002  0.00  0.00    -0.131 NA
ATOM     12  C   UNL     1      -6.275  11.513  18.857  0.00  0.00    +0.121 A 
ATOM     13  C   UNL     1      -5.155  11.112  18.167  0.00  0.00    +0.143 A 
ATOM     14  N   UNL     1      -5.344  11.569  16.883  0.00  0.00    -0.220 N 
ATOM     15  N   UNL     1      -6.549  12.187  16.803  0.00  0.00    -0.060 NA
BRANCH  14  16
ATOM     16  C   UNL     1      -4.467  11.482  15.770  0.00  0.00    +0.067 A 
ATOM     17  C   UNL     1      -3.990  12.639  15.142  0.00  0.00    +0.031 A 
ATOM     18  C   UNL     1      -3.176  12.532  14.012  0.00  0.00    +0.048 A 
ATOM     19  C   UNL     1      -2.811  11.283  13.507  0.00  0.00    +0.120 A 
ATOM     20  C   UNL     1      -3.270  10.129  14.140  0.00  0.00    +0.048 A 
ATOM     21  C   UNL     1      -4.097  10.226  15.268  0.00  0.00    +0.031 A 
BRANCH  19  22
ATOM     22  O   UNL     1      -2.065  11.322  12.362  0.00  0.00    -0.495 OA
ATOM     23  C   UNL     1      -2.762  11.637  11.164  0.00  0.00    +0.277 C 
ENDBRANCH  19  22
ENDBRANCH  14  16
ENDBRANCH  10  12
ENDBRANCH   9  10
ENDBRANCH   5   9
ENDBRANCH   4   7
ENDBRANCH   1   4
BRANCH   1  24
ATOM     24  C   UNL     1      -3.749  10.860  23.503  0.00  0.00    +0.175 C 
BRANCH  24  25
ATOM     25  C   UNL     1      -3.775  10.354  24.952  0.00  0.00    +0.176 C 
ATOM     26  O   UNL     1      -2.982   9.137  25.015  0.00  0.00    -0.332 OA
ATOM     27  C   UNL     1      -2.804   8.564  26.353  0.00  0.00    +0.277 C 
ATOM     28  C   UNL     1      -4.178   8.329  27.027  0.00  0.00    +0.110 C 
ATOM     29  C   UNL     1      -5.070   9.587  26.957  0.00  0.00    +0.143 C 
ATOM     30  C   UNL     1      -5.183  10.099  25.521  0.00  0.00    +0.133 C 
BRANCH  30  31
ATOM     31  N   UNL     1      -5.963  11.347  25.479  0.00  0.00    -0.308 N 
ATOM     32  H   UNL     1      -5.676  12.103  26.085  0.00  0.00    +0.149 HD
ATOM     33  C   UNL     1      -7.025  11.545  24.693  0.00  0.00    +0.210 C 
ATOM     34  C   UNL     1      -7.452  10.364  23.801  0.00  0.00    +0.109 C 
ATOM     35  O   UNL     1      -7.650  12.605  24.669  0.00  0.00    -0.276 OA
ENDBRANCH  30  31
BRANCH  27  36
ATOM     36  C   UNL     1      -1.949   9.495  27.237  0.00  0.00    +0.414 C 
ATOM     37  O   UNL     1      -0.971  10.074  26.764  0.00  0.00    -0.240 OA
ATOM     38  O   UNL     1      -2.235   9.666  28.423  0.00  0.00    -0.240 OA
ENDBRANCH  27  36
BRANCH  27  39
ATOM     39  O   UNL     1      -2.141   7.282  26.208  0.00  0.00    -0.343 OA
ATOM     40  C   UNL     1      -2.513   6.285  27.193  0.00  0.00    +0.198 C 
ENDBRANCH  27  39
BRANCH  29  41
ATOM     41  O   UNL     1      -6.374   9.281  27.452  0.00  0.00    -0.390 OA
ATOM     42  H   UNL     1      -6.920   8.952  26.734  0.00  0.00    +0.210 HD
ENDBRANCH  29  41
ENDBRANCH  24  25
BRANCH  24  43
ATOM     43  O   UNL     1      -3.007   9.946  22.670  0.00  0.00    -0.387 OA
ATOM     44  H   UNL     1      -2.632  10.423  21.926  0.00  0.00    +0.210 HD
ENDBRANCH  24  43
ENDBRANCH   1  24
TORSDOF 15
