REMARK VINA RESULT:    -4.501      6.229     12.678
REMARK INTER + INTRA:         -10.658
REMARK INTER:                  -7.791
REMARK INTRA:                  -2.867
REMARK UNBOUND:                -2.867
REMARK  Name = lig_assembled_70.pdb
REMARK  16 active torsions:
REMARK  status: ('A' for Active; 'I' for Inactive)
REMARK    1  A    between atoms: _2  and  _10
REMARK    2  A    between atoms: _5  and  _22
REMARK    3  A    between atoms: _7  and  _8
REMARK    4  A    between atoms: _7  and  _22
REMARK    5  A    between atoms: _18  and  _38
REMARK    6  A    between atoms: _20  and  _26
REMARK    7  A    between atoms: _21  and  _25
REMARK    8  A    between atoms: _25  and  _26
REMARK    9  A    between atoms: _28  and  _29
REMARK   10  A    between atoms: _30  and  _31
REMARK   11  A    between atoms: _32  and  _34
REMARK   12  A    between atoms: _34  and  _35
REMARK   13  A    between atoms: _34  and  _36
REMARK   14  A    between atoms: _36  and  _37
REMARK   15  A    between atoms: _36  and  _38
REMARK   16  A    between atoms: _39  and  _41
REMARK                            x       y       z     vdW  Elec       q    Type
REMARK                         _______ _______ _______ _____ _____    ______ ____
ROOT
ATOM      1  C   UNL     1      -2.681   9.881  13.764  0.00  0.00    +0.163 C 
ENDROOT
BRANCH   1   2
ATOM      2  O   UNL     1      -2.075  10.012  12.467  0.00  0.00    -0.388 OA
ATOM      3  H   UNL     1      -1.673   9.177  12.215  0.00  0.00    +0.210 HD
ENDBRANCH   1   2
BRANCH   1   4
ATOM      4  C   UNL     1      -3.541   8.623  13.813  0.00  0.00    +0.141 C 
BRANCH   4   7
ATOM      5  C   UNL     1      -5.070   8.241  15.717  0.00  0.00    +0.401 C 
ATOM      6  O   UNL     1      -4.323   7.435  16.277  0.00  0.00    -0.226 OA
ATOM      7  N   UNL     1      -4.787   8.840  14.559  0.00  0.00    -0.279 N 
ATOM      8  H   UNL     1      -5.467   9.479  14.173  0.00  0.00    +0.152 HD
BRANCH   5   9
ATOM      9  O   UNL     1      -6.323   8.566  16.325  0.00  0.00    -0.444 OA
BRANCH   9  10
ATOM     10  C   UNL     1      -6.551   9.974  16.227  0.00  0.00    +0.292 C 
BRANCH  10  12
ATOM     11  N   UNL     1      -5.543  11.907  17.407  0.00  0.00    -0.131 NA
ATOM     12  C   UNL     1      -6.090  10.657  17.450  0.00  0.00    +0.121 A 
ATOM     13  C   UNL     1      -6.114  10.224  18.755  0.00  0.00    +0.143 A 
ATOM     14  N   UNL     1      -5.577  11.260  19.484  0.00  0.00    -0.218 N 
ATOM     15  N   UNL     1      -5.228  12.264  18.647  0.00  0.00    -0.060 NA
BRANCH  14  16
ATOM     16  C   UNL     1      -5.408  11.352  20.882  0.00  0.00    +0.086 A 
ATOM     17  C   UNL     1      -6.236  10.644  21.738  0.00  0.00    +0.139 A 
ATOM     18  N   UNL     1      -6.100  10.651  23.089  0.00  0.00    -0.253 NA
ATOM     19  C   UNL     1      -5.103  11.376  23.627  0.00  0.00    +0.071 A 
ATOM     20  C   UNL     1      -4.221  12.141  22.835  0.00  0.00    +0.002 A 
ATOM     21  C   UNL     1      -3.189  12.887  23.432  0.00  0.00    +0.010 A 
ATOM     22  C   UNL     1      -3.014  12.862  24.813  0.00  0.00    +0.001 A 
ATOM     23  C   UNL     1      -3.874  12.104  25.598  0.00  0.00    +0.002 A 
ATOM     24  C   UNL     1      -4.909  11.377  25.002  0.00  0.00    +0.028 A 
ATOM     25  C   UNL     1      -4.393  12.126  21.445  0.00  0.00    +0.039 A 
ENDBRANCH  14  16
ENDBRANCH  10  12
ENDBRANCH   9  10
ENDBRANCH   5   9
ENDBRANCH   4   7
ENDBRANCH   1   4
BRANCH   1  26
ATOM     26  C   UNL     1      -3.547  11.109  14.093  0.00  0.00    +0.175 C 
BRANCH  26  27
ATOM     27  C   UNL     1      -3.406  12.216  13.038  0.00  0.00    +0.176 C 
ATOM     28  O   UNL     1      -2.157  12.918  13.291  0.00  0.00    -0.332 OA
ATOM     29  C   UNL     1      -1.800  13.948  12.312  0.00  0.00    +0.277 C 
ATOM     30  C   UNL     1      -2.952  14.970  12.156  0.00  0.00    +0.110 C 
ATOM     31  C   UNL     1      -4.306  14.270  11.918  0.00  0.00    +0.143 C 
ATOM     32  C   UNL     1      -4.576  13.216  12.992  0.00  0.00    +0.133 C 
BRANCH  32  33
ATOM     33  N   UNL     1      -5.827  12.495  12.705  0.00  0.00    -0.308 N 
ATOM     34  H   UNL     1      -5.843  11.879  11.905  0.00  0.00    +0.149 HD
ATOM     35  C   UNL     1      -6.941  12.603  13.433  0.00  0.00    +0.210 C 
ATOM     36  C   UNL     1      -6.892  13.571  14.631  0.00  0.00    +0.109 C 
ATOM     37  O   UNL     1      -7.970  11.976  13.177  0.00  0.00    -0.276 OA
ENDBRANCH  32  33
BRANCH  29  38
ATOM     38  C   UNL     1      -1.485  13.314  10.941  0.00  0.00    +0.414 C 
ATOM     39  O   UNL     1      -0.959  12.204  10.877  0.00  0.00    -0.240 OA
ATOM     40  O   UNL     1      -1.756  13.913   9.899  0.00  0.00    -0.240 OA
ENDBRANCH  29  38
BRANCH  31  41
ATOM     41  O   UNL     1      -5.358  15.236  11.932  0.00  0.00    -0.390 OA
ATOM     42  H   UNL     1      -5.020  16.082  11.629  0.00  0.00    +0.210 HD
ENDBRANCH  31  41
BRANCH  29  43
ATOM     43  O   UNL     1      -0.630  14.650  12.805  0.00  0.00    -0.343 OA
ATOM     44  C   UNL     1      -0.663  16.090  12.637  0.00  0.00    +0.198 C 
ENDBRANCH  29  43
ENDBRANCH  26  27
BRANCH  26  45
ATOM     45  O   UNL     1      -3.209  11.620  15.398  0.00  0.00    -0.387 OA
ATOM     46  H   UNL     1      -3.845  11.300  16.042  0.00  0.00    +0.210 HD
ENDBRANCH  26  45
ENDBRANCH   1  26
TORSDOF 14
