REMARK VINA RESULT:    -5.911      3.016      5.935
REMARK INTER + INTRA:         -14.492
REMARK INTER:                 -10.540
REMARK INTRA:                  -3.952
REMARK UNBOUND:                -3.396
REMARK  Name = lig_assembled_34.pdb
REMARK  19 active torsions:
REMARK  status: ('A' for Active; 'I' for Inactive)
REMARK    1  A    between atoms: _2  and  _9
REMARK    2  A    between atoms: _4  and  _37
REMARK    3  A    between atoms: _6  and  _7
REMARK    4  A    between atoms: _6  and  _37
REMARK    5  A    between atoms: _11  and  _12
REMARK    6  A    between atoms: _13  and  _14
REMARK    7  A    between atoms: _18  and  _31
REMARK    8  A    between atoms: _33  and  _53
REMARK    9  A    between atoms: _35  and  _41
REMARK   10  A    between atoms: _36  and  _40
REMARK   11  A    between atoms: _40  and  _41
REMARK   12  A    between atoms: _43  and  _44
REMARK   13  A    between atoms: _45  and  _46
REMARK   14  A    between atoms: _47  and  _49
REMARK   15  A    between atoms: _49  and  _50
REMARK   16  A    between atoms: _49  and  _51
REMARK   17  A    between atoms: _51  and  _52
REMARK   18  A    between atoms: _51  and  _53
REMARK   19  A    between atoms: _54  and  _56
REMARK                            x       y       z     vdW  Elec       q    Type
REMARK                         _______ _______ _______ _____ _____    ______ ____
ROOT
ATOM      1  N   UNL     1      -7.474  11.503  19.198  0.00  0.00    -0.131 NA
ATOM      2  C   UNL     1      -6.927  10.253  19.129  0.00  0.00    +0.121 A 
ATOM      3  C   UNL     1      -6.132  10.177  18.012  0.00  0.00    +0.143 A 
ATOM      4  N   UNL     1      -6.194  11.425  17.429  0.00  0.00    -0.220 N 
ATOM      5  N   UNL     1      -7.038  12.206  18.156  0.00  0.00    -0.060 NA
ENDROOT
BRANCH   4   6
ATOM      6  C   UNL     1      -5.484  11.896  16.292  0.00  0.00    +0.068 A 
ATOM      7  C   UNL     1      -6.140  12.694  15.349  0.00  0.00    +0.038 A 
ATOM      8  C   UNL     1      -5.534  13.092  14.132  0.00  0.00    +0.007 A 
ATOM      9  C   UNL     1      -4.192  12.730  13.898  0.00  0.00    -0.008 A 
ATOM     10  C   UNL     1      -3.520  11.963  14.881  0.00  0.00    +0.011 A 
ATOM     11  C   UNL     1      -4.158  11.534  16.058  0.00  0.00    +0.028 A 
BRANCH   9  12
ATOM     12  C   UNL     1      -3.435  13.029  12.639  0.00  0.00    +0.004 A 
ATOM     13  C   UNL     1      -3.427  12.179  11.573  0.00  0.00    +0.026 A 
ATOM     14  C   UNL     1      -4.104  10.877  11.590  0.00  0.00    +0.016 A 
ATOM     15  C   UNL     1      -3.927   9.981  10.608  0.00  0.00    +0.051 A 
ATOM     16  C   UNL     1      -3.061  10.294   9.447  0.00  0.00    +0.183 A 
ATOM     17  O   UNL     1      -2.839   9.459   8.574  0.00  0.00    -0.288 OA
ATOM     18  C   UNL     1      -2.537  11.670   9.340  0.00  0.00    +0.097 A 
ATOM     19  C   UNL     1      -2.741  12.557  10.322  0.00  0.00    +0.140 A 
ATOM     20  O   UNL     1      -2.351  13.871  10.113  0.00  0.00    -0.455 OA
ATOM     21  C   UNL     1      -2.320  14.723  11.186  0.00  0.00    +0.140 A 
ATOM     22  C   UNL     1      -1.832  16.007  10.941  0.00  0.00    +0.092 A 
ATOM     23  C   UNL     1      -1.718  16.902  11.993  0.00  0.00    +0.120 A 
ATOM     24  C   UNL     1      -2.008  16.503  13.293  0.00  0.00    +0.046 A 
ATOM     25  C   UNL     1      -2.507  15.218  13.521  0.00  0.00    +0.016 A 
ATOM     26  C   UNL     1      -2.729  14.330  12.458  0.00  0.00    +0.026 A 
BRANCH  23  27
ATOM     27  O   UNL     1      -1.326  18.178  11.715  0.00  0.00    -0.507 OA
ATOM     28  H   UNL     1      -0.631  18.131  11.038  0.00  0.00    +0.292 HD
ENDBRANCH  23  27
ENDBRANCH   9  12
BRANCH   8  29
ATOM     29  C   UNL     1      -6.423  13.817  13.140  0.00  0.00    +0.072 C 
ATOM     30  O   UNL     1      -7.139  13.080  12.388  0.00  0.00    -0.545 OA
ATOM     31  O   UNL     1      -6.341  15.078  13.071  0.00  0.00    -0.545 OA
ENDBRANCH   8  29
ENDBRANCH   4   6
BRANCH   2  32
ATOM     32  C   UNL     1      -7.200   9.212  20.138  0.00  0.00    +0.292 C 
BRANCH  32  33
ATOM     33  O   UNL     1      -7.086   7.907  19.565  0.00  0.00    -0.444 OA
BRANCH  33  34
ATOM     34  C   UNL     1      -6.654   6.981  20.566  0.00  0.00    +0.401 C 
ATOM     35  O   UNL     1      -7.300   5.946  20.744  0.00  0.00    -0.226 OA
ATOM     36  N   UNL     1      -5.556   7.302  21.253  0.00  0.00    -0.279 N 
ATOM     37  H   UNL     1      -5.089   8.169  21.028  0.00  0.00    +0.152 HD
BRANCH  36  38
ATOM     38  C   UNL     1      -4.989   6.466  22.318  0.00  0.00    +0.141 C 
BRANCH  38  39
ATOM     39  C   UNL     1      -4.838   7.236  23.625  0.00  0.00    +0.163 C 
BRANCH  39  40
ATOM     40  O   UNL     1      -3.567   6.940  24.226  0.00  0.00    -0.388 OA
ATOM     41  H   UNL     1      -3.041   7.742  24.276  0.00  0.00    +0.210 HD
ENDBRANCH  39  40
BRANCH  39  42
ATOM     42  C   UNL     1      -4.980   8.744  23.354  0.00  0.00    +0.175 C 
BRANCH  42  43
ATOM     43  C   UNL     1      -3.932   9.569  24.114  0.00  0.00    +0.176 C 
ATOM     44  O   UNL     1      -4.282   9.546  25.525  0.00  0.00    -0.332 OA
ATOM     45  C   UNL     1      -3.328  10.200  26.426  0.00  0.00    +0.277 C 
ATOM     46  C   UNL     1      -3.069  11.658  25.975  0.00  0.00    +0.110 C 
ATOM     47  C   UNL     1      -2.724  11.737  24.473  0.00  0.00    +0.143 C 
ATOM     48  C   UNL     1      -3.780  11.023  23.629  0.00  0.00    +0.133 C 
BRANCH  48  49
ATOM     49  N   UNL     1      -3.396  11.030  22.209  0.00  0.00    -0.308 N 
ATOM     50  H   UNL     1      -2.604  10.467  21.932  0.00  0.00    +0.149 HD
ATOM     51  C   UNL     1      -4.025  11.731  21.262  0.00  0.00    +0.210 C 
ATOM     52  C   UNL     1      -5.212  12.599  21.720  0.00  0.00    +0.109 C 
ATOM     53  O   UNL     1      -3.689  11.705  20.077  0.00  0.00    -0.276 OA
ENDBRANCH  48  49
BRANCH  45  54
ATOM     54  C   UNL     1      -1.993   9.427  26.463  0.00  0.00    +0.414 C 
ATOM     55  O   UNL     1      -1.988   8.197  26.462  0.00  0.00    -0.240 OA
ATOM     56  O   UNL     1      -0.921  10.034  26.494  0.00  0.00    -0.240 OA
ENDBRANCH  45  54
BRANCH  47  57
ATOM     57  O   UNL     1      -2.643  13.104  24.068  0.00  0.00    -0.390 OA
ATOM     58  H   UNL     1      -3.175  13.237  23.280  0.00  0.00    +0.210 HD
ENDBRANCH  47  57
BRANCH  45  59
ATOM     59  O   UNL     1      -3.912  10.229  27.754  0.00  0.00    -0.343 OA
ATOM     60  C   UNL     1      -4.179  11.554  28.277  0.00  0.00    +0.198 C 
ENDBRANCH  45  59
ENDBRANCH  42  43
BRANCH  42  61
ATOM     61  O   UNL     1      -6.307   9.188  23.698  0.00  0.00    -0.387 OA
ATOM     62  H   UNL     1      -6.941   8.500  23.481  0.00  0.00    +0.210 HD
ENDBRANCH  42  61
ENDBRANCH  39  42
ENDBRANCH  38  39
ENDBRANCH  36  38
ENDBRANCH  33  34
ENDBRANCH  32  33
ENDBRANCH   2  32
TORSDOF 17
