REMARK VINA RESULT:    -4.997      2.658      9.094
REMARK INTER + INTRA:         -11.219
REMARK INTER:                  -7.942
REMARK INTRA:                  -3.276
REMARK UNBOUND:                -1.695
REMARK  Name = lig_assembled_12.pdb
REMARK  19 active torsions:
REMARK  status: ('A' for Active; 'I' for Inactive)
REMARK    1  A    between atoms: _2  and  _9
REMARK    2  A    between atoms: _4  and  _21
REMARK    3  A    between atoms: _6  and  _7
REMARK    4  A    between atoms: _6  and  _21
REMARK    5  A    between atoms: _9  and  _16
REMARK    6  A    between atoms: _10  and  _11
REMARK    7  A    between atoms: _10  and  _16
REMARK    8  A    between atoms: _17  and  _37
REMARK    9  A    between atoms: _19  and  _25
REMARK   10  A    between atoms: _20  and  _24
REMARK   11  A    between atoms: _24  and  _25
REMARK   12  A    between atoms: _27  and  _28
REMARK   13  A    between atoms: _29  and  _30
REMARK   14  A    between atoms: _31  and  _33
REMARK   15  A    between atoms: _33  and  _34
REMARK   16  A    between atoms: _33  and  _35
REMARK   17  A    between atoms: _35  and  _36
REMARK   18  A    between atoms: _35  and  _37
REMARK   19  A    between atoms: _38  and  _40
REMARK                            x       y       z     vdW  Elec       q    Type
REMARK                         _______ _______ _______ _____ _____    ______ ____
ROOT
ATOM      1  C   UNL     1      -4.565   9.707  24.863  0.00  0.00    +0.163 C 
ENDROOT
BRANCH   1   2
ATOM      2  O   UNL     1      -5.190   9.445  23.597  0.00  0.00    -0.388 OA
ATOM      3  H   UNL     1      -5.774   8.687  23.678  0.00  0.00    +0.210 HD
ENDBRANCH   1   2
BRANCH   1   4
ATOM      4  C   UNL     1      -5.241  10.891  25.577  0.00  0.00    +0.175 C 
BRANCH   4   5
ATOM      5  C   UNL     1      -5.732  11.958  24.587  0.00  0.00    +0.176 C 
ATOM      6  O   UNL     1      -4.659  12.217  23.641  0.00  0.00    -0.332 OA
ATOM      7  C   UNL     1      -4.986  13.140  22.549  0.00  0.00    +0.277 C 
ATOM      8  C   UNL     1      -5.520  14.479  23.115  0.00  0.00    +0.110 C 
ATOM      9  C   UNL     1      -6.642  14.253  24.150  0.00  0.00    +0.143 C 
ATOM     10  C   UNL     1      -6.196  13.275  25.237  0.00  0.00    +0.133 C 
BRANCH  10  11
ATOM     11  N   UNL     1      -7.302  13.000  26.169  0.00  0.00    -0.308 N 
ATOM     12  H   UNL     1      -8.112  12.517  25.808  0.00  0.00    +0.149 HD
ATOM     13  C   UNL     1      -7.304  13.348  27.458  0.00  0.00    +0.210 C 
ATOM     14  C   UNL     1      -6.064  14.106  27.970  0.00  0.00    +0.109 C 
ATOM     15  O   UNL     1      -8.238  13.092  28.218  0.00  0.00    -0.276 OA
ENDBRANCH  10  11
BRANCH   7  16
ATOM     16  C   UNL     1      -6.039  12.521  21.607  0.00  0.00    +0.414 C 
ATOM     17  O   UNL     1      -6.383  11.348  21.746  0.00  0.00    -0.240 OA
ATOM     18  O   UNL     1      -6.544  13.194  20.708  0.00  0.00    -0.240 OA
ENDBRANCH   7  16
BRANCH   9  19
ATOM     19  O   UNL     1      -6.999  15.497  24.753  0.00  0.00    -0.390 OA
ATOM     20  H   UNL     1      -7.823  15.812  24.375  0.00  0.00    +0.210 HD
ENDBRANCH   9  19
BRANCH   7  21
ATOM     21  O   UNL     1      -3.767  13.410  21.810  0.00  0.00    -0.343 OA
ATOM     22  C   UNL     1      -3.025  12.233  21.402  0.00  0.00    +0.198 C 
ENDBRANCH   7  21
ENDBRANCH   4   5
BRANCH   4  23
ATOM     23  O   UNL     1      -4.336  11.478  26.532  0.00  0.00    -0.387 OA
ATOM     24  H   UNL     1      -4.399  12.435  26.487  0.00  0.00    +0.210 HD
ENDBRANCH   4  23
ENDBRANCH   1   4
BRANCH   1  25
ATOM     25  C   UNL     1      -4.640   8.468  25.749  0.00  0.00    +0.141 C 
BRANCH  25  28
ATOM     26  C   UNL     1      -2.632   8.344  27.184  0.00  0.00    +0.401 C 
ATOM     27  O   UNL     1      -1.918   7.858  26.304  0.00  0.00    -0.226 OA
ATOM     28  N   UNL     1      -3.918   8.654  27.014  0.00  0.00    -0.279 N 
ATOM     29  H   UNL     1      -4.424   9.039  27.799  0.00  0.00    +0.152 HD
BRANCH  26  30
ATOM     30  O   UNL     1      -2.070   8.594  28.475  0.00  0.00    -0.444 OA
BRANCH  30  31
ATOM     31  C   UNL     1      -3.117   8.652  29.448  0.00  0.00    +0.292 C 
BRANCH  31  33
ATOM     32  N   UNL     1      -3.764  11.044  29.355  0.00  0.00    -0.131 NA
ATOM     33  C   UNL     1      -3.195  10.000  30.040  0.00  0.00    +0.120 A 
ATOM     34  C   UNL     1      -2.763  10.449  31.266  0.00  0.00    +0.139 A 
ATOM     35  N   UNL     1      -3.068  11.778  31.258  0.00  0.00    -0.226 N 
ATOM     36  N   UNL     1      -3.691  12.128  30.117  0.00  0.00    -0.063 NA
BRANCH  35  37
ATOM     37  C   UNL     1      -2.850  12.764  32.302  0.00  0.00    +0.305 C 
BRANCH  37  38
ATOM     38  O   UNL     1      -2.975  14.071  31.745  0.00  0.00    -0.353 OA
BRANCH  38  39
ATOM     39  C   UNL     1      -3.376  15.023  32.722  0.00  0.00    +0.197 C 
BRANCH  39  40
ATOM     40  C   UNL     1      -3.843  16.252  31.990  0.00  0.00    -0.022 A 
ATOM     41  C   UNL     1      -3.728  17.519  32.579  0.00  0.00    +0.006 A 
ATOM     42  C   UNL     1      -4.197  18.653  31.916  0.00  0.00    +0.000 A 
ATOM     43  C   UNL     1      -4.794  18.532  30.663  0.00  0.00    +0.000 A 
ATOM     44  C   UNL     1      -4.925  17.277  30.072  0.00  0.00    +0.000 A 
ATOM     45  C   UNL     1      -4.456  16.141  30.734  0.00  0.00    +0.006 A 
ENDBRANCH  39  40
ENDBRANCH  38  39
ENDBRANCH  37  38
ENDBRANCH  35  37
ENDBRANCH  31  33
ENDBRANCH  30  31
ENDBRANCH  26  30
ENDBRANCH  25  28
ENDBRANCH   1  25
TORSDOF 17
