REMARK VINA RESULT:    -4.631      3.586      7.668
REMARK INTER + INTRA:         -11.965
REMARK INTER:                  -7.786
REMARK INTRA:                  -4.179
REMARK UNBOUND:                -3.679
REMARK  Name = lig_assembled_0.pdb
REMARK  17 active torsions:
REMARK  status: ('A' for Active; 'I' for Inactive)
REMARK    1  A    between atoms: _2  and  _10
REMARK    2  A    between atoms: _5  and  _21
REMARK    3  A    between atoms: _7  and  _8
REMARK    4  A    between atoms: _7  and  _21
REMARK    5  A    between atoms: _11  and  _12
REMARK    6  A    between atoms: _17  and  _37
REMARK    7  A    between atoms: _19  and  _25
REMARK    8  A    between atoms: _20  and  _24
REMARK    9  A    between atoms: _24  and  _25
REMARK   10  A    between atoms: _27  and  _28
REMARK   11  A    between atoms: _29  and  _30
REMARK   12  A    between atoms: _31  and  _33
REMARK   13  A    between atoms: _33  and  _34
REMARK   14  A    between atoms: _33  and  _35
REMARK   15  A    between atoms: _35  and  _36
REMARK   16  A    between atoms: _35  and  _37
REMARK   17  A    between atoms: _38  and  _40
REMARK                            x       y       z     vdW  Elec       q    Type
REMARK                         _______ _______ _______ _____ _____    ______ ____
ROOT
ATOM      1  C   UNL     1      -2.953   9.194  31.395  0.00  0.00    +0.163 C 
ENDROOT
BRANCH   1   2
ATOM      2  O   UNL     1      -3.002   9.860  30.123  0.00  0.00    -0.388 OA
ATOM      3  H   UNL     1      -2.110   9.979  29.788  0.00  0.00    +0.210 HD
ENDBRANCH   1   2
BRANCH   1   4
ATOM      4  C   UNL     1      -3.501   7.777  31.264  0.00  0.00    +0.141 C 
BRANCH   4   7
ATOM      5  C   UNL     1      -3.656   6.221  29.351  0.00  0.00    +0.401 C 
ATOM      6  O   UNL     1      -3.219   5.255  29.981  0.00  0.00    -0.226 OA
ATOM      7  N   UNL     1      -3.815   7.439  29.871  0.00  0.00    -0.279 N 
ATOM      8  H   UNL     1      -4.172   8.170  29.272  0.00  0.00    +0.152 HD
BRANCH   5   9
ATOM      9  O   UNL     1      -4.017   6.049  27.978  0.00  0.00    -0.444 OA
BRANCH   9  10
ATOM     10  C   UNL     1      -2.872   6.272  27.152  0.00  0.00    +0.292 C 
BRANCH  10  12
ATOM     11  N   UNL     1      -1.756   8.448  27.477  0.00  0.00    -0.131 NA
ATOM     12  C   UNL     1      -2.720   7.709  26.860  0.00  0.00    +0.121 A 
ATOM     13  C   UNL     1      -3.416   8.516  25.988  0.00  0.00    +0.143 A 
ATOM     14  N   UNL     1      -2.901   9.778  26.175  0.00  0.00    -0.219 N 
ATOM     15  N   UNL     1      -1.837   9.687  27.021  0.00  0.00    -0.060 NA
BRANCH  14  16
ATOM     16  C   UNL     1      -3.229  11.019  25.561  0.00  0.00    +0.079 A 
ATOM     17  C   UNL     1      -4.011  12.030  26.156  0.00  0.00    +0.062 A 
ATOM     18  C   UNL     1      -4.294  13.197  25.414  0.00  0.00    +0.015 A 
ATOM     19  C   UNL     1      -3.830  13.358  24.108  0.00  0.00    +0.001 A 
ATOM     20  C   UNL     1      -3.048  12.370  23.528  0.00  0.00    +0.002 A 
ATOM     21  C   UNL     1      -2.740  11.217  24.249  0.00  0.00    +0.028 A 
BRANCH  17  22
ATOM     22  C   UNL     1      -4.410  12.039  27.592  0.00  0.00    +0.244 C 
ATOM     23  O   UNL     1      -5.568  11.889  27.948  0.00  0.00    -0.270 OA
ATOM     24  N   UNL     1      -3.418  12.185  28.525  0.00  0.00    -0.325 N 
ATOM     25  H   UNL     1      -3.692  12.140  29.499  0.00  0.00    +0.145 HD
ATOM     26  H   UNL     1      -2.438  12.300  28.313  0.00  0.00    +0.145 HD
ENDBRANCH  17  22
ENDBRANCH  14  16
ENDBRANCH  10  12
ENDBRANCH   9  10
ENDBRANCH   5   9
ENDBRANCH   4   7
ENDBRANCH   1   4
BRANCH   1  27
ATOM     27  C   UNL     1      -3.765   9.964  32.451  0.00  0.00    +0.175 C 
BRANCH  27  28
ATOM     28  C   UNL     1      -4.187  11.355  31.955  0.00  0.00    +0.176 C 
ATOM     29  O   UNL     1      -3.893  12.313  33.008  0.00  0.00    -0.332 OA
ATOM     30  C   UNL     1      -4.133  13.720  32.671  0.00  0.00    +0.277 C 
ATOM     31  C   UNL     1      -5.587  13.916  32.175  0.00  0.00    +0.110 C 
ATOM     32  C   UNL     1      -5.956  12.898  31.075  0.00  0.00    +0.143 C 
ATOM     33  C   UNL     1      -5.663  11.468  31.531  0.00  0.00    +0.133 C 
BRANCH  33  34
ATOM     34  N   UNL     1      -5.937  10.515  30.444  0.00  0.00    -0.308 N 
ATOM     35  H   UNL     1      -5.468  10.659  29.561  0.00  0.00    +0.149 HD
ATOM     36  C   UNL     1      -6.764   9.471  30.549  0.00  0.00    +0.210 C 
ATOM     37  C   UNL     1      -7.482   9.293  31.900  0.00  0.00    +0.109 C 
ATOM     38  O   UNL     1      -6.963   8.680  29.626  0.00  0.00    -0.276 OA
ENDBRANCH  33  34
BRANCH  30  39
ATOM     39  C   UNL     1      -3.149  14.197  31.584  0.00  0.00    +0.414 C 
ATOM     40  O   UNL     1      -1.935  14.080  31.751  0.00  0.00    -0.240 OA
ATOM     41  O   UNL     1      -3.567  14.700  30.540  0.00  0.00    -0.240 OA
ENDBRANCH  30  39
BRANCH  32  42
ATOM     42  O   UNL     1      -7.343  13.015  30.756  0.00  0.00    -0.390 OA
ATOM     43  H   UNL     1      -7.791  13.507  31.449  0.00  0.00    +0.210 HD
ENDBRANCH  32  42
BRANCH  30  44
ATOM     44  O   UNL     1      -3.951  14.508  33.875  0.00  0.00    -0.343 OA
ATOM     45  C   UNL     1      -4.676  15.763  33.901  0.00  0.00    +0.198 C 
ENDBRANCH  30  44
ENDBRANCH  27  28
BRANCH  27  46
ATOM     46  O   UNL     1      -3.009  10.080  33.672  0.00  0.00    -0.387 OA
ATOM     47  H   UNL     1      -2.600   9.236  33.877  0.00  0.00    +0.210 HD
ENDBRANCH  27  46
ENDBRANCH   1  27
TORSDOF 15
