REMARK VINA RESULT:    -4.635      2.088      2.802
REMARK INTER + INTRA:         -11.163
REMARK INTER:                  -8.759
REMARK INTRA:                  -2.404
REMARK UNBOUND:                -2.598
REMARK  Name = lig_assembled_67.pdb
REMARK  18 active torsions:
REMARK  status: ('A' for Active; 'I' for Inactive)
REMARK    1  A    between atoms: _2  and  _9
REMARK    2  A    between atoms: _4  and  _19
REMARK    3  A    between atoms: _6  and  _7
REMARK    4  A    between atoms: _6  and  _19
REMARK    5  A    between atoms: _9  and  _10
REMARK    6  A    between atoms: _10  and  _11
REMARK    7  A    between atoms: _15  and  _35
REMARK    8  A    between atoms: _17  and  _23
REMARK    9  A    between atoms: _18  and  _22
REMARK   10  A    between atoms: _22  and  _23
REMARK   11  A    between atoms: _25  and  _26
REMARK   12  A    between atoms: _27  and  _28
REMARK   13  A    between atoms: _29  and  _31
REMARK   14  A    between atoms: _31  and  _32
REMARK   15  A    between atoms: _31  and  _33
REMARK   16  A    between atoms: _33  and  _34
REMARK   17  A    between atoms: _33  and  _35
REMARK   18  A    between atoms: _36  and  _38
REMARK                            x       y       z     vdW  Elec       q    Type
REMARK                         _______ _______ _______ _____ _____    ______ ____
ROOT
ATOM      1  C   UNL     1      -5.674   8.404  21.848  0.00  0.00    +0.163 C 
ENDROOT
BRANCH   1   2
ATOM      2  O   UNL     1      -6.330   7.956  20.650  0.00  0.00    -0.388 OA
ATOM      3  H   UNL     1      -7.280   8.042  20.753  0.00  0.00    +0.210 HD
ENDBRANCH   1   2
BRANCH   1   4
ATOM      4  C   UNL     1      -6.101   9.838  22.205  0.00  0.00    +0.175 C 
BRANCH   4   5
ATOM      5  C   UNL     1      -4.903  10.717  22.595  0.00  0.00    +0.176 C 
ATOM      6  O   UNL     1      -5.243  11.416  23.824  0.00  0.00    -0.332 OA
ATOM      7  C   UNL     1      -4.172  12.228  24.408  0.00  0.00    +0.277 C 
ATOM      8  C   UNL     1      -3.627  13.236  23.366  0.00  0.00    +0.110 C 
ATOM      9  C   UNL     1      -3.282  12.544  22.030  0.00  0.00    +0.143 C 
ATOM     10  C   UNL     1      -4.465  11.724  21.515  0.00  0.00    +0.133 C 
BRANCH  10  11
ATOM     11  N   UNL     1      -4.096  11.000  20.289  0.00  0.00    -0.308 N 
ATOM     12  H   UNL     1      -3.263  10.429  20.311  0.00  0.00    +0.149 HD
ATOM     13  C   UNL     1      -4.789  11.049  19.148  0.00  0.00    +0.210 C 
ATOM     14  C   UNL     1      -6.038  11.950  19.138  0.00  0.00    +0.109 C 
ATOM     15  O   UNL     1      -4.463  10.420  18.140  0.00  0.00    -0.276 OA
ENDBRANCH  10  11
BRANCH   7  16
ATOM     16  C   UNL     1      -3.019  11.334  24.911  0.00  0.00    +0.414 C 
ATOM     17  O   UNL     1      -2.020  11.839  25.422  0.00  0.00    -0.240 OA
ATOM     18  O   UNL     1      -3.089  10.109  24.806  0.00  0.00    -0.240 OA
ENDBRANCH   7  16
BRANCH   9  19
ATOM     19  O   UNL     1      -2.930  13.526  21.056  0.00  0.00    -0.390 OA
ATOM     20  H   UNL     1      -3.245  13.249  20.192  0.00  0.00    +0.210 HD
ENDBRANCH   9  19
BRANCH   7  21
ATOM     21  O   UNL     1      -4.730  12.976  25.519  0.00  0.00    -0.343 OA
ATOM     22  C   UNL     1      -5.349  12.168  26.551  0.00  0.00    +0.198 C 
ENDBRANCH   7  21
ENDBRANCH   4   5
BRANCH   4  23
ATOM     23  O   UNL     1      -7.069   9.816  23.273  0.00  0.00    -0.387 OA
ATOM     24  H   UNL     1      -7.283  10.716  23.530  0.00  0.00    +0.210 HD
ENDBRANCH   4  23
ENDBRANCH   1   4
BRANCH   1  25
ATOM     25  C   UNL     1      -6.008   7.469  23.006  0.00  0.00    +0.141 C 
BRANCH  25  28
ATOM     26  C   UNL     1      -3.877   6.698  23.991  0.00  0.00    +0.401 C 
ATOM     27  O   UNL     1      -3.647   5.885  23.093  0.00  0.00    -0.226 OA
ATOM     28  N   UNL     1      -4.960   7.475  24.034  0.00  0.00    -0.279 N 
ATOM     29  H   UNL     1      -5.065   8.104  24.817  0.00  0.00    +0.152 HD
BRANCH  26  30
ATOM     30  O   UNL     1      -2.942   6.829  25.065  0.00  0.00    -0.444 OA
BRANCH  30  31
ATOM     31  C   UNL     1      -3.629   6.705  26.314  0.00  0.00    +0.292 C 
BRANCH  31  33
ATOM     32  N   UNL     1      -1.979   8.203  27.390  0.00  0.00    -0.131 NA
ATOM     33  C   UNL     1      -3.285   7.830  27.204  0.00  0.00    +0.120 A 
ATOM     34  C   UNL     1      -4.097   8.650  27.954  0.00  0.00    +0.137 A 
ATOM     35  N   UNL     1      -3.228   9.496  28.573  0.00  0.00    -0.251 N 
ATOM     36  N   UNL     1      -1.957   9.225  28.235  0.00  0.00    -0.065 NA
BRANCH  35  37
ATOM     37  C   UNL     1      -3.528  10.583  29.478  0.00  0.00    +0.150 C 
BRANCH  37  38
ATOM     38  C   UNL     1      -2.815  10.473  30.823  0.00  0.00    +0.084 C 
BRANCH  38  39
ATOM     39  C   UNL     1      -3.039  11.694  31.703  0.00  0.00    +0.252 C 
ATOM     40  O   UNL     1      -1.792  12.159  32.230  0.00  0.00    -0.349 OA
ATOM     41  C   UNL     1      -2.010  13.559  32.394  0.00  0.00    +0.191 C 
ATOM     42  C   UNL     1      -2.876  13.915  31.213  0.00  0.00    +0.191 C 
ATOM     43  O   UNL     1      -3.653  12.745  30.952  0.00  0.00    -0.349 OA
ENDBRANCH  38  39
ENDBRANCH  37  38
ENDBRANCH  35  37
ENDBRANCH  31  33
ENDBRANCH  30  31
ENDBRANCH  26  30
ENDBRANCH  25  28
ENDBRANCH   1  25
TORSDOF 16
