REMARK VINA RESULT:    -4.877      3.106      6.762
REMARK INTER + INTRA:         -12.255
REMARK INTER:                  -8.229
REMARK INTRA:                  -4.025
REMARK UNBOUND:                -3.243
REMARK  Name = lig_assembled_78.pdb
REMARK  18 active torsions:
REMARK  status: ('A' for Active; 'I' for Inactive)
REMARK    1  A    between atoms: _2  and  _9
REMARK    2  A    between atoms: _4  and  _21
REMARK    3  A    between atoms: _6  and  _7
REMARK    4  A    between atoms: _6  and  _21
REMARK    5  A    between atoms: _9  and  _41
REMARK    6  A    between atoms: _10  and  _41
REMARK    7  A    between atoms: _17  and  _37
REMARK    8  A    between atoms: _19  and  _25
REMARK    9  A    between atoms: _20  and  _24
REMARK   10  A    between atoms: _24  and  _25
REMARK   11  A    between atoms: _27  and  _28
REMARK   12  A    between atoms: _29  and  _30
REMARK   13  A    between atoms: _31  and  _33
REMARK   14  A    between atoms: _33  and  _34
REMARK   15  A    between atoms: _33  and  _35
REMARK   16  A    between atoms: _35  and  _36
REMARK   17  A    between atoms: _35  and  _37
REMARK   18  A    between atoms: _38  and  _40
REMARK                            x       y       z     vdW  Elec       q    Type
REMARK                         _______ _______ _______ _____ _____    ______ ____
ROOT
ATOM      1  C   UNL     1      -3.031  11.364  22.522  0.00  0.00    +0.163 C 
ENDROOT
BRANCH   1   2
ATOM      2  O   UNL     1      -2.775  12.282  23.597  0.00  0.00    -0.388 OA
ATOM      3  H   UNL     1      -3.035  11.881  24.430  0.00  0.00    +0.210 HD
ENDBRANCH   1   2
BRANCH   1   4
ATOM      4  C   UNL     1      -3.978  10.238  22.974  0.00  0.00    +0.175 C 
BRANCH   4   5
ATOM      5  C   UNL     1      -4.011  10.090  24.502  0.00  0.00    +0.176 C 
ATOM      6  O   UNL     1      -3.049   9.065  24.873  0.00  0.00    -0.332 OA
ATOM      7  C   UNL     1      -2.866   8.859  26.313  0.00  0.00    +0.277 C 
ATOM      8  C   UNL     1      -4.226   8.573  26.996  0.00  0.00    +0.110 C 
ATOM      9  C   UNL     1      -5.291   9.619  26.606  0.00  0.00    +0.143 C 
ATOM     10  C   UNL     1      -5.396   9.755  25.087  0.00  0.00    +0.133 C 
BRANCH  10  11
ATOM     11  N   UNL     1      -6.351  10.816  24.729  0.00  0.00    -0.308 N 
ATOM     12  H   UNL     1      -6.096  11.770  24.941  0.00  0.00    +0.149 HD
ATOM     13  C   UNL     1      -7.531  10.600  24.142  0.00  0.00    +0.210 C 
ATOM     14  C   UNL     1      -7.901   9.132  23.855  0.00  0.00    +0.109 C 
ATOM     15  O   UNL     1      -8.304  11.509  23.841  0.00  0.00    -0.276 OA
ENDBRANCH  10  11
BRANCH   7  16
ATOM     16  C   UNL     1      -2.213  10.096  26.964  0.00  0.00    +0.414 C 
ATOM     17  O   UNL     1      -2.190  10.214  28.188  0.00  0.00    -0.240 OA
ATOM     18  O   UNL     1      -1.709  10.976  26.265  0.00  0.00    -0.240 OA
ENDBRANCH   7  16
BRANCH   7  19
ATOM     19  O   UNL     1      -2.010   7.702  26.495  0.00  0.00    -0.343 OA
ATOM     20  C   UNL     1      -2.506   6.715  27.434  0.00  0.00    +0.198 C 
ENDBRANCH   7  19
BRANCH   9  21
ATOM     21  O   UNL     1      -6.561   9.233  27.133  0.00  0.00    -0.390 OA
ATOM     22  H   UNL     1      -6.505   8.341  27.483  0.00  0.00    +0.210 HD
ENDBRANCH   9  21
ENDBRANCH   4   5
BRANCH   4  23
ATOM     23  O   UNL     1      -3.594   8.991  22.362  0.00  0.00    -0.387 OA
ATOM     24  H   UNL     1      -3.797   8.266  22.958  0.00  0.00    +0.210 HD
ENDBRANCH   4  23
ENDBRANCH   1   4
BRANCH   1  25
ATOM     25  C   UNL     1      -3.648  12.104  21.340  0.00  0.00    +0.141 C 
BRANCH  25  28
ATOM     26  C   UNL     1      -5.948  12.970  21.596  0.00  0.00    +0.401 C 
ATOM     27  O   UNL     1      -6.474  12.002  21.042  0.00  0.00    -0.226 OA
ATOM     28  N   UNL     1      -4.633  13.103  21.772  0.00  0.00    -0.279 N 
ATOM     29  H   UNL     1      -4.295  13.938  22.230  0.00  0.00    +0.152 HD
BRANCH  26  30
ATOM     30  O   UNL     1      -6.778  14.027  22.083  0.00  0.00    -0.444 OA
BRANCH  30  31
ATOM     31  C   UNL     1      -6.015  14.873  22.948  0.00  0.00    +0.292 C 
BRANCH  31  33
ATOM     32  N   UNL     1      -5.029  13.638  24.857  0.00  0.00    -0.131 NA
ATOM     33  C   UNL     1      -6.063  14.368  24.332  0.00  0.00    +0.120 A 
ATOM     34  C   UNL     1      -7.045  14.506  25.288  0.00  0.00    +0.139 A 
ATOM     35  N   UNL     1      -6.523  13.893  26.387  0.00  0.00    -0.230 N 
ATOM     36  N   UNL     1      -5.332  13.332  26.112  0.00  0.00    -0.064 NA
BRANCH  35  37
ATOM     37  C   UNL     1      -7.113  13.724  27.692  0.00  0.00    +0.316 C 
BRANCH  37  38
ATOM     38  S   UNL     1      -6.848  15.105  28.774  0.00  0.00    +0.017 S 
ATOM     39  O   UNL     1      -6.498  16.279  28.001  0.00  0.00    -0.168 OA
ATOM     40  O   UNL     1      -7.943  15.141  29.729  0.00  0.00    -0.168 OA
BRANCH  38  41
ATOM     41  C   UNL     1      -5.382  14.667  29.684  0.00  0.00    +0.090 A 
ATOM     42  C   UNL     1      -4.799  15.612  30.536  0.00  0.00    +0.027 A 
ATOM     43  C   UNL     1      -3.665  15.265  31.270  0.00  0.00    +0.002 A 
ATOM     44  C   UNL     1      -3.132  13.979  31.167  0.00  0.00    +0.000 A 
ATOM     45  C   UNL     1      -3.729  13.035  30.331  0.00  0.00    +0.002 A 
ATOM     46  C   UNL     1      -4.858  13.375  29.585  0.00  0.00    +0.027 A 
ENDBRANCH  38  41
ENDBRANCH  37  38
ENDBRANCH  35  37
ENDBRANCH  31  33
ENDBRANCH  30  31
ENDBRANCH  26  30
ENDBRANCH  25  28
ENDBRANCH   1  25
TORSDOF 16
