REMARK VINA RESULT:    -4.926      3.009      7.530
REMARK INTER + INTRA:         -11.661
REMARK INTER:                  -8.345
REMARK INTRA:                  -3.316
REMARK UNBOUND:                -2.848
REMARK  Name = lig_assembled_63.pdb
REMARK  17 active torsions:
REMARK  status: ('A' for Active; 'I' for Inactive)
REMARK    1  A    between atoms: _2  and  _11
REMARK    2  A    between atoms: _6  and  _20
REMARK    3  A    between atoms: _7  and  _15
REMARK    4  A    between atoms: _8  and  _9
REMARK    5  A    between atoms: _8  and  _20
REMARK    6  A    between atoms: _16  and  _36
REMARK    7  A    between atoms: _18  and  _24
REMARK    8  A    between atoms: _19  and  _23
REMARK    9  A    between atoms: _23  and  _24
REMARK   10  A    between atoms: _26  and  _27
REMARK   11  A    between atoms: _28  and  _29
REMARK   12  A    between atoms: _30  and  _32
REMARK   13  A    between atoms: _32  and  _33
REMARK   14  A    between atoms: _32  and  _34
REMARK   15  A    between atoms: _34  and  _35
REMARK   16  A    between atoms: _34  and  _36
REMARK   17  A    between atoms: _37  and  _39
REMARK                            x       y       z     vdW  Elec       q    Type
REMARK                         _______ _______ _______ _____ _____    ______ ____
ROOT
ATOM      1  C   UNL     1      -3.288   9.779  31.965  0.00  0.00    +0.163 C 
ENDROOT
BRANCH   1   2
ATOM      2  O   UNL     1      -2.237  10.753  31.856  0.00  0.00    -0.388 OA
ATOM      3  H   UNL     1      -1.504  10.499  32.423  0.00  0.00    +0.210 HD
ENDBRANCH   1   2
BRANCH   1   4
ATOM      4  C   UNL     1      -2.825   8.445  31.388  0.00  0.00    +0.141 C 
BRANCH   4   7
ATOM      5  C   UNL     1      -1.903   7.623  29.247  0.00  0.00    +0.401 C 
ATOM      6  O   UNL     1      -1.356   6.640  29.752  0.00  0.00    -0.226 OA
ATOM      7  N   UNL     1      -2.605   8.523  29.938  0.00  0.00    -0.279 N 
ATOM      8  H   UNL     1      -3.008   9.301  29.436  0.00  0.00    +0.152 HD
BRANCH   5   9
ATOM      9  O   UNL     1      -1.788   7.835  27.838  0.00  0.00    -0.444 OA
BRANCH   9  10
ATOM     10  C   UNL     1      -3.060   8.214  27.306  0.00  0.00    +0.292 C 
BRANCH  10  12
ATOM     11  N   UNL     1      -1.807  10.097  26.311  0.00  0.00    -0.131 NA
ATOM     12  C   UNL     1      -2.901   9.280  26.300  0.00  0.00    +0.121 A 
ATOM     13  C   UNL     1      -3.726   9.654  25.266  0.00  0.00    +0.145 A 
ATOM     14  N   UNL     1      -3.104  10.742  24.688  0.00  0.00    -0.200 N 
ATOM     15  N   UNL     1      -1.936  10.975  25.325  0.00  0.00    -0.059 NA
BRANCH  14  16
ATOM     16  C   UNL     1      -3.618  11.549  23.630  0.00  0.00    +0.173 A 
ATOM     17  C   UNL     1      -4.567  12.552  23.846  0.00  0.00    +0.096 A 
ATOM     18  C   UNL     1      -5.077  13.219  22.719  0.00  0.00    +0.024 A 
ATOM     19  C   UNL     1      -4.623  12.900  21.442  0.00  0.00    +0.021 A 
ATOM     20  C   UNL     1      -3.656  11.924  21.323  0.00  0.00    +0.113 A 
ATOM     21  N   UNL     1      -3.151  11.246  22.376  0.00  0.00    -0.235 NA
BRANCH  17  22
ATOM     22  C   UNL     1      -5.054  12.975  25.125  0.00  0.00    +0.103 C 
ATOM     23  N   UNL     1      -5.363  13.380  26.168  0.00  0.00    -0.191 NA
ENDBRANCH  17  22
ENDBRANCH  14  16
ENDBRANCH  10  12
ENDBRANCH   9  10
ENDBRANCH   5   9
ENDBRANCH   4   7
ENDBRANCH   1   4
BRANCH   1  24
ATOM     24  C   UNL     1      -4.551  10.249  31.224  0.00  0.00    +0.175 C 
BRANCH  24  25
ATOM     25  C   UNL     1      -4.518  11.753  30.920  0.00  0.00    +0.176 C 
ATOM     26  O   UNL     1      -4.551  12.467  32.187  0.00  0.00    -0.332 OA
ATOM     27  C   UNL     1      -4.419  13.924  32.098  0.00  0.00    +0.277 C 
ATOM     28  C   UNL     1      -5.488  14.507  31.140  0.00  0.00    +0.110 C 
ATOM     29  C   UNL     1      -5.511  13.759  29.791  0.00  0.00    +0.143 C 
ATOM     30  C   UNL     1      -5.649  12.251  30.001  0.00  0.00    +0.133 C 
BRANCH  30  31
ATOM     31  N   UNL     1      -5.583  11.543  28.713  0.00  0.00    -0.308 N 
ATOM     32  H   UNL     1      -4.752  11.663  28.150  0.00  0.00    +0.149 HD
ATOM     33  C   UNL     1      -6.549  10.751  28.239  0.00  0.00    +0.210 C 
ATOM     34  C   UNL     1      -7.813  10.609  29.107  0.00  0.00    +0.109 C 
ATOM     35  O   UNL     1      -6.460  10.159  27.163  0.00  0.00    -0.276 OA
ENDBRANCH  30  31
BRANCH  27  36
ATOM     36  C   UNL     1      -3.012  14.316  31.600  0.00  0.00    +0.414 C 
ATOM     37  O   UNL     1      -2.014  13.765  32.064  0.00  0.00    -0.240 OA
ATOM     38  O   UNL     1      -2.875  15.182  30.735  0.00  0.00    -0.240 OA
ENDBRANCH  27  36
BRANCH  27  39
ATOM     39  O   UNL     1      -4.640  14.476  33.421  0.00  0.00    -0.343 OA
ATOM     40  C   UNL     1      -5.215  15.807  33.440  0.00  0.00    +0.198 C 
ENDBRANCH  27  39
BRANCH  29  41
ATOM     41  O   UNL     1      -6.606  14.226  29.001  0.00  0.00    -0.390 OA
ATOM     42  H   UNL     1      -6.284  14.845  28.341  0.00  0.00    +0.210 HD
ENDBRANCH  29  41
ENDBRANCH  24  25
BRANCH  24  43
ATOM     43  O   UNL     1      -5.727   9.923  31.993  0.00  0.00    -0.387 OA
ATOM     44  H   UNL     1      -6.357  10.645  31.935  0.00  0.00    +0.210 HD
ENDBRANCH  24  43
ENDBRANCH   1  24
TORSDOF 15
