REMARK VINA RESULT:    -5.605      3.002      8.583
REMARK INTER + INTRA:         -12.378
REMARK INTER:                  -8.940
REMARK INTRA:                  -3.438
REMARK UNBOUND:                -1.695
REMARK  Name = lig_assembled_12.pdb
REMARK  19 active torsions:
REMARK  status: ('A' for Active; 'I' for Inactive)
REMARK    1  A    between atoms: _2  and  _9
REMARK    2  A    between atoms: _4  and  _21
REMARK    3  A    between atoms: _6  and  _7
REMARK    4  A    between atoms: _6  and  _21
REMARK    5  A    between atoms: _9  and  _16
REMARK    6  A    between atoms: _10  and  _11
REMARK    7  A    between atoms: _10  and  _16
REMARK    8  A    between atoms: _17  and  _37
REMARK    9  A    between atoms: _19  and  _25
REMARK   10  A    between atoms: _20  and  _24
REMARK   11  A    between atoms: _24  and  _25
REMARK   12  A    between atoms: _27  and  _28
REMARK   13  A    between atoms: _29  and  _30
REMARK   14  A    between atoms: _31  and  _33
REMARK   15  A    between atoms: _33  and  _34
REMARK   16  A    between atoms: _33  and  _35
REMARK   17  A    between atoms: _35  and  _36
REMARK   18  A    between atoms: _35  and  _37
REMARK   19  A    between atoms: _38  and  _40
REMARK                            x       y       z     vdW  Elec       q    Type
REMARK                         _______ _______ _______ _____ _____    ______ ____
ROOT
ATOM      1  C   UNL     1      -7.128   8.849  24.113  0.00  0.00    +0.163 C 
ENDROOT
BRANCH   1   2
ATOM      2  O   UNL     1      -6.498   8.920  25.403  0.00  0.00    -0.388 OA
ATOM      3  H   UNL     1      -6.879   9.645  25.906  0.00  0.00    +0.210 HD
ENDBRANCH   1   2
BRANCH   1   4
ATOM      4  C   UNL     1      -6.814  10.103  23.278  0.00  0.00    +0.175 C 
BRANCH   4   5
ATOM      5  C   UNL     1      -5.431  10.685  23.607  0.00  0.00    +0.176 C 
ATOM      6  O   UNL     1      -5.589  11.614  24.714  0.00  0.00    -0.332 OA
ATOM      7  C   UNL     1      -4.349  12.193  25.238  0.00  0.00    +0.277 C 
ATOM      8  C   UNL     1      -3.543  12.867  24.101  0.00  0.00    +0.110 C 
ATOM      9  C   UNL     1      -3.376  11.928  22.887  0.00  0.00    +0.143 C 
ATOM     10  C   UNL     1      -4.728  11.381  22.427  0.00  0.00    +0.133 C 
BRANCH  10  11
ATOM     11  N   UNL     1      -4.548  10.421  21.327  0.00  0.00    -0.308 N 
ATOM     12  H   UNL     1      -4.010   9.586  21.513  0.00  0.00    +0.149 HD
ATOM     13  C   UNL     1      -5.048  10.581  20.098  0.00  0.00    +0.210 C 
ATOM     14  C   UNL     1      -5.840  11.876  19.840  0.00  0.00    +0.109 C 
ATOM     15  O   UNL     1      -4.893   9.752  19.200  0.00  0.00    -0.276 OA
ENDBRANCH  10  11
BRANCH   7  16
ATOM     16  C   UNL     1      -3.481  11.109  25.912  0.00  0.00    +0.414 C 
ATOM     17  O   UNL     1      -2.265  11.262  26.012  0.00  0.00    -0.240 OA
ATOM     18  O   UNL     1      -3.998  10.082  26.355  0.00  0.00    -0.240 OA
ENDBRANCH   7  16
BRANCH   9  19
ATOM     19  O   UNL     1      -2.764  12.637  21.810  0.00  0.00    -0.390 OA
ATOM     20  H   UNL     1      -2.604  13.546  22.074  0.00  0.00    +0.210 HD
ENDBRANCH   9  19
BRANCH   7  21
ATOM     21  O   UNL     1      -4.703  13.209  26.212  0.00  0.00    -0.343 OA
ATOM     22  C   UNL     1      -5.874  12.907  27.013  0.00  0.00    +0.198 C 
ENDBRANCH   7  21
ENDBRANCH   4   5
BRANCH   4  23
ATOM     23  O   UNL     1      -7.834  11.101  23.479  0.00  0.00    -0.387 OA
ATOM     24  H   UNL     1      -8.699  10.710  23.331  0.00  0.00    +0.210 HD
ENDBRANCH   4  23
ENDBRANCH   1   4
BRANCH   1  25
ATOM     25  C   UNL     1      -6.650   7.608  23.367  0.00  0.00    +0.141 C 
BRANCH  25  28
ATOM     26  C   UNL     1      -4.210   7.250  23.221  0.00  0.00    +0.401 C 
ATOM     27  O   UNL     1      -4.104   7.776  22.110  0.00  0.00    -0.226 OA
ATOM     28  N   UNL     1      -5.362   7.123  23.879  0.00  0.00    -0.279 N 
ATOM     29  H   UNL     1      -5.349   6.668  24.781  0.00  0.00    +0.152 HD
BRANCH  26  30
ATOM     30  O   UNL     1      -3.038   6.734  23.858  0.00  0.00    -0.444 OA
BRANCH  30  31
ATOM     31  C   UNL     1      -3.418   5.949  24.992  0.00  0.00    +0.292 C 
BRANCH  31  33
ATOM     32  N   UNL     1      -1.823   7.335  26.289  0.00  0.00    -0.131 NA
ATOM     33  C   UNL     1      -2.980   6.599  26.240  0.00  0.00    +0.120 A 
ATOM     34  C   UNL     1      -3.569   6.605  27.483  0.00  0.00    +0.139 A 
ATOM     35  N   UNL     1      -2.711   7.335  28.252  0.00  0.00    -0.226 N 
ATOM     36  N   UNL     1      -1.673   7.792  27.525  0.00  0.00    -0.063 NA
BRANCH  35  37
ATOM     37  C   UNL     1      -2.826   7.683  29.657  0.00  0.00    +0.305 C 
BRANCH  37  38
ATOM     38  O   UNL     1      -3.063   9.084  29.775  0.00  0.00    -0.353 OA
BRANCH  38  39
ATOM     39  C   UNL     1      -3.097   9.499  31.134  0.00  0.00    +0.197 C 
BRANCH  39  40
ATOM     40  C   UNL     1      -3.182  11.002  31.146  0.00  0.00    -0.022 A 
ATOM     41  C   UNL     1      -2.529  11.745  32.138  0.00  0.00    +0.006 A 
ATOM     42  C   UNL     1      -2.641  13.135  32.171  0.00  0.00    +0.000 A 
ATOM     43  C   UNL     1      -3.414  13.796  31.218  0.00  0.00    +0.000 A 
ATOM     44  C   UNL     1      -4.078  13.068  30.233  0.00  0.00    +0.000 A 
ATOM     45  C   UNL     1      -3.966  11.677  30.199  0.00  0.00    +0.006 A 
ENDBRANCH  39  40
ENDBRANCH  38  39
ENDBRANCH  37  38
ENDBRANCH  35  37
ENDBRANCH  31  33
ENDBRANCH  30  31
ENDBRANCH  26  30
ENDBRANCH  25  28
ENDBRANCH   1  25
TORSDOF 17
