REMARK VINA RESULT:    -5.295      4.096      5.267
REMARK INTER + INTRA:         -12.392
REMARK INTER:                 -10.538
REMARK INTRA:                  -1.854
REMARK UNBOUND:                -2.453
REMARK  Name = lig_assembled_75.pdb
REMARK  19 active torsions:
REMARK  status: ('A' for Active; 'I' for Inactive)
REMARK    1  A    between atoms: _2  and  _9
REMARK    2  A    between atoms: _4  and  _23
REMARK    3  A    between atoms: _6  and  _7
REMARK    4  A    between atoms: _6  and  _23
REMARK    5  A    between atoms: _11  and  _12
REMARK    6  A    between atoms: _13  and  _14
REMARK    7  A    between atoms: _14  and  _17
REMARK    8  A    between atoms: _19  and  _39
REMARK    9  A    between atoms: _21  and  _27
REMARK   10  A    between atoms: _22  and  _26
REMARK   11  A    between atoms: _26  and  _27
REMARK   12  A    between atoms: _29  and  _30
REMARK   13  A    between atoms: _31  and  _32
REMARK   14  A    between atoms: _33  and  _35
REMARK   15  A    between atoms: _35  and  _36
REMARK   16  A    between atoms: _35  and  _37
REMARK   17  A    between atoms: _37  and  _38
REMARK   18  A    between atoms: _37  and  _39
REMARK   19  A    between atoms: _40  and  _42
REMARK                            x       y       z     vdW  Elec       q    Type
REMARK                         _______ _______ _______ _____ _____    ______ ____
ROOT
ATOM      1  C   UNL     1      -4.007  12.245  20.695  0.00  0.00    +0.141 C 
ENDROOT
BRANCH   1   4
ATOM      2  C   UNL     1      -5.135  11.571  18.603  0.00  0.00    +0.401 C 
ATOM      3  O   UNL     1      -6.141  12.253  18.814  0.00  0.00    -0.226 OA
ATOM      4  N   UNL     1      -4.092  11.503  19.431  0.00  0.00    -0.279 N 
ATOM      5  H   UNL     1      -3.318  10.908  19.175  0.00  0.00    +0.152 HD
BRANCH   2   6
ATOM      6  O   UNL     1      -5.063  10.794  17.404  0.00  0.00    -0.444 OA
BRANCH   6   7
ATOM      7  C   UNL     1      -5.689  11.507  16.334  0.00  0.00    +0.292 C 
BRANCH   7   9
ATOM      8  N   UNL     1      -3.688  10.928  15.001  0.00  0.00    -0.131 NA
ATOM      9  C   UNL     1      -4.714  11.789  15.265  0.00  0.00    +0.121 A 
ATOM     10  C   UNL     1      -4.637  12.860  14.405  0.00  0.00    +0.143 A 
ATOM     11  N   UNL     1      -3.533  12.609  13.623  0.00  0.00    -0.220 N 
ATOM     12  N   UNL     1      -2.974  11.433  14.004  0.00  0.00    -0.060 NA
BRANCH  11  13
ATOM     13  C   UNL     1      -2.975  13.403  12.588  0.00  0.00    +0.068 A 
ATOM     14  C   UNL     1      -1.611  13.739  12.638  0.00  0.00    +0.035 A 
ATOM     15  C   UNL     1      -1.042  14.577  11.668  0.00  0.00    -0.023 A 
ATOM     16  C   UNL     1      -1.844  15.022  10.609  0.00  0.00    +0.008 A 
ATOM     17  C   UNL     1      -3.194  14.672  10.542  0.00  0.00    +0.003 A 
ATOM     18  C   UNL     1      -3.764  13.872  11.532  0.00  0.00    +0.028 A 
BRANCH  15  19
ATOM     19  C   UNL     1       0.369  14.989  11.710  0.00  0.00    +0.015 C 
ATOM     20  C   UNL     1       0.784  16.254  11.527  0.00  0.00    +0.092 C 
BRANCH  20  21
ATOM     21  C   UNL     1       2.226  16.559  11.534  0.00  0.00    +0.330 C 
ATOM     22  O   UNL     1       2.999  16.285  10.633  0.00  0.00    -0.246 OA
BRANCH  21  23
ATOM     23  O   UNL     1       2.601  17.196  12.662  0.00  0.00    -0.478 OA
ATOM     24  H   UNL     1       2.834  18.136  12.558  0.00  0.00    +0.295 HD
ENDBRANCH  21  23
ENDBRANCH  20  21
ENDBRANCH  15  19
ENDBRANCH  11  13
ENDBRANCH   7   9
ENDBRANCH   6   7
ENDBRANCH   2   6
ENDBRANCH   1   4
BRANCH   1  25
ATOM     25  C   UNL     1      -4.039  11.315  21.904  0.00  0.00    +0.163 C 
BRANCH  25  26
ATOM     26  O   UNL     1      -3.753   9.967  21.495  0.00  0.00    -0.388 OA
ATOM     27  H   UNL     1      -4.350   9.363  21.943  0.00  0.00    +0.210 HD
ENDBRANCH  25  26
BRANCH  25  28
ATOM     28  C   UNL     1      -3.023  11.799  22.952  0.00  0.00    +0.175 C 
BRANCH  28  29
ATOM     29  C   UNL     1      -3.359  11.290  24.361  0.00  0.00    +0.176 C 
ATOM     30  O   UNL     1      -3.131   9.854  24.384  0.00  0.00    -0.332 OA
ATOM     31  C   UNL     1      -3.301   9.206  25.688  0.00  0.00    +0.277 C 
ATOM     32  C   UNL     1      -4.699   9.523  26.272  0.00  0.00    +0.110 C 
ATOM     33  C   UNL     1      -5.000  11.036  26.240  0.00  0.00    +0.143 C 
ATOM     34  C   UNL     1      -4.789  11.608  24.837  0.00  0.00    +0.133 C 
BRANCH  34  35
ATOM     35  N   UNL     1      -4.994  13.065  24.839  0.00  0.00    -0.308 N 
ATOM     36  H   UNL     1      -4.323  13.635  25.335  0.00  0.00    +0.149 HD
ATOM     37  C   UNL     1      -6.008  13.683  24.227  0.00  0.00    +0.210 C 
ATOM     38  C   UNL     1      -7.026  12.784  23.501  0.00  0.00    +0.109 C 
ATOM     39  O   UNL     1      -6.146  14.907  24.232  0.00  0.00    -0.276 OA
ENDBRANCH  34  35
BRANCH  31  40
ATOM     40  C   UNL     1      -2.211   9.671  26.676  0.00  0.00    +0.414 C 
ATOM     41  O   UNL     1      -2.491   9.873  27.857  0.00  0.00    -0.240 OA
ATOM     42  O   UNL     1      -1.054   9.845  26.293  0.00  0.00    -0.240 OA
ENDBRANCH  31  40
BRANCH  31  43
ATOM     43  O   UNL     1      -3.202   7.771  25.492  0.00  0.00    -0.343 OA
ATOM     44  C   UNL     1      -4.323   7.005  26.000  0.00  0.00    +0.198 C 
ENDBRANCH  31  43
BRANCH  33  45
ATOM     45  O   UNL     1      -6.350  11.268  26.644  0.00  0.00    -0.390 OA
ATOM     46  H   UNL     1      -6.452  11.032  27.569  0.00  0.00    +0.210 HD
ENDBRANCH  33  45
ENDBRANCH  28  29
BRANCH  28  47
ATOM     47  O   UNL     1      -2.953  13.239  22.948  0.00  0.00    -0.387 OA
ATOM     48  H   UNL     1      -2.035  13.515  22.999  0.00  0.00    +0.210 HD
ENDBRANCH  28  47
ENDBRANCH  25  28
ENDBRANCH   1  25
TORSDOF 17
