REMARK VINA RESULT:    -5.045      8.147     11.943
REMARK INTER + INTRA:         -11.572
REMARK INTER:                  -8.138
REMARK INTRA:                  -3.434
REMARK UNBOUND:                -2.841
REMARK  Name = lig_assembled_86.pdb
REMARK  17 active torsions:
REMARK  status: ('A' for Active; 'I' for Inactive)
REMARK    1  A    between atoms: _2  and  _10
REMARK    2  A    between atoms: _3  and  _13
REMARK    3  A    between atoms: _5  and  _21
REMARK    4  A    between atoms: _7  and  _8
REMARK    5  A    between atoms: _7  and  _21
REMARK    6  A    between atoms: _17  and  _37
REMARK    7  A    between atoms: _19  and  _25
REMARK    8  A    between atoms: _20  and  _24
REMARK    9  A    between atoms: _24  and  _25
REMARK   10  A    between atoms: _27  and  _28
REMARK   11  A    between atoms: _29  and  _30
REMARK   12  A    between atoms: _31  and  _33
REMARK   13  A    between atoms: _33  and  _34
REMARK   14  A    between atoms: _33  and  _35
REMARK   15  A    between atoms: _35  and  _36
REMARK   16  A    between atoms: _35  and  _37
REMARK   17  A    between atoms: _38  and  _40
REMARK                            x       y       z     vdW  Elec       q    Type
REMARK                         _______ _______ _______ _____ _____    ______ ____
ROOT
ATOM      1  C   UNL     1      -3.055  12.030  22.943  0.00  0.00    +0.163 C 
ENDROOT
BRANCH   1   2
ATOM      2  O   UNL     1      -2.443  12.425  24.182  0.00  0.00    -0.388 OA
ATOM      3  H   UNL     1      -2.652  13.344  24.364  0.00  0.00    +0.210 HD
ENDBRANCH   1   2
BRANCH   1   4
ATOM      4  C   UNL     1      -4.010  13.118  22.462  0.00  0.00    +0.141 C 
BRANCH   4   7
ATOM      5  C   UNL     1      -5.764  14.429  23.606  0.00  0.00    +0.401 C 
ATOM      6  O   UNL     1      -6.589  14.294  22.699  0.00  0.00    -0.226 OA
ATOM      7  N   UNL     1      -4.533  13.918  23.576  0.00  0.00    -0.279 N 
ATOM      8  H   UNL     1      -3.925  14.092  24.365  0.00  0.00    +0.152 HD
BRANCH   5   9
ATOM      9  O   UNL     1      -6.128  15.179  24.768  0.00  0.00    -0.444 OA
BRANCH   9  10
ATOM     10  C   UNL     1      -7.007  14.400  25.584  0.00  0.00    +0.292 C 
BRANCH  10  12
ATOM     11  N   UNL     1      -5.180  13.012  26.526  0.00  0.00    -0.131 NA
ATOM     12  C   UNL     1      -6.267  13.823  26.723  0.00  0.00    +0.120 A 
ATOM     13  C   UNL     1      -6.476  13.969  28.074  0.00  0.00    +0.137 A 
ATOM     14  N   UNL     1      -5.466  13.257  28.644  0.00  0.00    -0.248 N 
ATOM     15  N   UNL     1      -4.706  12.656  27.713  0.00  0.00    -0.065 NA
BRANCH  14  16
ATOM     16  C   UNL     1      -5.174  13.122  30.063  0.00  0.00    +0.112 C 
ATOM     17  C   UNL     1      -3.696  13.433  30.377  0.00  0.00    +0.045 C 
ATOM     18  C   UNL     1      -3.479  14.353  31.583  0.00  0.00    +0.059 C 
ATOM     19  C   UNL     1      -3.789  15.811  31.228  0.00  0.00    +0.020 C 
ATOM     20  C   UNL     1      -5.247  16.005  31.637  0.00  0.00    +0.020 C 
ATOM     21  C   UNL     1      -5.696  14.625  32.121  0.00  0.00    +0.059 C 
ATOM     22  N   UNL     1      -4.438  14.109  32.660  0.00  0.00    -0.299 NA
ATOM     23  C   UNL     1      -4.474  12.769  33.213  0.00  0.00    +0.105 C 
ATOM     24  C   UNL     1      -6.245  13.780  30.962  0.00  0.00    +0.045 C 
ENDBRANCH  14  16
ENDBRANCH  10  12
ENDBRANCH   9  10
ENDBRANCH   5   9
ENDBRANCH   4   7
ENDBRANCH   1   4
BRANCH   1  25
ATOM     25  C   UNL     1      -3.824  10.707  23.106  0.00  0.00    +0.175 C 
BRANCH  25  26
ATOM     26  C   UNL     1      -3.968  10.300  24.580  0.00  0.00    +0.176 C 
ATOM     27  O   UNL     1      -2.953   9.300  24.869  0.00  0.00    -0.332 OA
ATOM     28  C   UNL     1      -2.869   8.867  26.267  0.00  0.00    +0.277 C 
ATOM     29  C   UNL     1      -4.250   8.371  26.763  0.00  0.00    +0.110 C 
ATOM     30  C   UNL     1      -5.367   9.388  26.449  0.00  0.00    +0.143 C 
ATOM     31  C   UNL     1      -5.361   9.770  24.969  0.00  0.00    +0.133 C 
BRANCH  31  32
ATOM     32  N   UNL     1      -6.373  10.804  24.699  0.00  0.00    -0.308 N 
ATOM     33  H   UNL     1      -6.287  11.686  25.185  0.00  0.00    +0.149 HD
ATOM     34  C   UNL     1      -7.397  10.653  23.856  0.00  0.00    +0.210 C 
ATOM     35  C   UNL     1      -7.515   9.288  23.151  0.00  0.00    +0.109 C 
ATOM     36  O   UNL     1      -8.222  11.542  23.639  0.00  0.00    -0.276 OA
ENDBRANCH  31  32
BRANCH  28  37
ATOM     37  C   UNL     1      -2.382  10.021  27.169  0.00  0.00    +0.414 C 
ATOM     38  O   UNL     1      -2.552   9.970  28.386  0.00  0.00    -0.240 OA
ATOM     39  O   UNL     1      -1.820  11.001  26.679  0.00  0.00    -0.240 OA
ENDBRANCH  28  37
BRANCH  30  40
ATOM     40  O   UNL     1      -6.637   8.826  26.784  0.00  0.00    -0.390 OA
ATOM     41  H   UNL     1      -6.627   7.882  26.610  0.00  0.00    +0.210 HD
ENDBRANCH  30  40
BRANCH  28  42
ATOM     42  O   UNL     1      -1.933   7.762  26.339  0.00  0.00    -0.343 OA
ATOM     43  C   UNL     1      -2.534   6.464  26.576  0.00  0.00    +0.198 C 
ENDBRANCH  28  42
ENDBRANCH  25  26
BRANCH  25  44
ATOM     44  O   UNL     1      -3.171   9.659  22.363  0.00  0.00    -0.387 OA
ATOM     45  H   UNL     1      -3.079   9.926  21.445  0.00  0.00    +0.210 HD
ENDBRANCH  25  44
ENDBRANCH   1  25
TORSDOF 14
