REMARK VINA RESULT:    -4.458      1.968      2.946
REMARK INTER + INTRA:         -11.629
REMARK INTER:                  -9.367
REMARK INTRA:                  -2.262
REMARK UNBOUND:                -3.914
REMARK  Name = lig_assembled_20.pdb
REMARK  16 active torsions:
REMARK  status: ('A' for Active; 'I' for Inactive)
REMARK    1  A    between atoms: _2  and  _11
REMARK    2  A    between atoms: _6  and  _21
REMARK    3  A    between atoms: _8  and  _9
REMARK    4  A    between atoms: _8  and  _21
REMARK    5  A    between atoms: _17  and  _37
REMARK    6  A    between atoms: _19  and  _25
REMARK    7  A    between atoms: _20  and  _24
REMARK    8  A    between atoms: _24  and  _25
REMARK    9  A    between atoms: _27  and  _28
REMARK   10  A    between atoms: _29  and  _30
REMARK   11  A    between atoms: _31  and  _33
REMARK   12  A    between atoms: _33  and  _34
REMARK   13  A    between atoms: _33  and  _35
REMARK   14  A    between atoms: _35  and  _36
REMARK   15  A    between atoms: _35  and  _37
REMARK   16  A    between atoms: _38  and  _40
REMARK                            x       y       z     vdW  Elec       q    Type
REMARK                         _______ _______ _______ _____ _____    ______ ____
ROOT
ATOM      1  C   UNL     1      -3.912   7.213  23.598  0.00  0.00    +0.163 C 
ENDROOT
BRANCH   1   2
ATOM      2  O   UNL     1      -3.917   6.376  22.429  0.00  0.00    -0.388 OA
ATOM      3  H   UNL     1      -3.441   5.564  22.615  0.00  0.00    +0.210 HD
ENDBRANCH   1   2
BRANCH   1   4
ATOM      4  C   UNL     1      -4.095   6.361  24.850  0.00  0.00    +0.141 C 
BRANCH   4   7
ATOM      5  C   UNL     1      -2.262   6.964  26.394  0.00  0.00    +0.401 C 
ATOM      6  O   UNL     1      -1.400   6.349  25.761  0.00  0.00    -0.226 OA
ATOM      7  N   UNL     1      -3.547   7.018  26.044  0.00  0.00    -0.279 N 
ATOM      8  H   UNL     1      -4.181   7.540  26.633  0.00  0.00    +0.152 HD
BRANCH   5   9
ATOM      9  O   UNL     1      -1.883   7.665  27.581  0.00  0.00    -0.444 OA
BRANCH   9  10
ATOM     10  C   UNL     1      -2.654   7.185  28.686  0.00  0.00    +0.292 C 
BRANCH  10  12
ATOM     11  N   UNL     1      -3.324   8.000  30.930  0.00  0.00    -0.131 NA
ATOM     12  C   UNL     1      -2.880   8.264  29.667  0.00  0.00    +0.121 A 
ATOM     13  C   UNL     1      -2.708   9.619  29.526  0.00  0.00    +0.143 A 
ATOM     14  N   UNL     1      -3.061  10.156  30.742  0.00  0.00    -0.220 N 
ATOM     15  N   UNL     1      -3.432   9.154  31.578  0.00  0.00    -0.060 NA
BRANCH  14  16
ATOM     16  C   UNL     1      -3.064  11.518  31.139  0.00  0.00    +0.068 A 
ATOM     17  C   UNL     1      -3.815  12.456  30.411  0.00  0.00    +0.030 A 
ATOM     18  C   UNL     1      -3.844  13.809  30.778  0.00  0.00    +0.030 A 
ATOM     19  C   UNL     1      -3.096  14.182  31.898  0.00  0.00    +0.066 A 
ATOM     20  C   UNL     1      -2.342  13.280  32.638  0.00  0.00    +0.021 A 
ATOM     21  C   UNL     1      -1.755  14.057  33.659  0.00  0.00    +0.142 A 
ATOM     22  N   UNL     1      -2.100  15.345  33.588  0.00  0.00    -0.181 NA
ATOM     23  N   UNL     1      -2.911  15.392  32.517  0.00  0.00    -0.277 N 
ATOM     24  H   UNL     1      -3.309  16.286  32.253  0.00  0.00    +0.189 HD
ATOM     25  C   UNL     1      -2.318  11.926  32.261  0.00  0.00    +0.039 A 
ENDBRANCH  14  16
ENDBRANCH  10  12
ENDBRANCH   9  10
ENDBRANCH   5   9
ENDBRANCH   4   7
ENDBRANCH   1   4
BRANCH   1  26
ATOM     26  C   UNL     1      -5.031   8.266  23.526  0.00  0.00    +0.175 C 
BRANCH  26  27
ATOM     27  C   UNL     1      -4.486   9.697  23.648  0.00  0.00    +0.176 C 
ATOM     28  O   UNL     1      -4.824  10.192  24.973  0.00  0.00    -0.332 OA
ATOM     29  C   UNL     1      -4.289  11.515  25.310  0.00  0.00    +0.277 C 
ATOM     30  C   UNL     1      -4.703  12.555  24.241  0.00  0.00    +0.110 C 
ATOM     31  C   UNL     1      -4.393  12.059  22.813  0.00  0.00    +0.143 C 
ATOM     32  C   UNL     1      -4.993  10.674  22.571  0.00  0.00    +0.133 C 
BRANCH  32  33
ATOM     33  N   UNL     1      -4.617  10.175  21.239  0.00  0.00    -0.308 N 
ATOM     34  H   UNL     1      -3.633  10.096  21.025  0.00  0.00    +0.149 HD
ATOM     35  C   UNL     1      -5.492   9.820  20.294  0.00  0.00    +0.210 C 
ATOM     36  C   UNL     1      -6.984   9.977  20.641  0.00  0.00    +0.109 C 
ATOM     37  O   UNL     1      -5.148   9.392  19.191  0.00  0.00    -0.276 OA
ENDBRANCH  32  33
BRANCH  29  38
ATOM     38  C   UNL     1      -2.750  11.471  25.418  0.00  0.00    +0.414 C 
ATOM     39  O   UNL     1      -2.194  10.522  25.968  0.00  0.00    -0.240 OA
ATOM     40  O   UNL     1      -2.066  12.385  24.956  0.00  0.00    -0.240 OA
ENDBRANCH  29  38
BRANCH  31  41
ATOM     41  O   UNL     1      -4.926  12.977  21.858  0.00  0.00    -0.390 OA
ATOM     42  H   UNL     1      -4.264  13.639  21.645  0.00  0.00    +0.210 HD
ENDBRANCH  31  41
BRANCH  29  43
ATOM     43  O   UNL     1      -4.856  11.917  26.584  0.00  0.00    -0.343 OA
ATOM     44  C   UNL     1      -5.810  10.983  27.151  0.00  0.00    +0.198 C 
ENDBRANCH  29  43
ENDBRANCH  26  27
BRANCH  26  45
ATOM     45  O   UNL     1      -6.013   8.019  24.552  0.00  0.00    -0.387 OA
ATOM     46  H   UNL     1      -6.810   8.517  24.358  0.00  0.00    +0.210 HD
ENDBRANCH  26  45
ENDBRANCH   1  26
TORSDOF 14
