REMARK VINA RESULT:    -4.869      2.707      5.554
REMARK INTER + INTRA:         -11.560
REMARK INTER:                  -8.617
REMARK INTRA:                  -2.943
REMARK UNBOUND:                -2.848
REMARK  Name = lig_assembled_63.pdb
REMARK  17 active torsions:
REMARK  status: ('A' for Active; 'I' for Inactive)
REMARK    1  A    between atoms: _2  and  _11
REMARK    2  A    between atoms: _6  and  _20
REMARK    3  A    between atoms: _7  and  _15
REMARK    4  A    between atoms: _8  and  _9
REMARK    5  A    between atoms: _8  and  _20
REMARK    6  A    between atoms: _16  and  _36
REMARK    7  A    between atoms: _18  and  _24
REMARK    8  A    between atoms: _19  and  _23
REMARK    9  A    between atoms: _23  and  _24
REMARK   10  A    between atoms: _26  and  _27
REMARK   11  A    between atoms: _28  and  _29
REMARK   12  A    between atoms: _30  and  _32
REMARK   13  A    between atoms: _32  and  _33
REMARK   14  A    between atoms: _32  and  _34
REMARK   15  A    between atoms: _34  and  _35
REMARK   16  A    between atoms: _34  and  _36
REMARK   17  A    between atoms: _37  and  _39
REMARK                            x       y       z     vdW  Elec       q    Type
REMARK                         _______ _______ _______ _____ _____    ______ ____
ROOT
ATOM      1  C   UNL     1      -6.558   8.849  23.233  0.00  0.00    +0.163 C 
ENDROOT
BRANCH   1   2
ATOM      2  O   UNL     1      -6.270   9.130  24.613  0.00  0.00    -0.388 OA
ATOM      3  H   UNL     1      -6.463  10.053  24.799  0.00  0.00    +0.210 HD
ENDBRANCH   1   2
BRANCH   1   4
ATOM      4  C   UNL     1      -5.632   7.751  22.721  0.00  0.00    +0.141 C 
BRANCH   4   7
ATOM      5  C   UNL     1      -3.763   6.381  23.580  0.00  0.00    +0.401 C 
ATOM      6  O   UNL     1      -3.841   5.542  22.680  0.00  0.00    -0.226 OA
ATOM      7  N   UNL     1      -4.564   7.443  23.680  0.00  0.00    -0.279 N 
ATOM      8  H   UNL     1      -4.429   8.071  24.460  0.00  0.00    +0.152 HD
BRANCH   5   9
ATOM      9  O   UNL     1      -2.764   6.225  24.591  0.00  0.00    -0.444 OA
BRANCH   9  10
ATOM     10  C   UNL     1      -3.389   6.181  25.877  0.00  0.00    +0.292 C 
BRANCH  10  12
ATOM     11  N   UNL     1      -1.752   7.820  26.739  0.00  0.00    -0.131 NA
ATOM     12  C   UNL     1      -3.043   7.383  26.659  0.00  0.00    +0.121 A 
ATOM     13  C   UNL     1      -3.843   8.217  27.403  0.00  0.00    +0.145 A 
ATOM     14  N   UNL     1      -2.980   9.140  27.958  0.00  0.00    -0.200 N 
ATOM     15  N   UNL     1      -1.726   8.891  27.522  0.00  0.00    -0.059 NA
BRANCH  14  16
ATOM     16  C   UNL     1      -3.319  10.164  28.891  0.00  0.00    +0.173 A 
ATOM     17  C   UNL     1      -3.476   9.909  30.256  0.00  0.00    +0.096 A 
ATOM     18  C   UNL     1      -3.907  10.970  31.071  0.00  0.00    +0.024 A 
ATOM     19  C   UNL     1      -4.138  12.231  30.528  0.00  0.00    +0.021 A 
ATOM     20  C   UNL     1      -3.920  12.404  29.176  0.00  0.00    +0.113 A 
ATOM     21  N   UNL     1      -3.524  11.409  28.355  0.00  0.00    -0.235 NA
BRANCH  17  22
ATOM     22  C   UNL     1      -3.218   8.658  30.905  0.00  0.00    +0.103 C 
ATOM     23  N   UNL     1      -3.082   7.602  31.368  0.00  0.00    -0.191 NA
ENDBRANCH  17  22
ENDBRANCH  14  16
ENDBRANCH  10  12
ENDBRANCH   9  10
ENDBRANCH   5   9
ENDBRANCH   4   7
ENDBRANCH   1   4
BRANCH   1  24
ATOM     24  C   UNL     1      -6.388  10.110  22.368  0.00  0.00    +0.175 C 
BRANCH  24  25
ATOM     25  C   UNL     1      -5.057  10.825  22.643  0.00  0.00    +0.176 C 
ATOM     26  O   UNL     1      -5.230  11.652  23.826  0.00  0.00    -0.332 OA
ATOM     27  C   UNL     1      -4.024  12.334  24.305  0.00  0.00    +0.277 C 
ATOM     28  C   UNL     1      -3.389  13.172  23.168  0.00  0.00    +0.110 C 
ATOM     29  C   UNL     1      -3.214  12.343  21.879  0.00  0.00    +0.143 C 
ATOM     30  C   UNL     1      -4.529  11.676  21.473  0.00  0.00    +0.133 C 
BRANCH  30  31
ATOM     31  N   UNL     1      -4.329  10.819  20.293  0.00  0.00    -0.308 N 
ATOM     32  H   UNL     1      -3.626  10.096  20.349  0.00  0.00    +0.149 HD
ATOM     33  C   UNL     1      -5.017  10.935  19.154  0.00  0.00    +0.210 C 
ATOM     34  C   UNL     1      -6.063  12.064  19.092  0.00  0.00    +0.109 C 
ATOM     35  O   UNL     1      -4.838  10.194  18.187  0.00  0.00    -0.276 OA
ENDBRANCH  30  31
BRANCH  27  36
ATOM     36  C   UNL     1      -2.993  11.315  24.832  0.00  0.00    +0.414 C 
ATOM     37  O   UNL     1      -2.018  11.698  25.478  0.00  0.00    -0.240 OA
ATOM     38  O   UNL     1      -3.136  10.112  24.612  0.00  0.00    -0.240 OA
ENDBRANCH  27  36
BRANCH  27  39
ATOM     39  O   UNL     1      -4.413  13.234  25.375  0.00  0.00    -0.343 OA
ATOM     40  C   UNL     1      -5.837  13.296  25.636  0.00  0.00    +0.198 C 
ENDBRANCH  27  39
BRANCH  29  41
ATOM     41  O   UNL     1      -2.769  13.190  20.818  0.00  0.00    -0.390 OA
ATOM     42  H   UNL     1      -1.822  13.089  20.703  0.00  0.00    +0.210 HD
ENDBRANCH  29  41
ENDBRANCH  24  25
BRANCH  24  43
ATOM     43  O   UNL     1      -7.491  11.012  22.583  0.00  0.00    -0.387 OA
ATOM     44  H   UNL     1      -8.306  10.510  22.660  0.00  0.00    +0.210 HD
ENDBRANCH  24  43
ENDBRANCH   1  24
TORSDOF 15
