REMARK VINA RESULT:    -4.965      3.422     10.023
REMARK INTER + INTRA:         -12.018
REMARK INTER:                  -8.790
REMARK INTRA:                  -3.229
REMARK UNBOUND:                -2.554
REMARK  Name = lig_assembled_9.pdb
REMARK  20 active torsions:
REMARK  status: ('A' for Active; 'I' for Inactive)
REMARK    1  A    between atoms: _2  and  _9
REMARK    2  A    between atoms: _4  and  _23
REMARK    3  A    between atoms: _6  and  _7
REMARK    4  A    between atoms: _6  and  _23
REMARK    5  A    between atoms: _11  and  _12
REMARK    6  A    between atoms: _12  and  _17
REMARK    7  A    between atoms: _13  and  _14
REMARK    8  A    between atoms: _13  and  _17
REMARK    9  A    between atoms: _19  and  _39
REMARK   10  A    between atoms: _21  and  _27
REMARK   11  A    between atoms: _22  and  _26
REMARK   12  A    between atoms: _26  and  _27
REMARK   13  A    between atoms: _29  and  _30
REMARK   14  A    between atoms: _31  and  _32
REMARK   15  A    between atoms: _33  and  _35
REMARK   16  A    between atoms: _35  and  _36
REMARK   17  A    between atoms: _35  and  _37
REMARK   18  A    between atoms: _37  and  _38
REMARK   19  A    between atoms: _37  and  _39
REMARK   20  A    between atoms: _40  and  _42
REMARK                            x       y       z     vdW  Elec       q    Type
REMARK                         _______ _______ _______ _____ _____    ______ ____
ROOT
ATOM      1  C   UNL     1      -2.928  11.707  24.809  0.00  0.00    +0.163 C 
ENDROOT
BRANCH   1   2
ATOM      2  O   UNL     1      -3.259  11.580  26.202  0.00  0.00    -0.388 OA
ATOM      3  H   UNL     1      -3.913  12.242  26.438  0.00  0.00    +0.210 HD
ENDBRANCH   1   2
BRANCH   1   4
ATOM      4  C   UNL     1      -3.822  10.799  23.947  0.00  0.00    +0.175 C 
BRANCH   4   5
ATOM      5  C   UNL     1      -4.195   9.498  24.672  0.00  0.00    +0.176 C 
ATOM      6  O   UNL     1      -2.968   8.894  25.168  0.00  0.00    -0.332 OA
ATOM      7  C   UNL     1      -3.139   7.689  25.984  0.00  0.00    +0.277 C 
ATOM      8  C   UNL     1      -3.970   6.630  25.218  0.00  0.00    +0.110 C 
ATOM      9  C   UNL     1      -5.270   7.233  24.645  0.00  0.00    +0.143 C 
ATOM     10  C   UNL     1      -4.976   8.484  23.816  0.00  0.00    +0.133 C 
BRANCH  10  11
ATOM     11  N   UNL     1      -6.229   9.098  23.348  0.00  0.00    -0.308 N 
ATOM     12  H   UNL     1      -6.846   9.497  24.042  0.00  0.00    +0.149 HD
ATOM     13  C   UNL     1      -6.604   9.161  22.068  0.00  0.00    +0.210 C 
ATOM     14  C   UNL     1      -5.654   8.519  21.039  0.00  0.00    +0.109 C 
ATOM     15  O   UNL     1      -7.652   9.695  21.704  0.00  0.00    -0.276 OA
ENDBRANCH  10  11
BRANCH   7  16
ATOM     16  C   UNL     1      -3.836   8.026  27.318  0.00  0.00    +0.414 C 
ATOM     17  O   UNL     1      -4.700   7.277  27.773  0.00  0.00    -0.240 OA
ATOM     18  O   UNL     1      -3.535   9.046  27.940  0.00  0.00    -0.240 OA
ENDBRANCH   7  16
BRANCH   7  19
ATOM     19  O   UNL     1      -1.824   7.135  26.247  0.00  0.00    -0.343 OA
ATOM     20  C   UNL     1      -1.818   5.752  26.682  0.00  0.00    +0.198 C 
ENDBRANCH   7  19
BRANCH   9  21
ATOM     21  O   UNL     1      -5.927   6.267  23.824  0.00  0.00    -0.390 OA
ATOM     22  H   UNL     1      -5.301   5.901  23.195  0.00  0.00    +0.210 HD
ENDBRANCH   9  21
ENDBRANCH   4   5
BRANCH   4  23
ATOM     23  O   UNL     1      -3.169  10.501  22.697  0.00  0.00    -0.387 OA
ATOM     24  H   UNL     1      -2.996   9.558  22.642  0.00  0.00    +0.210 HD
ENDBRANCH   4  23
ENDBRANCH   1   4
BRANCH   1  25
ATOM     25  C   UNL     1      -3.094  13.156  24.364  0.00  0.00    +0.141 C 
BRANCH  25  28
ATOM     26  C   UNL     1      -3.972  14.232  22.320  0.00  0.00    +0.401 C 
ATOM     27  O   UNL     1      -3.106  15.111  22.298  0.00  0.00    -0.226 OA
ATOM     28  N   UNL     1      -4.045  13.282  23.253  0.00  0.00    -0.279 N 
ATOM     29  H   UNL     1      -4.798  12.611  23.192  0.00  0.00    +0.152 HD
BRANCH  26  30
ATOM     30  O   UNL     1      -4.970  14.214  21.296  0.00  0.00    -0.444 OA
BRANCH  30  31
ATOM     31  C   UNL     1      -5.757  13.027  21.418  0.00  0.00    +0.292 C 
BRANCH  31  33
ATOM     32  N   UNL     1      -6.873  12.360  19.311  0.00  0.00    -0.131 NA
ATOM     33  C   UNL     1      -5.787  12.301  20.134  0.00  0.00    +0.121 A 
ATOM     34  C   UNL     1      -4.826  11.505  19.555  0.00  0.00    +0.143 A 
ATOM     35  N   UNL     1      -5.362  11.128  18.344  0.00  0.00    -0.220 N 
ATOM     36  N   UNL     1      -6.611  11.639  18.230  0.00  0.00    -0.060 NA
BRANCH  35  37
ATOM     37  C   UNL     1      -4.765  10.360  17.311  0.00  0.00    +0.068 A 
ATOM     38  C   UNL     1      -4.091  10.988  16.255  0.00  0.00    +0.042 A 
ATOM     39  C   UNL     1      -3.530  10.226  15.219  0.00  0.00    +0.061 A 
ATOM     40  C   UNL     1      -3.642   8.831  15.246  0.00  0.00    +0.015 A 
ATOM     41  C   UNL     1      -4.301   8.201  16.304  0.00  0.00    +0.003 A 
ATOM     42  C   UNL     1      -4.860   8.960  17.334  0.00  0.00    +0.028 A 
BRANCH  39  43
ATOM     43  C   UNL     1      -2.757  10.850  14.113  0.00  0.00    +0.339 C 
ATOM     44  O   UNL     1      -2.145  10.213  13.272  0.00  0.00    -0.245 OA
BRANCH  43  45
ATOM     45  O   UNL     1      -2.761  12.198  14.255  0.00  0.00    -0.461 OA
BRANCH  45  46
ATOM     46  C   UNL     1      -2.762  12.948  13.033  0.00  0.00    +0.229 C 
ATOM     47  C   UNL     1      -3.651  14.162  13.229  0.00  0.00    +0.048 C 
ENDBRANCH  45  46
ENDBRANCH  43  45
ENDBRANCH  39  43
ENDBRANCH  35  37
ENDBRANCH  31  33
ENDBRANCH  30  31
ENDBRANCH  26  30
ENDBRANCH  25  28
ENDBRANCH   1  25
TORSDOF 17
