REMARK VINA RESULT:    -5.004      2.952      8.506
REMARK INTER + INTRA:         -10.658
REMARK INTER:                  -8.092
REMARK INTRA:                  -2.566
REMARK UNBOUND:                -1.997
REMARK  Name = lig_assembled_57.pdb
REMARK  17 active torsions:
REMARK  status: ('A' for Active; 'I' for Inactive)
REMARK    1  A    between atoms: _2  and  _10
REMARK    2  A    between atoms: _3  and  _13
REMARK    3  A    between atoms: _5  and  _19
REMARK    4  A    between atoms: _7  and  _8
REMARK    5  A    between atoms: _7  and  _19
REMARK    6  A    between atoms: _15  and  _35
REMARK    7  A    between atoms: _17  and  _23
REMARK    8  A    between atoms: _18  and  _22
REMARK    9  A    between atoms: _22  and  _23
REMARK   10  A    between atoms: _25  and  _26
REMARK   11  A    between atoms: _27  and  _28
REMARK   12  A    between atoms: _29  and  _31
REMARK   13  A    between atoms: _31  and  _32
REMARK   14  A    between atoms: _31  and  _33
REMARK   15  A    between atoms: _33  and  _34
REMARK   16  A    between atoms: _33  and  _35
REMARK   17  A    between atoms: _36  and  _38
REMARK                            x       y       z     vdW  Elec       q    Type
REMARK                         _______ _______ _______ _____ _____    ______ ____
ROOT
ATOM      1  C   UNL     1      -4.152   9.032  23.756  0.00  0.00    +0.163 C 
ENDROOT
BRANCH   1   2
ATOM      2  O   UNL     1      -3.676   8.432  22.541  0.00  0.00    -0.388 OA
ATOM      3  H   UNL     1      -4.009   8.926  21.788  0.00  0.00    +0.210 HD
ENDBRANCH   1   2
BRANCH   1   4
ATOM      4  C   UNL     1      -4.183   7.993  24.873  0.00  0.00    +0.141 C 
BRANCH   4   7
ATOM      5  C   UNL     1      -2.701   8.500  26.784  0.00  0.00    +0.401 C 
ATOM      6  O   UNL     1      -1.732   7.902  26.312  0.00  0.00    -0.226 OA
ATOM      7  N   UNL     1      -3.888   8.588  26.182  0.00  0.00    -0.279 N 
ATOM      8  H   UNL     1      -4.626   9.093  26.654  0.00  0.00    +0.152 HD
BRANCH   5   9
ATOM      9  O   UNL     1      -2.569   9.143  28.055  0.00  0.00    -0.444 OA
BRANCH   9  10
ATOM     10  C   UNL     1      -3.848   9.209  28.692  0.00  0.00    +0.292 C 
BRANCH  10  12
ATOM     11  N   UNL     1      -2.679   9.992  30.721  0.00  0.00    -0.131 NA
ATOM     12  C   UNL     1      -3.767  10.052  29.899  0.00  0.00    +0.120 A 
ATOM     13  C   UNL     1      -4.650  10.992  30.386  0.00  0.00    +0.137 A 
ATOM     14  N   UNL     1      -4.003  11.532  31.457  0.00  0.00    -0.248 N 
ATOM     15  N   UNL     1      -2.850  10.872  31.693  0.00  0.00    -0.065 NA
BRANCH  14  16
ATOM     16  C   UNL     1      -4.325  12.687  32.288  0.00  0.00    +0.111 C 
ATOM     17  C   UNL     1      -3.100  13.599  32.449  0.00  0.00    +0.042 C 
ATOM     18  C   UNL     1      -2.839  14.379  31.162  0.00  0.00    +0.086 C 
ATOM     19  N   UNL     1      -3.977  15.212  30.758  0.00  0.00    -0.305 NA
ATOM     20  C   UNL     1      -5.221  14.449  30.646  0.00  0.00    +0.086 C 
ATOM     21  C   UNL     1      -4.116  16.403  31.591  0.00  0.00    +0.104 C 
ATOM     22  C   UNL     1      -5.529  13.532  31.839  0.00  0.00    +0.042 C 
ENDBRANCH  14  16
ENDBRANCH  10  12
ENDBRANCH   9  10
ENDBRANCH   5   9
ENDBRANCH   4   7
ENDBRANCH   1   4
BRANCH   1  23
ATOM     23  C   UNL     1      -5.560   9.621  23.564  0.00  0.00    +0.175 C 
BRANCH  23  24
ATOM     24  C   UNL     1      -5.523  10.995  22.878  0.00  0.00    +0.176 C 
ATOM     25  O   UNL     1      -5.223  10.785  21.471  0.00  0.00    -0.332 OA
ATOM     26  C   UNL     1      -5.250  11.986  20.631  0.00  0.00    +0.277 C 
ATOM     27  C   UNL     1      -4.311  13.072  21.209  0.00  0.00    +0.110 C 
ATOM     28  C   UNL     1      -4.571  13.309  22.712  0.00  0.00    +0.143 C 
ATOM     29  C   UNL     1      -4.522  11.993  23.490  0.00  0.00    +0.133 C 
BRANCH  29  30
ATOM     30  N   UNL     1      -4.857  12.220  24.905  0.00  0.00    -0.308 N 
ATOM     31  H   UNL     1      -5.822  12.406  25.137  0.00  0.00    +0.149 HD
ATOM     32  C   UNL     1      -3.968  12.195  25.902  0.00  0.00    +0.210 C 
ATOM     33  C   UNL     1      -2.501  11.933  25.512  0.00  0.00    +0.109 C 
ATOM     34  O   UNL     1      -4.280  12.373  27.080  0.00  0.00    -0.276 OA
ENDBRANCH  29  30
BRANCH  26  35
ATOM     35  C   UNL     1      -6.684  12.546  20.524  0.00  0.00    +0.414 C 
ATOM     36  O   UNL     1      -7.650  11.785  20.544  0.00  0.00    -0.240 OA
ATOM     37  O   UNL     1      -6.873  13.759  20.420  0.00  0.00    -0.240 OA
ENDBRANCH  26  35
BRANCH  28  38
ATOM     38  O   UNL     1      -3.588  14.202  23.236  0.00  0.00    -0.390 OA
ATOM     39  H   UNL     1      -3.215  13.833  24.040  0.00  0.00    +0.210 HD
ENDBRANCH  28  38
BRANCH  26  40
ATOM     40  O   UNL     1      -4.770  11.621  19.311  0.00  0.00    -0.343 OA
ATOM     41  C   UNL     1      -4.880  10.212  18.987  0.00  0.00    +0.198 C 
ENDBRANCH  26  40
ENDBRANCH  23  24
BRANCH  23  42
ATOM     42  O   UNL     1      -6.236   9.718  24.833  0.00  0.00    -0.387 OA
ATOM     43  H   UNL     1      -7.063   9.231  24.794  0.00  0.00    +0.210 HD
ENDBRANCH  23  42
ENDBRANCH   1  23
TORSDOF 14
