REMARK VINA RESULT:    -4.660      2.739      6.948
REMARK INTER + INTRA:         -12.016
REMARK INTER:                  -8.124
REMARK INTRA:                  -3.892
REMARK UNBOUND:                -3.679
REMARK  Name = lig_assembled_0.pdb
REMARK  17 active torsions:
REMARK  status: ('A' for Active; 'I' for Inactive)
REMARK    1  A    between atoms: _2  and  _10
REMARK    2  A    between atoms: _5  and  _21
REMARK    3  A    between atoms: _7  and  _8
REMARK    4  A    between atoms: _7  and  _21
REMARK    5  A    between atoms: _11  and  _12
REMARK    6  A    between atoms: _17  and  _37
REMARK    7  A    between atoms: _19  and  _25
REMARK    8  A    between atoms: _20  and  _24
REMARK    9  A    between atoms: _24  and  _25
REMARK   10  A    between atoms: _27  and  _28
REMARK   11  A    between atoms: _29  and  _30
REMARK   12  A    between atoms: _31  and  _33
REMARK   13  A    between atoms: _33  and  _34
REMARK   14  A    between atoms: _33  and  _35
REMARK   15  A    between atoms: _35  and  _36
REMARK   16  A    between atoms: _35  and  _37
REMARK   17  A    between atoms: _38  and  _40
REMARK                            x       y       z     vdW  Elec       q    Type
REMARK                         _______ _______ _______ _____ _____    ______ ____
ROOT
ATOM      1  C   UNL     1      -7.270   9.334  28.172  0.00  0.00    +0.163 C 
ENDROOT
BRANCH   1   2
ATOM      2  O   UNL     1      -8.091   9.993  29.151  0.00  0.00    -0.388 OA
ATOM      3  H   UNL     1      -7.538  10.326  29.862  0.00  0.00    +0.210 HD
ENDBRANCH   1   2
BRANCH   1   4
ATOM      4  C   UNL     1      -7.916   8.020  27.748  0.00  0.00    +0.141 C 
BRANCH   4   7
ATOM      5  C   UNL     1      -6.775   6.770  25.948  0.00  0.00    +0.401 C 
ATOM      6  O   UNL     1      -6.105   6.083  26.721  0.00  0.00    -0.226 OA
ATOM      7  N   UNL     1      -7.642   7.704  26.341  0.00  0.00    -0.279 N 
ATOM      8  H   UNL     1      -8.139   8.223  25.631  0.00  0.00    +0.152 HD
BRANCH   5   9
ATOM      9  O   UNL     1      -6.627   6.575  24.539  0.00  0.00    -0.444 OA
BRANCH   9  10
ATOM     10  C   UNL     1      -5.250   6.347  24.230  0.00  0.00    +0.292 C 
BRANCH  10  12
ATOM     11  N   UNL     1      -3.706   7.549  22.726  0.00  0.00    -0.131 NA
ATOM     12  C   UNL     1      -4.623   7.587  23.734  0.00  0.00    +0.121 A 
ATOM     13  C   UNL     1      -4.821   8.895  24.115  0.00  0.00    +0.143 A 
ATOM     14  N   UNL     1      -3.924   9.626  23.369  0.00  0.00    -0.219 N 
ATOM     15  N   UNL     1      -3.325   8.791  22.475  0.00  0.00    -0.060 NA
BRANCH  14  16
ATOM     16  C   UNL     1      -3.663  11.024  23.336  0.00  0.00    +0.079 A 
ATOM     17  C   UNL     1      -3.200  11.783  24.431  0.00  0.00    +0.062 A 
ATOM     18  C   UNL     1      -3.023  13.174  24.268  0.00  0.00    +0.015 A 
ATOM     19  C   UNL     1      -3.309  13.807  23.058  0.00  0.00    +0.001 A 
ATOM     20  C   UNL     1      -3.749  13.058  21.976  0.00  0.00    +0.002 A 
ATOM     21  C   UNL     1      -3.914  11.679  22.108  0.00  0.00    +0.028 A 
BRANCH  17  22
ATOM     22  C   UNL     1      -2.704  11.193  25.705  0.00  0.00    +0.244 C 
ATOM     23  O   UNL     1      -1.702  10.497  25.756  0.00  0.00    -0.270 OA
ATOM     24  N   UNL     1      -3.392  11.489  26.852  0.00  0.00    -0.325 N 
ATOM     25  H   UNL     1      -3.019  11.126  27.720  0.00  0.00    +0.145 HD
ATOM     26  H   UNL     1      -4.219  12.067  26.896  0.00  0.00    +0.145 HD
ENDBRANCH  17  22
ENDBRANCH  14  16
ENDBRANCH  10  12
ENDBRANCH   9  10
ENDBRANCH   5   9
ENDBRANCH   4   7
ENDBRANCH   1   4
BRANCH   1  27
ATOM     27  C   UNL     1      -5.863   9.058  28.731  0.00  0.00    +0.175 C 
BRANCH  27  28
ATOM     28  C   UNL     1      -5.377  10.184  29.655  0.00  0.00    +0.176 C 
ATOM     29  O   UNL     1      -5.617  11.451  28.981  0.00  0.00    -0.332 OA
ATOM     30  C   UNL     1      -5.310  12.652  29.763  0.00  0.00    +0.277 C 
ATOM     31  C   UNL     1      -3.851  12.604  30.279  0.00  0.00    +0.110 C 
ATOM     32  C   UNL     1      -3.538  11.262  30.975  0.00  0.00    +0.143 C 
ATOM     33  C   UNL     1      -3.899  10.080  30.075  0.00  0.00    +0.133 C 
BRANCH  33  34
ATOM     34  N   UNL     1      -3.678   8.808  30.782  0.00  0.00    -0.308 N 
ATOM     35  H   UNL     1      -4.205   8.641  31.627  0.00  0.00    +0.149 HD
ATOM     36  C   UNL     1      -2.826   7.862  30.379  0.00  0.00    +0.210 C 
ATOM     37  C   UNL     1      -2.018   8.159  29.102  0.00  0.00    +0.109 C 
ATOM     38  O   UNL     1      -2.672   6.800  30.984  0.00  0.00    -0.276 OA
ENDBRANCH  33  34
BRANCH  30  39
ATOM     39  C   UNL     1      -6.276  12.790  30.958  0.00  0.00    +0.414 C 
ATOM     40  O   UNL     1      -5.905  13.337  31.995  0.00  0.00    -0.240 OA
ATOM     41  O   UNL     1      -7.426  12.354  30.884  0.00  0.00    -0.240 OA
ENDBRANCH  30  39
BRANCH  32  42
ATOM     42  O   UNL     1      -2.149  11.200  31.299  0.00  0.00    -0.390 OA
ATOM     43  H   UNL     1      -1.854  10.287  31.275  0.00  0.00    +0.210 HD
ENDBRANCH  32  42
BRANCH  30  44
ATOM     44  O   UNL     1      -5.448  13.803  28.889  0.00  0.00    -0.343 OA
ATOM     45  C   UNL     1      -6.280  13.589  27.721  0.00  0.00    +0.198 C 
ENDBRANCH  30  44
ENDBRANCH  27  28
BRANCH  27  46
ATOM     46  O   UNL     1      -4.929   8.864  27.650  0.00  0.00    -0.387 OA
ATOM     47  H   UNL     1      -4.814   7.924  27.491  0.00  0.00    +0.210 HD
ENDBRANCH  27  46
ENDBRANCH   1  27
TORSDOF 15
