REMARK VINA RESULT:    -5.839      2.417      3.067
REMARK INTER + INTRA:         -13.800
REMARK INTER:                 -10.754
REMARK INTRA:                  -3.046
REMARK UNBOUND:                -2.840
REMARK  Name = lig_assembled_77.pdb
REMARK  19 active torsions:
REMARK  status: ('A' for Active; 'I' for Inactive)
REMARK    1  A    between atoms: _2  and  _10
REMARK    2  A    between atoms: _3  and  _17
REMARK    3  A    between atoms: _5  and  _27
REMARK    4  A    between atoms: _7  and  _8
REMARK    5  A    between atoms: _7  and  _27
REMARK    6  A    between atoms: _13  and  _47
REMARK    7  A    between atoms: _14  and  _47
REMARK    8  A    between atoms: _23  and  _43
REMARK    9  A    between atoms: _25  and  _31
REMARK   10  A    between atoms: _26  and  _30
REMARK   11  A    between atoms: _30  and  _31
REMARK   12  A    between atoms: _33  and  _34
REMARK   13  A    between atoms: _35  and  _36
REMARK   14  A    between atoms: _37  and  _39
REMARK   15  A    between atoms: _39  and  _40
REMARK   16  A    between atoms: _39  and  _41
REMARK   17  A    between atoms: _41  and  _42
REMARK   18  A    between atoms: _41  and  _43
REMARK   19  A    between atoms: _44  and  _46
REMARK                            x       y       z     vdW  Elec       q    Type
REMARK                         _______ _______ _______ _____ _____    ______ ____
ROOT
ATOM      1  C   UNL     1      -5.049  13.919  22.586  0.00  0.00    +0.401 C 
ATOM      2  O   UNL     1      -4.350  14.878  22.250  0.00  0.00    -0.226 OA
ATOM      3  N   UNL     1      -4.760  13.107  23.604  0.00  0.00    -0.279 N 
ATOM      4  H   UNL     1      -5.400  12.352  23.809  0.00  0.00    +0.152 HD
ENDROOT
BRANCH   3   5
ATOM      5  C   UNL     1      -3.565  13.248  24.445  0.00  0.00    +0.141 C 
BRANCH   5   6
ATOM      6  C   UNL     1      -2.740  11.967  24.480  0.00  0.00    +0.163 C 
BRANCH   6   7
ATOM      7  O   UNL     1      -2.012  11.884  25.717  0.00  0.00    -0.388 OA
ATOM      8  H   UNL     1      -1.092  11.677  25.534  0.00  0.00    +0.210 HD
ENDBRANCH   6   7
BRANCH   6   9
ATOM      9  C   UNL     1      -3.668  10.752  24.307  0.00  0.00    +0.175 C 
BRANCH   9  10
ATOM     10  C   UNL     1      -3.737   9.891  25.576  0.00  0.00    +0.176 C 
ATOM     11  O   UNL     1      -2.753   8.829  25.450  0.00  0.00    -0.332 OA
ATOM     12  C   UNL     1      -2.601   7.962  26.623  0.00  0.00    +0.277 C 
ATOM     13  C   UNL     1      -3.968   7.363  27.033  0.00  0.00    +0.110 C 
ATOM     14  C   UNL     1      -5.056   8.452  27.149  0.00  0.00    +0.143 C 
ATOM     15  C   UNL     1      -5.125   9.295  25.876  0.00  0.00    +0.133 C 
BRANCH  15  16
ATOM     16  N   UNL     1      -6.104  10.383  26.032  0.00  0.00    -0.308 N 
ATOM     17  H   UNL     1      -5.923  11.083  26.738  0.00  0.00    +0.149 HD
ATOM     18  C   UNL     1      -7.215  10.506  25.301  0.00  0.00    +0.210 C 
ATOM     19  C   UNL     1      -7.475   9.410  24.251  0.00  0.00    +0.109 C 
ATOM     20  O   UNL     1      -8.010  11.436  25.444  0.00  0.00    -0.276 OA
ENDBRANCH  15  16
BRANCH  12  21
ATOM     21  C   UNL     1      -2.005   8.748  27.810  0.00  0.00    +0.414 C 
ATOM     22  O   UNL     1      -2.366   8.502  28.960  0.00  0.00    -0.240 OA
ATOM     23  O   UNL     1      -1.164   9.627  27.617  0.00  0.00    -0.240 OA
ENDBRANCH  12  21
BRANCH  14  24
ATOM     24  O   UNL     1      -6.326   7.841  27.380  0.00  0.00    -0.390 OA
ATOM     25  H   UNL     1      -6.386   7.026  26.876  0.00  0.00    +0.210 HD
ENDBRANCH  14  24
BRANCH  12  26
ATOM     26  O   UNL     1      -1.713   6.872  26.264  0.00  0.00    -0.343 OA
ATOM     27  C   UNL     1      -2.243   5.545  26.508  0.00  0.00    +0.198 C 
ENDBRANCH  12  26
ENDBRANCH   9  10
BRANCH   9  28
ATOM     28  O   UNL     1      -3.237   9.953  23.187  0.00  0.00    -0.387 OA
ATOM     29  H   UNL     1      -2.287  10.044  23.076  0.00  0.00    +0.210 HD
ENDBRANCH   9  28
ENDBRANCH   6   9
ENDBRANCH   5   6
ENDBRANCH   3   5
BRANCH   1  30
ATOM     30  O   UNL     1      -6.247  13.643  21.857  0.00  0.00    -0.444 OA
BRANCH  30  31
ATOM     31  C   UNL     1      -6.501  12.236  21.870  0.00  0.00    +0.292 C 
BRANCH  31  33
ATOM     32  N   UNL     1      -5.116  10.413  20.937  0.00  0.00    -0.131 NA
ATOM     33  C   UNL     1      -5.806  11.574  20.749  0.00  0.00    +0.121 A 
ATOM     34  C   UNL     1      -5.717  11.942  19.426  0.00  0.00    +0.143 A 
ATOM     35  N   UNL     1      -4.961  10.955  18.834  0.00  0.00    -0.220 N 
ATOM     36  N   UNL     1      -4.598  10.048  19.773  0.00  0.00    -0.060 NA
BRANCH  35  37
ATOM     37  C   UNL     1      -4.624  10.793  17.464  0.00  0.00    +0.067 A 
ATOM     38  C   UNL     1      -4.572   9.517  16.881  0.00  0.00    +0.030 A 
ATOM     39  C   UNL     1      -4.122   9.365  15.566  0.00  0.00    +0.029 A 
ATOM     40  C   UNL     1      -3.730  10.488  14.835  0.00  0.00    +0.094 A 
ATOM     41  C   UNL     1      -3.865  11.771  15.373  0.00  0.00    +0.029 A 
ATOM     42  C   UNL     1      -4.300  11.922  16.692  0.00  0.00    +0.030 A 
BRANCH  40  43
ATOM     43  S   UNL     1      -3.090  10.286  13.184  0.00  0.00    +0.025 S 
ATOM     44  O   UNL     1      -1.717   9.834  13.335  0.00  0.00    -0.164 OA
ATOM     45  O   UNL     1      -4.052   9.494  12.441  0.00  0.00    -0.164 OA
BRANCH  43  46
ATOM     46  C   UNL     1      -3.032  11.878  12.389  0.00  0.00    +0.094 A 
ATOM     47  C   UNL     1      -1.851  12.620  12.351  0.00  0.00    +0.029 A 
ATOM     48  C   UNL     1      -1.856  13.895  11.773  0.00  0.00    +0.024 A 
ATOM     49  C   UNL     1      -3.017  14.420  11.190  0.00  0.00    +0.025 A 
ATOM     50  C   UNL     1      -4.198  13.675  11.265  0.00  0.00    +0.024 A 
ATOM     51  C   UNL     1      -4.207  12.401  11.841  0.00  0.00    +0.029 A 
BRANCH  49  52
ATOM     52  N   UNL     1      -3.054  15.753  10.773  0.00  0.00    -0.358 N 
ATOM     53  H   UNL     1      -2.308  16.020  10.139  0.00  0.00    +0.142 HD
ATOM     54  H   UNL     1      -3.965  16.068  10.456  0.00  0.00    +0.142 HD
ENDBRANCH  49  52
ENDBRANCH  43  46
ENDBRANCH  40  43
ENDBRANCH  35  37
ENDBRANCH  31  33
ENDBRANCH  30  31
ENDBRANCH   1  30
TORSDOF 17
