REMARK VINA RESULT:    -5.096      2.162      4.935
REMARK INTER + INTRA:         -11.808
REMARK INTER:                  -8.372
REMARK INTRA:                  -3.436
REMARK UNBOUND:                -2.989
REMARK  Name = lig_assembled_51.pdb
REMARK  16 active torsions:
REMARK  status: ('A' for Active; 'I' for Inactive)
REMARK    1  A    between atoms: _2  and  _9
REMARK    2  A    between atoms: _4  and  _22
REMARK    3  A    between atoms: _6  and  _7
REMARK    4  A    between atoms: _6  and  _22
REMARK    5  A    between atoms: _18  and  _38
REMARK    6  A    between atoms: _20  and  _26
REMARK    7  A    between atoms: _21  and  _25
REMARK    8  A    between atoms: _25  and  _26
REMARK    9  A    between atoms: _28  and  _29
REMARK   10  A    between atoms: _30  and  _31
REMARK   11  A    between atoms: _32  and  _34
REMARK   12  A    between atoms: _34  and  _35
REMARK   13  A    between atoms: _34  and  _36
REMARK   14  A    between atoms: _36  and  _37
REMARK   15  A    between atoms: _36  and  _38
REMARK   16  A    between atoms: _39  and  _41
REMARK                            x       y       z     vdW  Elec       q    Type
REMARK                         _______ _______ _______ _____ _____    ______ ____
ROOT
ATOM      1  C   UNL     1      -5.820   8.239  24.929  0.00  0.00    +0.163 C 
ENDROOT
BRANCH   1   2
ATOM      2  O   UNL     1      -5.902   8.830  26.237  0.00  0.00    -0.388 OA
ATOM      3  H   UNL     1      -6.824   8.951  26.476  0.00  0.00    +0.210 HD
ENDBRANCH   1   2
BRANCH   1   4
ATOM      4  C   UNL     1      -4.455   7.585  24.737  0.00  0.00    +0.141 C 
BRANCH   4   7
ATOM      5  C   UNL     1      -2.483   7.091  26.141  0.00  0.00    +0.401 C 
ATOM      6  O   UNL     1      -2.117   6.134  25.456  0.00  0.00    -0.226 OA
ATOM      7  N   UNL     1      -3.568   7.823  25.882  0.00  0.00    -0.279 N 
ATOM      8  H   UNL     1      -3.792   8.583  26.509  0.00  0.00    +0.152 HD
BRANCH   5   9
ATOM      9  O   UNL     1      -1.716   7.456  27.292  0.00  0.00    -0.444 OA
BRANCH   9  10
ATOM     10  C   UNL     1      -2.439   7.112  28.477  0.00  0.00    +0.292 C 
BRANCH  10  12
ATOM     11  N   UNL     1      -4.478   8.496  28.714  0.00  0.00    -0.131 NA
ATOM     12  C   UNL     1      -3.157   8.289  29.000  0.00  0.00    +0.120 A 
ATOM     13  C   UNL     1      -2.705   9.316  29.796  0.00  0.00    +0.137 A 
ATOM     14  N   UNL     1      -3.796  10.124  29.959  0.00  0.00    -0.245 N 
ATOM     15  N   UNL     1      -4.859   9.620  29.305  0.00  0.00    -0.065 NA
BRANCH  14  16
ATOM     16  C   UNL     1      -3.879  11.379  30.711  0.00  0.00    +0.066 C 
ATOM     17  C   UNL     1      -2.649  11.519  31.650  0.00  0.00    +0.034 C 
ATOM     18  C   UNL     1      -2.692  12.852  32.415  0.00  0.00    -0.008 C 
ATOM     19  C   UNL     1      -2.703  14.014  31.408  0.00  0.00    +0.007 C 
ATOM     20  C   UNL     1      -3.939  13.916  30.500  0.00  0.00    -0.008 C 
ATOM     21  C   UNL     1      -5.209  13.964  31.363  0.00  0.00    +0.007 C 
ATOM     22  C   UNL     1      -5.207  12.799  32.364  0.00  0.00    -0.008 C 
ATOM     23  C   UNL     1      -3.969  12.907  33.267  0.00  0.00    +0.007 C 
ATOM     24  C   UNL     1      -3.898  12.585  29.731  0.00  0.00    +0.034 C 
ATOM     25  C   UNL     1      -5.159  11.468  31.594  0.00  0.00    +0.034 C 
ENDBRANCH  14  16
ENDBRANCH  10  12
ENDBRANCH   9  10
ENDBRANCH   5   9
ENDBRANCH   4   7
ENDBRANCH   1   4
BRANCH   1  26
ATOM     26  C   UNL     1      -6.041   9.297  23.834  0.00  0.00    +0.175 C 
BRANCH  26  27
ATOM     27  C   UNL     1      -4.990  10.415  23.888  0.00  0.00    +0.176 C 
ATOM     28  O   UNL     1      -5.342  11.306  24.982  0.00  0.00    -0.332 OA
ATOM     29  C   UNL     1      -4.385  12.383  25.255  0.00  0.00    +0.277 C 
ATOM     30  C   UNL     1      -4.121  13.209  23.972  0.00  0.00    +0.110 C 
ATOM     31  C   UNL     1      -3.774  12.302  22.772  0.00  0.00    +0.143 C 
ATOM     32  C   UNL     1      -4.833  11.215  22.582  0.00  0.00    +0.133 C 
BRANCH  32  33
ATOM     33  N   UNL     1      -4.448  10.306  21.491  0.00  0.00    -0.308 N 
ATOM     34  H   UNL     1      -3.579   9.798  21.586  0.00  0.00    +0.149 HD
ATOM     35  C   UNL     1      -5.170  10.108  20.385  0.00  0.00    +0.210 C 
ATOM     36  C   UNL     1      -6.475  10.917  20.260  0.00  0.00    +0.109 C 
ATOM     37  O   UNL     1      -4.829   9.329  19.495  0.00  0.00    -0.276 OA
ENDBRANCH  32  33
BRANCH  29  38
ATOM     38  C   UNL     1      -3.054  11.811  25.784  0.00  0.00    +0.414 C 
ATOM     39  O   UNL     1      -1.982  12.278  25.399  0.00  0.00    -0.240 OA
ATOM     40  O   UNL     1      -3.051  10.884  26.595  0.00  0.00    -0.240 OA
ENDBRANCH  29  38
BRANCH  31  41
ATOM     41  O   UNL     1      -3.687  13.088  21.583  0.00  0.00    -0.390 OA
ATOM     42  H   UNL     1      -3.769  14.018  21.807  0.00  0.00    +0.210 HD
ENDBRANCH  31  41
BRANCH  29  43
ATOM     43  O   UNL     1      -4.970  13.261  26.251  0.00  0.00    -0.343 OA
ATOM     44  C   UNL     1      -6.274  12.853  26.738  0.00  0.00    +0.198 C 
ENDBRANCH  29  43
ENDBRANCH  26  27
BRANCH  26  45
ATOM     45  O   UNL     1      -7.366   9.854  23.943  0.00  0.00    -0.387 OA
ATOM     46  H   UNL     1      -7.588   9.974  24.869  0.00  0.00    +0.210 HD
ENDBRANCH  26  45
ENDBRANCH   1  26
TORSDOF 14
