REMARK VINA RESULT:    -5.425      3.652      9.965
REMARK INTER + INTRA:         -12.483
REMARK INTER:                  -9.992
REMARK INTRA:                  -2.492
REMARK UNBOUND:                -3.093
REMARK  Name = lig_assembled_80.pdb
REMARK  16 active torsions:
REMARK  status: ('A' for Active; 'I' for Inactive)
REMARK    1  A    between atoms: _2  and  _10
REMARK    2  A    between atoms: _5  and  _24
REMARK    3  A    between atoms: _7  and  _8
REMARK    4  A    between atoms: _7  and  _24
REMARK    5  A    between atoms: _20  and  _40
REMARK    6  A    between atoms: _22  and  _28
REMARK    7  A    between atoms: _23  and  _27
REMARK    8  A    between atoms: _27  and  _28
REMARK    9  A    between atoms: _30  and  _31
REMARK   10  A    between atoms: _32  and  _33
REMARK   11  A    between atoms: _34  and  _36
REMARK   12  A    between atoms: _36  and  _37
REMARK   13  A    between atoms: _36  and  _38
REMARK   14  A    between atoms: _38  and  _39
REMARK   15  A    between atoms: _38  and  _40
REMARK   16  A    between atoms: _41  and  _43
REMARK                            x       y       z     vdW  Elec       q    Type
REMARK                         _______ _______ _______ _____ _____    ______ ____
ROOT
ATOM      1  C   UNL     1      -2.980  13.137  24.379  0.00  0.00    +0.141 C 
ENDROOT
BRANCH   1   4
ATOM      2  C   UNL     1      -5.016  14.009  23.282  0.00  0.00    +0.401 C 
ATOM      3  O   UNL     1      -5.516  14.423  24.330  0.00  0.00    -0.226 OA
ATOM      4  N   UNL     1      -3.836  13.390  23.213  0.00  0.00    -0.279 N 
ATOM      5  H   UNL     1      -3.514  13.078  22.308  0.00  0.00    +0.152 HD
BRANCH   2   6
ATOM      6  O   UNL     1      -5.727  14.187  22.055  0.00  0.00    -0.444 OA
BRANCH   6   7
ATOM      7  C   UNL     1      -6.441  12.990  21.738  0.00  0.00    +0.292 C 
BRANCH   7   9
ATOM      8  N   UNL     1      -4.432  12.122  20.605  0.00  0.00    -0.131 NA
ATOM      9  C   UNL     1      -5.790  12.283  20.616  0.00  0.00    +0.120 A 
ATOM     10  C   UNL     1      -6.331  11.702  19.491  0.00  0.00    +0.138 A 
ATOM     11  N   UNL     1      -5.237  11.251  18.801  0.00  0.00    -0.239 N 
ATOM     12  N   UNL     1      -4.101  11.475  19.496  0.00  0.00    -0.065 NA
BRANCH  11  13
ATOM     13  C   UNL     1      -5.167  10.448  17.574  0.00  0.00    +0.195 C 
ATOM     14  C   UNL     1      -4.152  11.089  16.637  0.00  0.00    +0.041 C 
ATOM     15  C   UNL     1      -4.238  10.489  15.249  0.00  0.00    +0.039 C 
ATOM     16  C   UNL     1      -3.411   9.243  15.182  0.00  0.00    -0.026 A 
ATOM     17  C   UNL     1      -3.707   8.104  15.932  0.00  0.00    +0.037 A 
ATOM     18  C   UNL     1      -2.958   6.933  15.725  0.00  0.00    +0.023 A 
ATOM     19  C   UNL     1      -1.855   6.925  14.873  0.00  0.00    +0.002 A 
ATOM     20  C   UNL     1      -1.514   8.078  14.182  0.00  0.00    +0.000 A 
ATOM     21  N   UNL     1      -4.656   8.027  16.966  0.00  0.00    -0.284 N 
ATOM     22  H   UNL     1      -4.755   7.106  17.384  0.00  0.00    +0.155 HD
ATOM     23  C   UNL     1      -2.302   9.221  14.316  0.00  0.00    +0.005 A 
ATOM     24  C   UNL     1      -5.022   8.964  17.889  0.00  0.00    +0.242 C 
ATOM     25  O   UNL     1      -5.342   8.504  18.992  0.00  0.00    -0.273 OA
ENDBRANCH  11  13
ENDBRANCH   7   9
ENDBRANCH   6   7
ENDBRANCH   2   6
ENDBRANCH   1   4
BRANCH   1  26
ATOM     26  C   UNL     1      -3.351  11.838  25.086  0.00  0.00    +0.163 C 
BRANCH  26  27
ATOM     27  O   UNL     1      -2.293  10.877  24.936  0.00  0.00    -0.388 OA
ATOM     28  H   UNL     1      -2.245  10.595  24.019  0.00  0.00    +0.210 HD
ENDBRANCH  26  27
BRANCH  26  29
ATOM     29  C   UNL     1      -3.627  12.123  26.572  0.00  0.00    +0.175 C 
BRANCH  29  30
ATOM     30  C   UNL     1      -3.377  10.891  27.454  0.00  0.00    +0.176 C 
ATOM     31  O   UNL     1      -4.012   9.749  26.815  0.00  0.00    -0.332 OA
ATOM     32  C   UNL     1      -3.787   8.454  27.465  0.00  0.00    +0.277 C 
ATOM     33  C   UNL     1      -4.201   8.517  28.956  0.00  0.00    +0.110 C 
ATOM     34  C   UNL     1      -3.576   9.734  29.669  0.00  0.00    +0.143 C 
ATOM     35  C   UNL     1      -3.868  11.027  28.907  0.00  0.00    +0.133 C 
BRANCH  35  36
ATOM     36  N   UNL     1      -3.195  12.167  29.548  0.00  0.00    -0.308 N 
ATOM     37  H   UNL     1      -2.185  12.182  29.544  0.00  0.00    +0.149 HD
ATOM     38  C   UNL     1      -3.831  13.184  30.136  0.00  0.00    +0.210 C 
ATOM     39  C   UNL     1      -5.370  13.119  30.149  0.00  0.00    +0.109 C 
ATOM     40  O   UNL     1      -3.241  14.133  30.653  0.00  0.00    -0.276 OA
ENDBRANCH  35  36
BRANCH  32  41
ATOM     41  C   UNL     1      -2.305   8.038  27.359  0.00  0.00    +0.414 C 
ATOM     42  O   UNL     1      -1.784   7.366  28.248  0.00  0.00    -0.240 OA
ATOM     43  O   UNL     1      -1.631   8.375  26.385  0.00  0.00    -0.240 OA
ENDBRANCH  32  41
BRANCH  34  44
ATOM     44  O   UNL     1      -4.101   9.839  30.993  0.00  0.00    -0.390 OA
ATOM     45  H   UNL     1      -4.927  10.329  30.972  0.00  0.00    +0.210 HD
ENDBRANCH  34  44
BRANCH  32  46
ATOM     46  O   UNL     1      -4.619   7.468  26.801  0.00  0.00    -0.343 OA
ATOM     47  C   UNL     1      -4.970   7.786  25.431  0.00  0.00    +0.198 C 
ENDBRANCH  32  46
ENDBRANCH  29  30
BRANCH  29  48
ATOM     48  O   UNL     1      -4.980  12.591  26.745  0.00  0.00    -0.387 OA
ATOM     49  H   UNL     1      -5.265  12.421  27.646  0.00  0.00    +0.210 HD
ENDBRANCH  29  48
ENDBRANCH  26  29
ENDBRANCH   1  26
TORSDOF 14
