REMARK VINA RESULT:    -4.907      2.804      4.907
REMARK INTER + INTRA:         -11.851
REMARK INTER:                 -10.214
REMARK INTRA:                  -1.637
REMARK UNBOUND:                -3.358
REMARK  Name = lig_assembled_42.pdb
REMARK  16 active torsions:
REMARK  status: ('A' for Active; 'I' for Inactive)
REMARK    1  A    between atoms: _2  and  _9
REMARK    2  A    between atoms: _4  and  _21
REMARK    3  A    between atoms: _6  and  _7
REMARK    4  A    between atoms: _6  and  _21
REMARK    5  A    between atoms: _17  and  _37
REMARK    6  A    between atoms: _19  and  _25
REMARK    7  A    between atoms: _20  and  _24
REMARK    8  A    between atoms: _24  and  _25
REMARK    9  A    between atoms: _27  and  _28
REMARK   10  A    between atoms: _29  and  _30
REMARK   11  A    between atoms: _31  and  _33
REMARK   12  A    between atoms: _33  and  _34
REMARK   13  A    between atoms: _33  and  _35
REMARK   14  A    between atoms: _35  and  _36
REMARK   15  A    between atoms: _35  and  _37
REMARK   16  A    between atoms: _38  and  _40
REMARK                            x       y       z     vdW  Elec       q    Type
REMARK                         _______ _______ _______ _____ _____    ______ ____
ROOT
ATOM      1  C   UNL     1      -2.151  13.481  12.278  0.00  0.00    +0.163 C 
ENDROOT
BRANCH   1   2
ATOM      2  O   UNL     1      -1.583  14.139  13.422  0.00  0.00    -0.388 OA
ATOM      3  H   UNL     1      -0.629  14.028  13.415  0.00  0.00    +0.210 HD
ENDBRANCH   1   2
BRANCH   1   4
ATOM      4  C   UNL     1      -2.895  12.223  12.714  0.00  0.00    +0.141 C 
BRANCH   4   7
ATOM      5  C   UNL     1      -3.723  11.946  15.026  0.00  0.00    +0.401 C 
ATOM      6  O   UNL     1      -2.839  11.149  15.347  0.00  0.00    -0.226 OA
ATOM      7  N   UNL     1      -3.829  12.493  13.814  0.00  0.00    -0.279 N 
ATOM      8  H   UNL     1      -4.595  13.130  13.643  0.00  0.00    +0.152 HD
BRANCH   5   9
ATOM      9  O   UNL     1      -4.708  12.318  15.993  0.00  0.00    -0.444 OA
BRANCH   9  10
ATOM     10  C   UNL     1      -5.348  11.144  16.500  0.00  0.00    +0.292 C 
BRANCH  10  12
ATOM     11  N   UNL     1      -4.936   9.668  18.451  0.00  0.00    -0.131 NA
ATOM     12  C   UNL     1      -4.979  10.920  17.910  0.00  0.00    +0.121 A 
ATOM     13  C   UNL     1      -4.638  11.836  18.875  0.00  0.00    +0.143 A 
ATOM     14  N   UNL     1      -4.390  11.093  20.005  0.00  0.00    -0.220 N 
ATOM     15  N   UNL     1      -4.577   9.779  19.725  0.00  0.00    -0.060 NA
BRANCH  14  16
ATOM     16  C   UNL     1      -4.002  11.551  21.289  0.00  0.00    +0.071 A 
ATOM     17  C   UNL     1      -3.536  10.639  22.248  0.00  0.00    +0.077 A 
ATOM     18  C   UNL     1      -3.171  11.132  23.482  0.00  0.00    +0.168 A 
ATOM     19  O   UNL     1      -2.699  10.386  24.515  0.00  0.00    -0.453 OA
ATOM     20  C   UNL     1      -2.484  11.409  25.509  0.00  0.00    +0.466 C 
ATOM     21  O   UNL     1      -2.838  12.733  25.054  0.00  0.00    -0.453 OA
ATOM     22  C   UNL     1      -3.250  12.469  23.786  0.00  0.00    +0.166 A 
ATOM     23  C   UNL     1      -3.704  13.394  22.870  0.00  0.00    +0.051 A 
ATOM     24  C   UNL     1      -4.085  12.928  21.604  0.00  0.00    +0.031 A 
ENDBRANCH  14  16
ENDBRANCH  10  12
ENDBRANCH   9  10
ENDBRANCH   5   9
ENDBRANCH   4   7
ENDBRANCH   1   4
BRANCH   1  25
ATOM     25  C   UNL     1      -1.059  13.106  11.261  0.00  0.00    +0.175 C 
BRANCH  25  26
ATOM     26  C   UNL     1      -0.363  14.344  10.677  0.00  0.00    +0.176 C 
ATOM     27  O   UNL     1       0.567  14.846  11.676  0.00  0.00    -0.332 OA
ATOM     28  C   UNL     1       1.405  15.972  11.253  0.00  0.00    +0.277 C 
ATOM     29  C   UNL     1       0.526  17.133  10.726  0.00  0.00    +0.110 C 
ATOM     30  C   UNL     1      -0.501  16.642   9.684  0.00  0.00    +0.143 C 
ATOM     31  C   UNL     1      -1.316  15.467  10.228  0.00  0.00    +0.133 C 
BRANCH  31  32
ATOM     32  N   UNL     1      -2.230  14.953   9.196  0.00  0.00    -0.308 N 
ATOM     33  H   UNL     1      -1.824  14.490   8.395  0.00  0.00    +0.149 HD
ATOM     34  C   UNL     1      -3.560  15.057   9.248  0.00  0.00    +0.210 C 
ATOM     35  C   UNL     1      -4.146  15.791  10.469  0.00  0.00    +0.109 C 
ATOM     36  O   UNL     1      -4.302  14.604   8.376  0.00  0.00    -0.276 OA
ENDBRANCH  31  32
BRANCH  28  37
ATOM     37  C   UNL     1       2.394  15.535  10.152  0.00  0.00    +0.414 C 
ATOM     38  O   UNL     1       2.600  16.260   9.180  0.00  0.00    -0.240 OA
ATOM     39  O   UNL     1       2.986  14.458  10.237  0.00  0.00    -0.240 OA
ENDBRANCH  28  37
BRANCH  30  40
ATOM     40  O   UNL     1      -1.386  17.709   9.340  0.00  0.00    -0.390 OA
ATOM     41  H   UNL     1      -2.069  17.788  10.010  0.00  0.00    +0.210 HD
ENDBRANCH  30  40
BRANCH  28  42
ATOM     42  O   UNL     1       2.140  16.445  12.411  0.00  0.00    -0.343 OA
ATOM     43  C   UNL     1       2.590  17.821  12.331  0.00  0.00    +0.198 C 
ENDBRANCH  28  42
ENDBRANCH  25  26
BRANCH  25  44
ATOM     44  O   UNL     1      -1.622  12.306  10.201  0.00  0.00    -0.387 OA
ATOM     45  H   UNL     1      -2.109  11.571  10.579  0.00  0.00    +0.210 HD
ENDBRANCH  25  44
ENDBRANCH   1  25
TORSDOF 14
