REMARK VINA RESULT:    -4.872      2.362      5.300
REMARK INTER + INTRA:         -11.222
REMARK INTER:                  -7.934
REMARK INTRA:                  -3.288
REMARK UNBOUND:                -2.363
REMARK  Name = lig_assembled_59.pdb
REMARK  18 active torsions:
REMARK  status: ('A' for Active; 'I' for Inactive)
REMARK    1  A    between atoms: _2  and  _10
REMARK    2  A    between atoms: _5  and  _20
REMARK    3  A    between atoms: _7  and  _8
REMARK    4  A    between atoms: _7  and  _20
REMARK    5  A    between atoms: _13  and  _14
REMARK    6  A    between atoms: _14  and  _15
REMARK    7  A    between atoms: _16  and  _36
REMARK    8  A    between atoms: _18  and  _24
REMARK    9  A    between atoms: _19  and  _23
REMARK   10  A    between atoms: _23  and  _24
REMARK   11  A    between atoms: _26  and  _27
REMARK   12  A    between atoms: _28  and  _29
REMARK   13  A    between atoms: _30  and  _32
REMARK   14  A    between atoms: _32  and  _33
REMARK   15  A    between atoms: _32  and  _34
REMARK   16  A    between atoms: _34  and  _35
REMARK   17  A    between atoms: _34  and  _36
REMARK   18  A    between atoms: _37  and  _39
REMARK                            x       y       z     vdW  Elec       q    Type
REMARK                         _______ _______ _______ _____ _____    ______ ____
ROOT
ATOM      1  C   UNL     1      -6.209   8.288  24.681  0.00  0.00    +0.163 C 
ENDROOT
BRANCH   1   2
ATOM      2  O   UNL     1      -5.962   8.867  25.973  0.00  0.00    -0.388 OA
ATOM      3  H   UNL     1      -6.624   9.539  26.155  0.00  0.00    +0.210 HD
ENDBRANCH   1   2
BRANCH   1   4
ATOM      4  C   UNL     1      -6.283   9.377  23.596  0.00  0.00    +0.175 C 
BRANCH   4   5
ATOM      5  C   UNL     1      -5.132  10.387  23.711  0.00  0.00    +0.176 C 
ATOM      6  O   UNL     1      -5.451  11.306  24.792  0.00  0.00    -0.332 OA
ATOM      7  C   UNL     1      -4.409  12.284  25.120  0.00  0.00    +0.277 C 
ATOM      8  C   UNL     1      -4.000  13.082  23.857  0.00  0.00    +0.110 C 
ATOM      9  C   UNL     1      -3.682  12.148  22.671  0.00  0.00    +0.143 C 
ATOM     10  C   UNL     1      -4.831  11.170  22.420  0.00  0.00    +0.133 C 
BRANCH  10  11
ATOM     11  N   UNL     1      -4.480  10.229  21.345  0.00  0.00    -0.308 N 
ATOM     12  H   UNL     1      -3.712   9.592  21.506  0.00  0.00    +0.149 HD
ATOM     13  C   UNL     1      -5.111  10.161  20.169  0.00  0.00    +0.210 C 
ATOM     14  C   UNL     1      -6.259  11.162  19.943  0.00  0.00    +0.109 C 
ATOM     15  O   UNL     1      -4.805   9.352  19.292  0.00  0.00    -0.276 OA
ENDBRANCH  10  11
BRANCH   7  16
ATOM     16  C   UNL     1      -3.168  11.584  25.712  0.00  0.00    +0.414 C 
ATOM     17  O   UNL     1      -3.278  10.490  26.265  0.00  0.00    -0.240 OA
ATOM     18  O   UNL     1      -2.058  12.113  25.638  0.00  0.00    -0.240 OA
ENDBRANCH   7  16
BRANCH   7  19
ATOM     19  O   UNL     1      -4.956  13.213  26.091  0.00  0.00    -0.343 OA
ATOM     20  C   UNL     1      -6.016  12.677  26.921  0.00  0.00    +0.198 C 
ENDBRANCH   7  19
BRANCH   9  21
ATOM     21  O   UNL     1      -3.458  12.924  21.493  0.00  0.00    -0.390 OA
ATOM     22  H   UNL     1      -2.549  12.814  21.205  0.00  0.00    +0.210 HD
ENDBRANCH   9  21
ENDBRANCH   4   5
BRANCH   4  23
ATOM     23  O   UNL     1      -7.551  10.059  23.662  0.00  0.00    -0.387 OA
ATOM     24  H   UNL     1      -7.650  10.627  22.895  0.00  0.00    +0.210 HD
ENDBRANCH   4  23
ENDBRANCH   1   4
BRANCH   1  25
ATOM     25  C   UNL     1      -5.104   7.297  24.333  0.00  0.00    +0.141 C 
BRANCH  25  28
ATOM     26  C   UNL     1      -2.930   6.569  25.255  0.00  0.00    +0.401 C 
ATOM     27  O   UNL     1      -2.856   5.567  24.540  0.00  0.00    -0.226 OA
ATOM     28  N   UNL     1      -3.948   7.430  25.229  0.00  0.00    -0.279 N 
ATOM     29  H   UNL     1      -3.923   8.217  25.861  0.00  0.00    +0.152 HD
BRANCH  26  30
ATOM     30  O   UNL     1      -1.873   6.842  26.179  0.00  0.00    -0.444 OA
BRANCH  30  31
ATOM     31  C   UNL     1      -2.261   6.416  27.488  0.00  0.00    +0.292 C 
BRANCH  31  33
ATOM     32  N   UNL     1      -4.227   7.677  28.299  0.00  0.00    -0.131 NA
ATOM     33  C   UNL     1      -2.868   7.537  28.232  0.00  0.00    +0.121 A 
ATOM     34  C   UNL     1      -2.274   8.562  28.931  0.00  0.00    +0.145 A 
ATOM     35  N   UNL     1      -3.323   9.312  29.414  0.00  0.00    -0.202 N 
ATOM     36  N   UNL     1      -4.497   8.755  29.022  0.00  0.00    -0.059 NA
BRANCH  35  37
ATOM     37  C   UNL     1      -3.248  10.498  30.193  0.00  0.00    +0.156 A 
ATOM     38  C   UNL     1      -2.667  10.443  31.458  0.00  0.00    +0.048 A 
ATOM     39  C   UNL     1      -2.635  11.602  32.232  0.00  0.00    +0.011 A 
ATOM     40  C   UNL     1      -3.173  12.790  31.734  0.00  0.00    -0.004 A 
ATOM     41  C   UNL     1      -3.731  12.750  30.459  0.00  0.00    +0.119 A 
ATOM     42  N   UNL     1      -3.773  11.644  29.678  0.00  0.00    -0.236 NA
BRANCH  40  43
ATOM     43  C   UNL     1      -3.232  14.024  32.585  0.00  0.00    +0.192 C 
BRANCH  43  44
ATOM     44  O   UNL     1      -2.704  15.150  31.903  0.00  0.00    -0.390 OA
ATOM     45  H   UNL     1      -2.320  14.822  31.070  0.00  0.00    +0.210 HD
ENDBRANCH  43  44
ENDBRANCH  40  43
ENDBRANCH  35  37
ENDBRANCH  31  33
ENDBRANCH  30  31
ENDBRANCH  26  30
ENDBRANCH  25  28
ENDBRANCH   1  25
TORSDOF 16
