REMARK VINA RESULT:    -5.489      4.290      8.893
REMARK INTER + INTRA:         -11.824
REMARK INTER:                  -7.751
REMARK INTRA:                  -4.073
REMARK UNBOUND:                -2.004
REMARK  Name = lig_assembled_6.pdb
REMARK  17 active torsions:
REMARK  status: ('A' for Active; 'I' for Inactive)
REMARK    1  A    between atoms: _2  and  _10
REMARK    2  A    between atoms: _3  and  _13
REMARK    3  A    between atoms: _5  and  _21
REMARK    4  A    between atoms: _7  and  _8
REMARK    5  A    between atoms: _7  and  _21
REMARK    6  A    between atoms: _17  and  _37
REMARK    7  A    between atoms: _19  and  _25
REMARK    8  A    between atoms: _20  and  _24
REMARK    9  A    between atoms: _24  and  _25
REMARK   10  A    between atoms: _27  and  _28
REMARK   11  A    between atoms: _29  and  _30
REMARK   12  A    between atoms: _31  and  _33
REMARK   13  A    between atoms: _33  and  _34
REMARK   14  A    between atoms: _33  and  _35
REMARK   15  A    between atoms: _35  and  _36
REMARK   16  A    between atoms: _35  and  _37
REMARK   17  A    between atoms: _38  and  _40
REMARK                            x       y       z     vdW  Elec       q    Type
REMARK                         _______ _______ _______ _____ _____    ______ ____
ROOT
ATOM      1  C   UNL     1      -3.384  11.592  22.558  0.00  0.00    +0.163 C 
ENDROOT
BRANCH   1   2
ATOM      2  O   UNL     1      -2.653  12.174  23.649  0.00  0.00    -0.388 OA
ATOM      3  H   UNL     1      -3.268  12.550  24.283  0.00  0.00    +0.210 HD
ENDBRANCH   1   2
BRANCH   1   4
ATOM      4  C   UNL     1      -4.501  12.532  22.118  0.00  0.00    +0.141 C 
BRANCH   4   7
ATOM      5  C   UNL     1      -6.073  14.123  23.169  0.00  0.00    +0.401 C 
ATOM      6  O   UNL     1      -6.823  14.173  22.191  0.00  0.00    -0.226 OA
ATOM      7  N   UNL     1      -4.962  13.387  23.219  0.00  0.00    -0.279 N 
ATOM      8  H   UNL     1      -4.407  13.418  24.063  0.00  0.00    +0.152 HD
BRANCH   5   9
ATOM      9  O   UNL     1      -6.392  14.896  24.329  0.00  0.00    -0.444 OA
BRANCH   9  10
ATOM     10  C   UNL     1      -7.575  14.374  24.941  0.00  0.00    +0.292 C 
BRANCH  10  12
ATOM     11  N   UNL     1      -7.966  12.505  26.517  0.00  0.00    -0.131 NA
ATOM     12  C   UNL     1      -7.229  13.590  26.141  0.00  0.00    +0.121 A 
ATOM     13  C   UNL     1      -6.195  13.760  27.033  0.00  0.00    +0.143 A 
ATOM     14  N   UNL     1      -6.324  12.724  27.929  0.00  0.00    -0.220 N 
ATOM     15  N   UNL     1      -7.416  11.989  27.608  0.00  0.00    -0.060 NA
BRANCH  14  16
ATOM     16  C   UNL     1      -5.477  12.378  29.016  0.00  0.00    +0.067 A 
ATOM     17  C   UNL     1      -4.427  13.226  29.402  0.00  0.00    +0.034 A 
ATOM     18  C   UNL     1      -3.561  12.845  30.434  0.00  0.00    +0.086 A 
ATOM     19  C   UNL     1      -3.747  11.618  31.082  0.00  0.00    +0.273 A 
ATOM     20  C   UNL     1      -4.807  10.778  30.722  0.00  0.00    +0.086 A 
ATOM     21  C   UNL     1      -5.672  11.161  29.690  0.00  0.00    +0.034 A 
BRANCH  19  22
ATOM     22  N   UNL     1      -2.809  11.206  32.134  0.00  0.00    +0.080 N 
ATOM     23  O   UNL     1      -3.063  10.163  32.755  0.00  0.00    +0.041 OA
ATOM     24  O   UNL     1      -1.825  11.928  32.345  0.00  0.00    -0.576 OA
ENDBRANCH  19  22
ENDBRANCH  14  16
ENDBRANCH  10  12
ENDBRANCH   9  10
ENDBRANCH   5   9
ENDBRANCH   4   7
ENDBRANCH   1   4
BRANCH   1  25
ATOM     25  C   UNL     1      -3.984  10.233  22.959  0.00  0.00    +0.175 C 
BRANCH  25  26
ATOM     26  C   UNL     1      -4.056  10.061  24.483  0.00  0.00    +0.176 C 
ATOM     27  O   UNL     1      -3.014   9.126  24.878  0.00  0.00    -0.332 OA
ATOM     28  C   UNL     1      -2.862   8.918  26.321  0.00  0.00    +0.277 C 
ATOM     29  C   UNL     1      -4.211   8.495  26.952  0.00  0.00    +0.110 C 
ATOM     30  C   UNL     1      -5.356   9.442  26.535  0.00  0.00    +0.143 C 
ATOM     31  C   UNL     1      -5.422   9.589  25.015  0.00  0.00    +0.133 C 
BRANCH  31  32
ATOM     32  N   UNL     1      -6.459  10.560  24.635  0.00  0.00    -0.308 N 
ATOM     33  H   UNL     1      -6.425  11.477  25.058  0.00  0.00    +0.149 HD
ATOM     34  C   UNL     1      -7.444  10.310  23.768  0.00  0.00    +0.210 C 
ATOM     35  C   UNL     1      -7.484   8.895  23.160  0.00  0.00    +0.109 C 
ATOM     36  O   UNL     1      -8.291  11.148  23.457  0.00  0.00    -0.276 OA
ENDBRANCH  31  32
BRANCH  28  37
ATOM     37  C   UNL     1      -2.351  10.202  27.008  0.00  0.00    +0.414 C 
ATOM     38  O   UNL     1      -2.393  10.308  28.233  0.00  0.00    -0.240 OA
ATOM     39  O   UNL     1      -1.898  11.130  26.337  0.00  0.00    -0.240 OA
ENDBRANCH  28  37
BRANCH  30  40
ATOM     40  O   UNL     1      -6.602   8.932  27.013  0.00  0.00    -0.390 OA
ATOM     41  H   UNL     1      -7.266   9.624  26.979  0.00  0.00    +0.210 HD
ENDBRANCH  30  40
BRANCH  28  42
ATOM     42  O   UNL     1      -1.907   7.844  26.521  0.00  0.00    -0.343 OA
ATOM     43  C   UNL     1      -2.454   6.507  26.396  0.00  0.00    +0.198 C 
ENDBRANCH  28  42
ENDBRANCH  25  26
BRANCH  25  44
ATOM     44  O   UNL     1      -3.219   9.160  22.374  0.00  0.00    -0.387 OA
ATOM     45  H   UNL     1      -3.002   9.381  21.465  0.00  0.00    +0.210 HD
ENDBRANCH  25  44
ENDBRANCH   1  25
TORSDOF 15
