REMARK VINA RESULT:    -5.269      5.060      6.926
REMARK INTER + INTRA:         -12.261
REMARK INTER:                  -9.556
REMARK INTRA:                  -2.705
REMARK UNBOUND:                -3.141
REMARK  Name = lig_assembled_91.pdb
REMARK  16 active torsions:
REMARK  status: ('A' for Active; 'I' for Inactive)
REMARK    1  A    between atoms: _2  and  _10
REMARK    2  A    between atoms: _5  and  _26
REMARK    3  A    between atoms: _7  and  _8
REMARK    4  A    between atoms: _7  and  _26
REMARK    5  A    between atoms: _22  and  _42
REMARK    6  A    between atoms: _24  and  _30
REMARK    7  A    between atoms: _25  and  _29
REMARK    8  A    between atoms: _29  and  _30
REMARK    9  A    between atoms: _32  and  _33
REMARK   10  A    between atoms: _34  and  _35
REMARK   11  A    between atoms: _36  and  _38
REMARK   12  A    between atoms: _38  and  _39
REMARK   13  A    between atoms: _38  and  _40
REMARK   14  A    between atoms: _40  and  _41
REMARK   15  A    between atoms: _40  and  _42
REMARK   16  A    between atoms: _43  and  _45
REMARK                            x       y       z     vdW  Elec       q    Type
REMARK                         _______ _______ _______ _____ _____    ______ ____
ROOT
ATOM      1  C   UNL     1      -7.521   9.396  20.304  0.00  0.00    +0.401 C 
ATOM      2  O   UNL     1      -6.485   8.809  19.986  0.00  0.00    -0.226 OA
ATOM      3  N   UNL     1      -8.055   9.356  21.526  0.00  0.00    -0.279 N 
ATOM      4  H   UNL     1      -8.903   9.878  21.693  0.00  0.00    +0.152 HD
ENDROOT
BRANCH   3   5
ATOM      5  C   UNL     1      -7.479   8.595  22.642  0.00  0.00    +0.141 C 
BRANCH   5   6
ATOM      6  C   UNL     1      -6.455   9.414  23.420  0.00  0.00    +0.163 C 
BRANCH   6   7
ATOM      7  O   UNL     1      -6.968   9.731  24.724  0.00  0.00    -0.388 OA
ATOM      8  H   UNL     1      -7.745  10.289  24.636  0.00  0.00    +0.210 HD
ENDBRANCH   6   7
BRANCH   6   9
ATOM      9  C   UNL     1      -5.138   8.625  23.524  0.00  0.00    +0.175 C 
BRANCH   9  10
ATOM     10  C   UNL     1      -4.033   9.435  24.218  0.00  0.00    +0.176 C 
ATOM     11  O   UNL     1      -4.350   9.501  25.635  0.00  0.00    -0.332 OA
ATOM     12  C   UNL     1      -3.344  10.151  26.480  0.00  0.00    +0.277 C 
ATOM     13  C   UNL     1      -3.025  11.570  25.948  0.00  0.00    +0.110 C 
ATOM     14  C   UNL     1      -2.712  11.554  24.437  0.00  0.00    +0.143 C 
ATOM     15  C   UNL     1      -3.822  10.852  23.654  0.00  0.00    +0.133 C 
BRANCH  15  16
ATOM     16  N   UNL     1      -3.471  10.767  22.227  0.00  0.00    -0.308 N 
ATOM     17  H   UNL     1      -2.727  10.138  21.961  0.00  0.00    +0.149 HD
ATOM     18  C   UNL     1      -4.073  11.466  21.261  0.00  0.00    +0.210 C 
ATOM     19  C   UNL     1      -5.186  12.435  21.702  0.00  0.00    +0.109 C 
ATOM     20  O   UNL     1      -3.768  11.363  20.072  0.00  0.00    -0.276 OA
ENDBRANCH  15  16
BRANCH  12  21
ATOM     21  C   UNL     1      -2.048   9.315  26.529  0.00  0.00    +0.414 C 
ATOM     22  O   UNL     1      -0.951   9.872  26.544  0.00  0.00    -0.240 OA
ATOM     23  O   UNL     1      -2.099   8.085  26.553  0.00  0.00    -0.240 OA
ENDBRANCH  12  21
BRANCH  14  24
ATOM     24  O   UNL     1      -2.573  12.893  23.960  0.00  0.00    -0.390 OA
ATOM     25  H   UNL     1      -1.784  13.288  24.337  0.00  0.00    +0.210 HD
ENDBRANCH  14  24
BRANCH  12  26
ATOM     26  O   UNL     1      -3.894  10.277  27.817  0.00  0.00    -0.343 OA
ATOM     27  C   UNL     1      -4.164  11.637  28.242  0.00  0.00    +0.198 C 
ENDBRANCH  12  26
ENDBRANCH   9  10
BRANCH   9  28
ATOM     28  O   UNL     1      -4.703   8.211  22.213  0.00  0.00    -0.387 OA
ATOM     29  H   UNL     1      -5.392   8.399  21.572  0.00  0.00    +0.210 HD
ENDBRANCH   9  28
ENDBRANCH   6   9
ENDBRANCH   5   6
ENDBRANCH   3   5
BRANCH   1  30
ATOM     30  O   UNL     1      -8.208  10.176  19.322  0.00  0.00    -0.444 OA
BRANCH  30  31
ATOM     31  C   UNL     1      -7.428  11.330  18.998  0.00  0.00    +0.292 C 
BRANCH  31  33
ATOM     32  N   UNL     1      -7.585  10.980  16.559  0.00  0.00    -0.131 NA
ATOM     33  C   UNL     1      -6.815  11.184  17.663  0.00  0.00    +0.121 A 
ATOM     34  C   UNL     1      -5.494  11.235  17.281  0.00  0.00    +0.143 A 
ATOM     35  N   UNL     1      -5.493  11.009  15.920  0.00  0.00    -0.218 N 
ATOM     36  N   UNL     1      -6.781  10.879  15.511  0.00  0.00    -0.060 NA
BRANCH  35  37
ATOM     37  C   UNL     1      -4.393  10.903  15.015  0.00  0.00    +0.085 A 
ATOM     38  C   UNL     1      -3.982  12.044  14.236  0.00  0.00    +0.026 A 
ATOM     39  C   UNL     1      -2.904  11.825  13.356  0.00  0.00    +0.074 A 
ATOM     40  C   UNL     1      -2.421  12.849  12.554  0.00  0.00    +0.028 A 
ATOM     41  C   UNL     1      -2.963  14.129  12.578  0.00  0.00    +0.002 A 
ATOM     42  C   UNL     1      -3.999  14.399  13.450  0.00  0.00    +0.001 A 
ATOM     43  N   UNL     1      -2.264  10.664  13.243  0.00  0.00    -0.247 NA
ATOM     44  C   UNL     1      -2.627   9.620  13.985  0.00  0.00    +0.074 A 
ATOM     45  C   UNL     1      -1.892   8.456  13.784  0.00  0.00    +0.028 A 
ATOM     46  C   UNL     1      -2.175   7.272  14.458  0.00  0.00    +0.002 A 
ATOM     47  C   UNL     1      -3.230   7.245  15.349  0.00  0.00    +0.001 A 
ATOM     48  C   UNL     1      -3.982   8.406  15.558  0.00  0.00    +0.012 A 
ATOM     49  C   UNL     1      -4.486  13.383  14.279  0.00  0.00    +0.012 A 
ATOM     50  C   UNL     1      -3.695   9.644  14.897  0.00  0.00    +0.026 A 
ENDBRANCH  35  37
ENDBRANCH  31  33
ENDBRANCH  30  31
ENDBRANCH   1  30
TORSDOF 14
