REMARK VINA RESULT:    -4.770      5.053     10.629
REMARK INTER + INTRA:         -12.691
REMARK INTER:                  -9.747
REMARK INTRA:                  -2.944
REMARK UNBOUND:                -3.181
REMARK  Name = lig_assembled_76.pdb
REMARK  21 active torsions:
REMARK  status: ('A' for Active; 'I' for Inactive)
REMARK    1  A    between atoms: _2  and  _9
REMARK    2  A    between atoms: _4  and  _23
REMARK    3  A    between atoms: _6  and  _7
REMARK    4  A    between atoms: _6  and  _23
REMARK    5  A    between atoms: _9  and  _10
REMARK    6  A    between atoms: _10  and  _11
REMARK    7  A    between atoms: _10  and  _18
REMARK    8  A    between atoms: _11  and  _12
REMARK    9  A    between atoms: _12  and  _13
REMARK   10  A    between atoms: _19  and  _39
REMARK   11  A    between atoms: _21  and  _27
REMARK   12  A    between atoms: _22  and  _26
REMARK   13  A    between atoms: _26  and  _27
REMARK   14  A    between atoms: _29  and  _30
REMARK   15  A    between atoms: _31  and  _32
REMARK   16  A    between atoms: _33  and  _35
REMARK   17  A    between atoms: _35  and  _36
REMARK   18  A    between atoms: _35  and  _37
REMARK   19  A    between atoms: _37  and  _38
REMARK   20  A    between atoms: _37  and  _39
REMARK   21  A    between atoms: _40  and  _42
REMARK                            x       y       z     vdW  Elec       q    Type
REMARK                         _______ _______ _______ _____ _____    ______ ____
ROOT
ATOM      1  C   UNL     1      -7.335   8.750  22.232  0.00  0.00    +0.141 C 
ENDROOT
BRANCH   1   4
ATOM      2  C   UNL     1      -6.865   9.517  19.931  0.00  0.00    +0.401 C 
ATOM      3  O   UNL     1      -6.228   8.508  19.624  0.00  0.00    -0.226 OA
ATOM      4  N   UNL     1      -7.413   9.717  21.131  0.00  0.00    -0.279 N 
ATOM      5  H   UNL     1      -7.909  10.582  21.291  0.00  0.00    +0.152 HD
BRANCH   2   6
ATOM      6  O   UNL     1      -7.038  10.553  18.960  0.00  0.00    -0.444 OA
BRANCH   6   7
ATOM      7  C   UNL     1      -6.931   9.998  17.646  0.00  0.00    +0.292 C 
BRANCH   7   9
ATOM      8  N   UNL     1      -5.705  12.033  16.939  0.00  0.00    -0.131 NA
ATOM      9  C   UNL     1      -5.865  10.672  16.888  0.00  0.00    +0.120 A 
ATOM     10  C   UNL     1      -4.915  10.138  16.046  0.00  0.00    +0.137 A 
ATOM     11  N   UNL     1      -4.208  11.221  15.625  0.00  0.00    -0.249 N 
ATOM     12  N   UNL     1      -4.687  12.359  16.152  0.00  0.00    -0.065 NA
BRANCH  11  13
ATOM     13  C   UNL     1      -3.162  11.261  14.628  0.00  0.00    +0.176 C 
BRANCH  13  14
ATOM     14  C   UNL     1      -3.690  11.549  13.219  0.00  0.00    +0.136 C 
BRANCH  14  15
ATOM     15  O   UNL     1      -5.106  11.777  13.259  0.00  0.00    -0.390 OA
ATOM     16  H   UNL     1      -5.308  12.406  13.974  0.00  0.00    +0.210 HD
ENDBRANCH  14  15
BRANCH  14  17
ATOM     17  C   UNL     1      -3.042  12.793  12.591  0.00  0.00    +0.038 C 
BRANCH  17  18
ATOM     18  C   UNL     1      -1.887  12.466  11.645  0.00  0.00    +0.038 C 
BRANCH  18  19
ATOM     19  C   UNL     1      -0.823  13.533  11.659  0.00  0.00    -0.047 A 
ATOM     20  C   UNL     1      -0.776  14.472  12.699  0.00  0.00    +0.003 A 
ATOM     21  C   UNL     1       0.219  15.451  12.724  0.00  0.00    +0.000 A 
ATOM     22  C   UNL     1       1.171  15.503  11.708  0.00  0.00    +0.000 A 
ATOM     23  C   UNL     1       1.125  14.580  10.664  0.00  0.00    +0.000 A 
ATOM     24  C   UNL     1       0.130  13.602  10.636  0.00  0.00    +0.003 A 
ENDBRANCH  18  19
ENDBRANCH  17  18
ENDBRANCH  14  17
ENDBRANCH  13  14
ENDBRANCH  11  13
ENDBRANCH   7   9
ENDBRANCH   6   7
ENDBRANCH   2   6
ENDBRANCH   1   4
BRANCH   1  25
ATOM     25  C   UNL     1      -6.507   9.281  23.398  0.00  0.00    +0.163 C 
BRANCH  25  26
ATOM     26  O   UNL     1      -7.233   9.126  24.628  0.00  0.00    -0.388 OA
ATOM     27  H   UNL     1      -6.617   9.102  25.364  0.00  0.00    +0.210 HD
ENDBRANCH  25  26
BRANCH  25  28
ATOM     28  C   UNL     1      -5.162   8.535  23.456  0.00  0.00    +0.175 C 
BRANCH  28  29
ATOM     29  C   UNL     1      -4.080   9.349  24.178  0.00  0.00    +0.176 C 
ATOM     30  O   UNL     1      -4.394   9.351  25.598  0.00  0.00    -0.332 OA
ATOM     31  C   UNL     1      -3.404   9.997  26.465  0.00  0.00    +0.277 C 
ATOM     32  C   UNL     1      -3.130  11.445  25.989  0.00  0.00    +0.110 C 
ATOM     33  C   UNL     1      -2.823  11.498  24.477  0.00  0.00    +0.143 C 
ATOM     34  C   UNL     1      -3.914  10.794  23.670  0.00  0.00    +0.133 C 
BRANCH  34  35
ATOM     35  N   UNL     1      -3.566  10.775  22.240  0.00  0.00    -0.308 N 
ATOM     36  H   UNL     1      -2.825  10.156  21.943  0.00  0.00    +0.149 HD
ATOM     37  C   UNL     1      -4.166  11.523  21.310  0.00  0.00    +0.210 C 
ATOM     38  C   UNL     1      -5.274  12.475  21.799  0.00  0.00    +0.109 C 
ATOM     39  O   UNL     1      -3.864  11.475  20.117  0.00  0.00    -0.276 OA
ENDBRANCH  34  35
BRANCH  31  40
ATOM     40  C   UNL     1      -2.084   9.200  26.478  0.00  0.00    +0.414 C 
ATOM     41  O   UNL     1      -2.102   7.970  26.467  0.00  0.00    -0.240 OA
ATOM     42  O   UNL     1      -1.001   9.786  26.498  0.00  0.00    -0.240 OA
ENDBRANCH  31  40
BRANCH  33  43
ATOM     43  O   UNL     1      -2.727  12.858  24.053  0.00  0.00    -0.390 OA
ATOM     44  H   UNL     1      -2.844  12.906  23.101  0.00  0.00    +0.210 HD
ENDBRANCH  33  43
BRANCH  31  45
ATOM     45  O   UNL     1      -3.953  10.054  27.807  0.00  0.00    -0.343 OA
ATOM     46  C   UNL     1      -3.923  11.365  28.426  0.00  0.00    +0.198 C 
ENDBRANCH  31  45
ENDBRANCH  28  29
BRANCH  28  47
ATOM     47  O   UNL     1      -4.725   8.197  22.124  0.00  0.00    -0.387 OA
ATOM     48  H   UNL     1      -3.974   7.600  22.176  0.00  0.00    +0.210 HD
ENDBRANCH  28  47
ENDBRANCH  25  28
ENDBRANCH   1  25
TORSDOF 19
