REMARK VINA RESULT:    -5.405      2.548      3.467
REMARK INTER + INTRA:         -11.997
REMARK INTER:                  -9.056
REMARK INTRA:                  -2.942
REMARK UNBOUND:                -1.695
REMARK  Name = lig_assembled_12.pdb
REMARK  19 active torsions:
REMARK  status: ('A' for Active; 'I' for Inactive)
REMARK    1  A    between atoms: _2  and  _9
REMARK    2  A    between atoms: _4  and  _21
REMARK    3  A    between atoms: _6  and  _7
REMARK    4  A    between atoms: _6  and  _21
REMARK    5  A    between atoms: _9  and  _16
REMARK    6  A    between atoms: _10  and  _11
REMARK    7  A    between atoms: _10  and  _16
REMARK    8  A    between atoms: _17  and  _37
REMARK    9  A    between atoms: _19  and  _25
REMARK   10  A    between atoms: _20  and  _24
REMARK   11  A    between atoms: _24  and  _25
REMARK   12  A    between atoms: _27  and  _28
REMARK   13  A    between atoms: _29  and  _30
REMARK   14  A    between atoms: _31  and  _33
REMARK   15  A    between atoms: _33  and  _34
REMARK   16  A    between atoms: _33  and  _35
REMARK   17  A    between atoms: _35  and  _36
REMARK   18  A    between atoms: _35  and  _37
REMARK   19  A    between atoms: _38  and  _40
REMARK                            x       y       z     vdW  Elec       q    Type
REMARK                         _______ _______ _______ _____ _____    ______ ____
ROOT
ATOM      1  C   UNL     1      -4.310  10.948  25.479  0.00  0.00    +0.163 C 
ENDROOT
BRANCH   1   2
ATOM      2  O   UNL     1      -5.037  10.324  24.408  0.00  0.00    -0.388 OA
ATOM      3  H   UNL     1      -5.452  11.000  23.866  0.00  0.00    +0.210 HD
ENDBRANCH   1   2
BRANCH   1   4
ATOM      4  C   UNL     1      -2.890  10.367  25.592  0.00  0.00    +0.175 C 
BRANCH   4   5
ATOM      5  C   UNL     1      -2.860   9.072  26.417  0.00  0.00    +0.176 C 
ATOM      6  O   UNL     1      -3.337   7.991  25.570  0.00  0.00    -0.332 OA
ATOM      7  C   UNL     1      -3.278   6.650  26.159  0.00  0.00    +0.277 C 
ATOM      8  C   UNL     1      -4.026   6.622  27.515  0.00  0.00    +0.110 C 
ATOM      9  C   UNL     1      -3.574   7.773  28.438  0.00  0.00    +0.143 C 
ATOM     10  C   UNL     1      -3.673   9.121  27.723  0.00  0.00    +0.133 C 
BRANCH  10  11
ATOM     11  N   UNL     1      -3.158  10.199  28.582  0.00  0.00    -0.308 N 
ATOM     12  H   UNL     1      -2.163  10.231  28.754  0.00  0.00    +0.149 HD
ATOM     13  C   UNL     1      -3.920  11.138  29.150  0.00  0.00    +0.210 C 
ATOM     14  C   UNL     1      -5.435  11.047  28.890  0.00  0.00    +0.109 C 
ATOM     15  O   UNL     1      -3.459  12.038  29.853  0.00  0.00    -0.276 OA
ENDBRANCH  10  11
BRANCH   7  16
ATOM     16  C   UNL     1      -1.815   6.209  26.368  0.00  0.00    +0.414 C 
ATOM     17  O   UNL     1      -1.427   5.853  27.480  0.00  0.00    -0.240 OA
ATOM     18  O   UNL     1      -1.023   6.207  25.425  0.00  0.00    -0.240 OA
ENDBRANCH   7  16
BRANCH   9  19
ATOM     19  O   UNL     1      -4.391   7.801  29.609  0.00  0.00    -0.390 OA
ATOM     20  H   UNL     1      -4.337   6.953  30.057  0.00  0.00    +0.210 HD
ENDBRANCH   9  19
BRANCH   7  21
ATOM     21  O   UNL     1      -3.941   5.732  25.253  0.00  0.00    -0.343 OA
ATOM     22  C   UNL     1      -4.138   6.235  23.907  0.00  0.00    +0.198 C 
ENDBRANCH   7  21
ENDBRANCH   4   5
BRANCH   4  23
ATOM     23  O   UNL     1      -1.999  11.344  26.166  0.00  0.00    -0.387 OA
ATOM     24  H   UNL     1      -2.294  11.564  27.053  0.00  0.00    +0.210 HD
ENDBRANCH   4  23
ENDBRANCH   1   4
BRANCH   1  25
ATOM     25  C   UNL     1      -4.228  12.453  25.246  0.00  0.00    +0.141 C 
BRANCH  25  28
ATOM     26  C   UNL     1      -4.341  13.358  22.949  0.00  0.00    +0.401 C 
ATOM     27  O   UNL     1      -5.528  13.681  23.034  0.00  0.00    -0.226 OA
ATOM     28  N   UNL     1      -3.656  12.774  23.933  0.00  0.00    -0.279 N 
ATOM     29  H   UNL     1      -2.688  12.538  23.764  0.00  0.00    +0.152 HD
BRANCH  26  30
ATOM     30  O   UNL     1      -3.638  13.613  21.731  0.00  0.00    -0.444 OA
BRANCH  30  31
ATOM     31  C   UNL     1      -2.807  12.492  21.415  0.00  0.00    +0.292 C 
BRANCH  31  33
ATOM     32  N   UNL     1      -3.420  10.132  21.865  0.00  0.00    -0.131 NA
ATOM     33  C   UNL     1      -3.631  11.294  21.168  0.00  0.00    +0.120 A 
ATOM     34  C   UNL     1      -4.667  11.106  20.284  0.00  0.00    +0.139 A 
ATOM     35  N   UNL     1      -5.027   9.803  20.468  0.00  0.00    -0.226 N 
ATOM     36  N   UNL     1      -4.290   9.227  21.436  0.00  0.00    -0.063 NA
BRANCH  35  37
ATOM     37  C   UNL     1      -6.080   9.053  19.807  0.00  0.00    +0.305 C 
BRANCH  37  38
ATOM     38  O   UNL     1      -6.381   9.668  18.557  0.00  0.00    -0.353 OA
BRANCH  38  39
ATOM     39  C   UNL     1      -5.729   9.011  17.478  0.00  0.00    +0.197 C 
BRANCH  39  40
ATOM     40  C   UNL     1      -4.938  10.049  16.728  0.00  0.00    -0.022 A 
ATOM     41  C   UNL     1      -5.272  11.407  16.824  0.00  0.00    +0.006 A 
ATOM     42  C   UNL     1      -4.563  12.364  16.099  0.00  0.00    +0.000 A 
ATOM     43  C   UNL     1      -3.518  11.974  15.263  0.00  0.00    +0.000 A 
ATOM     44  C   UNL     1      -3.183  10.626  15.149  0.00  0.00    +0.000 A 
ATOM     45  C   UNL     1      -3.892   9.667  15.876  0.00  0.00    +0.006 A 
ENDBRANCH  39  40
ENDBRANCH  38  39
ENDBRANCH  37  38
ENDBRANCH  35  37
ENDBRANCH  31  33
ENDBRANCH  30  31
ENDBRANCH  26  30
ENDBRANCH  25  28
ENDBRANCH   1  25
TORSDOF 17
