REMARK VINA RESULT:    -4.719      2.529      4.892
REMARK INTER + INTRA:         -10.661
REMARK INTER:                  -8.166
REMARK INTRA:                  -2.495
REMARK UNBOUND:                -2.494
REMARK  Name = lig_assembled_56.pdb
REMARK  16 active torsions:
REMARK  status: ('A' for Active; 'I' for Inactive)
REMARK    1  A    between atoms: _2  and  _10
REMARK    2  A    between atoms: _5  and  _18
REMARK    3  A    between atoms: _7  and  _8
REMARK    4  A    between atoms: _7  and  _18
REMARK    5  A    between atoms: _14  and  _34
REMARK    6  A    between atoms: _16  and  _22
REMARK    7  A    between atoms: _17  and  _21
REMARK    8  A    between atoms: _21  and  _22
REMARK    9  A    between atoms: _24  and  _25
REMARK   10  A    between atoms: _26  and  _27
REMARK   11  A    between atoms: _28  and  _30
REMARK   12  A    between atoms: _30  and  _31
REMARK   13  A    between atoms: _30  and  _32
REMARK   14  A    between atoms: _32  and  _33
REMARK   15  A    between atoms: _32  and  _34
REMARK   16  A    between atoms: _35  and  _37
REMARK                            x       y       z     vdW  Elec       q    Type
REMARK                         _______ _______ _______ _____ _____    ______ ____
ROOT
ATOM      1  C   UNL     1      -6.412   9.406  23.410  0.00  0.00    +0.163 C 
ENDROOT
BRANCH   1   2
ATOM      2  O   UNL     1      -6.918   9.621  24.738  0.00  0.00    -0.388 OA
ATOM      3  H   UNL     1      -7.370  10.468  24.776  0.00  0.00    +0.210 HD
ENDBRANCH   1   2
BRANCH   1   4
ATOM      4  C   UNL     1      -7.409   8.586  22.599  0.00  0.00    +0.141 C 
BRANCH   4   7
ATOM      5  C   UNL     1      -7.335   8.923  20.152  0.00  0.00    +0.401 C 
ATOM      6  O   UNL     1      -6.530   8.009  19.956  0.00  0.00    -0.226 OA
ATOM      7  N   UNL     1      -7.795   9.266  21.356  0.00  0.00    -0.279 N 
ATOM      8  H   UNL     1      -8.445  10.036  21.417  0.00  0.00    +0.152 HD
BRANCH   5   9
ATOM      9  O   UNL     1      -7.814   9.678  19.036  0.00  0.00    -0.444 OA
BRANCH   9  10
ATOM     10  C   UNL     1      -7.216  10.977  19.046  0.00  0.00    +0.292 C 
BRANCH  10  12
ATOM     11  N   UNL     1      -6.651  12.349  17.067  0.00  0.00    -0.131 NA
ATOM     12  C   UNL     1      -6.471  11.209  17.795  0.00  0.00    +0.121 A 
ATOM     13  C   UNL     1      -5.537  10.417  17.166  0.00  0.00    +0.143 A 
ATOM     14  N   UNL     1      -5.157  11.132  16.053  0.00  0.00    -0.220 N 
ATOM     15  N   UNL     1      -5.852  12.294  16.010  0.00  0.00    -0.060 NA
BRANCH  14  16
ATOM     16  C   UNL     1      -4.197  10.796  15.067  0.00  0.00    +0.070 A 
ATOM     17  C   UNL     1      -3.456   9.615  15.157  0.00  0.00    +0.047 A 
ATOM     18  C   UNL     1      -2.522   9.357  14.166  0.00  0.00    +0.113 A 
ATOM     19  N   UNL     1      -2.288  10.177  13.120  0.00  0.00    -0.263 NA
ATOM     20  C   UNL     1      -3.020  11.310  13.056  0.00  0.00    +0.113 A 
ATOM     21  C   UNL     1      -3.977  11.661  13.992  0.00  0.00    +0.047 A 
ENDBRANCH  14  16
ENDBRANCH  10  12
ENDBRANCH   9  10
ENDBRANCH   5   9
ENDBRANCH   4   7
ENDBRANCH   1   4
BRANCH   1  22
ATOM     22  C   UNL     1      -5.058   8.678  23.448  0.00  0.00    +0.175 C 
BRANCH  22  23
ATOM     23  C   UNL     1      -3.984   9.492  24.186  0.00  0.00    +0.176 C 
ATOM     24  O   UNL     1      -4.311   9.483  25.603  0.00  0.00    -0.332 OA
ATOM     25  C   UNL     1      -3.332  10.128  26.483  0.00  0.00    +0.277 C 
ATOM     26  C   UNL     1      -3.059  11.579  26.018  0.00  0.00    +0.110 C 
ATOM     27  C   UNL     1      -2.737  11.643  24.510  0.00  0.00    +0.143 C 
ATOM     28  C   UNL     1      -3.819  10.940  23.688  0.00  0.00    +0.133 C 
BRANCH  28  29
ATOM     29  N   UNL     1      -3.458  10.931  22.262  0.00  0.00    -0.308 N 
ATOM     30  H   UNL     1      -2.673  10.361  21.977  0.00  0.00    +0.149 HD
ATOM     31  C   UNL     1      -4.098  11.627  21.319  0.00  0.00    +0.210 C 
ATOM     32  C   UNL     1      -5.272  12.507  21.789  0.00  0.00    +0.109 C 
ATOM     33  O   UNL     1      -3.783  11.589  20.129  0.00  0.00    -0.276 OA
ENDBRANCH  28  29
BRANCH  25  34
ATOM     34  C   UNL     1      -2.009   9.335  26.503  0.00  0.00    +0.414 C 
ATOM     35  O   UNL     1      -2.022   8.105  26.460  0.00  0.00    -0.240 OA
ATOM     36  O   UNL     1      -0.929   9.924  26.562  0.00  0.00    -0.240 OA
ENDBRANCH  25  34
BRANCH  27  37
ATOM     37  O   UNL     1      -2.642  13.006  24.095  0.00  0.00    -0.390 OA
ATOM     38  H   UNL     1      -3.175  13.555  24.674  0.00  0.00    +0.210 HD
ENDBRANCH  27  37
BRANCH  25  39
ATOM     39  O   UNL     1      -3.894  10.175  27.820  0.00  0.00    -0.343 OA
ATOM     40  C   UNL     1      -4.158  11.507  28.328  0.00  0.00    +0.198 C 
ENDBRANCH  25  39
ENDBRANCH  22  23
BRANCH  22  41
ATOM     41  O   UNL     1      -4.619   8.375  22.109  0.00  0.00    -0.387 OA
ATOM     42  H   UNL     1      -5.381   8.310  21.529  0.00  0.00    +0.210 HD
ENDBRANCH  22  41
ENDBRANCH   1  22
TORSDOF 14
