REMARK VINA RESULT:    -4.473      5.919     12.095
REMARK INTER + INTRA:         -12.090
REMARK INTER:                  -9.262
REMARK INTRA:                  -2.828
REMARK UNBOUND:                -3.302
REMARK  Name = lig_assembled_84.pdb
REMARK  21 active torsions:
REMARK  status: ('A' for Active; 'I' for Inactive)
REMARK    1  A    between atoms: _2  and  _11
REMARK    2  A    between atoms: _3  and  _14
REMARK    3  A    between atoms: _4  and  _17
REMARK    4  A    between atoms: _6  and  _28
REMARK    5  A    between atoms: _8  and  _9
REMARK    6  A    between atoms: _8  and  _28
REMARK    7  A    between atoms: _11  and  _12
REMARK    8  A    between atoms: _12  and  _13
REMARK    9  A    between atoms: _12  and  _14
REMARK   10  A    between atoms: _24  and  _44
REMARK   11  A    between atoms: _26  and  _32
REMARK   12  A    between atoms: _27  and  _31
REMARK   13  A    between atoms: _31  and  _32
REMARK   14  A    between atoms: _34  and  _35
REMARK   15  A    between atoms: _36  and  _37
REMARK   16  A    between atoms: _38  and  _40
REMARK   17  A    between atoms: _40  and  _41
REMARK   18  A    between atoms: _40  and  _42
REMARK   19  A    between atoms: _42  and  _43
REMARK   20  A    between atoms: _42  and  _44
REMARK   21  A    between atoms: _45  and  _47
REMARK                            x       y       z     vdW  Elec       q    Type
REMARK                         _______ _______ _______ _____ _____    ______ ____
ROOT
ATOM      1  C   UNL     1      -7.137  10.601  21.673  0.00  0.00    +0.401 C 
ATOM      2  O   UNL     1      -8.264  10.105  21.735  0.00  0.00    -0.226 OA
ATOM      3  N   UNL     1      -6.111  10.217  22.434  0.00  0.00    -0.279 N 
ATOM      4  H   UNL     1      -5.221  10.678  22.303  0.00  0.00    +0.152 HD
ENDROOT
BRANCH   1   5
ATOM      5  O   UNL     1      -6.890  11.649  20.732  0.00  0.00    -0.444 OA
BRANCH   5   6
ATOM      6  C   UNL     1      -5.559  11.529  20.221  0.00  0.00    +0.292 C 
BRANCH   6   8
ATOM      7  N   UNL     1      -4.969   9.200  19.608  0.00  0.00    -0.131 NA
ATOM      8  C   UNL     1      -5.471  10.424  19.247  0.00  0.00    +0.120 A 
ATOM      9  C   UNL     1      -5.798  10.399  17.910  0.00  0.00    +0.137 A 
ATOM     10  N   UNL     1      -5.411   9.158  17.500  0.00  0.00    -0.251 N 
ATOM     11  N   UNL     1      -4.935   8.432  18.527  0.00  0.00    -0.065 NA
BRANCH  10  12
ATOM     12  C   UNL     1      -5.339   8.655  16.142  0.00  0.00    +0.149 C 
BRANCH  12  13
ATOM     13  C   UNL     1      -4.226   9.288  15.290  0.00  0.00    +0.021 C 
ATOM     14  C   UNL     1      -2.920   8.488  15.395  0.00  0.00    +0.010 C 
BRANCH  13  15
ATOM     15  C   UNL     1      -4.639   9.375  13.801  0.00  0.00    +0.089 C 
BRANCH  15  16
ATOM     16  N   UNL     1      -4.465  10.689  13.168  0.00  0.00    -0.299 NA
ATOM     17  C   UNL     1      -3.338  10.641  12.199  0.00  0.00    +0.103 C 
ATOM     18  C   UNL     1      -3.174  11.978  11.447  0.00  0.00    +0.120 C 
ATOM     19  N   UNL     1      -2.953  13.063  12.411  0.00  0.00    -0.327 N 
ATOM     20  C   UNL     1      -3.985  13.165  13.453  0.00  0.00    +0.120 C 
ATOM     21  C   UNL     1      -4.195  11.782  14.136  0.00  0.00    +0.103 C 
BRANCH  19  22
ATOM     22  C   UNL     1      -1.900  13.942  12.311  0.00  0.00    +0.030 A 
ATOM     23  C   UNL     1      -0.703  13.579  11.665  0.00  0.00    +0.024 A 
ATOM     24  C   UNL     1       0.388  14.450  11.576  0.00  0.00    +0.022 A 
ATOM     25  C   UNL     1       0.300  15.717  12.130  0.00  0.00    +0.041 A 
ATOM     26 CL   UNL     1       1.640  16.792  12.029  0.00  0.00    -0.084 Cl
ATOM     27  C   UNL     1      -0.865  16.116  12.774  0.00  0.00    +0.022 A 
ATOM     28  C   UNL     1      -1.949  15.231  12.862  0.00  0.00    +0.024 A 
ENDBRANCH  19  22
ENDBRANCH  15  16
ENDBRANCH  13  15
ENDBRANCH  12  13
ENDBRANCH  10  12
ENDBRANCH   6   8
ENDBRANCH   5   6
ENDBRANCH   1   5
BRANCH   3  29
ATOM     29  C   UNL     1      -6.201   9.164  23.452  0.00  0.00    +0.141 C 
BRANCH  29  30
ATOM     30  C   UNL     1      -4.967   8.268  23.455  0.00  0.00    +0.163 C 
BRANCH  30  31
ATOM     31  O   UNL     1      -3.971   8.801  22.567  0.00  0.00    -0.388 OA
ATOM     32  H   UNL     1      -4.068   9.755  22.512  0.00  0.00    +0.210 HD
ENDBRANCH  30  31
BRANCH  30  33
ATOM     33  C   UNL     1      -4.421   8.149  24.888  0.00  0.00    +0.175 C 
BRANCH  33  34
ATOM     34  C   UNL     1      -4.351   9.511  25.594  0.00  0.00    +0.176 C 
ATOM     35  O   UNL     1      -3.742  10.460  24.676  0.00  0.00    -0.332 OA
ATOM     36  C   UNL     1      -3.687  11.849  25.142  0.00  0.00    +0.277 C 
ATOM     37  C   UNL     1      -2.985  11.930  26.520  0.00  0.00    +0.110 C 
ATOM     38  C   UNL     1      -3.578  10.916  27.521  0.00  0.00    +0.143 C 
ATOM     39  C   UNL     1      -3.589   9.505  26.932  0.00  0.00    +0.133 C 
BRANCH  39  40
ATOM     40  N   UNL     1      -4.235   8.564  27.861  0.00  0.00    -0.308 N 
ATOM     41  H   UNL     1      -5.228   8.666  28.022  0.00  0.00    +0.149 HD
ATOM     42  C   UNL     1      -3.596   7.584  28.505  0.00  0.00    +0.210 C 
ATOM     43  C   UNL     1      -2.080   7.471  28.259  0.00  0.00    +0.109 C 
ATOM     44  O   UNL     1      -4.166   6.801  29.266  0.00  0.00    -0.276 OA
ENDBRANCH  39  40
BRANCH  36  45
ATOM     45  C   UNL     1      -5.106  12.445  25.251  0.00  0.00    +0.414 C 
ATOM     46  O   UNL     1      -5.436  13.082  26.250  0.00  0.00    -0.240 OA
ATOM     47  O   UNL     1      -5.920  12.290  24.339  0.00  0.00    -0.240 OA
ENDBRANCH  36  45
BRANCH  36  48
ATOM     48  O   UNL     1      -2.908  12.613  24.186  0.00  0.00    -0.343 OA
ATOM     49  C   UNL     1      -2.940  12.109  22.827  0.00  0.00    +0.198 C 
ENDBRANCH  36  48
BRANCH  38  50
ATOM     50  O   UNL     1      -2.806  10.918  28.723  0.00  0.00    -0.390 OA
ATOM     51  H   UNL     1      -2.132  10.236  28.673  0.00  0.00    +0.210 HD
ENDBRANCH  38  50
ENDBRANCH  33  34
BRANCH  33  52
ATOM     52  O   UNL     1      -3.120   7.530  24.874  0.00  0.00    -0.387 OA
ATOM     53  H   UNL     1      -2.835   7.402  23.966  0.00  0.00    +0.210 HD
ENDBRANCH  33  52
ENDBRANCH  30  33
ENDBRANCH  29  30
ENDBRANCH   3  29
TORSDOF 18
