REMARK VINA RESULT:    -4.568      6.114     10.685
REMARK INTER + INTRA:         -11.264
REMARK INTER:                  -8.883
REMARK INTRA:                  -2.381
REMARK UNBOUND:                -3.358
REMARK  Name = lig_assembled_42.pdb
REMARK  16 active torsions:
REMARK  status: ('A' for Active; 'I' for Inactive)
REMARK    1  A    between atoms: _2  and  _9
REMARK    2  A    between atoms: _4  and  _21
REMARK    3  A    between atoms: _6  and  _7
REMARK    4  A    between atoms: _6  and  _21
REMARK    5  A    between atoms: _17  and  _37
REMARK    6  A    between atoms: _19  and  _25
REMARK    7  A    between atoms: _20  and  _24
REMARK    8  A    between atoms: _24  and  _25
REMARK    9  A    between atoms: _27  and  _28
REMARK   10  A    between atoms: _29  and  _30
REMARK   11  A    between atoms: _31  and  _33
REMARK   12  A    between atoms: _33  and  _34
REMARK   13  A    between atoms: _33  and  _35
REMARK   14  A    between atoms: _35  and  _36
REMARK   15  A    between atoms: _35  and  _37
REMARK   16  A    between atoms: _38  and  _40
REMARK                            x       y       z     vdW  Elec       q    Type
REMARK                         _______ _______ _______ _____ _____    ______ ____
ROOT
ATOM      1  C   UNL     1      -4.322   9.004  23.871  0.00  0.00    +0.163 C 
ENDROOT
BRANCH   1   2
ATOM      2  O   UNL     1      -3.839   8.314  22.706  0.00  0.00    -0.388 OA
ATOM      3  H   UNL     1      -4.506   8.345  22.016  0.00  0.00    +0.210 HD
ENDBRANCH   1   2
BRANCH   1   4
ATOM      4  C   UNL     1      -4.403   8.042  25.051  0.00  0.00    +0.141 C 
BRANCH   4   7
ATOM      5  C   UNL     1      -2.682   8.438  26.781  0.00  0.00    +0.401 C 
ATOM      6  O   UNL     1      -1.849   7.697  26.255  0.00  0.00    -0.226 OA
ATOM      7  N   UNL     1      -3.904   8.653  26.290  0.00  0.00    -0.279 N 
ATOM      8  H   UNL     1      -4.520   9.271  26.799  0.00  0.00    +0.152 HD
BRANCH   5   9
ATOM      9  O   UNL     1      -2.343   9.115  27.994  0.00  0.00    -0.444 OA
BRANCH   9  10
ATOM     10  C   UNL     1      -3.528   9.344  28.761  0.00  0.00    +0.292 C 
BRANCH  10  12
ATOM     11  N   UNL     1      -2.754   9.693  31.092  0.00  0.00    -0.131 NA
ATOM     12  C   UNL     1      -3.235  10.205  29.922  0.00  0.00    +0.121 A 
ATOM     13  C   UNL     1      -3.373  11.565  30.053  0.00  0.00    +0.143 A 
ATOM     14  N   UNL     1      -2.960  11.848  31.333  0.00  0.00    -0.220 N 
ATOM     15  N   UNL     1      -2.589  10.696  31.946  0.00  0.00    -0.060 NA
BRANCH  14  16
ATOM     16  C   UNL     1      -2.906  13.107  31.981  0.00  0.00    +0.071 A 
ATOM     17  C   UNL     1      -3.539  14.220  31.407  0.00  0.00    +0.077 A 
ATOM     18  C   UNL     1      -3.458  15.423  32.076  0.00  0.00    +0.168 A 
ATOM     19  O   UNL     1      -4.017  16.589  31.658  0.00  0.00    -0.453 OA
ATOM     20  C   UNL     1      -3.623  17.473  32.727  0.00  0.00    +0.466 C 
ATOM     21  O   UNL     1      -2.836  16.822  33.749  0.00  0.00    -0.453 OA
ATOM     22  C   UNL     1      -2.786  15.552  33.266  0.00  0.00    +0.166 A 
ATOM     23  C   UNL     1      -2.151  14.482  33.859  0.00  0.00    +0.051 A 
ATOM     24  C   UNL     1      -2.212  13.242  33.208  0.00  0.00    +0.031 A 
ENDBRANCH  14  16
ENDBRANCH  10  12
ENDBRANCH   9  10
ENDBRANCH   5   9
ENDBRANCH   4   7
ENDBRANCH   1   4
BRANCH   1  25
ATOM     25  C   UNL     1      -5.709   9.617  23.612  0.00  0.00    +0.175 C 
BRANCH  25  26
ATOM     26  C   UNL     1      -5.620  10.947  22.849  0.00  0.00    +0.176 C 
ATOM     27  O   UNL     1      -5.299  10.648  21.463  0.00  0.00    -0.332 OA
ATOM     28  C   UNL     1      -5.277  11.798  20.554  0.00  0.00    +0.277 C 
ATOM     29  C   UNL     1      -4.319  12.891  21.089  0.00  0.00    +0.110 C 
ATOM     30  C   UNL     1      -4.602  13.221  22.570  0.00  0.00    +0.143 C 
ATOM     31  C   UNL     1      -4.605  11.953  23.424  0.00  0.00    +0.133 C 
BRANCH  31  32
ATOM     32  N   UNL     1      -4.961  12.269  24.816  0.00  0.00    -0.308 N 
ATOM     33  H   UNL     1      -5.926  12.494  25.017  0.00  0.00    +0.149 HD
ATOM     34  C   UNL     1      -4.093  12.280  25.831  0.00  0.00    +0.210 C 
ATOM     35  C   UNL     1      -2.626  11.960  25.487  0.00  0.00    +0.109 C 
ATOM     36  O   UNL     1      -4.423  12.535  26.990  0.00  0.00    -0.276 OA
ENDBRANCH  31  32
BRANCH  28  37
ATOM     37  C   UNL     1      -6.692  12.389  20.386  0.00  0.00    +0.414 C 
ATOM     38  O   UNL     1      -6.843  13.600  20.229  0.00  0.00    -0.240 OA
ATOM     39  O   UNL     1      -7.681  11.656  20.406  0.00  0.00    -0.240 OA
ENDBRANCH  28  37
BRANCH  30  40
ATOM     40  O   UNL     1      -3.605  14.118  23.062  0.00  0.00    -0.390 OA
ATOM     41  H   UNL     1      -3.761  14.290  23.994  0.00  0.00    +0.210 HD
ENDBRANCH  30  40
BRANCH  28  42
ATOM     42  O   UNL     1      -4.780  11.344  19.269  0.00  0.00    -0.343 OA
ATOM     43  C   UNL     1      -4.994   9.937  18.991  0.00  0.00    +0.198 C 
ENDBRANCH  28  42
ENDBRANCH  25  26
BRANCH  25  44
ATOM     44  O   UNL     1      -6.410   9.805  24.857  0.00  0.00    -0.387 OA
ATOM     45  H   UNL     1      -7.321   9.519  24.758  0.00  0.00    +0.210 HD
ENDBRANCH  25  44
ENDBRANCH   1  25
TORSDOF 14
