REMARK VINA RESULT:    -4.764      4.666      9.549
REMARK INTER + INTRA:         -11.283
REMARK INTER:                  -7.235
REMARK INTRA:                  -4.047
REMARK UNBOUND:                -2.759
REMARK  Name = lig_assembled_38.pdb
REMARK  17 active torsions:
REMARK  status: ('A' for Active; 'I' for Inactive)
REMARK    1  A    between atoms: _2  and  _9
REMARK    2  A    between atoms: _4  and  _19
REMARK    3  A    between atoms: _6  and  _7
REMARK    4  A    between atoms: _6  and  _19
REMARK    5  A    between atoms: _9  and  _10
REMARK    6  A    between atoms: _15  and  _35
REMARK    7  A    between atoms: _17  and  _23
REMARK    8  A    between atoms: _18  and  _22
REMARK    9  A    between atoms: _22  and  _23
REMARK   10  A    between atoms: _25  and  _26
REMARK   11  A    between atoms: _27  and  _28
REMARK   12  A    between atoms: _29  and  _31
REMARK   13  A    between atoms: _31  and  _32
REMARK   14  A    between atoms: _31  and  _33
REMARK   15  A    between atoms: _33  and  _34
REMARK   16  A    between atoms: _33  and  _35
REMARK   17  A    between atoms: _36  and  _38
REMARK                            x       y       z     vdW  Elec       q    Type
REMARK                         _______ _______ _______ _____ _____    ______ ____
ROOT
ATOM      1  C   UNL     1      -4.022  12.961  22.302  0.00  0.00    +0.163 C 
ENDROOT
BRANCH   1   2
ATOM      2  O   UNL     1      -5.123  13.318  21.450  0.00  0.00    -0.388 OA
ATOM      3  H   UNL     1      -5.245  12.639  20.782  0.00  0.00    +0.210 HD
ENDBRANCH   1   2
BRANCH   1   4
ATOM      4  C   UNL     1      -3.256  11.787  21.701  0.00  0.00    +0.141 C 
BRANCH   4   7
ATOM      5  C   UNL     1      -3.803   9.445  22.267  0.00  0.00    +0.401 C 
ATOM      6  O   UNL     1      -4.370   9.219  21.195  0.00  0.00    -0.226 OA
ATOM      7  N   UNL     1      -3.259  10.619  22.590  0.00  0.00    -0.279 N 
ATOM      8  H   UNL     1      -2.825  10.710  23.497  0.00  0.00    +0.152 HD
BRANCH   5   9
ATOM      9  O   UNL     1      -3.716   8.401  23.240  0.00  0.00    -0.444 OA
BRANCH   9  10
ATOM     10  C   UNL     1      -4.459   8.769  24.404  0.00  0.00    +0.292 C 
BRANCH  10  12
ATOM     11  N   UNL     1      -2.681   9.898  25.708  0.00  0.00    -0.131 NA
ATOM     12  C   UNL     1      -3.567   8.861  25.577  0.00  0.00    +0.120 A 
ATOM     13  C   UNL     1      -3.470   8.045  26.681  0.00  0.00    +0.137 A 
ATOM     14  N   UNL     1      -2.550   8.668  27.474  0.00  0.00    -0.247 N 
ATOM     15  N   UNL     1      -2.068   9.774  26.877  0.00  0.00    -0.065 NA
BRANCH  14  16
ATOM     16  C   UNL     1      -2.263   8.407  28.873  0.00  0.00    +0.180 C 
BRANCH  16  17
ATOM     17  C   UNL     1      -3.141   9.185  29.822  0.00  0.00    -0.025 A 
ATOM     18  C   UNL     1      -4.459   8.777  30.082  0.00  0.00    +0.005 A 
ATOM     19  C   UNL     1      -5.237   9.449  31.031  0.00  0.00    +0.001 A 
ATOM     20  C   UNL     1      -4.708  10.535  31.728  0.00  0.00    +0.015 A 
ATOM     21  C   UNL     1      -3.407  10.950  31.467  0.00  0.00    +0.018 A 
ATOM     22 BR   UNL     1      -2.683  12.416  32.418  0.00  0.00    -0.050 Br
ATOM     23  C   UNL     1      -2.622  10.285  30.522  0.00  0.00    +0.020 A 
ENDBRANCH  16  17
ENDBRANCH  14  16
ENDBRANCH  10  12
ENDBRANCH   9  10
ENDBRANCH   5   9
ENDBRANCH   4   7
ENDBRANCH   1   4
BRANCH   1  24
ATOM     24  C   UNL     1      -4.515  12.587  23.710  0.00  0.00    +0.175 C 
BRANCH  24  25
ATOM     25  C   UNL     1      -5.681  13.474  24.169  0.00  0.00    +0.176 C 
ATOM     26  O   UNL     1      -5.427  14.826  23.699  0.00  0.00    -0.332 OA
ATOM     27  C   UNL     1      -6.494  15.798  23.956  0.00  0.00    +0.277 C 
ATOM     28  C   UNL     1      -6.851  15.825  25.462  0.00  0.00    +0.110 C 
ATOM     29  C   UNL     1      -7.099  14.406  26.015  0.00  0.00    +0.143 C 
ATOM     30  C   UNL     1      -5.928  13.478  25.689  0.00  0.00    +0.133 C 
BRANCH  30  31
ATOM     31  N   UNL     1      -6.215  12.108  26.144  0.00  0.00    -0.308 N 
ATOM     32  H   UNL     1      -6.914  11.580  25.641  0.00  0.00    +0.149 HD
ATOM     33  C   UNL     1      -5.611  11.517  27.179  0.00  0.00    +0.210 C 
ATOM     34  C   UNL     1      -4.570  12.357  27.941  0.00  0.00    +0.109 C 
ATOM     35  O   UNL     1      -5.861  10.363  27.528  0.00  0.00    -0.276 OA
ENDBRANCH  30  31
BRANCH  27  36
ATOM     36  C   UNL     1      -7.755  15.455  23.134  0.00  0.00    +0.414 C 
ATOM     37  O   UNL     1      -8.867  15.794  23.535  0.00  0.00    -0.240 OA
ATOM     38  O   UNL     1      -7.658  14.840  22.071  0.00  0.00    -0.240 OA
ENDBRANCH  27  36
BRANCH  27  39
ATOM     39  O   UNL     1      -6.007  17.111  23.577  0.00  0.00    -0.343 OA
ATOM     40  C   UNL     1      -5.026  17.115  22.509  0.00  0.00    +0.198 C 
ENDBRANCH  27  39
BRANCH  29  41
ATOM     41  O   UNL     1      -7.274  14.464  27.431  0.00  0.00    -0.390 OA
ATOM     42  H   UNL     1      -7.912  13.800  27.703  0.00  0.00    +0.210 HD
ENDBRANCH  29  41
ENDBRANCH  24  25
BRANCH  24  43
ATOM     43  O   UNL     1      -3.428  12.668  24.654  0.00  0.00    -0.387 OA
ATOM     44  H   UNL     1      -3.375  13.559  25.006  0.00  0.00    +0.210 HD
ENDBRANCH  24  43
ENDBRANCH   1  24
TORSDOF 15
