REMARK VINA RESULT:    -4.561      3.671      5.895
REMARK INTER + INTRA:         -11.267
REMARK INTER:                  -8.185
REMARK INTRA:                  -3.083
REMARK UNBOUND:                -3.373
REMARK  Name = lig_assembled_27.pdb
REMARK  16 active torsions:
REMARK  status: ('A' for Active; 'I' for Inactive)
REMARK    1  A    between atoms: _2  and  _9
REMARK    2  A    between atoms: _4  and  _18
REMARK    3  A    between atoms: _6  and  _7
REMARK    4  A    between atoms: _6  and  _18
REMARK    5  A    between atoms: _14  and  _34
REMARK    6  A    between atoms: _16  and  _22
REMARK    7  A    between atoms: _17  and  _21
REMARK    8  A    between atoms: _21  and  _22
REMARK    9  A    between atoms: _24  and  _25
REMARK   10  A    between atoms: _26  and  _27
REMARK   11  A    between atoms: _28  and  _30
REMARK   12  A    between atoms: _30  and  _31
REMARK   13  A    between atoms: _30  and  _32
REMARK   14  A    between atoms: _32  and  _33
REMARK   15  A    between atoms: _32  and  _34
REMARK   16  A    between atoms: _35  and  _37
REMARK                            x       y       z     vdW  Elec       q    Type
REMARK                         _______ _______ _______ _____ _____    ______ ____
ROOT
ATOM      1  C   UNL     1      -2.764  11.747  24.878  0.00  0.00    +0.163 C 
ENDROOT
BRANCH   1   2
ATOM      2  O   UNL     1      -2.948  11.579  26.293  0.00  0.00    -0.388 OA
ATOM      3  H   UNL     1      -2.092  11.539  26.725  0.00  0.00    +0.210 HD
ENDBRANCH   1   2
BRANCH   1   4
ATOM      4  C   UNL     1      -2.868  13.224  24.510  0.00  0.00    +0.141 C 
BRANCH   4   7
ATOM      5  C   UNL     1      -4.072  14.286  22.632  0.00  0.00    +0.401 C 
ATOM      6  O   UNL     1      -3.073  14.862  22.195  0.00  0.00    -0.226 OA
ATOM      7  N   UNL     1      -4.069  13.505  23.713  0.00  0.00    -0.279 N 
ATOM      8  H   UNL     1      -4.941  13.084  24.000  0.00  0.00    +0.152 HD
BRANCH   5   9
ATOM      9  O   UNL     1      -5.322  14.455  21.958  0.00  0.00    -0.444 OA
BRANCH   9  10
ATOM     10  C   UNL     1      -5.986  13.192  21.860  0.00  0.00    +0.292 C 
BRANCH  10  12
ATOM     11  N   UNL     1      -7.016  12.633  19.680  0.00  0.00    -0.131 NA
ATOM     12  C   UNL     1      -5.910  12.678  20.480  0.00  0.00    +0.121 A 
ATOM     13  C   UNL     1      -4.831  12.191  19.781  0.00  0.00    +0.143 A 
ATOM     14  N   UNL     1      -5.326  11.865  18.539  0.00  0.00    -0.220 N 
ATOM     15  N   UNL     1      -6.654  12.137  18.504  0.00  0.00    -0.060 NA
BRANCH  14  16
ATOM     16  C   UNL     1      -4.639  11.328  17.421  0.00  0.00    +0.068 A 
ATOM     17  C   UNL     1      -4.049  12.194  16.486  0.00  0.00    +0.028 A 
ATOM     18  C   UNL     1      -3.372  11.677  15.378  0.00  0.00    +0.003 A 
ATOM     19  C   UNL     1      -3.280  10.298  15.196  0.00  0.00    +0.020 A 
ATOM     20  C   UNL     1      -3.863   9.439  16.124  0.00  0.00    +0.043 A 
ATOM     21 CL   UNL     1      -3.748   7.736  15.900  0.00  0.00    -0.083 Cl
ATOM     22  C   UNL     1      -4.541   9.942  17.235  0.00  0.00    +0.047 A 
ENDBRANCH  14  16
ENDBRANCH  10  12
ENDBRANCH   9  10
ENDBRANCH   5   9
ENDBRANCH   4   7
ENDBRANCH   1   4
BRANCH   1  23
ATOM     23  C   UNL     1      -3.811  10.945  24.087  0.00  0.00    +0.175 C 
BRANCH  23  24
ATOM     24  C   UNL     1      -4.173   9.624  24.781  0.00  0.00    +0.176 C 
ATOM     25  O   UNL     1      -2.936   8.988  25.206  0.00  0.00    -0.332 OA
ATOM     26  C   UNL     1      -3.091   7.757  25.987  0.00  0.00    +0.277 C 
ATOM     27  C   UNL     1      -3.967   6.737  25.219  0.00  0.00    +0.110 C 
ATOM     28  C   UNL     1      -5.281   7.376  24.720  0.00  0.00    +0.143 C 
ATOM     29  C   UNL     1      -5.002   8.651  23.923  0.00  0.00    +0.133 C 
BRANCH  29  30
ATOM     30  N   UNL     1      -6.264   9.297  23.527  0.00  0.00    -0.308 N 
ATOM     31  H   UNL     1      -6.857   9.662  24.260  0.00  0.00    +0.149 HD
ATOM     32  C   UNL     1      -6.676   9.432  22.264  0.00  0.00    +0.210 C 
ATOM     33  C   UNL     1      -5.763   8.842  21.173  0.00  0.00    +0.109 C 
ATOM     34  O   UNL     1      -7.731   9.991  21.961  0.00  0.00    -0.276 OA
ENDBRANCH  29  30
BRANCH  26  35
ATOM     35  C   UNL     1      -3.730   8.057  27.359  0.00  0.00    +0.414 C 
ATOM     36  O   UNL     1      -3.516   9.129  27.922  0.00  0.00    -0.240 OA
ATOM     37  O   UNL     1      -4.460   7.226  27.902  0.00  0.00    -0.240 OA
ENDBRANCH  26  35
BRANCH  28  38
ATOM     38  O   UNL     1      -5.984   6.448  23.893  0.00  0.00    -0.390 OA
ATOM     39  H   UNL     1      -6.253   6.882  23.081  0.00  0.00    +0.210 HD
ENDBRANCH  28  38
BRANCH  26  40
ATOM     40  O   UNL     1      -1.775   7.178  26.177  0.00  0.00    -0.343 OA
ATOM     41  C   UNL     1      -1.759   5.739  26.353  0.00  0.00    +0.198 C 
ENDBRANCH  26  40
ENDBRANCH  23  24
BRANCH  23  42
ATOM     42  O   UNL     1      -3.335  10.689  22.750  0.00  0.00    -0.387 OA
ATOM     43  H   UNL     1      -2.607  11.282  22.550  0.00  0.00    +0.210 HD
ENDBRANCH  23  42
ENDBRANCH   1  23
TORSDOF 14
