REMARK VINA RESULT:    -4.594      4.061      8.034
REMARK INTER + INTRA:         -10.949
REMARK INTER:                  -8.095
REMARK INTRA:                  -2.853
REMARK UNBOUND:                -2.997
REMARK  Name = lig_assembled_15.pdb
REMARK  16 active torsions:
REMARK  status: ('A' for Active; 'I' for Inactive)
REMARK    1  A    between atoms: _2  and  _9
REMARK    2  A    between atoms: _4  and  _18
REMARK    3  A    between atoms: _6  and  _7
REMARK    4  A    between atoms: _6  and  _18
REMARK    5  A    between atoms: _14  and  _34
REMARK    6  A    between atoms: _16  and  _22
REMARK    7  A    between atoms: _17  and  _21
REMARK    8  A    between atoms: _21  and  _22
REMARK    9  A    between atoms: _24  and  _25
REMARK   10  A    between atoms: _26  and  _27
REMARK   11  A    between atoms: _28  and  _30
REMARK   12  A    between atoms: _30  and  _31
REMARK   13  A    between atoms: _30  and  _32
REMARK   14  A    between atoms: _32  and  _33
REMARK   15  A    between atoms: _32  and  _34
REMARK   16  A    between atoms: _35  and  _37
REMARK                            x       y       z     vdW  Elec       q    Type
REMARK                         _______ _______ _______ _____ _____    ______ ____
ROOT
ATOM      1  C   UNL     1      -5.094   7.338  23.884  0.00  0.00    +0.163 C 
ENDROOT
BRANCH   1   2
ATOM      2  O   UNL     1      -3.936   6.963  24.649  0.00  0.00    -0.388 OA
ATOM      3  H   UNL     1      -3.713   7.670  25.259  0.00  0.00    +0.210 HD
ENDBRANCH   1   2
BRANCH   1   4
ATOM      4  C   UNL     1      -5.162   6.515  22.602  0.00  0.00    +0.141 C 
BRANCH   4   7
ATOM      5  C   UNL     1      -7.084   6.996  21.126  0.00  0.00    +0.401 C 
ATOM      6  O   UNL     1      -7.803   6.124  21.621  0.00  0.00    -0.226 OA
ATOM      7  N   UNL     1      -5.834   7.243  21.519  0.00  0.00    -0.279 N 
ATOM      8  H   UNL     1      -5.320   7.973  21.045  0.00  0.00    +0.152 HD
BRANCH   5   9
ATOM      9  O   UNL     1      -7.600   7.799  20.061  0.00  0.00    -0.444 OA
BRANCH   9  10
ATOM     10  C   UNL     1      -7.251   9.168  20.284  0.00  0.00    +0.292 C 
BRANCH  10  12
ATOM     11  N   UNL     1      -5.363   8.980  18.696  0.00  0.00    -0.131 NA
ATOM     12  C   UNL     1      -6.438   9.678  19.164  0.00  0.00    +0.121 A 
ATOM     13  C   UNL     1      -6.579  10.832  18.426  0.00  0.00    +0.143 A 
ATOM     14  N   UNL     1      -5.573  10.780  17.489  0.00  0.00    -0.220 N 
ATOM     15  N   UNL     1      -4.839   9.657  17.683  0.00  0.00    -0.060 NA
BRANCH  14  16
ATOM     16  C   UNL     1      -5.294  11.690  16.435  0.00  0.00    +0.067 A 
ATOM     17  C   UNL     1      -6.225  11.912  15.410  0.00  0.00    +0.029 A 
ATOM     18  C   UNL     1      -5.915  12.780  14.358  0.00  0.00    +0.017 A 
ATOM     19  C   UNL     1      -4.682  13.429  14.332  0.00  0.00    +0.018 A 
ATOM     20 BR   UNL     1      -4.261  14.580  12.893  0.00  0.00    -0.050 Br
ATOM     21  C   UNL     1      -3.756  13.228  15.353  0.00  0.00    +0.017 A 
ATOM     22  C   UNL     1      -4.061  12.361  16.406  0.00  0.00    +0.029 A 
ENDBRANCH  14  16
ENDBRANCH  10  12
ENDBRANCH   9  10
ENDBRANCH   5   9
ENDBRANCH   4   7
ENDBRANCH   1   4
BRANCH   1  23
ATOM     23  C   UNL     1      -5.060   8.835  23.532  0.00  0.00    +0.175 C 
BRANCH  23  24
ATOM     24  C   UNL     1      -3.936   9.577  24.271  0.00  0.00    +0.176 C 
ATOM     25  O   UNL     1      -4.270   9.600  25.686  0.00  0.00    -0.332 OA
ATOM     26  C   UNL     1      -3.253  10.179  26.569  0.00  0.00    +0.277 C 
ATOM     27  C   UNL     1      -2.877  11.606  26.097  0.00  0.00    +0.110 C 
ATOM     28  C   UNL     1      -2.545  11.638  24.591  0.00  0.00    +0.143 C 
ATOM     29  C   UNL     1      -3.668  11.007  23.767  0.00  0.00    +0.133 C 
BRANCH  29  30
ATOM     30  N   UNL     1      -3.302  10.966  22.343  0.00  0.00    -0.308 N 
ATOM     31  H   UNL     1      -2.519  10.386  22.074  0.00  0.00    +0.149 HD
ATOM     32  C   UNL     1      -3.936  11.643  21.382  0.00  0.00    +0.210 C 
ATOM     33  C   UNL     1      -5.108  12.537  21.827  0.00  0.00    +0.109 C 
ATOM     34  O   UNL     1      -3.616  11.577  20.194  0.00  0.00    -0.276 OA
ENDBRANCH  29  30
BRANCH  26  35
ATOM     35  C   UNL     1      -1.988   9.297  26.600  0.00  0.00    +0.414 C 
ATOM     36  O   UNL     1      -2.086   8.071  26.558  0.00  0.00    -0.240 OA
ATOM     37  O   UNL     1      -0.870   9.809  26.666  0.00  0.00    -0.240 OA
ENDBRANCH  26  35
BRANCH  28  38
ATOM     38  O   UNL     1      -2.353  12.989  24.169  0.00  0.00    -0.390 OA
ATOM     39  H   UNL     1      -3.179  13.471  24.251  0.00  0.00    +0.210 HD
ENDBRANCH  28  38
BRANCH  26  40
ATOM     40  O   UNL     1      -3.817  10.272  27.903  0.00  0.00    -0.343 OA
ATOM     41  C   UNL     1      -4.701  11.401  28.116  0.00  0.00    +0.198 C 
ENDBRANCH  26  40
ENDBRANCH  23  24
BRANCH  23  42
ATOM     42  O   UNL     1      -6.333   9.444  23.826  0.00  0.00    -0.387 OA
ATOM     43  H   UNL     1      -6.951   9.253  23.116  0.00  0.00    +0.210 HD
ENDBRANCH  23  42
ENDBRANCH   1  23
TORSDOF 14
