REMARK VINA RESULT:    -4.938      4.485      8.268
REMARK INTER + INTRA:         -13.027
REMARK INTER:                  -9.785
REMARK INTRA:                  -3.242
REMARK UNBOUND:                -3.181
REMARK  Name = lig_assembled_76.pdb
REMARK  21 active torsions:
REMARK  status: ('A' for Active; 'I' for Inactive)
REMARK    1  A    between atoms: _2  and  _9
REMARK    2  A    between atoms: _4  and  _23
REMARK    3  A    between atoms: _6  and  _7
REMARK    4  A    between atoms: _6  and  _23
REMARK    5  A    between atoms: _9  and  _10
REMARK    6  A    between atoms: _10  and  _11
REMARK    7  A    between atoms: _10  and  _18
REMARK    8  A    between atoms: _11  and  _12
REMARK    9  A    between atoms: _12  and  _13
REMARK   10  A    between atoms: _19  and  _39
REMARK   11  A    between atoms: _21  and  _27
REMARK   12  A    between atoms: _22  and  _26
REMARK   13  A    between atoms: _26  and  _27
REMARK   14  A    between atoms: _29  and  _30
REMARK   15  A    between atoms: _31  and  _32
REMARK   16  A    between atoms: _33  and  _35
REMARK   17  A    between atoms: _35  and  _36
REMARK   18  A    between atoms: _35  and  _37
REMARK   19  A    between atoms: _37  and  _38
REMARK   20  A    between atoms: _37  and  _39
REMARK   21  A    between atoms: _40  and  _42
REMARK                            x       y       z     vdW  Elec       q    Type
REMARK                         _______ _______ _______ _____ _____    ______ ____
ROOT
ATOM      1  C   UNL     1      -7.163  11.553  17.150  0.00  0.00    +0.141 C 
ENDROOT
BRANCH   1   4
ATOM      2  C   UNL     1      -6.517  12.079  19.477  0.00  0.00    +0.401 C 
ATOM      3  O   UNL     1      -7.333  12.996  19.596  0.00  0.00    -0.226 OA
ATOM      4  N   UNL     1      -6.365  11.355  18.367  0.00  0.00    -0.279 N 
ATOM      5  H   UNL     1      -5.662  10.630  18.362  0.00  0.00    +0.152 HD
BRANCH   2   6
ATOM      6  O   UNL     1      -5.668  11.757  20.581  0.00  0.00    -0.444 OA
BRANCH   6   7
ATOM      7  C   UNL     1      -6.220  10.651  21.301  0.00  0.00    +0.292 C 
BRANCH   7   9
ATOM      8  N   UNL     1      -3.911  10.174  22.068  0.00  0.00    -0.131 NA
ATOM      9  C   UNL     1      -5.261  10.162  22.306  0.00  0.00    +0.120 A 
ATOM     10  C   UNL     1      -5.494   9.634  23.557  0.00  0.00    +0.137 A 
ATOM     11  N   UNL     1      -4.250   9.350  24.026  0.00  0.00    -0.249 N 
ATOM     12  N   UNL     1      -3.300   9.664  23.130  0.00  0.00    -0.065 NA
BRANCH  11  13
ATOM     13  C   UNL     1      -3.902   8.663  25.250  0.00  0.00    +0.176 C 
BRANCH  13  14
ATOM     14  C   UNL     1      -3.209   9.574  26.269  0.00  0.00    +0.136 C 
BRANCH  14  15
ATOM     15  O   UNL     1      -1.986  10.088  25.722  0.00  0.00    -0.390 OA
ATOM     16  H   UNL     1      -2.191  10.645  24.951  0.00  0.00    +0.210 HD
ENDBRANCH  14  15
BRANCH  14  17
ATOM     17  C   UNL     1      -4.077  10.778  26.667  0.00  0.00    +0.038 C 
BRANCH  17  18
ATOM     18  C   UNL     1      -3.384  12.124  26.455  0.00  0.00    +0.038 C 
BRANCH  18  19
ATOM     19  C   UNL     1      -3.910  12.849  25.243  0.00  0.00    -0.047 A 
ATOM     20  C   UNL     1      -3.076  13.080  24.140  0.00  0.00    +0.003 A 
ATOM     21  C   UNL     1      -3.565  13.735  23.009  0.00  0.00    +0.000 A 
ATOM     22  C   UNL     1      -4.888  14.168  22.972  0.00  0.00    +0.000 A 
ATOM     23  C   UNL     1      -5.722  13.952  24.069  0.00  0.00    +0.000 A 
ATOM     24  C   UNL     1      -5.235  13.299  25.201  0.00  0.00    +0.003 A 
ENDBRANCH  18  19
ENDBRANCH  17  18
ENDBRANCH  14  17
ENDBRANCH  13  14
ENDBRANCH  11  13
ENDBRANCH   7   9
ENDBRANCH   6   7
ENDBRANCH   2   6
ENDBRANCH   1   4
BRANCH   1  25
ATOM     25  C   UNL     1      -6.333  11.352  15.887  0.00  0.00    +0.163 C 
BRANCH  25  26
ATOM     26  O   UNL     1      -5.506  12.503  15.653  0.00  0.00    -0.388 OA
ATOM     27  H   UNL     1      -5.125  12.451  14.773  0.00  0.00    +0.210 HD
ENDBRANCH  25  26
BRANCH  25  28
ATOM     28  C   UNL     1      -5.479  10.080  16.030  0.00  0.00    +0.175 C 
BRANCH  28  29
ATOM     29  C   UNL     1      -4.398   9.985  14.944  0.00  0.00    +0.176 C 
ATOM     30  O   UNL     1      -4.926  10.593  13.733  0.00  0.00    -0.332 OA
ATOM     31  C   UNL     1      -3.988  10.688  12.610  0.00  0.00    +0.277 C 
ATOM     32  C   UNL     1      -3.395   9.296  12.281  0.00  0.00    +0.110 C 
ATOM     33  C   UNL     1      -2.850   8.596  13.543  0.00  0.00    +0.143 C 
ATOM     34  C   UNL     1      -3.907   8.556  14.648  0.00  0.00    +0.133 C 
BRANCH  34  35
ATOM     35  N   UNL     1      -3.348   7.965  15.874  0.00  0.00    -0.308 N 
ATOM     36  H   UNL     1      -2.689   8.516  16.406  0.00  0.00    +0.149 HD
ATOM     37  C   UNL     1      -3.654   6.747  16.330  0.00  0.00    +0.210 C 
ATOM     38  C   UNL     1      -4.641   5.921  15.484  0.00  0.00    +0.109 C 
ATOM     39  O   UNL     1      -3.181   6.284  17.369  0.00  0.00    -0.276 OA
ENDBRANCH  34  35
BRANCH  31  40
ATOM     40  C   UNL     1      -2.844  11.672  12.935  0.00  0.00    +0.414 C 
ATOM     41  O   UNL     1      -1.776  11.602  12.329  0.00  0.00    -0.240 OA
ATOM     42  O   UNL     1      -2.990  12.534  13.802  0.00  0.00    -0.240 OA
ENDBRANCH  31  40
BRANCH  33  43
ATOM     43  O   UNL     1      -2.454   7.262  13.222  0.00  0.00    -0.390 OA
ATOM     44  H   UNL     1      -3.228   6.746  12.988  0.00  0.00    +0.210 HD
ENDBRANCH  33  43
BRANCH  31  45
ATOM     45  O   UNL     1      -4.722  11.159  11.451  0.00  0.00    -0.343 OA
ATOM     46  C   UNL     1      -4.579  10.341  10.262  0.00  0.00    +0.198 C 
ENDBRANCH  31  45
ENDBRANCH  28  29
BRANCH  28  47
ATOM     47  O   UNL     1      -6.321   8.910  15.998  0.00  0.00    -0.387 OA
ATOM     48  H   UNL     1      -6.679   8.798  15.115  0.00  0.00    +0.210 HD
ENDBRANCH  28  47
ENDBRANCH  25  28
ENDBRANCH   1  25
TORSDOF 19
