REMARK VINA RESULT:    -4.468      4.229      7.378
REMARK INTER + INTRA:         -10.838
REMARK INTER:                  -8.586
REMARK INTRA:                  -2.252
REMARK UNBOUND:                -2.844
REMARK  Name = lig_assembled_44.pdb
REMARK  17 active torsions:
REMARK  status: ('A' for Active; 'I' for Inactive)
REMARK    1  A    between atoms: _2  and  _9
REMARK    2  A    between atoms: _4  and  _19
REMARK    3  A    between atoms: _6  and  _7
REMARK    4  A    between atoms: _6  and  _19
REMARK    5  A    between atoms: _9  and  _10
REMARK    6  A    between atoms: _15  and  _35
REMARK    7  A    between atoms: _17  and  _23
REMARK    8  A    between atoms: _18  and  _22
REMARK    9  A    between atoms: _22  and  _23
REMARK   10  A    between atoms: _25  and  _26
REMARK   11  A    between atoms: _27  and  _28
REMARK   12  A    between atoms: _29  and  _31
REMARK   13  A    between atoms: _31  and  _32
REMARK   14  A    between atoms: _31  and  _33
REMARK   15  A    between atoms: _33  and  _34
REMARK   16  A    between atoms: _33  and  _35
REMARK   17  A    between atoms: _36  and  _38
REMARK                            x       y       z     vdW  Elec       q    Type
REMARK                         _______ _______ _______ _____ _____    ______ ____
ROOT
ATOM      1  C   UNL     1      -2.860   9.248  27.815  0.00  0.00    +0.163 C 
ENDROOT
BRANCH   1   2
ATOM      2  O   UNL     1      -2.095   8.125  28.281  0.00  0.00    -0.388 OA
ATOM      3  H   UNL     1      -1.698   8.337  29.129  0.00  0.00    +0.210 HD
ENDBRANCH   1   2
BRANCH   1   4
ATOM      4  C   UNL     1      -2.235   9.813  26.543  0.00  0.00    +0.141 C 
BRANCH   4   7
ATOM      5  C   UNL     1      -3.020  11.734  25.202  0.00  0.00    +0.401 C 
ATOM      6  O   UNL     1      -1.994  12.395  25.375  0.00  0.00    -0.226 OA
ATOM      7  N   UNL     1      -3.221  10.520  25.716  0.00  0.00    -0.279 N 
ATOM      8  H   UNL     1      -4.101  10.061  25.526  0.00  0.00    +0.152 HD
BRANCH   5   9
ATOM      9  O   UNL     1      -4.075  12.285  24.409  0.00  0.00    -0.444 OA
BRANCH   9  10
ATOM     10  C   UNL     1      -3.531  12.845  23.212  0.00  0.00    +0.292 C 
BRANCH  10  12
ATOM     11  N   UNL     1      -3.169  10.907  21.709  0.00  0.00    -0.131 NA
ATOM     12  C   UNL     1      -3.895  12.019  22.045  0.00  0.00    +0.120 A 
ATOM     13  C   UNL     1      -4.936  12.162  21.157  0.00  0.00    +0.137 A 
ATOM     14  N   UNL     1      -4.835  11.064  20.354  0.00  0.00    -0.247 N 
ATOM     15  N   UNL     1      -3.748  10.334  20.662  0.00  0.00    -0.065 NA
BRANCH  14  16
ATOM     16  C   UNL     1      -5.724  10.648  19.287  0.00  0.00    +0.180 C 
BRANCH  16  17
ATOM     17  C   UNL     1      -5.068  10.789  17.934  0.00  0.00    -0.026 A 
ATOM     18  C   UNL     1      -4.699   9.654  17.195  0.00  0.00    +0.006 A 
ATOM     19  C   UNL     1      -4.077   9.787  15.952  0.00  0.00    +0.015 A 
ATOM     20  C   UNL     1      -3.821  11.058  15.439  0.00  0.00    +0.018 A 
ATOM     21 BR   UNL     1      -2.996  11.236  13.748  0.00  0.00    -0.050 Br
ATOM     22  C   UNL     1      -4.169  12.195  16.163  0.00  0.00    +0.015 A 
ATOM     23  C   UNL     1      -4.786  12.061  17.411  0.00  0.00    +0.006 A 
ENDBRANCH  16  17
ENDBRANCH  14  16
ENDBRANCH  10  12
ENDBRANCH   9  10
ENDBRANCH   5   9
ENDBRANCH   4   7
ENDBRANCH   1   4
BRANCH   1  24
ATOM     24  C   UNL     1      -2.929  10.349  28.886  0.00  0.00    +0.175 C 
BRANCH  24  25
ATOM     25  C   UNL     1      -3.204   9.778  30.285  0.00  0.00    +0.176 C 
ATOM     26  O   UNL     1      -4.189   8.718  30.150  0.00  0.00    -0.332 OA
ATOM     27  C   UNL     1      -4.499   7.980  31.378  0.00  0.00    +0.277 C 
ATOM     28  C   UNL     1      -4.931   8.956  32.501  0.00  0.00    +0.110 C 
ATOM     29  C   UNL     1      -3.929  10.119  32.661  0.00  0.00    +0.143 C 
ATOM     30  C   UNL     1      -3.677  10.814  31.322  0.00  0.00    +0.133 C 
BRANCH  30  31
ATOM     31  N   UNL     1      -2.657  11.863  31.471  0.00  0.00    -0.308 N 
ATOM     32  H   UNL     1      -1.696  11.573  31.590  0.00  0.00    +0.149 HD
ATOM     33  C   UNL     1      -2.916  13.173  31.458  0.00  0.00    +0.210 C 
ATOM     34  C   UNL     1      -4.393  13.582  31.300  0.00  0.00    +0.109 C 
ATOM     35  O   UNL     1      -2.039  14.030  31.570  0.00  0.00    -0.276 OA
ENDBRANCH  30  31
BRANCH  27  36
ATOM     36  C   UNL     1      -3.279   7.161  31.847  0.00  0.00    +0.414 C 
ATOM     37  O   UNL     1      -3.102   6.943  33.045  0.00  0.00    -0.240 OA
ATOM     38  O   UNL     1      -2.472   6.720  31.029  0.00  0.00    -0.240 OA
ENDBRANCH  27  36
BRANCH  27  39
ATOM     39  O   UNL     1      -5.608   7.087  31.097  0.00  0.00    -0.343 OA
ATOM     40  C   UNL     1      -6.610   7.620  30.195  0.00  0.00    +0.198 C 
ENDBRANCH  27  39
BRANCH  29  41
ATOM     41  O   UNL     1      -4.440  11.069  33.596  0.00  0.00    -0.390 OA
ATOM     42  H   UNL     1      -4.677  11.877  33.135  0.00  0.00    +0.210 HD
ENDBRANCH  29  41
ENDBRANCH  24  25
BRANCH  24  43
ATOM     43  O   UNL     1      -3.939  11.318  28.538  0.00  0.00    -0.387 OA
ATOM     44  H   UNL     1      -4.656  10.880  28.074  0.00  0.00    +0.210 HD
ENDBRANCH  24  43
ENDBRANCH   1  24
TORSDOF 15
