REMARK VINA RESULT:    -3.881      2.833      8.435
REMARK INTER + INTRA:         -10.151
REMARK INTER:                  -7.397
REMARK INTRA:                  -2.754
REMARK UNBOUND:                -2.754
REMARK  Name = lig_assembled_19.pdb
REMARK  20 active torsions:
REMARK  status: ('A' for Active; 'I' for Inactive)
REMARK    1  A    between atoms: _2  and  _9
REMARK    2  A    between atoms: _4  and  _18
REMARK    3  A    between atoms: _5  and  _11
REMARK    4  A    between atoms: _6  and  _7
REMARK    5  A    between atoms: _6  and  _18
REMARK    6  A    between atoms: _9  and  _10
REMARK    7  A    between atoms: _10  and  _13
REMARK    8  A    between atoms: _11  and  _13
REMARK    9  A    between atoms: _14  and  _34
REMARK   10  A    between atoms: _16  and  _22
REMARK   11  A    between atoms: _17  and  _21
REMARK   12  A    between atoms: _21  and  _22
REMARK   13  A    between atoms: _24  and  _25
REMARK   14  A    between atoms: _26  and  _27
REMARK   15  A    between atoms: _28  and  _30
REMARK   16  A    between atoms: _30  and  _31
REMARK   17  A    between atoms: _30  and  _32
REMARK   18  A    between atoms: _32  and  _33
REMARK   19  A    between atoms: _32  and  _34
REMARK   20  A    between atoms: _35  and  _37
REMARK                            x       y       z     vdW  Elec       q    Type
REMARK                         _______ _______ _______ _____ _____    ______ ____
ROOT
ATOM      1  C   UNL     1      -2.819  11.700  24.792  0.00  0.00    +0.163 C 
ENDROOT
BRANCH   1   2
ATOM      2  O   UNL     1      -3.050  11.579  26.205  0.00  0.00    -0.388 OA
ATOM      3  H   UNL     1      -3.769  12.160  26.463  0.00  0.00    +0.210 HD
ENDBRANCH   1   2
BRANCH   1   4
ATOM      4  C   UNL     1      -3.725  10.741  24.001  0.00  0.00    +0.175 C 
BRANCH   4   5
ATOM      5  C   UNL     1      -4.116   9.505  24.825  0.00  0.00    +0.176 C 
ATOM      6  O   UNL     1      -2.892   8.849  25.256  0.00  0.00    -0.332 OA
ATOM      7  C   UNL     1      -3.069   7.700  26.150  0.00  0.00    +0.277 C 
ATOM      8  C   UNL     1      -4.023   6.661  25.512  0.00  0.00    +0.110 C 
ATOM      9  C   UNL     1      -5.326   7.317  25.009  0.00  0.00    +0.143 C 
ATOM     10  C   UNL     1      -5.025   8.502  24.090  0.00  0.00    +0.133 C 
BRANCH  10  11
ATOM     11  N   UNL     1      -6.271   9.171  23.688  0.00  0.00    -0.308 N 
ATOM     12  H   UNL     1      -6.812   9.632  24.406  0.00  0.00    +0.149 HD
ATOM     13  C   UNL     1      -6.735   9.210  22.435  0.00  0.00    +0.210 C 
ATOM     14  C   UNL     1      -5.901   8.476  21.369  0.00  0.00    +0.109 C 
ATOM     15  O   UNL     1      -7.775   9.791  22.125  0.00  0.00    -0.276 OA
ENDBRANCH  10  11
BRANCH   7  16
ATOM     16  C   UNL     1      -3.634   8.150  27.513  0.00  0.00    +0.414 C 
ATOM     17  O   UNL     1      -3.299   9.230  27.998  0.00  0.00    -0.240 OA
ATOM     18  O   UNL     1      -4.424   7.432  28.128  0.00  0.00    -0.240 OA
ENDBRANCH   7  16
BRANCH   9  19
ATOM     19  O   UNL     1      -6.105   6.355  24.296  0.00  0.00    -0.390 OA
ATOM     20  H   UNL     1      -6.188   6.626  23.379  0.00  0.00    +0.210 HD
ENDBRANCH   9  19
BRANCH   7  21
ATOM     21  O   UNL     1      -1.773   7.076  26.340  0.00  0.00    -0.343 OA
ATOM     22  C   UNL     1      -1.775   5.628  26.270  0.00  0.00    +0.198 C 
ENDBRANCH   7  21
ENDBRANCH   4   5
BRANCH   4  23
ATOM     23  O   UNL     1      -3.075  10.337  22.779  0.00  0.00    -0.387 OA
ATOM     24  H   UNL     1      -2.706   9.458  22.888  0.00  0.00    +0.210 HD
ENDBRANCH   4  23
ENDBRANCH   1   4
BRANCH   1  25
ATOM     25  C   UNL     1      -3.080  13.134  24.342  0.00  0.00    +0.141 C 
BRANCH  25  28
ATOM     26  C   UNL     1      -3.991  14.153  22.284  0.00  0.00    +0.401 C 
ATOM     27  O   UNL     1      -3.203  15.101  22.292  0.00  0.00    -0.226 OA
ATOM     28  N   UNL     1      -4.009  13.191  23.207  0.00  0.00    -0.279 N 
ATOM     29  H   UNL     1      -4.701  12.459  23.120  0.00  0.00    +0.152 HD
BRANCH  26  30
ATOM     30  O   UNL     1      -4.957  14.062  21.234  0.00  0.00    -0.444 OA
BRANCH  30  31
ATOM     31  C   UNL     1      -5.586  12.779  21.273  0.00  0.00    +0.292 C 
BRANCH  31  33
ATOM     32  N   UNL     1      -6.601  12.448  19.036  0.00  0.00    -0.131 NA
ATOM     33  C   UNL     1      -5.599  12.170  19.930  0.00  0.00    +0.120 A 
ATOM     34  C   UNL     1      -4.711  11.293  19.350  0.00  0.00    +0.137 A 
ATOM     35  N   UNL     1      -5.234  11.069  18.113  0.00  0.00    -0.248 N 
ATOM     36  N   UNL     1      -6.365  11.766  17.923  0.00  0.00    -0.065 NA
BRANCH  35  37
ATOM     37  C   UNL     1      -4.706  10.221  17.066  0.00  0.00    +0.186 C 
BRANCH  37  38
ATOM     38  C   UNL     1      -3.884  11.014  16.055  0.00  0.00    +0.255 C 
BRANCH  38  39
ATOM     39  O   UNL     1      -4.475  10.998  14.740  0.00  0.00    -0.463 OA
BRANCH  39  40
ATOM     40  C   UNL     1      -4.574  12.202  14.117  0.00  0.00    +0.304 C 
ATOM     41  O   UNL     1      -5.001  12.369  12.983  0.00  0.00    -0.251 OA
ATOM     42  C   UNL     1      -4.121  13.310  15.018  0.00  0.00    +0.136 C 
ENDBRANCH  39  40
ENDBRANCH  38  39
ENDBRANCH  37  38
ENDBRANCH  35  37
ENDBRANCH  31  33
ENDBRANCH  30  31
ENDBRANCH  26  30
ENDBRANCH  25  28
ENDBRANCH   1  25
TORSDOF 17
