REMARK VINA RESULT:    -4.559      2.859      5.372
REMARK INTER + INTRA:         -10.855
REMARK INTER:                  -7.177
REMARK INTRA:                  -3.678
REMARK UNBOUND:                -2.299
REMARK  Name = lig_assembled_32.pdb
REMARK  19 active torsions:
REMARK  status: ('A' for Active; 'I' for Inactive)
REMARK    1  A    between atoms: _2  and  _9
REMARK    2  A    between atoms: _4  and  _17
REMARK    3  A    between atoms: _5  and  _10
REMARK    4  A    between atoms: _5  and  _11
REMARK    5  A    between atoms: _6  and  _7
REMARK    6  A    between atoms: _6  and  _17
REMARK    7  A    between atoms: _9  and  _10
REMARK    8  A    between atoms: _13  and  _33
REMARK    9  A    between atoms: _15  and  _21
REMARK   10  A    between atoms: _16  and  _20
REMARK   11  A    between atoms: _20  and  _21
REMARK   12  A    between atoms: _23  and  _24
REMARK   13  A    between atoms: _25  and  _26
REMARK   14  A    between atoms: _27  and  _29
REMARK   15  A    between atoms: _29  and  _30
REMARK   16  A    between atoms: _29  and  _31
REMARK   17  A    between atoms: _31  and  _32
REMARK   18  A    between atoms: _31  and  _33
REMARK   19  A    between atoms: _34  and  _36
REMARK                            x       y       z     vdW  Elec       q    Type
REMARK                         _______ _______ _______ _____ _____    ______ ____
ROOT
ATOM      1  C   UNL     1      -2.169  10.110  27.182  0.00  0.00    +0.163 C 
ENDROOT
BRANCH   1   2
ATOM      2  O   UNL     1      -1.062   9.803  26.319  0.00  0.00    -0.388 OA
ATOM      3  H   UNL     1      -0.848   8.870  26.391  0.00  0.00    +0.210 HD
ENDBRANCH   1   2
BRANCH   1   4
ATOM      4  C   UNL     1      -3.499  10.062  26.410  0.00  0.00    +0.175 C 
BRANCH   4   5
ATOM      5  C   UNL     1      -4.412  11.246  26.757  0.00  0.00    +0.176 C 
ATOM      6  O   UNL     1      -5.308  10.823  27.821  0.00  0.00    -0.332 OA
ATOM      7  C   UNL     1      -6.190  11.863  28.359  0.00  0.00    +0.277 C 
ATOM      8  C   UNL     1      -7.005  12.524  27.221  0.00  0.00    +0.110 C 
ATOM      9  C   UNL     1      -6.098  12.963  26.052  0.00  0.00    +0.143 C 
ATOM     10  C   UNL     1      -5.222  11.805  25.572  0.00  0.00    +0.133 C 
BRANCH  10  11
ATOM     11  N   UNL     1      -4.301  12.257  24.517  0.00  0.00    -0.308 N 
ATOM     12  H   UNL     1      -3.647  12.992  24.746  0.00  0.00    +0.149 HD
ATOM     13  C   UNL     1      -4.274  11.760  23.278  0.00  0.00    +0.210 C 
ATOM     14  C   UNL     1      -5.302  10.659  22.953  0.00  0.00    +0.109 C 
ATOM     15  O   UNL     1      -3.482  12.148  22.419  0.00  0.00    -0.276 OA
ENDBRANCH  10  11
BRANCH   7  16
ATOM     16  C   UNL     1      -5.373  12.942  29.102  0.00  0.00    +0.414 C 
ATOM     17  O   UNL     1      -4.386  12.625  29.764  0.00  0.00    -0.240 OA
ATOM     18  O   UNL     1      -5.701  14.127  29.038  0.00  0.00    -0.240 OA
ENDBRANCH   7  16
BRANCH   7  19
ATOM     19  O   UNL     1      -7.118  11.234  29.280  0.00  0.00    -0.343 OA
ATOM     20  C   UNL     1      -7.544   9.900  28.903  0.00  0.00    +0.198 C 
ENDBRANCH   7  19
BRANCH   9  21
ATOM     21  O   UNL     1      -6.901  13.426  24.966  0.00  0.00    -0.390 OA
ATOM     22  H   UNL     1      -7.638  13.938  25.308  0.00  0.00    +0.210 HD
ENDBRANCH   9  21
ENDBRANCH   4   5
BRANCH   4  23
ATOM     23  O   UNL     1      -4.179   8.817  26.669  0.00  0.00    -0.387 OA
ATOM     24  H   UNL     1      -3.538   8.103  26.705  0.00  0.00    +0.210 HD
ENDBRANCH   4  23
ENDBRANCH   1   4
BRANCH   1  25
ATOM     25  C   UNL     1      -2.217   9.119  28.341  0.00  0.00    +0.141 C 
BRANCH  25  28
ATOM     26  C   UNL     1      -3.998   8.960  30.046  0.00  0.00    +0.401 C 
ATOM     27  O   UNL     1      -4.371   7.840  29.688  0.00  0.00    -0.226 OA
ATOM     28  N   UNL     1      -3.003   9.634  29.469  0.00  0.00    -0.279 N 
ATOM     29  H   UNL     1      -2.776  10.551  29.829  0.00  0.00    +0.152 HD
BRANCH  26  30
ATOM     30  O   UNL     1      -4.661   9.595  31.143  0.00  0.00    -0.444 OA
BRANCH  30  31
ATOM     31  C   UNL     1      -3.822   9.548  32.300  0.00  0.00    +0.292 C 
BRANCH  31  33
ATOM     32  N   UNL     1      -2.113  11.309  31.981  0.00  0.00    -0.131 NA
ATOM     33  C   UNL     1      -3.267  10.884  32.586  0.00  0.00    +0.120 A 
ATOM     34  C   UNL     1      -3.727  11.875  33.425  0.00  0.00    +0.137 A 
ATOM     35  N   UNL     1      -2.805  12.867  33.293  0.00  0.00    -0.251 N 
ATOM     36  N   UNL     1      -1.837  12.527  32.425  0.00  0.00    -0.065 NA
BRANCH  35  37
ATOM     37  C   UNL     1      -2.776  14.156  33.948  0.00  0.00    +0.156 C 
BRANCH  37  38
ATOM     38  C   UNL     1      -4.021  14.978  33.644  0.00  0.00    +0.143 C 
BRANCH  38  39
ATOM     39  C   UNL     1      -4.129  15.229  32.168  0.00  0.00    +0.306 C 
ATOM     40  O   UNL     1      -3.206  15.578  31.450  0.00  0.00    -0.251 OA
BRANCH  39  41
ATOM     41  O   UNL     1      -5.382  15.040  31.696  0.00  0.00    -0.481 OA
ATOM     42  H   UNL     1      -6.027  14.753  32.372  0.00  0.00    +0.295 HD
ENDBRANCH  39  41
ENDBRANCH  38  39
ENDBRANCH  37  38
ENDBRANCH  35  37
ENDBRANCH  31  33
ENDBRANCH  30  31
ENDBRANCH  26  30
ENDBRANCH  25  28
ENDBRANCH   1  25
TORSDOF 17
