REMARK VINA RESULT:    -4.869      4.583      8.636
REMARK INTER + INTRA:         -11.424
REMARK INTER:                  -8.829
REMARK INTRA:                  -2.595
REMARK UNBOUND:                -2.997
REMARK  Name = lig_assembled_15.pdb
REMARK  16 active torsions:
REMARK  status: ('A' for Active; 'I' for Inactive)
REMARK    1  A    between atoms: _2  and  _9
REMARK    2  A    between atoms: _4  and  _18
REMARK    3  A    between atoms: _6  and  _7
REMARK    4  A    between atoms: _6  and  _18
REMARK    5  A    between atoms: _14  and  _34
REMARK    6  A    between atoms: _16  and  _22
REMARK    7  A    between atoms: _17  and  _21
REMARK    8  A    between atoms: _21  and  _22
REMARK    9  A    between atoms: _24  and  _25
REMARK   10  A    between atoms: _26  and  _27
REMARK   11  A    between atoms: _28  and  _30
REMARK   12  A    between atoms: _30  and  _31
REMARK   13  A    between atoms: _30  and  _32
REMARK   14  A    between atoms: _32  and  _33
REMARK   15  A    between atoms: _32  and  _34
REMARK   16  A    between atoms: _35  and  _37
REMARK                            x       y       z     vdW  Elec       q    Type
REMARK                         _______ _______ _______ _____ _____    ______ ____
ROOT
ATOM      1  C   UNL     1      -3.102  12.784  33.042  0.00  0.00    +0.163 C 
ENDROOT
BRANCH   1   2
ATOM      2  O   UNL     1      -2.637  13.157  34.349  0.00  0.00    -0.388 OA
ATOM      3  H   UNL     1      -2.103  12.447  34.714  0.00  0.00    +0.210 HD
ENDBRANCH   1   2
BRANCH   1   4
ATOM      4  C   UNL     1      -2.110  11.828  32.388  0.00  0.00    +0.141 C 
BRANCH   4   7
ATOM      5  C   UNL     1      -3.150   9.757  31.530  0.00  0.00    +0.401 C 
ATOM      6  O   UNL     1      -3.030   9.144  32.593  0.00  0.00    -0.226 OA
ATOM      7  N   UNL     1      -2.743  11.013  31.343  0.00  0.00    -0.279 N 
ATOM      8  H   UNL     1      -2.877  11.428  30.432  0.00  0.00    +0.152 HD
BRANCH   5   9
ATOM      9  O   UNL     1      -3.757   9.100  30.415  0.00  0.00    -0.444 OA
BRANCH   9  10
ATOM     10  C   UNL     1      -2.777   8.315  29.731  0.00  0.00    +0.292 C 
BRANCH  10  12
ATOM     11  N   UNL     1      -1.546   8.358  27.585  0.00  0.00    -0.131 NA
ATOM     12  C   UNL     1      -2.525   8.868  28.386  0.00  0.00    +0.121 A 
ATOM     13  C   UNL     1      -3.159   9.894  27.723  0.00  0.00    +0.143 A 
ATOM     14  N   UNL     1      -2.545   9.955  26.493  0.00  0.00    -0.220 N 
ATOM     15  N   UNL     1      -1.560   9.026  26.439  0.00  0.00    -0.060 NA
BRANCH  14  16
ATOM     16  C   UNL     1      -2.848  10.796  25.390  0.00  0.00    +0.067 A 
ATOM     17  C   UNL     1      -2.526  12.161  25.415  0.00  0.00    +0.029 A 
ATOM     18  C   UNL     1      -2.870  12.982  24.336  0.00  0.00    +0.017 A 
ATOM     19  C   UNL     1      -3.529  12.442  23.234  0.00  0.00    +0.018 A 
ATOM     20 BR   UNL     1      -4.014  13.565  21.792  0.00  0.00    -0.050 Br
ATOM     21  C   UNL     1      -3.841  11.085  23.192  0.00  0.00    +0.017 A 
ATOM     22  C   UNL     1      -3.499  10.260  24.267  0.00  0.00    +0.029 A 
ENDBRANCH  14  16
ENDBRANCH  10  12
ENDBRANCH   9  10
ENDBRANCH   5   9
ENDBRANCH   4   7
ENDBRANCH   1   4
BRANCH   1  23
ATOM     23  C   UNL     1      -3.286  14.024  32.149  0.00  0.00    +0.175 C 
BRANCH  23  24
ATOM     24  C   UNL     1      -4.606  13.980  31.365  0.00  0.00    +0.176 C 
ATOM     25  O   UNL     1      -4.332  13.401  30.060  0.00  0.00    -0.332 OA
ATOM     26  C   UNL     1      -5.502  13.182  29.205  0.00  0.00    +0.277 C 
ATOM     27  C   UNL     1      -6.302  14.496  29.036  0.00  0.00    +0.110 C 
ATOM     28  C   UNL     1      -6.590  15.167  30.396  0.00  0.00    +0.143 C 
ATOM     29  C   UNL     1      -5.304  15.343  31.204  0.00  0.00    +0.133 C 
BRANCH  29  30
ATOM     30  N   UNL     1      -5.603  15.903  32.531  0.00  0.00    -0.308 N 
ATOM     31  H   UNL     1      -6.242  15.393  33.125  0.00  0.00    +0.149 HD
ATOM     32  C   UNL     1      -5.084  17.040  33.003  0.00  0.00    +0.210 C 
ATOM     33  C   UNL     1      -4.133  17.806  32.064  0.00  0.00    +0.109 C 
ATOM     34  O   UNL     1      -5.340  17.477  34.125  0.00  0.00    -0.276 OA
ENDBRANCH  29  30
BRANCH  26  35
ATOM     35  C   UNL     1      -6.419  12.093  29.801  0.00  0.00    +0.414 C 
ATOM     36  O   UNL     1      -6.058  11.448  30.785  0.00  0.00    -0.240 OA
ATOM     37  O   UNL     1      -7.520  11.860  29.299  0.00  0.00    -0.240 OA
ENDBRANCH  26  35
BRANCH  28  38
ATOM     38  O   UNL     1      -7.193  16.444  30.185  0.00  0.00    -0.390 OA
ATOM     39  H   UNL     1      -7.262  16.908  31.023  0.00  0.00    +0.210 HD
ENDBRANCH  28  38
BRANCH  26  40
ATOM     40  O   UNL     1      -5.032  12.761  27.898  0.00  0.00    -0.343 OA
ATOM     41  C   UNL     1      -5.685  13.406  26.776  0.00  0.00    +0.198 C 
ENDBRANCH  26  40
ENDBRANCH  23  24
BRANCH  23  42
ATOM     42  O   UNL     1      -2.173  14.151  31.242  0.00  0.00    -0.387 OA
ATOM     43  H   UNL     1      -1.983  13.298  30.845  0.00  0.00    +0.210 HD
ENDBRANCH  23  42
ENDBRANCH   1  23
TORSDOF 14
