REMARK VINA RESULT:    -4.471      5.109     11.348
REMARK INTER + INTRA:         -10.858
REMARK INTER:                  -8.758
REMARK INTRA:                  -2.100
REMARK UNBOUND:                -2.598
REMARK  Name = lig_assembled_67.pdb
REMARK  18 active torsions:
REMARK  status: ('A' for Active; 'I' for Inactive)
REMARK    1  A    between atoms: _2  and  _9
REMARK    2  A    between atoms: _4  and  _19
REMARK    3  A    between atoms: _6  and  _7
REMARK    4  A    between atoms: _6  and  _19
REMARK    5  A    between atoms: _9  and  _10
REMARK    6  A    between atoms: _10  and  _11
REMARK    7  A    between atoms: _15  and  _35
REMARK    8  A    between atoms: _17  and  _23
REMARK    9  A    between atoms: _18  and  _22
REMARK   10  A    between atoms: _22  and  _23
REMARK   11  A    between atoms: _25  and  _26
REMARK   12  A    between atoms: _27  and  _28
REMARK   13  A    between atoms: _29  and  _31
REMARK   14  A    between atoms: _31  and  _32
REMARK   15  A    between atoms: _31  and  _33
REMARK   16  A    between atoms: _33  and  _34
REMARK   17  A    between atoms: _33  and  _35
REMARK   18  A    between atoms: _36  and  _38
REMARK                            x       y       z     vdW  Elec       q    Type
REMARK                         _______ _______ _______ _____ _____    ______ ____
ROOT
ATOM      1  C   UNL     1      -4.163  11.236  21.899  0.00  0.00    +0.163 C 
ENDROOT
BRANCH   1   2
ATOM      2  O   UNL     1      -3.980   9.861  21.522  0.00  0.00    -0.388 OA
ATOM      3  H   UNL     1      -3.080   9.730  21.214  0.00  0.00    +0.210 HD
ENDBRANCH   1   2
BRANCH   1   4
ATOM      4  C   UNL     1      -3.088  11.678  22.906  0.00  0.00    +0.175 C 
BRANCH   4   5
ATOM      5  C   UNL     1      -3.407  11.212  24.334  0.00  0.00    +0.176 C 
ATOM      6  O   UNL     1      -3.196   9.774  24.393  0.00  0.00    -0.332 OA
ATOM      7  C   UNL     1      -3.352   9.164  25.717  0.00  0.00    +0.277 C 
ATOM      8  C   UNL     1      -4.736   9.514  26.314  0.00  0.00    +0.110 C 
ATOM      9  C   UNL     1      -5.020  11.029  26.245  0.00  0.00    +0.143 C 
ATOM     10  C   UNL     1      -4.825  11.560  24.824  0.00  0.00    +0.133 C 
BRANCH  10  11
ATOM     11  N   UNL     1      -5.013  13.019  24.789  0.00  0.00    -0.308 N 
ATOM     12  H   UNL     1      -4.326  13.594  25.256  0.00  0.00    +0.149 HD
ATOM     13  C   UNL     1      -6.031  13.632  24.179  0.00  0.00    +0.210 C 
ATOM     14  C   UNL     1      -7.074  12.726  23.499  0.00  0.00    +0.109 C 
ATOM     15  O   UNL     1      -6.155  14.857  24.153  0.00  0.00    -0.276 OA
ENDBRANCH  10  11
BRANCH   7  16
ATOM     16  C   UNL     1      -2.241   9.643  26.674  0.00  0.00    +0.414 C 
ATOM     17  O   UNL     1      -1.073   9.702  26.289  0.00  0.00    -0.240 OA
ATOM     18  O   UNL     1      -2.511   9.970  27.830  0.00  0.00    -0.240 OA
ENDBRANCH   7  16
BRANCH   9  19
ATOM     19  O   UNL     1      -6.360  11.288  26.664  0.00  0.00    -0.390 OA
ATOM     20  H   UNL     1      -6.525  10.847  27.501  0.00  0.00    +0.210 HD
ENDBRANCH   9  19
BRANCH   7  21
ATOM     21  O   UNL     1      -3.273   7.724  25.559  0.00  0.00    -0.343 OA
ATOM     22  C   UNL     1      -4.533   7.070  25.266  0.00  0.00    +0.198 C 
ENDBRANCH   7  21
ENDBRANCH   4   5
BRANCH   4  23
ATOM     23  O   UNL     1      -2.937  13.111  22.874  0.00  0.00    -0.387 OA
ATOM     24  H   UNL     1      -2.396  13.393  23.616  0.00  0.00    +0.210 HD
ENDBRANCH   4  23
ENDBRANCH   1   4
BRANCH   1  25
ATOM     25  C   UNL     1      -4.102  12.128  20.664  0.00  0.00    +0.141 C 
BRANCH  25  28
ATOM     26  C   UNL     1      -5.937  11.629  19.086  0.00  0.00    +0.401 C 
ATOM     27  O   UNL     1      -6.759  12.337  19.672  0.00  0.00    -0.226 OA
ATOM     28  N   UNL     1      -4.674  11.469  19.483  0.00  0.00    -0.279 N 
ATOM     29  H   UNL     1      -4.077  10.860  18.942  0.00  0.00    +0.152 HD
BRANCH  26  30
ATOM     30  O   UNL     1      -6.340  10.925  17.909  0.00  0.00    -0.444 OA
BRANCH  30  31
ATOM     31  C   UNL     1      -6.207  11.780  16.770  0.00  0.00    +0.292 C 
BRANCH  31  33
ATOM     32  N   UNL     1      -3.780  11.816  16.284  0.00  0.00    -0.131 NA
ATOM     33  C   UNL     1      -5.040  11.381  15.960  0.00  0.00    +0.120 A 
ATOM     34  C   UNL     1      -4.966  10.585  14.840  0.00  0.00    +0.137 A 
ATOM     35  N   UNL     1      -3.641  10.577  14.529  0.00  0.00    -0.251 N 
ATOM     36  N   UNL     1      -2.931  11.318  15.395  0.00  0.00    -0.065 NA
BRANCH  35  37
ATOM     37  C   UNL     1      -2.980   9.887  13.444  0.00  0.00    +0.150 C 
BRANCH  37  38
ATOM     38  C   UNL     1      -3.508  10.269  12.064  0.00  0.00    +0.084 C 
BRANCH  38  39
ATOM     39  C   UNL     1      -2.750  11.439  11.454  0.00  0.00    +0.252 C 
ATOM     40  O   UNL     1      -3.617  12.571  11.314  0.00  0.00    -0.349 OA
ATOM     41  C   UNL     1      -2.727  13.678  11.428  0.00  0.00    +0.191 C 
ATOM     42  C   UNL     1      -1.725  13.214  12.453  0.00  0.00    +0.191 C 
ATOM     43  O   UNL     1      -1.638  11.799  12.279  0.00  0.00    -0.349 OA
ENDBRANCH  38  39
ENDBRANCH  37  38
ENDBRANCH  35  37
ENDBRANCH  31  33
ENDBRANCH  30  31
ENDBRANCH  26  30
ENDBRANCH  25  28
ENDBRANCH   1  25
TORSDOF 16
