REMARK VINA RESULT:    -4.492      2.215      6.559
REMARK INTER + INTRA:         -11.939
REMARK INTER:                  -7.682
REMARK INTRA:                  -4.257
REMARK UNBOUND:                -3.114
REMARK  Name = lig_assembled_10.pdb
REMARK  21 active torsions:
REMARK  status: ('A' for Active; 'I' for Inactive)
REMARK    1  A    between atoms: _2  and  _9
REMARK    2  A    between atoms: _4  and  _20
REMARK    3  A    between atoms: _5  and  _9
REMARK    4  A    between atoms: _5  and  _12
REMARK    5  A    between atoms: _6  and  _7
REMARK    6  A    between atoms: _6  and  _20
REMARK    7  A    between atoms: _9  and  _10
REMARK    8  A    between atoms: _10  and  _11
REMARK    9  A    between atoms: _11  and  _14
REMARK   10  A    between atoms: _16  and  _36
REMARK   11  A    between atoms: _18  and  _24
REMARK   12  A    between atoms: _19  and  _23
REMARK   13  A    between atoms: _23  and  _24
REMARK   14  A    between atoms: _26  and  _27
REMARK   15  A    between atoms: _28  and  _29
REMARK   16  A    between atoms: _30  and  _32
REMARK   17  A    between atoms: _32  and  _33
REMARK   18  A    between atoms: _32  and  _34
REMARK   19  A    between atoms: _34  and  _35
REMARK   20  A    between atoms: _34  and  _36
REMARK   21  A    between atoms: _37  and  _39
REMARK                            x       y       z     vdW  Elec       q    Type
REMARK                         _______ _______ _______ _____ _____    ______ ____
ROOT
ATOM      1  C   UNL     1      -2.976  11.917  24.080  0.00  0.00    +0.163 C 
ENDROOT
BRANCH   1   2
ATOM      2  O   UNL     1      -2.302  11.744  25.337  0.00  0.00    -0.388 OA
ATOM      3  H   UNL     1      -2.210  10.807  25.526  0.00  0.00    +0.210 HD
ENDBRANCH   1   2
BRANCH   1   4
ATOM      4  C   UNL     1      -3.805  10.670  23.725  0.00  0.00    +0.175 C 
BRANCH   4   5
ATOM      5  C   UNL     1      -4.088   9.795  24.955  0.00  0.00    +0.176 C 
ATOM      6  O   UNL     1      -2.889   9.025  25.242  0.00  0.00    -0.332 OA
ATOM      7  C   UNL     1      -2.938   8.204  26.455  0.00  0.00    +0.277 C 
ATOM      8  C   UNL     1      -4.168   7.264  26.423  0.00  0.00    +0.110 C 
ATOM      9  C   UNL     1      -5.464   8.033  26.090  0.00  0.00    +0.143 C 
ATOM     10  C   UNL     1      -5.300   8.855  24.811  0.00  0.00    +0.133 C 
BRANCH  10  11
ATOM     11  N   UNL     1      -6.511   9.651  24.552  0.00  0.00    -0.308 N 
ATOM     12  H   UNL     1      -6.774  10.346  25.236  0.00  0.00    +0.149 HD
ATOM     13  C   UNL     1      -7.284   9.514  23.471  0.00  0.00    +0.210 C 
ATOM     14  C   UNL     1      -6.870   8.429  22.459  0.00  0.00    +0.109 C 
ATOM     15  O   UNL     1      -8.284  10.205  23.273  0.00  0.00    -0.276 OA
ENDBRANCH  10  11
BRANCH   7  16
ATOM     16  C   UNL     1      -3.001   9.092  27.715  0.00  0.00    +0.414 C 
ATOM     17  O   UNL     1      -3.790   8.828  28.622  0.00  0.00    -0.240 OA
ATOM     18  O   UNL     1      -2.264  10.073  27.825  0.00  0.00    -0.240 OA
ENDBRANCH   7  16
BRANCH   7  19
ATOM     19  O   UNL     1      -1.739   7.387  26.494  0.00  0.00    -0.343 OA
ATOM     20  C   UNL     1      -1.973   5.956  26.483  0.00  0.00    +0.198 C 
ENDBRANCH   7  19
BRANCH   9  21
ATOM     21  O   UNL     1      -6.542   7.111  25.921  0.00  0.00    -0.390 OA
ATOM     22  H   UNL     1      -6.461   6.403  26.564  0.00  0.00    +0.210 HD
ENDBRANCH   9  21
ENDBRANCH   4   5
BRANCH   4  23
ATOM     23  O   UNL     1      -3.130   9.898  22.711  0.00  0.00    -0.387 OA
ATOM     24  H   UNL     1      -2.739  10.491  22.065  0.00  0.00    +0.210 HD
ENDBRANCH   4  23
ENDBRANCH   1   4
BRANCH   1  25
ATOM     25  C   UNL     1      -3.891  13.135  24.142  0.00  0.00    +0.141 C 
BRANCH  25  28
ATOM     26  C   UNL     1      -5.926  13.030  25.541  0.00  0.00    +0.401 C 
ATOM     27  O   UNL     1      -6.677  12.783  24.595  0.00  0.00    -0.226 OA
ATOM     28  N   UNL     1      -4.611  13.216  25.419  0.00  0.00    -0.279 N 
ATOM     29  H   UNL     1      -4.079  13.423  26.253  0.00  0.00    +0.152 HD
BRANCH  26  30
ATOM     30  O   UNL     1      -6.476  13.132  26.856  0.00  0.00    -0.444 OA
BRANCH  30  31
ATOM     31  C   UNL     1      -6.189  11.938  27.589  0.00  0.00    +0.292 C 
BRANCH  31  33
ATOM     32  N   UNL     1      -4.032  12.717  28.525  0.00  0.00    -0.131 NA
ATOM     33  C   UNL     1      -5.298  12.238  28.726  0.00  0.00    +0.120 A 
ATOM     34  C   UNL     1      -5.527  12.123  30.078  0.00  0.00    +0.138 A 
ATOM     35  N   UNL     1      -4.383  12.587  30.651  0.00  0.00    -0.237 N 
ATOM     36  N   UNL     1      -3.477  12.920  29.710  0.00  0.00    -0.065 NA
BRANCH  35  37
ATOM     37  C   UNL     1      -4.021  12.765  32.049  0.00  0.00    +0.227 C 
BRANCH  37  38
ATOM     38  C   UNL     1      -3.852  14.207  32.476  0.00  0.00    +0.330 C 
ATOM     39  O   UNL     1      -4.315  14.624  33.532  0.00  0.00    -0.249 OA
BRANCH  38  40
ATOM     40  O   UNL     1      -3.131  15.014  31.669  0.00  0.00    -0.479 OA
ATOM     41  H   UNL     1      -3.020  14.719  30.729  0.00  0.00    +0.295 HD
ENDBRANCH  38  40
ENDBRANCH  37  38
BRANCH  37  42
ATOM     42  C   UNL     1      -2.859  11.878  32.517  0.00  0.00    +0.158 C 
BRANCH  42  43
ATOM     43  C   UNL     1      -2.960  10.480  31.975  0.00  0.00    +0.307 C 
ATOM     44  O   UNL     1      -3.631   9.597  32.496  0.00  0.00    -0.251 OA
BRANCH  43  45
ATOM     45  O   UNL     1      -2.307  10.302  30.811  0.00  0.00    -0.481 OA
ATOM     46  H   UNL     1      -1.511   9.738  30.862  0.00  0.00    +0.295 HD
ENDBRANCH  43  45
ENDBRANCH  42  43
ENDBRANCH  37  42
ENDBRANCH  35  37
ENDBRANCH  31  33
ENDBRANCH  30  31
ENDBRANCH  26  30
ENDBRANCH  25  28
ENDBRANCH   1  25
TORSDOF 19
