REMARK VINA RESULT:    -5.576      7.060     12.908
REMARK INTER + INTRA:         -12.692
REMARK INTER:                 -10.474
REMARK INTRA:                  -2.217
REMARK UNBOUND:                -2.389
REMARK  Name = lig_assembled_92.pdb
REMARK  18 active torsions:
REMARK  status: ('A' for Active; 'I' for Inactive)
REMARK    1  A    between atoms: _2  and  _11
REMARK    2  A    between atoms: _3  and  _46
REMARK    3  A    between atoms: _6  and  _25
REMARK    4  A    between atoms: _8  and  _9
REMARK    5  A    between atoms: _8  and  _25
REMARK    6  A    between atoms: _14  and  _46
REMARK    7  A    between atoms: _21  and  _41
REMARK    8  A    between atoms: _23  and  _29
REMARK    9  A    between atoms: _24  and  _28
REMARK   10  A    between atoms: _28  and  _29
REMARK   11  A    between atoms: _31  and  _32
REMARK   12  A    between atoms: _33  and  _34
REMARK   13  A    between atoms: _35  and  _37
REMARK   14  A    between atoms: _37  and  _38
REMARK   15  A    between atoms: _37  and  _39
REMARK   16  A    between atoms: _39  and  _40
REMARK   17  A    between atoms: _39  and  _41
REMARK   18  A    between atoms: _42  and  _44
REMARK                            x       y       z     vdW  Elec       q    Type
REMARK                         _______ _______ _______ _____ _____    ______ ____
ROOT
ATOM      1  C   UNL     1      -5.671  10.388  19.023  0.00  0.00    +0.401 C 
ATOM      2  O   UNL     1      -5.065   9.324  18.880  0.00  0.00    -0.226 OA
ATOM      3  N   UNL     1      -5.217  11.413  19.746  0.00  0.00    -0.279 N 
ATOM      4  H   UNL     1      -5.783  12.248  19.796  0.00  0.00    +0.152 HD
ENDROOT
BRANCH   3   5
ATOM      5  C   UNL     1      -3.943  11.395  20.474  0.00  0.00    +0.141 C 
BRANCH   5   6
ATOM      6  C   UNL     1      -4.084  10.758  21.852  0.00  0.00    +0.163 C 
BRANCH   6   7
ATOM      7  O   UNL     1      -3.940   9.331  21.752  0.00  0.00    -0.388 OA
ATOM      8  H   UNL     1      -3.485   8.999  22.529  0.00  0.00    +0.210 HD
ENDBRANCH   6   7
BRANCH   6   9
ATOM      9  C   UNL     1      -3.029  11.351  22.803  0.00  0.00    +0.175 C 
BRANCH   9  10
ATOM     10  C   UNL     1      -3.328  11.025  24.274  0.00  0.00    +0.176 C 
ATOM     11  O   UNL     1      -3.086   9.605  24.475  0.00  0.00    -0.332 OA
ATOM     12  C   UNL     1      -3.220   9.129  25.855  0.00  0.00    +0.277 C 
ATOM     13  C   UNL     1      -4.608   9.509  26.427  0.00  0.00    +0.110 C 
ATOM     14  C   UNL     1      -4.924  11.004  26.207  0.00  0.00    +0.143 C 
ATOM     15  C   UNL     1      -4.750  11.391  24.738  0.00  0.00    +0.133 C 
BRANCH  15  16
ATOM     16  N   UNL     1      -4.970  12.835  24.557  0.00  0.00    -0.308 N 
ATOM     17  H   UNL     1      -4.295  13.469  24.962  0.00  0.00    +0.149 HD
ATOM     18  C   UNL     1      -6.002  13.362  23.893  0.00  0.00    +0.210 C 
ATOM     19  C   UNL     1      -7.026  12.370  23.310  0.00  0.00    +0.109 C 
ATOM     20  O   UNL     1      -6.152  14.575  23.744  0.00  0.00    -0.276 OA
ENDBRANCH  15  16
BRANCH  12  21
ATOM     21  C   UNL     1      -2.113   9.726  26.750  0.00  0.00    +0.414 C 
ATOM     22  O   UNL     1      -0.947   9.753  26.358  0.00  0.00    -0.240 OA
ATOM     23  O   UNL     1      -2.386  10.180  27.862  0.00  0.00    -0.240 OA
ENDBRANCH  12  21
BRANCH  14  24
ATOM     24  O   UNL     1      -6.267  11.276  26.610  0.00  0.00    -0.390 OA
ATOM     25  H   UNL     1      -6.865  11.081  25.885  0.00  0.00    +0.210 HD
ENDBRANCH  14  24
BRANCH  12  26
ATOM     26  O   UNL     1      -3.111   7.682  25.844  0.00  0.00    -0.343 OA
ATOM     27  C   UNL     1      -3.095   7.059  27.153  0.00  0.00    +0.198 C 
ENDBRANCH  12  26
ENDBRANCH   9  10
BRANCH   9  28
ATOM     28  O   UNL     1      -2.941  12.778  22.618  0.00  0.00    -0.387 OA
ATOM     29  H   UNL     1      -2.019  13.047  22.639  0.00  0.00    +0.210 HD
ENDBRANCH   9  28
ENDBRANCH   6   9
ENDBRANCH   5   6
ENDBRANCH   3   5
BRANCH   1  30
ATOM     30  O   UNL     1      -6.937  10.558  18.381  0.00  0.00    -0.444 OA
BRANCH  30  31
ATOM     31  C   UNL     1      -6.883  10.001  17.065  0.00  0.00    +0.292 C 
BRANCH  31  33
ATOM     32  N   UNL     1      -6.549  12.314  16.237  0.00  0.00    -0.131 NA
ATOM     33  C   UNL     1      -6.309  10.975  16.118  0.00  0.00    +0.121 A 
ATOM     34  C   UNL     1      -5.487  10.762  15.036  0.00  0.00    +0.143 A 
ATOM     35  N   UNL     1      -5.223  12.016  14.535  0.00  0.00    -0.220 N 
ATOM     36  N   UNL     1      -5.891  12.939  15.268  0.00  0.00    -0.060 NA
BRANCH  35  37
ATOM     37  C   UNL     1      -4.373  12.372  13.458  0.00  0.00    +0.067 A 
ATOM     38  C   UNL     1      -3.935  11.398  12.547  0.00  0.00    +0.030 A 
ATOM     39  C   UNL     1      -3.051  11.741  11.525  0.00  0.00    +0.031 A 
ATOM     40  C   UNL     1      -2.611  13.060  11.400  0.00  0.00    +0.109 A 
ATOM     41  C   UNL     1      -3.046  14.043  12.293  0.00  0.00    +0.031 A 
ATOM     42  C   UNL     1      -3.936  13.700  13.317  0.00  0.00    +0.030 A 
BRANCH  40  43
ATOM     43  S   UNL     1      -1.373  13.426  10.185  0.00  0.00    +0.074 S 
ATOM     44  O   UNL     1      -1.378  12.346   9.217  0.00  0.00    -0.150 OA
ATOM     45  O   UNL     1      -1.545  14.792   9.748  0.00  0.00    -0.150 OA
BRANCH  43  46
ATOM     46  N   UNL     1       0.076  13.247  11.032  0.00  0.00    -0.194 N 
ATOM     47  H   UNL     1       0.633  12.581  10.504  0.00  0.00    +0.176 HD
ATOM     48  C   UNL     1       0.725  14.482  11.242  0.00  0.00    +0.177 A 
ATOM     49  S   UNL     1       1.993  15.040  10.241  0.00  0.00    -0.059 S 
ATOM     50  C   UNL     1       2.186  16.392  11.279  0.00  0.00    +0.068 A 
ATOM     51  C   UNL     1       1.325  16.275  12.351  0.00  0.00    +0.120 A 
ATOM     52  N   UNL     1       0.465  15.194  12.310  0.00  0.00    -0.232 NA
ENDBRANCH  43  46
ENDBRANCH  40  43
ENDBRANCH  35  37
ENDBRANCH  31  33
ENDBRANCH  30  31
ENDBRANCH   1  30
TORSDOF 16
