REMARK VINA RESULT:    -4.438      2.559      7.490
REMARK INTER + INTRA:         -10.188
REMARK INTER:                  -7.176
REMARK INTRA:                  -3.012
REMARK UNBOUND:                -2.508
REMARK  Name = lig_assembled_48.pdb
REMARK  16 active torsions:
REMARK  status: ('A' for Active; 'I' for Inactive)
REMARK    1  A    between atoms: _2  and  _9
REMARK    2  A    between atoms: _4  and  _18
REMARK    3  A    between atoms: _6  and  _7
REMARK    4  A    between atoms: _6  and  _18
REMARK    5  A    between atoms: _14  and  _34
REMARK    6  A    between atoms: _16  and  _22
REMARK    7  A    between atoms: _17  and  _21
REMARK    8  A    between atoms: _21  and  _22
REMARK    9  A    between atoms: _24  and  _25
REMARK   10  A    between atoms: _26  and  _27
REMARK   11  A    between atoms: _28  and  _30
REMARK   12  A    between atoms: _30  and  _31
REMARK   13  A    between atoms: _30  and  _32
REMARK   14  A    between atoms: _32  and  _33
REMARK   15  A    between atoms: _32  and  _34
REMARK   16  A    between atoms: _35  and  _37
REMARK                            x       y       z     vdW  Elec       q    Type
REMARK                         _______ _______ _______ _____ _____    ______ ____
ROOT
ATOM      1  C   UNL     1      -3.062  11.286  26.238  0.00  0.00    +0.163 C 
ENDROOT
BRANCH   1   2
ATOM      2  O   UNL     1      -2.016  11.771  25.382  0.00  0.00    -0.388 OA
ATOM      3  H   UNL     1      -1.870  11.147  24.667  0.00  0.00    +0.210 HD
ENDBRANCH   1   2
BRANCH   1   4
ATOM      4  C   UNL     1      -2.503  10.253  27.211  0.00  0.00    +0.141 C 
BRANCH   4   7
ATOM      5  C   UNL     1      -3.670   9.709  29.320  0.00  0.00    +0.401 C 
ATOM      6  O   UNL     1      -4.124   8.640  28.903  0.00  0.00    -0.226 OA
ATOM      7  N   UNL     1      -2.908  10.528  28.595  0.00  0.00    -0.279 N 
ATOM      8  H   UNL     1      -2.592  11.388  29.021  0.00  0.00    +0.152 HD
BRANCH   5   9
ATOM      9  O   UNL     1      -3.970  10.116  30.657  0.00  0.00    -0.444 OA
BRANCH   9  10
ATOM     10  C   UNL     1      -2.760  10.473  31.330  0.00  0.00    +0.292 C 
BRANCH  10  12
ATOM     11  N   UNL     1      -1.812  12.571  32.229  0.00  0.00    -0.131 NA
ATOM     12  C   UNL     1      -2.905  11.795  31.966  0.00  0.00    +0.120 A 
ATOM     13  C   UNL     1      -4.040  12.469  32.361  0.00  0.00    +0.137 A 
ATOM     14  N   UNL     1      -3.582  13.686  32.769  0.00  0.00    -0.248 N 
ATOM     15  N   UNL     1      -2.232  13.711  32.756  0.00  0.00    -0.065 NA
BRANCH  14  16
ATOM     16  C   UNL     1      -4.302  14.900  33.135  0.00  0.00    +0.109 C 
ATOM     17  C   UNL     1      -3.715  16.130  32.416  0.00  0.00    +0.027 C 
ATOM     18  C   UNL     1      -4.062  16.127  30.930  0.00  0.00    +0.002 C 
ATOM     19  C   UNL     1      -5.572  16.136  30.724  0.00  0.00    +0.000 C 
ATOM     20  C   UNL     1      -6.269  14.996  31.463  0.00  0.00    +0.002 C 
ATOM     21  C   UNL     1      -5.829  14.863  32.925  0.00  0.00    +0.027 C 
ENDBRANCH  14  16
ENDBRANCH  10  12
ENDBRANCH   9  10
ENDBRANCH   5   9
ENDBRANCH   4   7
ENDBRANCH   1   4
BRANCH   1  22
ATOM     22  C   UNL     1      -4.198  10.654  25.415  0.00  0.00    +0.175 C 
BRANCH  22  23
ATOM     23  C   UNL     1      -5.143  11.713  24.826  0.00  0.00    +0.176 C 
ATOM     24  O   UNL     1      -4.426  12.418  23.775  0.00  0.00    -0.332 OA
ATOM     25  C   UNL     1      -5.209  13.402  23.023  0.00  0.00    +0.277 C 
ATOM     26  C   UNL     1      -5.863  14.423  23.986  0.00  0.00    +0.110 C 
ATOM     27  C   UNL     1      -6.611  13.721  25.139  0.00  0.00    +0.143 C 
ATOM     28  C   UNL     1      -5.704  12.717  25.851  0.00  0.00    +0.133 C 
BRANCH  28  29
ATOM     29  N   UNL     1      -6.452  11.992  26.889  0.00  0.00    -0.308 N 
ATOM     30  H   UNL     1      -7.167  11.344  26.590  0.00  0.00    +0.149 HD
ATOM     31  C   UNL     1      -6.249  12.135  28.202  0.00  0.00    +0.210 C 
ATOM     32  C   UNL     1      -5.170  13.150  28.626  0.00  0.00    +0.109 C 
ATOM     33  O   UNL     1      -6.881  11.503  29.049  0.00  0.00    -0.276 OA
ENDBRANCH  28  29
BRANCH  25  34
ATOM     34  C   UNL     1      -6.304  12.706  22.188  0.00  0.00    +0.414 C 
ATOM     35  O   UNL     1      -7.417  13.220  22.073  0.00  0.00    -0.240 OA
ATOM     36  O   UNL     1      -6.076  11.632  21.630  0.00  0.00    -0.240 OA
ENDBRANCH  25  34
BRANCH  27  37
ATOM     37  O   UNL     1      -7.067  14.693  26.080  0.00  0.00    -0.390 OA
ATOM     38  H   UNL     1      -7.404  15.460  25.612  0.00  0.00    +0.210 HD
ENDBRANCH  27  37
BRANCH  25  39
ATOM     39  O   UNL     1      -4.305  14.118  22.143  0.00  0.00    -0.343 OA
ATOM     40  C   UNL     1      -4.348  15.562  22.264  0.00  0.00    +0.198 C 
ENDBRANCH  25  39
ENDBRANCH  22  23
BRANCH  22  41
ATOM     41  O   UNL     1      -4.941   9.722  26.226  0.00  0.00    -0.387 OA
ATOM     42  H   UNL     1      -5.851   9.686  25.921  0.00  0.00    +0.210 HD
ENDBRANCH  22  41
ENDBRANCH   1  22
TORSDOF 14
