REMARK VINA RESULT:    -3.946      3.023      7.744
REMARK INTER + INTRA:         -11.283
REMARK INTER:                  -8.202
REMARK INTRA:                  -3.082
REMARK UNBOUND:                -4.108
REMARK  Name = lig_assembled_53.pdb
REMARK  18 active torsions:
REMARK  status: ('A' for Active; 'I' for Inactive)
REMARK    1  A    between atoms: _2  and  _9
REMARK    2  A    between atoms: _4  and  _16
REMARK    3  A    between atoms: _5  and  _9
REMARK    4  A    between atoms: _5  and  _10
REMARK    5  A    between atoms: _6  and  _7
REMARK    6  A    between atoms: _6  and  _16
REMARK    7  A    between atoms: _12  and  _32
REMARK    8  A    between atoms: _14  and  _20
REMARK    9  A    between atoms: _15  and  _19
REMARK   10  A    between atoms: _19  and  _20
REMARK   11  A    between atoms: _22  and  _23
REMARK   12  A    between atoms: _24  and  _25
REMARK   13  A    between atoms: _26  and  _28
REMARK   14  A    between atoms: _28  and  _29
REMARK   15  A    between atoms: _28  and  _30
REMARK   16  A    between atoms: _30  and  _31
REMARK   17  A    between atoms: _30  and  _32
REMARK   18  A    between atoms: _33  and  _35
REMARK                            x       y       z     vdW  Elec       q    Type
REMARK                         _______ _______ _______ _____ _____    ______ ____
ROOT
ATOM      1  C   UNL     1      -3.734  11.362  26.401  0.00  0.00    +0.175 C 
ENDROOT
BRANCH   1   2
ATOM      2  C   UNL     1      -4.633  12.165  25.449  0.00  0.00    +0.176 C 
ATOM      3  O   UNL     1      -3.776  12.842  24.489  0.00  0.00    -0.332 OA
ATOM      4  C   UNL     1      -4.470  13.578  23.428  0.00  0.00    +0.277 C 
ATOM      5  C   UNL     1      -5.473  14.588  24.038  0.00  0.00    +0.110 C 
ATOM      6  C   UNL     1      -6.386  13.920  25.088  0.00  0.00    +0.143 C 
ATOM      7  C   UNL     1      -5.560  13.181  26.141  0.00  0.00    +0.133 C 
BRANCH   7   8
ATOM      8  N   UNL     1      -6.441  12.477  27.086  0.00  0.00    -0.308 N 
ATOM      9  H   UNL     1      -6.927  11.655  26.756  0.00  0.00    +0.149 HD
ATOM     10  C   UNL     1      -6.642  12.854  28.352  0.00  0.00    +0.210 C 
ATOM     11  C   UNL     1      -5.908  14.126  28.817  0.00  0.00    +0.109 C 
ATOM     12  O   UNL     1      -7.375  12.237  29.126  0.00  0.00    -0.276 OA
ENDBRANCH   7   8
BRANCH   4  13
ATOM     13  C   UNL     1      -5.220  12.609  22.490  0.00  0.00    +0.414 C 
ATOM     14  O   UNL     1      -4.801  11.465  22.318  0.00  0.00    -0.240 OA
ATOM     15  O   UNL     1      -6.242  12.970  21.907  0.00  0.00    -0.240 OA
ENDBRANCH   4  13
BRANCH   4  16
ATOM     16  O   UNL     1      -3.478  14.319  22.672  0.00  0.00    -0.343 OA
ATOM     17  C   UNL     1      -3.893  15.642  22.249  0.00  0.00    +0.198 C 
ENDBRANCH   4  16
BRANCH   6  18
ATOM     18  O   UNL     1      -7.187  14.913  25.730  0.00  0.00    -0.390 OA
ATOM     19  H   UNL     1      -6.854  15.070  26.617  0.00  0.00    +0.210 HD
ENDBRANCH   6  18
ENDBRANCH   1   2
BRANCH   1  20
ATOM     20  O   UNL     1      -3.398  12.158  27.555  0.00  0.00    -0.387 OA
ATOM     21  H   UNL     1      -4.145  12.714  27.789  0.00  0.00    +0.210 HD
ENDBRANCH   1  20
BRANCH   1  22
ATOM     22  C   UNL     1      -2.452  10.868  25.708  0.00  0.00    +0.163 C 
BRANCH  22  23
ATOM     23  O   UNL     1      -2.743  10.353  24.398  0.00  0.00    -0.388 OA
ATOM     24  H   UNL     1      -2.605   9.403  24.389  0.00  0.00    +0.210 HD
ENDBRANCH  22  23
BRANCH  22  25
ATOM     25  C   UNL     1      -1.798   9.785  26.560  0.00  0.00    +0.141 C 
BRANCH  25  28
ATOM     26  C   UNL     1      -2.464   8.267  28.392  0.00  0.00    +0.401 C 
ATOM     27  O   UNL     1      -1.561   7.456  28.174  0.00  0.00    -0.226 OA
ATOM     28  N   UNL     1      -2.653   9.380  27.682  0.00  0.00    -0.279 N 
ATOM     29  H   UNL     1      -3.428   9.979  27.931  0.00  0.00    +0.152 HD
BRANCH  26  30
ATOM     30  O   UNL     1      -3.379   8.018  29.462  0.00  0.00    -0.444 OA
BRANCH  30  31
ATOM     31  C   UNL     1      -2.764   8.361  30.707  0.00  0.00    +0.292 C 
BRANCH  31  33
ATOM     32  N   UNL     1      -3.621  10.615  30.142  0.00  0.00    -0.131 NA
ATOM     33  C   UNL     1      -3.036   9.770  31.046  0.00  0.00    +0.120 A 
ATOM     34  C   UNL     1      -2.789  10.459  32.212  0.00  0.00    +0.137 A 
ATOM     35  N   UNL     1      -3.184  11.733  31.936  0.00  0.00    -0.241 N 
ATOM     36  N   UNL     1      -3.727  11.811  30.704  0.00  0.00    -0.065 NA
BRANCH  35  37
ATOM     37  C   UNL     1      -3.244  12.901  32.790  0.00  0.00    +0.265 C 
BRANCH  37  38
ATOM     38  C   UNL     1      -2.358  14.046  32.379  0.00  0.00    +0.326 C 
ATOM     39  O   UNL     1      -2.443  15.207  32.751  0.00  0.00    -0.249 OA
BRANCH  38  40
ATOM     40  O   UNL     1      -1.400  13.669  31.490  0.00  0.00    -0.479 OA
ATOM     41  H   UNL     1      -1.313  14.228  30.695  0.00  0.00    +0.295 HD
ENDBRANCH  38  40
ENDBRANCH  37  38
ENDBRANCH  35  37
ENDBRANCH  31  33
ENDBRANCH  30  31
ENDBRANCH  26  30
ENDBRANCH  25  28
ENDBRANCH  22  25
ENDBRANCH   1  22
TORSDOF 16
