REMARK VINA RESULT:    -4.198      2.301      8.018
REMARK INTER + INTRA:         -11.139
REMARK INTER:                  -8.436
REMARK INTRA:                  -2.703
REMARK UNBOUND:                -3.505
REMARK  Name = lig_assembled_22.pdb
REMARK  20 active torsions:
REMARK  status: ('A' for Active; 'I' for Inactive)
REMARK    1  A    between atoms: _2  and  _9
REMARK    2  A    between atoms: _4  and  _18
REMARK    3  A    between atoms: _5  and  _9
REMARK    4  A    between atoms: _5  and  _12
REMARK    5  A    between atoms: _6  and  _7
REMARK    6  A    between atoms: _6  and  _18
REMARK    7  A    between atoms: _9  and  _10
REMARK    8  A    between atoms: _9  and  _11
REMARK    9  A    between atoms: _14  and  _34
REMARK   10  A    between atoms: _16  and  _22
REMARK   11  A    between atoms: _17  and  _21
REMARK   12  A    between atoms: _21  and  _22
REMARK   13  A    between atoms: _24  and  _25
REMARK   14  A    between atoms: _26  and  _27
REMARK   15  A    between atoms: _28  and  _30
REMARK   16  A    between atoms: _30  and  _31
REMARK   17  A    between atoms: _30  and  _32
REMARK   18  A    between atoms: _32  and  _33
REMARK   19  A    between atoms: _32  and  _34
REMARK   20  A    between atoms: _35  and  _37
REMARK                            x       y       z     vdW  Elec       q    Type
REMARK                         _______ _______ _______ _____ _____    ______ ____
ROOT
ATOM      1  C   UNL     1      -2.958  12.246  25.523  0.00  0.00    +0.163 C 
ENDROOT
BRANCH   1   2
ATOM      2  O   UNL     1      -2.624  13.021  24.360  0.00  0.00    -0.388 OA
ATOM      3  H   UNL     1      -2.485  12.434  23.612  0.00  0.00    +0.210 HD
ENDBRANCH   1   2
BRANCH   1   4
ATOM      4  C   UNL     1      -2.000  11.067  25.657  0.00  0.00    +0.141 C 
BRANCH   4   7
ATOM      5  C   UNL     1      -1.976   9.264  27.346  0.00  0.00    +0.401 C 
ATOM      6  O   UNL     1      -2.066   8.356  26.516  0.00  0.00    -0.226 OA
ATOM      7  N   UNL     1      -1.945  10.560  27.033  0.00  0.00    -0.279 N 
ATOM      8  H   UNL     1      -1.880  11.231  27.786  0.00  0.00    +0.152 HD
BRANCH   5   9
ATOM      9  O   UNL     1      -1.905   8.930  28.735  0.00  0.00    -0.444 OA
BRANCH   9  10
ATOM     10  C   UNL     1      -3.202   9.055  29.323  0.00  0.00    +0.292 C 
BRANCH  10  12
ATOM     11  N   UNL     1      -2.698  10.050  31.526  0.00  0.00    -0.131 NA
ATOM     12  C   UNL     1      -3.225  10.183  30.273  0.00  0.00    +0.120 A 
ATOM     13  C   UNL     1      -3.722  11.461  30.128  0.00  0.00    +0.138 A 
ATOM     14  N   UNL     1      -3.466  12.059  31.330  0.00  0.00    -0.235 N 
ATOM     15  N   UNL     1      -2.853  11.198  32.165  0.00  0.00    -0.064 NA
BRANCH  14  16
ATOM     16  C   UNL     1      -3.783  13.416  31.779  0.00  0.00    +0.155 C 
ATOM     17  C   UNL     1      -4.730  13.421  32.998  0.00  0.00    +0.048 C 
ATOM     18  C   UNL     1      -4.472  14.169  30.625  0.00  0.00    +0.048 C 
BRANCH  16  19
ATOM     19  C   UNL     1      -2.505  14.155  32.184  0.00  0.00    +0.332 C 
ATOM     20  O   UNL     1      -2.488  15.198  32.828  0.00  0.00    -0.248 OA
BRANCH  19  21
ATOM     21  O   UNL     1      -1.348  13.576  31.782  0.00  0.00    -0.479 OA
ATOM     22  H   UNL     1      -1.421  12.898  31.083  0.00  0.00    +0.295 HD
ENDBRANCH  19  21
ENDBRANCH  16  19
ENDBRANCH  14  16
ENDBRANCH  10  12
ENDBRANCH   9  10
ENDBRANCH   5   9
ENDBRANCH   4   7
ENDBRANCH   1   4
BRANCH   1  23
ATOM     23  C   UNL     1      -4.404  11.727  25.441  0.00  0.00    +0.175 C 
BRANCH  23  24
ATOM     24  C   UNL     1      -4.689  11.020  24.109  0.00  0.00    +0.176 C 
ATOM     25  O   UNL     1      -5.222  12.007  23.184  0.00  0.00    -0.332 OA
ATOM     26  C   UNL     1      -5.458  11.533  21.816  0.00  0.00    +0.277 C 
ATOM     27  C   UNL     1      -6.368  10.281  21.827  0.00  0.00    +0.110 C 
ATOM     28  C   UNL     1      -5.859   9.215  22.820  0.00  0.00    +0.143 C 
ATOM     29  C   UNL     1      -5.646   9.817  24.210  0.00  0.00    +0.133 C 
BRANCH  29  30
ATOM     30  N   UNL     1      -5.079   8.814  25.124  0.00  0.00    -0.308 N 
ATOM     31  H   UNL     1      -4.160   8.451  24.915  0.00  0.00    +0.149 HD
ATOM     32  C   UNL     1      -5.700   8.351  26.213  0.00  0.00    +0.210 C 
ATOM     33  C   UNL     1      -7.110   8.905  26.490  0.00  0.00    +0.109 C 
ATOM     34  O   UNL     1      -5.194   7.521  26.969  0.00  0.00    -0.276 OA
ENDBRANCH  29  30
BRANCH  26  35
ATOM     35  C   UNL     1      -4.124  11.195  21.118  0.00  0.00    +0.414 C 
ATOM     36  O   UNL     1      -4.075  10.299  20.276  0.00  0.00    -0.240 OA
ATOM     37  O   UNL     1      -3.098  11.818  21.395  0.00  0.00    -0.240 OA
ENDBRANCH  26  35
BRANCH  26  38
ATOM     38  O   UNL     1      -6.137  12.587  21.087  0.00  0.00    -0.343 OA
ATOM     39  C   UNL     1      -7.046  12.129  20.054  0.00  0.00    +0.198 C 
ENDBRANCH  26  38
BRANCH  28  40
ATOM     40  O   UNL     1      -6.805   8.149  22.909  0.00  0.00    -0.390 OA
ATOM     41  H   UNL     1      -7.069   8.030  23.825  0.00  0.00    +0.210 HD
ENDBRANCH  28  40
ENDBRANCH  23  24
BRANCH  23  42
ATOM     42  O   UNL     1      -5.332  12.812  25.637  0.00  0.00    -0.387 OA
ATOM     43  H   UNL     1      -5.958  12.577  26.327  0.00  0.00    +0.210 HD
ENDBRANCH  23  42
ENDBRANCH   1  23
TORSDOF 16
