REMARK VINA RESULT:    -4.821      3.726      6.762
REMARK INTER + INTRA:         -10.852
REMARK INTER:                  -8.907
REMARK INTRA:                  -1.946
REMARK UNBOUND:                -2.508
REMARK  Name = lig_assembled_48.pdb
REMARK  16 active torsions:
REMARK  status: ('A' for Active; 'I' for Inactive)
REMARK    1  A    between atoms: _2  and  _9
REMARK    2  A    between atoms: _4  and  _18
REMARK    3  A    between atoms: _6  and  _7
REMARK    4  A    between atoms: _6  and  _18
REMARK    5  A    between atoms: _14  and  _34
REMARK    6  A    between atoms: _16  and  _22
REMARK    7  A    between atoms: _17  and  _21
REMARK    8  A    between atoms: _21  and  _22
REMARK    9  A    between atoms: _24  and  _25
REMARK   10  A    between atoms: _26  and  _27
REMARK   11  A    between atoms: _28  and  _30
REMARK   12  A    between atoms: _30  and  _31
REMARK   13  A    between atoms: _30  and  _32
REMARK   14  A    between atoms: _32  and  _33
REMARK   15  A    between atoms: _32  and  _34
REMARK   16  A    between atoms: _35  and  _37
REMARK                            x       y       z     vdW  Elec       q    Type
REMARK                         _______ _______ _______ _____ _____    ______ ____
ROOT
ATOM      1  C   UNL     1      -3.322  11.826  25.199  0.00  0.00    +0.163 C 
ENDROOT
BRANCH   1   2
ATOM      2  O   UNL     1      -2.101  11.078  25.075  0.00  0.00    -0.388 OA
ATOM      3  H   UNL     1      -1.727  10.930  25.947  0.00  0.00    +0.210 HD
ENDBRANCH   1   2
BRANCH   1   4
ATOM      4  C   UNL     1      -3.229  13.114  24.387  0.00  0.00    +0.141 C 
BRANCH   4   7
ATOM      5  C   UNL     1      -4.091  12.670  22.114  0.00  0.00    +0.401 C 
ATOM      6  O   UNL     1      -3.061  12.110  21.731  0.00  0.00    -0.226 OA
ATOM      7  N   UNL     1      -4.254  13.175  23.338  0.00  0.00    -0.279 N 
ATOM      8  H   UNL     1      -5.133  13.624  23.555  0.00  0.00    +0.152 HD
BRANCH   5   9
ATOM      9  O   UNL     1      -5.189  12.801  21.207  0.00  0.00    -0.444 OA
BRANCH   9  10
ATOM     10  C   UNL     1      -5.821  11.530  21.035  0.00  0.00    +0.292 C 
BRANCH  10  12
ATOM     11  N   UNL     1      -4.940   9.746  19.569  0.00  0.00    -0.131 NA
ATOM     12  C   UNL     1      -5.504  10.983  19.703  0.00  0.00    +0.120 A 
ATOM     13  C   UNL     1      -5.708  11.523  18.452  0.00  0.00    +0.137 A 
ATOM     14  N   UNL     1      -5.337  10.531  17.594  0.00  0.00    -0.248 N 
ATOM     15  N   UNL     1      -4.805   9.493  18.276  0.00  0.00    -0.065 NA
BRANCH  14  16
ATOM     16  C   UNL     1      -5.480  10.420  16.147  0.00  0.00    +0.109 C 
ATOM     17  C   UNL     1      -5.505  11.812  15.486  0.00  0.00    +0.027 C 
ATOM     18  C   UNL     1      -4.125  12.466  15.507  0.00  0.00    +0.002 C 
ATOM     19  C   UNL     1      -3.107  11.608  14.764  0.00  0.00    +0.000 C 
ATOM     20  C   UNL     1      -3.055  10.177  15.290  0.00  0.00    +0.002 C 
ATOM     21  C   UNL     1      -4.439   9.533  15.436  0.00  0.00    +0.027 C 
ENDBRANCH  14  16
ENDBRANCH  10  12
ENDBRANCH   9  10
ENDBRANCH   5   9
ENDBRANCH   4   7
ENDBRANCH   1   4
BRANCH   1  22
ATOM     22  C   UNL     1      -3.612  12.166  26.671  0.00  0.00    +0.175 C 
BRANCH  22  23
ATOM     23  C   UNL     1      -3.389  10.962  27.597  0.00  0.00    +0.176 C 
ATOM     24  O   UNL     1      -4.039   9.808  26.995  0.00  0.00    -0.332 OA
ATOM     25  C   UNL     1      -3.841   8.534  27.692  0.00  0.00    +0.277 C 
ATOM     26  C   UNL     1      -4.264   8.658  29.177  0.00  0.00    +0.110 C 
ATOM     27  C   UNL     1      -3.622   9.889  29.851  0.00  0.00    +0.143 C 
ATOM     28  C   UNL     1      -3.888  11.158  29.041  0.00  0.00    +0.133 C 
BRANCH  28  29
ATOM     29  N   UNL     1      -3.199  12.309  29.646  0.00  0.00    -0.308 N 
ATOM     30  H   UNL     1      -2.189  12.310  29.642  0.00  0.00    +0.149 HD
ATOM     31  C   UNL     1      -3.822  13.352  30.202  0.00  0.00    +0.210 C 
ATOM     32  C   UNL     1      -5.362  13.308  30.216  0.00  0.00    +0.109 C 
ATOM     33  O   UNL     1      -3.219  14.309  30.688  0.00  0.00    -0.276 OA
ENDBRANCH  28  29
BRANCH  25  34
ATOM     34  C   UNL     1      -2.365   8.090  27.612  0.00  0.00    +0.414 C 
ATOM     35  O   UNL     1      -1.874   7.404  28.507  0.00  0.00    -0.240 OA
ATOM     36  O   UNL     1      -1.666   8.418  26.652  0.00  0.00    -0.240 OA
ENDBRANCH  25  34
BRANCH  27  37
ATOM     37  O   UNL     1      -4.155  10.050  31.166  0.00  0.00    -0.390 OA
ATOM     38  H   UNL     1      -3.984   9.257  31.681  0.00  0.00    +0.210 HD
ENDBRANCH  27  37
BRANCH  25  39
ATOM     39  O   UNL     1      -4.685   7.539  27.057  0.00  0.00    -0.343 OA
ATOM     40  C   UNL     1      -5.322   7.971  25.828  0.00  0.00    +0.198 C 
ENDBRANCH  25  39
ENDBRANCH  22  23
BRANCH  22  41
ATOM     41  O   UNL     1      -4.961  12.657  26.811  0.00  0.00    -0.387 OA
ATOM     42  H   UNL     1      -5.481  12.385  26.051  0.00  0.00    +0.210 HD
ENDBRANCH  22  41
ENDBRANCH   1  22
TORSDOF 14
