REMARK VINA RESULT:    -4.873      3.833      9.214
REMARK INTER + INTRA:         -11.527
REMARK INTER:                  -8.565
REMARK INTRA:                  -2.962
REMARK UNBOUND:                -3.093
REMARK  Name = lig_assembled_80.pdb
REMARK  16 active torsions:
REMARK  status: ('A' for Active; 'I' for Inactive)
REMARK    1  A    between atoms: _2  and  _10
REMARK    2  A    between atoms: _5  and  _24
REMARK    3  A    between atoms: _7  and  _8
REMARK    4  A    between atoms: _7  and  _24
REMARK    5  A    between atoms: _20  and  _40
REMARK    6  A    between atoms: _22  and  _28
REMARK    7  A    between atoms: _23  and  _27
REMARK    8  A    between atoms: _27  and  _28
REMARK    9  A    between atoms: _30  and  _31
REMARK   10  A    between atoms: _32  and  _33
REMARK   11  A    between atoms: _34  and  _36
REMARK   12  A    between atoms: _36  and  _37
REMARK   13  A    between atoms: _36  and  _38
REMARK   14  A    between atoms: _38  and  _39
REMARK   15  A    between atoms: _38  and  _40
REMARK   16  A    between atoms: _41  and  _43
REMARK                            x       y       z     vdW  Elec       q    Type
REMARK                         _______ _______ _______ _____ _____    ______ ____
ROOT
ATOM      1  C   UNL     1      -5.688   6.294  22.981  0.00  0.00    +0.141 C 
ENDROOT
BRANCH   1   4
ATOM      2  C   UNL     1      -7.107   6.351  20.959  0.00  0.00    +0.401 C 
ATOM      3  O   UNL     1      -6.441   5.508  20.353  0.00  0.00    -0.226 OA
ATOM      4  N   UNL     1      -6.823   6.781  22.189  0.00  0.00    -0.279 N 
ATOM      5  H   UNL     1      -7.424   7.483  22.599  0.00  0.00    +0.152 HD
BRANCH   2   6
ATOM      6  O   UNL     1      -8.254   6.918  20.322  0.00  0.00    -0.444 OA
BRANCH   6   7
ATOM      7  C   UNL     1      -8.174   8.344  20.374  0.00  0.00    +0.292 C 
BRANCH   7   9
ATOM      8  N   UNL     1      -7.956   8.999  18.008  0.00  0.00    -0.131 NA
ATOM      9  C   UNL     1      -7.379   8.858  19.240  0.00  0.00    +0.120 A 
ATOM     10  C   UNL     1      -6.063   9.261  19.180  0.00  0.00    +0.138 A 
ATOM     11  N   UNL     1      -5.883   9.585  17.862  0.00  0.00    -0.239 N 
ATOM     12  N   UNL     1      -7.037   9.459  17.171  0.00  0.00    -0.065 NA
BRANCH  11  13
ATOM     13  C   UNL     1      -4.721  10.183  17.193  0.00  0.00    +0.195 C 
ATOM     14  C   UNL     1      -4.391   9.348  15.963  0.00  0.00    +0.041 C 
ATOM     15  C   UNL     1      -3.042   9.731  15.391  0.00  0.00    +0.039 C 
ATOM     16  C   UNL     1      -3.194  10.902  14.472  0.00  0.00    -0.026 A 
ATOM     17  C   UNL     1      -3.607  12.159  14.917  0.00  0.00    +0.037 A 
ATOM     18  C   UNL     1      -3.608  13.239  14.018  0.00  0.00    +0.023 A 
ATOM     19  C   UNL     1      -3.318  13.052  12.668  0.00  0.00    +0.002 A 
ATOM     20  C   UNL     1      -2.978  11.788  12.208  0.00  0.00    +0.000 A 
ATOM     21  N   UNL     1      -4.118  12.448  16.194  0.00  0.00    -0.284 N 
ATOM     22  H   UNL     1      -4.343  13.427  16.349  0.00  0.00    +0.155 HD
ATOM     23  C   UNL     1      -2.891  10.727  13.108  0.00  0.00    +0.005 A 
ATOM     24  C   UNL     1      -4.895  11.687  17.019  0.00  0.00    +0.242 C 
ATOM     25  O   UNL     1      -5.692  12.330  17.713  0.00  0.00    -0.273 OA
ENDBRANCH  11  13
ENDBRANCH   7   9
ENDBRANCH   6   7
ENDBRANCH   2   6
ENDBRANCH   1   4
BRANCH   1  26
ATOM     26  C   UNL     1      -5.258   7.303  24.040  0.00  0.00    +0.163 C 
BRANCH  26  27
ATOM     27  O   UNL     1      -4.120   6.804  24.762  0.00  0.00    -0.388 OA
ATOM     28  H   UNL     1      -4.266   5.884  24.996  0.00  0.00    +0.210 HD
ENDBRANCH  26  27
BRANCH  26  29
ATOM     29  C   UNL     1      -4.936   8.649  23.368  0.00  0.00    +0.175 C 
BRANCH  29  30
ATOM     30  C   UNL     1      -3.901   9.459  24.162  0.00  0.00    +0.176 C 
ATOM     31  O   UNL     1      -4.269   9.399  25.568  0.00  0.00    -0.332 OA
ATOM     32  C   UNL     1      -3.328  10.033  26.496  0.00  0.00    +0.277 C 
ATOM     33  C   UNL     1      -3.070  11.503  26.085  0.00  0.00    +0.110 C 
ATOM     34  C   UNL     1      -2.706  11.621  24.590  0.00  0.00    +0.143 C 
ATOM     35  C   UNL     1      -3.749  10.925  23.715  0.00  0.00    +0.133 C 
BRANCH  35  36
ATOM     36  N   UNL     1      -3.348  10.968  22.300  0.00  0.00    -0.308 N 
ATOM     37  H   UNL     1      -2.538  10.431  22.023  0.00  0.00    +0.149 HD
ATOM     38  C   UNL     1      -3.982  11.672  21.359  0.00  0.00    +0.210 C 
ATOM     39  C   UNL     1      -5.197  12.501  21.818  0.00  0.00    +0.109 C 
ATOM     40  O   UNL     1      -3.632  11.678  20.178  0.00  0.00    -0.276 OA
ENDBRANCH  35  36
BRANCH  32  41
ATOM     41  C   UNL     1      -1.991   9.264  26.530  0.00  0.00    +0.414 C 
ATOM     42  O   UNL     1      -1.980   8.035  26.479  0.00  0.00    -0.240 OA
ATOM     43  O   UNL     1      -0.923   9.873  26.608  0.00  0.00    -0.240 OA
ENDBRANCH  32  41
BRANCH  34  44
ATOM     44  O   UNL     1      -2.626  12.998  24.221  0.00  0.00    -0.390 OA
ATOM     45  H   UNL     1      -2.335  13.516  24.975  0.00  0.00    +0.210 HD
ENDBRANCH  34  44
BRANCH  32  46
ATOM     46  O   UNL     1      -3.928  10.026  27.817  0.00  0.00    -0.343 OA
ATOM     47  C   UNL     1      -3.673  11.212  28.612  0.00  0.00    +0.198 C 
ENDBRANCH  32  46
ENDBRANCH  29  30
BRANCH  29  48
ATOM     48  O   UNL     1      -6.143   9.418  23.195  0.00  0.00    -0.387 OA
ATOM     49  H   UNL     1      -6.879   8.955  23.601  0.00  0.00    +0.210 HD
ENDBRANCH  29  48
ENDBRANCH  26  29
ENDBRANCH   1  26
TORSDOF 14
