REMARK VINA RESULT:    -4.893      2.268      6.597
REMARK INTER + INTRA:         -11.623
REMARK INTER:                  -6.872
REMARK INTRA:                  -4.750
REMARK UNBOUND:                -2.869
REMARK  Name = lig_assembled_71.pdb
REMARK  17 active torsions:
REMARK  status: ('A' for Active; 'I' for Inactive)
REMARK    1  A    between atoms: _2  and  _12
REMARK    2  A    between atoms: _7  and  _22
REMARK    3  A    between atoms: _9  and  _10
REMARK    4  A    between atoms: _9  and  _22
REMARK    5  A    between atoms: _12  and  _13
REMARK    6  A    between atoms: _18  and  _38
REMARK    7  A    between atoms: _20  and  _26
REMARK    8  A    between atoms: _21  and  _25
REMARK    9  A    between atoms: _25  and  _26
REMARK   10  A    between atoms: _28  and  _29
REMARK   11  A    between atoms: _30  and  _31
REMARK   12  A    between atoms: _32  and  _34
REMARK   13  A    between atoms: _34  and  _35
REMARK   14  A    between atoms: _34  and  _36
REMARK   15  A    between atoms: _36  and  _37
REMARK   16  A    between atoms: _36  and  _38
REMARK   17  A    between atoms: _39  and  _41
REMARK                            x       y       z     vdW  Elec       q    Type
REMARK                         _______ _______ _______ _____ _____    ______ ____
ROOT
ATOM      1  C   UNL     1      -3.060  10.922  26.217  0.00  0.00    +0.163 C 
ENDROOT
BRANCH   1   2
ATOM      2  O   UNL     1      -1.776  10.343  26.505  0.00  0.00    -0.388 OA
ATOM      3  H   UNL     1      -1.090  10.999  26.363  0.00  0.00    +0.210 HD
ENDBRANCH   1   2
BRANCH   1   4
ATOM      4  C   UNL     1      -3.361  12.043  27.206  0.00  0.00    +0.141 C 
BRANCH   4   7
ATOM      5  C   UNL     1      -3.886  11.779  29.606  0.00  0.00    +0.401 C 
ATOM      6  O   UNL     1      -5.027  12.235  29.503  0.00  0.00    -0.226 OA
ATOM      7  N   UNL     1      -3.036  11.659  28.585  0.00  0.00    -0.279 N 
ATOM      8  H   UNL     1      -2.118  11.281  28.771  0.00  0.00    +0.152 HD
BRANCH   5   9
ATOM      9  O   UNL     1      -3.422  11.350  30.889  0.00  0.00    -0.444 OA
BRANCH   9  10
ATOM     10  C   UNL     1      -4.146  10.185  31.294  0.00  0.00    +0.292 C 
BRANCH  10  12
ATOM     11  N   UNL     1      -4.893   8.508  29.622  0.00  0.00    -0.131 NA
ATOM     12  C   UNL     1      -3.886   9.070  30.364  0.00  0.00    +0.120 A 
ATOM     13  C   UNL     1      -2.705   8.430  30.071  0.00  0.00    +0.137 A 
ATOM     14  N   UNL     1      -3.057   7.478  29.159  0.00  0.00    -0.242 N 
ATOM     15  N   UNL     1      -4.372   7.539  28.880  0.00  0.00    -0.065 NA
BRANCH  14  16
ATOM     16  C   UNL     1      -2.202   6.565  28.428  0.00  0.00    +0.241 C 
BRANCH  16  17
ATOM     17  C   UNL     1      -2.437   6.647  26.942  0.00  0.00    +0.241 C 
ATOM     18  O   UNL     1      -1.731   7.376  26.247  0.00  0.00    -0.273 OA
ATOM     19  N   UNL     1      -3.518   5.920  26.493  0.00  0.00    -0.253 N 
ATOM     20  H   UNL     1      -4.186   5.503  27.123  0.00  0.00    +0.158 HD
ATOM     21  C   UNL     1      -3.896   5.839  25.157  0.00  0.00    +0.221 A 
ATOM     22  N   UNL     1      -5.121   5.338  24.936  0.00  0.00    -0.223 NA
ATOM     23  C   UNL     1      -5.534   5.322  23.650  0.00  0.00    +0.116 A 
ATOM     24  C   UNL     1      -4.767   5.755  22.595  0.00  0.00    +0.039 A 
ATOM     25  C   UNL     1      -3.516   6.203  22.927  0.00  0.00    +0.116 A 
ATOM     26  N   UNL     1      -3.069   6.252  24.192  0.00  0.00    -0.223 NA
ENDBRANCH  16  17
ENDBRANCH  14  16
ENDBRANCH  10  12
ENDBRANCH   9  10
ENDBRANCH   5   9
ENDBRANCH   4   7
ENDBRANCH   1   4
BRANCH   1  27
ATOM     27  C   UNL     1      -4.171   9.861  26.290  0.00  0.00    +0.175 C 
BRANCH  27  28
ATOM     28  C   UNL     1      -4.824   9.613  24.922  0.00  0.00    +0.176 C 
ATOM     29  O   UNL     1      -4.669  10.821  24.127  0.00  0.00    -0.332 OA
ATOM     30  C   UNL     1      -5.143  10.734  22.743  0.00  0.00    +0.277 C 
ATOM     31  C   UNL     1      -6.620  10.268  22.705  0.00  0.00    +0.110 C 
ATOM     32  C   UNL     1      -6.840   9.004  23.562  0.00  0.00    +0.143 C 
ATOM     33  C   UNL     1      -6.308   9.204  24.981  0.00  0.00    +0.133 C 
BRANCH  33  34
ATOM     34  N   UNL     1      -6.445   7.964  25.762  0.00  0.00    -0.308 N 
ATOM     35  H   UNL     1      -5.827   7.196  25.540  0.00  0.00    +0.149 HD
ATOM     36  C   UNL     1      -7.332   7.788  26.745  0.00  0.00    +0.210 C 
ATOM     37  C   UNL     1      -8.277   8.968  27.041  0.00  0.00    +0.109 C 
ATOM     38  O   UNL     1      -7.415   6.743  27.392  0.00  0.00    -0.276 OA
ENDBRANCH  33  34
BRANCH  30  39
ATOM     39  C   UNL     1      -4.273   9.755  21.927  0.00  0.00    +0.414 C 
ATOM     40  O   UNL     1      -4.767   9.104  21.008  0.00  0.00    -0.240 OA
ATOM     41  O   UNL     1      -3.077   9.617  22.188  0.00  0.00    -0.240 OA
ENDBRANCH  30  39
BRANCH  30  42
ATOM     42  O   UNL     1      -5.067  12.059  22.158  0.00  0.00    -0.343 OA
ATOM     43  C   UNL     1      -4.245  13.004  22.889  0.00  0.00    +0.198 C 
ENDBRANCH  30  42
BRANCH  32  44
ATOM     44  O   UNL     1      -8.234   8.699  23.621  0.00  0.00    -0.390 OA
ATOM     45  H   UNL     1      -8.570   8.902  24.497  0.00  0.00    +0.210 HD
ENDBRANCH  32  44
ENDBRANCH  27  28
BRANCH  27  46
ATOM     46  O   UNL     1      -5.169  10.252  27.253  0.00  0.00    -0.387 OA
ATOM     47  H   UNL     1      -5.850  10.769  26.817  0.00  0.00    +0.210 HD
ENDBRANCH  27  46
ENDBRANCH   1  27
TORSDOF 15
