REMARK VINA RESULT:    -3.426      2.854      7.225
REMARK INTER + INTRA:         -10.188
REMARK INTER:                  -6.730
REMARK INTRA:                  -3.458
REMARK UNBOUND:                -3.458
REMARK  Name = lig_assembled_43.pdb
REMARK  20 active torsions:
REMARK  status: ('A' for Active; 'I' for Inactive)
REMARK    1  A    between atoms: _2  and  _9
REMARK    2  A    between atoms: _4  and  _18
REMARK    3  A    between atoms: _6  and  _7
REMARK    4  A    between atoms: _6  and  _18
REMARK    5  A    between atoms: _9  and  _10
REMARK    6  A    between atoms: _10  and  _11
REMARK    7  A    between atoms: _11  and  _12
REMARK    8  A    between atoms: _12  and  _13
REMARK    9  A    between atoms: _14  and  _34
REMARK   10  A    between atoms: _16  and  _22
REMARK   11  A    between atoms: _17  and  _21
REMARK   12  A    between atoms: _21  and  _22
REMARK   13  A    between atoms: _24  and  _25
REMARK   14  A    between atoms: _26  and  _27
REMARK   15  A    between atoms: _28  and  _30
REMARK   16  A    between atoms: _30  and  _31
REMARK   17  A    between atoms: _30  and  _32
REMARK   18  A    between atoms: _32  and  _33
REMARK   19  A    between atoms: _32  and  _34
REMARK   20  A    between atoms: _35  and  _37
REMARK                            x       y       z     vdW  Elec       q    Type
REMARK                         _______ _______ _______ _____ _____    ______ ____
ROOT
ATOM      1  C   UNL     1      -2.820  10.171  29.987  0.00  0.00    +0.163 C 
ENDROOT
BRANCH   1   2
ATOM      2  O   UNL     1      -2.736   9.031  29.117  0.00  0.00    -0.388 OA
ATOM      3  H   UNL     1      -3.354   9.136  28.390  0.00  0.00    +0.210 HD
ENDBRANCH   1   2
BRANCH   1   4
ATOM      4  C   UNL     1      -4.016  11.063  29.612  0.00  0.00    +0.175 C 
BRANCH   4   5
ATOM      5  C   UNL     1      -4.367  10.960  28.120  0.00  0.00    +0.176 C 
ATOM      6  O   UNL     1      -3.266  11.530  27.361  0.00  0.00    -0.332 OA
ATOM      7  C   UNL     1      -3.378  11.423  25.903  0.00  0.00    +0.277 C 
ATOM      8  C   UNL     1      -4.718  12.030  25.418  0.00  0.00    +0.110 C 
ATOM      9  C   UNL     1      -5.916  11.478  26.218  0.00  0.00    +0.143 C 
ATOM     10  C   UNL     1      -5.692  11.638  27.722  0.00  0.00    +0.133 C 
BRANCH  10  11
ATOM     11  N   UNL     1      -6.800  11.030  28.475  0.00  0.00    -0.308 N 
ATOM     12  H   UNL     1      -6.949  10.036  28.375  0.00  0.00    +0.149 HD
ATOM     13  C   UNL     1      -7.622  11.707  29.282  0.00  0.00    +0.210 C 
ATOM     14  C   UNL     1      -7.385  13.225  29.393  0.00  0.00    +0.109 C 
ATOM     15  O   UNL     1      -8.533  11.169  29.912  0.00  0.00    -0.276 OA
ENDBRANCH  10  11
BRANCH   7  16
ATOM     16  C   UNL     1      -3.288   9.950  25.454  0.00  0.00    +0.414 C 
ATOM     17  O   UNL     1      -3.970   9.545  24.514  0.00  0.00    -0.240 OA
ATOM     18  O   UNL     1      -2.532   9.167  26.031  0.00  0.00    -0.240 OA
ENDBRANCH   7  16
BRANCH   9  19
ATOM     19  O   UNL     1      -7.106  12.173  25.843  0.00  0.00    -0.390 OA
ATOM     20  H   UNL     1      -7.580  11.664  25.181  0.00  0.00    +0.210 HD
ENDBRANCH   9  19
BRANCH   7  21
ATOM     21  O   UNL     1      -2.292  12.181  25.312  0.00  0.00    -0.343 OA
ATOM     22  C   UNL     1      -2.680  13.068  24.233  0.00  0.00    +0.198 C 
ENDBRANCH   7  21
ENDBRANCH   4   5
BRANCH   4  23
ATOM     23  O   UNL     1      -3.743  12.434  29.964  0.00  0.00    -0.387 OA
ATOM     24  H   UNL     1      -4.037  12.598  30.863  0.00  0.00    +0.210 HD
ENDBRANCH   4  23
ENDBRANCH   1   4
BRANCH   1  25
ATOM     25  C   UNL     1      -2.961   9.713  31.435  0.00  0.00    +0.141 C 
BRANCH  25  28
ATOM     26  C   UNL     1      -3.923  10.875  33.393  0.00  0.00    +0.401 C 
ATOM     27  O   UNL     1      -4.697   9.957  33.675  0.00  0.00    -0.226 OA
ATOM     28  N   UNL     1      -3.081  10.848  32.359  0.00  0.00    -0.279 N 
ATOM     29  H   UNL     1      -2.493  11.654  32.202  0.00  0.00    +0.152 HD
BRANCH  26  30
ATOM     30  O   UNL     1      -3.915  12.051  34.206  0.00  0.00    -0.444 OA
BRANCH  30  31
ATOM     31  C   UNL     1      -4.978  12.919  33.802  0.00  0.00    +0.292 C 
BRANCH  31  33
ATOM     32  N   UNL     1      -3.369  14.020  32.275  0.00  0.00    -0.131 NA
ATOM     33  C   UNL     1      -4.437  14.114  33.130  0.00  0.00    +0.120 A 
ATOM     34  C   UNL     1      -4.834  15.430  33.210  0.00  0.00    +0.137 A 
ATOM     35  N   UNL     1      -3.967  16.083  32.386  0.00  0.00    -0.251 N 
ATOM     36  N   UNL     1      -3.090  15.236  31.825  0.00  0.00    -0.065 NA
BRANCH  35  37
ATOM     37  C   UNL     1      -3.893  17.503  32.113  0.00  0.00    +0.145 C 
BRANCH  37  38
ATOM     38  C   UNL     1      -5.123  17.991  31.354  0.00  0.00    +0.024 C 
BRANCH  38  39
ATOM     39  C   UNL     1      -4.971  17.818  29.841  0.00  0.00    +0.006 C 
BRANCH  39  40
ATOM     40  C   UNL     1      -6.086  16.927  29.288  0.00  0.00    +0.026 C 
BRANCH  40  41
ATOM     41  C   UNL     1      -7.380  17.126  30.021  0.00  0.00    -0.034 C 
ATOM     42  C   UNL     1      -8.585  17.056  29.440  0.00  0.00    +0.004 C 
ENDBRANCH  40  41
ENDBRANCH  39  40
ENDBRANCH  38  39
ENDBRANCH  37  38
ENDBRANCH  35  37
ENDBRANCH  31  33
ENDBRANCH  30  31
ENDBRANCH  26  30
ENDBRANCH  25  28
ENDBRANCH   1  25
TORSDOF 18
