REMARK VINA RESULT:    -4.836      3.950     11.003
REMARK INTER + INTRA:         -11.619
REMARK INTER:                  -8.557
REMARK INTRA:                  -3.062
REMARK UNBOUND:                -2.966
REMARK  Name = lig_assembled_89.pdb
REMARK  19 active torsions:
REMARK  status: ('A' for Active; 'I' for Inactive)
REMARK    1  A    between atoms: _2  and  _12
REMARK    2  A    between atoms: _5  and  _20
REMARK    3  A    between atoms: _7  and  _29
REMARK    4  A    between atoms: _9  and  _10
REMARK    5  A    between atoms: _9  and  _29
REMARK    6  A    between atoms: _20  and  _21
REMARK    7  A    between atoms: _20  and  _22
REMARK    8  A    between atoms: _25  and  _45
REMARK    9  A    between atoms: _27  and  _33
REMARK   10  A    between atoms: _28  and  _32
REMARK   11  A    between atoms: _32  and  _33
REMARK   12  A    between atoms: _35  and  _36
REMARK   13  A    between atoms: _37  and  _38
REMARK   14  A    between atoms: _39  and  _41
REMARK   15  A    between atoms: _41  and  _42
REMARK   16  A    between atoms: _41  and  _43
REMARK   17  A    between atoms: _43  and  _44
REMARK   18  A    between atoms: _43  and  _45
REMARK   19  A    between atoms: _46  and  _48
REMARK                            x       y       z     vdW  Elec       q    Type
REMARK                         _______ _______ _______ _____ _____    ______ ____
ROOT
ATOM      1  C   UNL     1      -4.217  13.943  22.306  0.00  0.00    +0.401 C 
ATOM      2  O   UNL     1      -3.207  14.444  21.805  0.00  0.00    -0.226 OA
ATOM      3  N   UNL     1      -4.233  13.320  23.484  0.00  0.00    -0.279 N 
ATOM      4  H   UNL     1      -5.113  12.949  23.816  0.00  0.00    +0.152 HD
ENDROOT
BRANCH   3   5
ATOM      5  C   UNL     1      -3.045  13.140  24.328  0.00  0.00    +0.141 C 
BRANCH   5   6
ATOM      6  C   UNL     1      -2.846  11.682  24.727  0.00  0.00    +0.163 C 
BRANCH   6   7
ATOM      7  O   UNL     1      -2.915  11.550  26.157  0.00  0.00    -0.388 OA
ATOM      8  H   UNL     1      -3.800  11.278  26.411  0.00  0.00    +0.210 HD
ENDBRANCH   6   7
BRANCH   6   9
ATOM      9  C   UNL     1      -3.914  10.811  24.042  0.00  0.00    +0.175 C 
BRANCH   9  10
ATOM     10  C   UNL     1      -4.229   9.543  24.849  0.00  0.00    +0.176 C 
ATOM     11  O   UNL     1      -2.967   8.930  25.231  0.00  0.00    -0.332 OA
ATOM     12  C   UNL     1      -3.070   7.756  26.102  0.00  0.00    +0.277 C 
ATOM     13  C   UNL     1      -3.997   6.691  25.468  0.00  0.00    +0.110 C 
ATOM     14  C   UNL     1      -5.340   7.302  25.016  0.00  0.00    +0.143 C 
ATOM     15  C   UNL     1      -5.116   8.518  24.117  0.00  0.00    +0.133 C 
BRANCH  15  16
ATOM     16  N   UNL     1      -6.400   9.142  23.764  0.00  0.00    -0.308 N 
ATOM     17  H   UNL     1      -6.941   9.562  24.508  0.00  0.00    +0.149 HD
ATOM     18  C   UNL     1      -6.899   9.191  22.526  0.00  0.00    +0.210 C 
ATOM     19  C   UNL     1      -6.064   8.520  21.419  0.00  0.00    +0.109 C 
ATOM     20  O   UNL     1      -7.971   9.734  22.258  0.00  0.00    -0.276 OA
ENDBRANCH  15  16
BRANCH  12  21
ATOM     21  C   UNL     1      -3.614   8.152  27.491  0.00  0.00    +0.414 C 
ATOM     22  O   UNL     1      -3.272   9.213  28.012  0.00  0.00    -0.240 OA
ATOM     23  O   UNL     1      -4.394   7.410  28.090  0.00  0.00    -0.240 OA
ENDBRANCH  12  21
BRANCH  14  24
ATOM     24  O   UNL     1      -6.099   6.324  24.304  0.00  0.00    -0.390 OA
ATOM     25  H   UNL     1      -6.933   6.173  24.755  0.00  0.00    +0.210 HD
ENDBRANCH  14  24
BRANCH  12  26
ATOM     26  O   UNL     1      -1.744   7.183  26.243  0.00  0.00    -0.343 OA
ATOM     27  C   UNL     1      -1.718   5.757  26.501  0.00  0.00    +0.198 C 
ENDBRANCH  12  26
ENDBRANCH   9  10
BRANCH   9  28
ATOM     28  O   UNL     1      -3.489  10.460  22.710  0.00  0.00    -0.387 OA
ATOM     29  H   UNL     1      -3.859  11.084  22.081  0.00  0.00    +0.210 HD
ENDBRANCH   9  28
ENDBRANCH   6   9
ENDBRANCH   5   6
ENDBRANCH   3   5
BRANCH   1  30
ATOM     30  O   UNL     1      -5.457  14.028  21.599  0.00  0.00    -0.444 OA
BRANCH  30  31
ATOM     31  C   UNL     1      -6.092  12.746  21.595  0.00  0.00    +0.292 C 
BRANCH  31  33
ATOM     32  N   UNL     1      -7.101  11.829  19.541  0.00  0.00    -0.131 NA
ATOM     33  C   UNL     1      -5.984  12.129  20.262  0.00  0.00    +0.121 A 
ATOM     34  C   UNL     1      -4.873  11.784  19.530  0.00  0.00    +0.145 A 
ATOM     35  N   UNL     1      -5.364  11.292  18.336  0.00  0.00    -0.199 N 
ATOM     36  N   UNL     1      -6.716  11.330  18.374  0.00  0.00    -0.059 NA
BRANCH  35  37
ATOM     37  C   UNL     1      -4.580  10.903  17.211  0.00  0.00    +0.186 A 
ATOM     38  C   UNL     1      -4.301   9.642  16.723  0.00  0.00    +0.158 A 
ATOM     39  C   UNL     1      -4.566   8.323  17.208  0.00  0.00    +0.280 A 
ATOM     40  O   UNL     1      -4.824   8.096  18.383  0.00  0.00    -0.265 OA
ATOM     41  N   UNL     1      -4.477   7.299  16.244  0.00  0.00    -0.302 N 
ATOM     42  C   UNL     1      -3.731   7.513  15.024  0.00  0.00    +0.069 A 
ATOM     43  C   UNL     1      -3.371   6.466  14.162  0.00  0.00    +0.028 A 
ATOM     44  C   UNL     1      -2.604   6.703  13.014  0.00  0.00    +0.002 A 
ATOM     45  C   UNL     1      -2.187   7.991  12.695  0.00  0.00    +0.002 A 
ATOM     46  C   UNL     1      -2.537   9.055  13.521  0.00  0.00    +0.028 A 
ATOM     47  C   UNL     1      -3.293   8.810  14.676  0.00  0.00    +0.072 A 
ATOM     48  N   UNL     1      -3.656   9.859  15.535  0.00  0.00    -0.291 N 
ATOM     49  C   UNL     1      -3.473  11.213  15.410  0.00  0.00    +0.207 A 
ATOM     50  N   UNL     1      -4.029  11.878  16.400  0.00  0.00    -0.216 NA
BRANCH  41  51
ATOM     51  C   UNL     1      -4.984   5.955  16.611  0.00  0.00    +0.085 C 
ATOM     52  C   UNL     1      -6.440   5.959  17.116  0.00  0.00    +0.030 C 
ATOM     53  C   UNL     1      -4.070   5.259  17.618  0.00  0.00    +0.030 C 
ENDBRANCH  41  51
ENDBRANCH  35  37
ENDBRANCH  31  33
ENDBRANCH  30  31
ENDBRANCH   1  30
TORSDOF 15
