REMARK VINA RESULT:    -5.535      2.397      6.586
REMARK INTER + INTRA:         -12.245
REMARK INTER:                  -8.056
REMARK INTRA:                  -4.189
REMARK UNBOUND:                -1.695
REMARK  Name = lig_assembled_12.pdb
REMARK  19 active torsions:
REMARK  status: ('A' for Active; 'I' for Inactive)
REMARK    1  A    between atoms: _2  and  _9
REMARK    2  A    between atoms: _4  and  _21
REMARK    3  A    between atoms: _6  and  _7
REMARK    4  A    between atoms: _6  and  _21
REMARK    5  A    between atoms: _9  and  _16
REMARK    6  A    between atoms: _10  and  _11
REMARK    7  A    between atoms: _10  and  _16
REMARK    8  A    between atoms: _17  and  _37
REMARK    9  A    between atoms: _19  and  _25
REMARK   10  A    between atoms: _20  and  _24
REMARK   11  A    between atoms: _24  and  _25
REMARK   12  A    between atoms: _27  and  _28
REMARK   13  A    between atoms: _29  and  _30
REMARK   14  A    between atoms: _31  and  _33
REMARK   15  A    between atoms: _33  and  _34
REMARK   16  A    between atoms: _33  and  _35
REMARK   17  A    between atoms: _35  and  _36
REMARK   18  A    between atoms: _35  and  _37
REMARK   19  A    between atoms: _38  and  _40
REMARK                            x       y       z     vdW  Elec       q    Type
REMARK                         _______ _______ _______ _____ _____    ______ ____
ROOT
ATOM      1  C   UNL     1      -3.589  11.179  21.595  0.00  0.00    +0.163 C 
ENDROOT
BRANCH   1   2
ATOM      2  O   UNL     1      -2.882  12.099  22.444  0.00  0.00    -0.388 OA
ATOM      3  H   UNL     1      -2.053  12.347  22.027  0.00  0.00    +0.210 HD
ENDBRANCH   1   2
BRANCH   1   4
ATOM      4  C   UNL     1      -4.350  10.134  22.430  0.00  0.00    +0.175 C 
BRANCH   4   5
ATOM      5  C   UNL     1      -4.299  10.446  23.933  0.00  0.00    +0.176 C 
ATOM      6  O   UNL     1      -3.049   9.919  24.456  0.00  0.00    -0.332 OA
ATOM      7  C   UNL     1      -2.775  10.217  25.865  0.00  0.00    +0.277 C 
ATOM      8  C   UNL     1      -3.954   9.752  26.755  0.00  0.00    +0.110 C 
ATOM      9  C   UNL     1      -5.308  10.262  26.220  0.00  0.00    +0.143 C 
ATOM     10  C   UNL     1      -5.487   9.900  24.745  0.00  0.00    +0.133 C 
BRANCH  10  11
ATOM     11  N   UNL     1      -6.741  10.466  24.224  0.00  0.00    -0.308 N 
ATOM     12  H   UNL     1      -6.848  11.471  24.242  0.00  0.00    +0.149 HD
ATOM     13  C   UNL     1      -7.746   9.740  23.729  0.00  0.00    +0.210 C 
ATOM     14  C   UNL     1      -7.563   8.211  23.739  0.00  0.00    +0.109 C 
ATOM     15  O   UNL     1      -8.779  10.243  23.285  0.00  0.00    -0.276 OA
ENDBRANCH  10  11
BRANCH   7  16
ATOM     16  C   UNL     1      -2.541  11.728  26.069  0.00  0.00    +0.414 C 
ATOM     17  O   UNL     1      -1.972  12.390  25.201  0.00  0.00    -0.240 OA
ATOM     18  O   UNL     1      -2.921  12.286  27.099  0.00  0.00    -0.240 OA
ENDBRANCH   7  16
BRANCH   9  19
ATOM     19  O   UNL     1      -6.373   9.688  26.979  0.00  0.00    -0.390 OA
ATOM     20  H   UNL     1      -6.175   9.760  27.915  0.00  0.00    +0.210 HD
ENDBRANCH   9  19
BRANCH   7  21
ATOM     21  O   UNL     1      -1.588   9.482  26.257  0.00  0.00    -0.343 OA
ATOM     22  C   UNL     1      -1.453   9.252  27.683  0.00  0.00    +0.198 C 
ENDBRANCH   7  21
ENDBRANCH   4   5
BRANCH   4  23
ATOM     23  O   UNL     1      -3.823   8.817  22.178  0.00  0.00    -0.387 OA
ATOM     24  H   UNL     1      -3.268   8.838  21.394  0.00  0.00    +0.210 HD
ENDBRANCH   4  23
ENDBRANCH   1   4
BRANCH   1  25
ATOM     25  C   UNL     1      -4.571  11.936  20.708  0.00  0.00    +0.141 C 
BRANCH  25  28
ATOM     26  C   UNL     1      -6.531  13.205  21.516  0.00  0.00    +0.401 C 
ATOM     27  O   UNL     1      -7.354  12.443  21.003  0.00  0.00    -0.226 OA
ATOM     28  N   UNL     1      -5.210  13.047  21.423  0.00  0.00    -0.279 N 
ATOM     29  H   UNL     1      -4.616  13.731  21.870  0.00  0.00    +0.152 HD
BRANCH  26  30
ATOM     30  O   UNL     1      -6.999  14.335  22.257  0.00  0.00    -0.444 OA
BRANCH  30  31
ATOM     31  C   UNL     1      -6.128  14.573  23.366  0.00  0.00    +0.292 C 
BRANCH  31  33
ATOM     32  N   UNL     1      -7.932  13.407  24.604  0.00  0.00    -0.131 NA
ATOM     33  C   UNL     1      -6.691  13.993  24.598  0.00  0.00    +0.120 A 
ATOM     34  C   UNL     1      -6.156  13.924  25.863  0.00  0.00    +0.139 A 
ATOM     35  N   UNL     1      -7.127  13.313  26.600  0.00  0.00    -0.226 N 
ATOM     36  N   UNL     1      -8.184  12.982  25.836  0.00  0.00    -0.063 NA
BRANCH  35  37
ATOM     37  C   UNL     1      -7.109  12.965  28.011  0.00  0.00    +0.305 C 
BRANCH  37  38
ATOM     38  O   UNL     1      -5.774  13.063  28.500  0.00  0.00    -0.353 OA
BRANCH  38  39
ATOM     39  C   UNL     1      -5.509  12.089  29.502  0.00  0.00    +0.197 C 
BRANCH  39  40
ATOM     40  C   UNL     1      -4.393  12.617  30.362  0.00  0.00    -0.022 A 
ATOM     41  C   UNL     1      -3.545  11.739  31.050  0.00  0.00    +0.006 A 
ATOM     42  C   UNL     1      -2.536  12.230  31.878  0.00  0.00    +0.000 A 
ATOM     43  C   UNL     1      -2.369  13.605  32.035  0.00  0.00    +0.000 A 
ATOM     44  C   UNL     1      -3.213  14.489  31.366  0.00  0.00    +0.000 A 
ATOM     45  C   UNL     1      -4.223  13.999  30.536  0.00  0.00    +0.006 A 
ENDBRANCH  39  40
ENDBRANCH  38  39
ENDBRANCH  37  38
ENDBRANCH  35  37
ENDBRANCH  31  33
ENDBRANCH  30  31
ENDBRANCH  26  30
ENDBRANCH  25  28
ENDBRANCH   1  25
TORSDOF 17
