REMARK VINA RESULT:    -4.485      3.590      7.748
REMARK INTER + INTRA:         -11.136
REMARK INTER:                  -8.296
REMARK INTRA:                  -2.840
REMARK UNBOUND:                -3.373
REMARK  Name = lig_assembled_27.pdb
REMARK  16 active torsions:
REMARK  status: ('A' for Active; 'I' for Inactive)
REMARK    1  A    between atoms: _2  and  _9
REMARK    2  A    between atoms: _4  and  _18
REMARK    3  A    between atoms: _6  and  _7
REMARK    4  A    between atoms: _6  and  _18
REMARK    5  A    between atoms: _14  and  _34
REMARK    6  A    between atoms: _16  and  _22
REMARK    7  A    between atoms: _17  and  _21
REMARK    8  A    between atoms: _21  and  _22
REMARK    9  A    between atoms: _24  and  _25
REMARK   10  A    between atoms: _26  and  _27
REMARK   11  A    between atoms: _28  and  _30
REMARK   12  A    between atoms: _30  and  _31
REMARK   13  A    between atoms: _30  and  _32
REMARK   14  A    between atoms: _32  and  _33
REMARK   15  A    between atoms: _32  and  _34
REMARK   16  A    between atoms: _35  and  _37
REMARK                            x       y       z     vdW  Elec       q    Type
REMARK                         _______ _______ _______ _____ _____    ______ ____
ROOT
ATOM      1  C   UNL     1      -3.925   7.544  23.725  0.00  0.00    +0.163 C 
ENDROOT
BRANCH   1   2
ATOM      2  O   UNL     1      -3.995   6.955  22.416  0.00  0.00    -0.388 OA
ATOM      3  H   UNL     1      -4.888   7.038  22.074  0.00  0.00    +0.210 HD
ENDBRANCH   1   2
BRANCH   1   4
ATOM      4  C   UNL     1      -4.048   6.460  24.791  0.00  0.00    +0.141 C 
BRANCH   4   7
ATOM      5  C   UNL     1      -2.162   6.751  26.360  0.00  0.00    +0.401 C 
ATOM      6  O   UNL     1      -1.328   6.258  25.597  0.00  0.00    -0.226 OA
ATOM      7  N   UNL     1      -3.456   6.879  26.068  0.00  0.00    -0.279 N 
ATOM      8  H   UNL     1      -4.064   7.288  26.764  0.00  0.00    +0.152 HD
BRANCH   5   9
ATOM      9  O   UNL     1      -1.738   7.216  27.644  0.00  0.00    -0.444 OA
BRANCH   9  10
ATOM     10  C   UNL     1      -2.854   7.233  28.539  0.00  0.00    +0.292 C 
BRANCH  10  12
ATOM     11  N   UNL     1      -4.306   9.142  27.933  0.00  0.00    -0.131 NA
ATOM     12  C   UNL     1      -3.336   8.612  28.733  0.00  0.00    +0.121 A 
ATOM     13  C   UNL     1      -2.956   9.554  29.661  0.00  0.00    +0.143 A 
ATOM     14  N   UNL     1      -3.737  10.655  29.393  0.00  0.00    -0.220 N 
ATOM     15  N   UNL     1      -4.543  10.383  28.338  0.00  0.00    -0.060 NA
BRANCH  14  16
ATOM     16  C   UNL     1      -3.763  11.909  30.056  0.00  0.00    +0.068 A 
ATOM     17  C   UNL     1      -4.629  12.917  29.604  0.00  0.00    +0.028 A 
ATOM     18  C   UNL     1      -4.661  14.157  30.246  0.00  0.00    +0.003 A 
ATOM     19  C   UNL     1      -3.832  14.400  31.340  0.00  0.00    +0.020 A 
ATOM     20  C   UNL     1      -2.974  13.400  31.790  0.00  0.00    +0.043 A 
ATOM     21 CL   UNL     1      -1.950  13.699  33.142  0.00  0.00    -0.083 Cl
ATOM     22  C   UNL     1      -2.932  12.156  31.158  0.00  0.00    +0.047 A 
ENDBRANCH  14  16
ENDBRANCH  10  12
ENDBRANCH   9  10
ENDBRANCH   5   9
ENDBRANCH   4   7
ENDBRANCH   1   4
BRANCH   1  23
ATOM     23  C   UNL     1      -5.040   8.586  23.919  0.00  0.00    +0.175 C 
BRANCH  23  24
ATOM     24  C   UNL     1      -4.523  10.022  23.758  0.00  0.00    +0.176 C 
ATOM     25  O   UNL     1      -4.921  10.776  24.936  0.00  0.00    -0.332 OA
ATOM     26  C   UNL     1      -4.420  12.152  25.007  0.00  0.00    +0.277 C 
ATOM     27  C   UNL     1      -4.808  12.936  23.728  0.00  0.00    +0.110 C 
ATOM     28  C   UNL     1      -4.433  12.159  22.449  0.00  0.00    +0.143 C 
ATOM     29  C   UNL     1      -5.002  10.740  22.482  0.00  0.00    +0.133 C 
BRANCH  29  30
ATOM     30  N   UNL     1      -4.565   9.982  21.298  0.00  0.00    -0.308 N 
ATOM     31  H   UNL     1      -3.577   9.795  21.197  0.00  0.00    +0.149 HD
ATOM     32  C   UNL     1      -5.388   9.526  20.351  0.00  0.00    +0.210 C 
ATOM     33  C   UNL     1      -6.884   9.851  20.522  0.00  0.00    +0.109 C 
ATOM     34  O   UNL     1      -4.996   8.882  19.378  0.00  0.00    -0.276 OA
ENDBRANCH  29  30
BRANCH  26  35
ATOM     35  C   UNL     1      -2.887  12.169  25.176  0.00  0.00    +0.414 C 
ATOM     36  O   UNL     1      -2.208  13.013  24.593  0.00  0.00    -0.240 OA
ATOM     37  O   UNL     1      -2.330  11.339  25.896  0.00  0.00    -0.240 OA
ENDBRANCH  26  35
BRANCH  28  38
ATOM     38  O   UNL     1      -4.941  12.843  21.303  0.00  0.00    -0.390 OA
ATOM     39  H   UNL     1      -5.050  12.221  20.580  0.00  0.00    +0.210 HD
ENDBRANCH  28  38
BRANCH  26  40
ATOM     40  O   UNL     1      -5.045  12.799  26.146  0.00  0.00    -0.343 OA
ATOM     41  C   UNL     1      -5.894  13.928  25.820  0.00  0.00    +0.198 C 
ENDBRANCH  26  40
ENDBRANCH  23  24
BRANCH  23  42
ATOM     42  O   UNL     1      -5.653   8.421  25.213  0.00  0.00    -0.387 OA
ATOM     43  H   UNL     1      -4.992   8.542  25.899  0.00  0.00    +0.210 HD
ENDBRANCH  23  42
ENDBRANCH   1  23
TORSDOF 14
