REMARK VINA RESULT:    -4.773      3.059      6.094
REMARK INTER + INTRA:         -11.043
REMARK INTER:                  -8.555
REMARK INTRA:                  -2.487
REMARK UNBOUND:                -2.363
REMARK  Name = lig_assembled_59.pdb
REMARK  18 active torsions:
REMARK  status: ('A' for Active; 'I' for Inactive)
REMARK    1  A    between atoms: _2  and  _10
REMARK    2  A    between atoms: _5  and  _20
REMARK    3  A    between atoms: _7  and  _8
REMARK    4  A    between atoms: _7  and  _20
REMARK    5  A    between atoms: _13  and  _14
REMARK    6  A    between atoms: _14  and  _15
REMARK    7  A    between atoms: _16  and  _36
REMARK    8  A    between atoms: _18  and  _24
REMARK    9  A    between atoms: _19  and  _23
REMARK   10  A    between atoms: _23  and  _24
REMARK   11  A    between atoms: _26  and  _27
REMARK   12  A    between atoms: _28  and  _29
REMARK   13  A    between atoms: _30  and  _32
REMARK   14  A    between atoms: _32  and  _33
REMARK   15  A    between atoms: _32  and  _34
REMARK   16  A    between atoms: _34  and  _35
REMARK   17  A    between atoms: _34  and  _36
REMARK   18  A    between atoms: _37  and  _39
REMARK                            x       y       z     vdW  Elec       q    Type
REMARK                         _______ _______ _______ _____ _____    ______ ____
ROOT
ATOM      1  C   UNL     1      -2.399   8.543  26.363  0.00  0.00    +0.163 C 
ENDROOT
BRANCH   1   2
ATOM      2  O   UNL     1      -3.011   7.663  25.406  0.00  0.00    -0.388 OA
ATOM      3  H   UNL     1      -2.447   7.589  24.632  0.00  0.00    +0.210 HD
ENDBRANCH   1   2
BRANCH   1   4
ATOM      4  C   UNL     1      -3.035   9.943  26.307  0.00  0.00    +0.175 C 
BRANCH   4   5
ATOM      5  C   UNL     1      -3.977  10.103  25.105  0.00  0.00    +0.176 C 
ATOM      6  O   UNL     1      -3.162  10.383  23.933  0.00  0.00    -0.332 OA
ATOM      7  C   UNL     1      -3.888  10.462  22.661  0.00  0.00    +0.277 C 
ATOM      8  C   UNL     1      -5.038  11.494  22.758  0.00  0.00    +0.110 C 
ATOM      9  C   UNL     1      -5.913  11.256  24.007  0.00  0.00    +0.143 C 
ATOM     10  C   UNL     1      -5.057  11.187  25.272  0.00  0.00    +0.133 C 
BRANCH  10  11
ATOM     11  N   UNL     1      -5.891  10.874  26.442  0.00  0.00    -0.308 N 
ATOM     12  H   UNL     1      -6.455  10.036  26.409  0.00  0.00    +0.149 HD
ATOM     13  C   UNL     1      -5.952  11.624  27.546  0.00  0.00    +0.210 C 
ATOM     14  C   UNL     1      -5.101  12.908  27.555  0.00  0.00    +0.109 C 
ATOM     15  O   UNL     1      -6.649  11.329  28.517  0.00  0.00    -0.276 OA
ENDBRANCH  10  11
BRANCH   7  16
ATOM     16  C   UNL     1      -4.462   9.084  22.273  0.00  0.00    +0.414 C 
ATOM     17  O   UNL     1      -3.817   8.059  22.490  0.00  0.00    -0.240 OA
ATOM     18  O   UNL     1      -5.570   8.997  21.742  0.00  0.00    -0.240 OA
ENDBRANCH   7  16
BRANCH   7  19
ATOM     19  O   UNL     1      -2.957  10.909  21.641  0.00  0.00    -0.343 OA
ATOM     20  C   UNL     1      -2.875  12.347  21.475  0.00  0.00    +0.198 C 
ENDBRANCH   7  19
BRANCH   9  21
ATOM     21  O   UNL     1      -6.863  12.314  24.138  0.00  0.00    -0.390 OA
ATOM     22  H   UNL     1      -6.427  13.156  23.994  0.00  0.00    +0.210 HD
ENDBRANCH   9  21
ENDBRANCH   4   5
BRANCH   4  23
ATOM     23  O   UNL     1      -2.007  10.954  26.271  0.00  0.00    -0.387 OA
ATOM     24  H   UNL     1      -2.363  11.759  25.888  0.00  0.00    +0.210 HD
ENDBRANCH   4  23
ENDBRANCH   1   4
BRANCH   1  25
ATOM     25  C   UNL     1      -2.550   7.971  27.769  0.00  0.00    +0.141 C 
BRANCH  25  28
ATOM     26  C   UNL     1      -3.732   8.734  29.800  0.00  0.00    +0.401 C 
ATOM     27  O   UNL     1      -4.163   7.614  30.084  0.00  0.00    -0.226 OA
ATOM     28  N   UNL     1      -2.976   8.994  28.733  0.00  0.00    -0.279 N 
ATOM     29  H   UNL     1      -2.679   9.947  28.579  0.00  0.00    +0.152 HD
BRANCH  26  30
ATOM     30  O   UNL     1      -4.054   9.838  30.650  0.00  0.00    -0.444 OA
BRANCH  30  31
ATOM     31  C   UNL     1      -2.894  10.227  31.390  0.00  0.00    +0.292 C 
BRANCH  31  33
ATOM     32  N   UNL     1      -1.881  12.288  32.306  0.00  0.00    -0.131 NA
ATOM     33  C   UNL     1      -2.877  11.689  31.585  0.00  0.00    +0.121 A 
ATOM     34  C   UNL     1      -3.754  12.652  31.142  0.00  0.00    +0.145 A 
ATOM     35  N   UNL     1      -3.246  13.838  31.622  0.00  0.00    -0.202 N 
ATOM     36  N   UNL     1      -2.108  13.594  32.321  0.00  0.00    -0.059 NA
BRANCH  35  37
ATOM     37  C   UNL     1      -3.791  15.140  31.456  0.00  0.00    +0.156 A 
ATOM     38  C   UNL     1      -4.759  15.350  30.476  0.00  0.00    +0.048 A 
ATOM     39  C   UNL     1      -5.259  16.637  30.292  0.00  0.00    +0.011 A 
ATOM     40  C   UNL     1      -4.793  17.688  31.085  0.00  0.00    -0.004 A 
ATOM     41  C   UNL     1      -3.825  17.383  32.039  0.00  0.00    +0.119 A 
ATOM     42  N   UNL     1      -3.323  16.143  32.249  0.00  0.00    -0.236 NA
BRANCH  40  43
ATOM     43  C   UNL     1      -5.248  19.096  30.841  0.00  0.00    +0.192 C 
BRANCH  43  44
ATOM     44  O   UNL     1      -6.520  19.127  30.211  0.00  0.00    -0.390 OA
ATOM     45  H   UNL     1      -6.523  19.900  29.618  0.00  0.00    +0.210 HD
ENDBRANCH  43  44
ENDBRANCH  40  43
ENDBRANCH  35  37
ENDBRANCH  31  33
ENDBRANCH  30  31
ENDBRANCH  26  30
ENDBRANCH  25  28
ENDBRANCH   1  25
TORSDOF 16
