REMARK VINA RESULT:    -5.052      1.976      4.002
REMARK INTER + INTRA:         -13.227
REMARK INTER:                  -8.906
REMARK INTRA:                  -4.322
REMARK UNBOUND:                -3.302
REMARK  Name = lig_assembled_84.pdb
REMARK  21 active torsions:
REMARK  status: ('A' for Active; 'I' for Inactive)
REMARK    1  A    between atoms: _2  and  _11
REMARK    2  A    between atoms: _3  and  _14
REMARK    3  A    between atoms: _4  and  _17
REMARK    4  A    between atoms: _6  and  _28
REMARK    5  A    between atoms: _8  and  _9
REMARK    6  A    between atoms: _8  and  _28
REMARK    7  A    between atoms: _11  and  _12
REMARK    8  A    between atoms: _12  and  _13
REMARK    9  A    between atoms: _12  and  _14
REMARK   10  A    between atoms: _24  and  _44
REMARK   11  A    between atoms: _26  and  _32
REMARK   12  A    between atoms: _27  and  _31
REMARK   13  A    between atoms: _31  and  _32
REMARK   14  A    between atoms: _34  and  _35
REMARK   15  A    between atoms: _36  and  _37
REMARK   16  A    between atoms: _38  and  _40
REMARK   17  A    between atoms: _40  and  _41
REMARK   18  A    between atoms: _40  and  _42
REMARK   19  A    between atoms: _42  and  _43
REMARK   20  A    between atoms: _42  and  _44
REMARK   21  A    between atoms: _45  and  _47
REMARK                            x       y       z     vdW  Elec       q    Type
REMARK                         _______ _______ _______ _____ _____    ______ ____
ROOT
ATOM      1  C   UNL     1      -1.779   9.634  27.124  0.00  0.00    +0.401 C 
ATOM      2  O   UNL     1      -0.821   9.886  26.389  0.00  0.00    -0.226 OA
ATOM      3  N   UNL     1      -2.754  10.500  27.402  0.00  0.00    -0.279 N 
ATOM      4  H   UNL     1      -3.503  10.197  28.008  0.00  0.00    +0.152 HD
ENDROOT
BRANCH   1   5
ATOM      5  O   UNL     1      -1.873   8.339  27.723  0.00  0.00    -0.444 OA
BRANCH   5   6
ATOM      6  C   UNL     1      -2.942   7.608  27.116  0.00  0.00    +0.292 C 
BRANCH   6   8
ATOM      7  N   UNL     1      -5.123   8.383  28.003  0.00  0.00    -0.131 NA
ATOM      8  C   UNL     1      -4.085   7.489  28.040  0.00  0.00    +0.120 A 
ATOM      9  C   UNL     1      -4.310   6.580  29.051  0.00  0.00    +0.137 A 
ATOM     10  N   UNL     1      -5.464   7.015  29.631  0.00  0.00    -0.251 N 
ATOM     11  N   UNL     1      -5.963   8.084  28.986  0.00  0.00    -0.065 NA
BRANCH  10  12
ATOM     12  C   UNL     1      -6.065   6.551  30.867  0.00  0.00    +0.149 C 
BRANCH  12  13
ATOM     13  C   UNL     1      -5.950   7.542  32.038  0.00  0.00    +0.021 C 
ATOM     14  C   UNL     1      -7.021   7.270  33.105  0.00  0.00    +0.010 C 
BRANCH  13  15
ATOM     15  C   UNL     1      -4.554   7.466  32.703  0.00  0.00    +0.089 C 
BRANCH  15  16
ATOM     16  N   UNL     1      -3.796   8.725  32.736  0.00  0.00    -0.299 NA
ATOM     17  C   UNL     1      -4.575   9.768  33.456  0.00  0.00    +0.103 C 
ATOM     18  C   UNL     1      -3.779  11.083  33.590  0.00  0.00    +0.120 C 
ATOM     19  N   UNL     1      -3.409  11.574  32.257  0.00  0.00    -0.327 N 
ATOM     20  C   UNL     1      -2.681  10.597  31.434  0.00  0.00    +0.120 C 
ATOM     21  C   UNL     1      -3.459   9.250  31.388  0.00  0.00    +0.103 C 
BRANCH  19  22
ATOM     22  C   UNL     1      -3.672  12.857  31.838  0.00  0.00    +0.030 A 
ATOM     23  C   UNL     1      -3.210  13.972  32.562  0.00  0.00    +0.024 A 
ATOM     24  C   UNL     1      -3.490  15.285  32.166  0.00  0.00    +0.022 A 
ATOM     25  C   UNL     1      -4.239  15.510  31.023  0.00  0.00    +0.041 A 
ATOM     26 CL   UNL     1      -4.592  17.121  30.532  0.00  0.00    -0.084 Cl
ATOM     27  C   UNL     1      -4.712  14.436  30.277  0.00  0.00    +0.022 A 
ATOM     28  C   UNL     1      -4.430  13.126  30.689  0.00  0.00    +0.024 A 
ENDBRANCH  19  22
ENDBRANCH  15  16
ENDBRANCH  13  15
ENDBRANCH  12  13
ENDBRANCH  10  12
ENDBRANCH   6   8
ENDBRANCH   5   6
ENDBRANCH   1   5
BRANCH   3  29
ATOM     29  C   UNL     1      -2.800  11.870  26.876  0.00  0.00    +0.141 C 
BRANCH  29  30
ATOM     30  C   UNL     1      -3.365  11.917  25.459  0.00  0.00    +0.163 C 
BRANCH  30  31
ATOM     31  O   UNL     1      -2.293  11.983  24.505  0.00  0.00    -0.388 OA
ATOM     32  H   UNL     1      -1.472  11.719  24.926  0.00  0.00    +0.210 HD
ENDBRANCH  30  31
BRANCH  30  33
ATOM     33  C   UNL     1      -4.243  10.677  25.215  0.00  0.00    +0.175 C 
BRANCH  33  34
ATOM     34  C   UNL     1      -4.620  10.519  23.735  0.00  0.00    +0.176 C 
ATOM     35  O   UNL     1      -4.956  11.835  23.216  0.00  0.00    -0.332 OA
ATOM     36  C   UNL     1      -5.242  11.895  21.779  0.00  0.00    +0.277 C 
ATOM     37  C   UNL     1      -6.355  10.885  21.406  0.00  0.00    +0.110 C 
ATOM     38  C   UNL     1      -6.058   9.478  21.964  0.00  0.00    +0.143 C 
ATOM     39  C   UNL     1      -5.771   9.532  23.465  0.00  0.00    +0.133 C 
BRANCH  39  40
ATOM     40  N   UNL     1      -5.404   8.199  23.968  0.00  0.00    -0.308 N 
ATOM     41  H   UNL     1      -4.528   7.803  23.659  0.00  0.00    +0.149 HD
ATOM     42  C   UNL     1      -6.154   7.478  24.807  0.00  0.00    +0.210 C 
ATOM     43  C   UNL     1      -7.496   8.098  25.239  0.00  0.00    +0.109 C 
ATOM     44  O   UNL     1      -5.814   6.370  25.223  0.00  0.00    -0.276 OA
ENDBRANCH  39  40
BRANCH  36  45
ATOM     45  C   UNL     1      -3.973  11.591  20.955  0.00  0.00    +0.414 C 
ATOM     46  O   UNL     1      -4.065  11.265  19.773  0.00  0.00    -0.240 OA
ATOM     47  O   UNL     1      -2.859  11.673  21.473  0.00  0.00    -0.240 OA
ENDBRANCH  36  45
BRANCH  36  48
ATOM     48  O   UNL     1      -5.715  13.232  21.472  0.00  0.00    -0.343 OA
ATOM     49  C   UNL     1      -5.158  14.284  22.299  0.00  0.00    +0.198 C 
ENDBRANCH  36  48
BRANCH  38  50
ATOM     50  O   UNL     1      -7.175   8.620  21.729  0.00  0.00    -0.390 OA
ATOM     51  H   UNL     1      -7.414   8.174  22.545  0.00  0.00    +0.210 HD
ENDBRANCH  38  50
ENDBRANCH  33  34
BRANCH  33  52
ATOM     52  O   UNL     1      -5.433  10.743  26.027  0.00  0.00    -0.387 OA
ATOM     53  H   UNL     1      -5.520   9.933  26.534  0.00  0.00    +0.210 HD
ENDBRANCH  33  52
ENDBRANCH  30  33
ENDBRANCH  29  30
ENDBRANCH   3  29
TORSDOF 18
