REMARK VINA RESULT:    -4.459      2.492      5.214
REMARK INTER + INTRA:         -12.366
REMARK INTER:                  -9.370
REMARK INTRA:                  -2.996
REMARK UNBOUND:                -3.997
REMARK  Name = lig_assembled_68.pdb
REMARK  19 active torsions:
REMARK  status: ('A' for Active; 'I' for Inactive)
REMARK    1  A    between atoms: _2  and  _9
REMARK    2  A    between atoms: _4  and  _21
REMARK    3  A    between atoms: _6  and  _7
REMARK    4  A    between atoms: _6  and  _21
REMARK    5  A    between atoms: _9  and  _10
REMARK    6  A    between atoms: _10  and  _11
REMARK    7  A    between atoms: _10  and  _16
REMARK    8  A    between atoms: _17  and  _37
REMARK    9  A    between atoms: _19  and  _25
REMARK   10  A    between atoms: _20  and  _24
REMARK   11  A    between atoms: _24  and  _25
REMARK   12  A    between atoms: _27  and  _28
REMARK   13  A    between atoms: _29  and  _30
REMARK   14  A    between atoms: _31  and  _33
REMARK   15  A    between atoms: _33  and  _34
REMARK   16  A    between atoms: _33  and  _35
REMARK   17  A    between atoms: _35  and  _36
REMARK   18  A    between atoms: _35  and  _37
REMARK   19  A    between atoms: _38  and  _40
REMARK                            x       y       z     vdW  Elec       q    Type
REMARK                         _______ _______ _______ _____ _____    ______ ____
ROOT
ATOM      1  C   UNL     1      -1.978   9.686  26.354  0.00  0.00    +0.163 C 
ENDROOT
BRANCH   1   2
ATOM      2  O   UNL     1      -2.568   8.530  25.738  0.00  0.00    -0.388 OA
ATOM      3  H   UNL     1      -2.363   7.749  26.259  0.00  0.00    +0.210 HD
ENDBRANCH   1   2
BRANCH   1   4
ATOM      4  C   UNL     1      -2.877  10.922  26.177  0.00  0.00    +0.175 C 
BRANCH   4   5
ATOM      5  C   UNL     1      -3.787  10.804  24.945  0.00  0.00    +0.176 C 
ATOM      6  O   UNL     1      -3.022  11.225  23.783  0.00  0.00    -0.332 OA
ATOM      7  C   UNL     1      -3.700  11.078  22.491  0.00  0.00    +0.277 C 
ATOM      8  C   UNL     1      -5.066  11.806  22.511  0.00  0.00    +0.110 C 
ATOM      9  C   UNL     1      -5.903  11.414  23.747  0.00  0.00    +0.143 C 
ATOM     10  C   UNL     1      -5.100  11.603  25.035  0.00  0.00    +0.133 C 
BRANCH  10  11
ATOM     11  N   UNL     1      -5.876  11.145  26.198  0.00  0.00    -0.308 N 
ATOM     12  H   UNL     1      -6.083  10.158  26.268  0.00  0.00    +0.149 HD
ATOM     13  C   UNL     1      -6.326  11.947  27.166  0.00  0.00    +0.210 C 
ATOM     14  C   UNL     1      -6.017  13.448  27.017  0.00  0.00    +0.109 C 
ATOM     15  O   UNL     1      -6.961  11.533  28.137  0.00  0.00    -0.276 OA
ENDBRANCH  10  11
BRANCH   7  16
ATOM     16  C   UNL     1      -3.915   9.588  22.152  0.00  0.00    +0.414 C 
ATOM     17  O   UNL     1      -3.348   8.715  22.809  0.00  0.00    -0.240 OA
ATOM     18  O   UNL     1      -4.654   9.259  21.224  0.00  0.00    -0.240 OA
ENDBRANCH   7  16
BRANCH   7  19
ATOM     19  O   UNL     1      -2.868  11.694  21.475  0.00  0.00    -0.343 OA
ATOM     20  C   UNL     1      -3.576  12.541  20.535  0.00  0.00    +0.198 C 
ENDBRANCH   7  19
BRANCH   9  21
ATOM     21  O   UNL     1      -7.082  12.218  23.805  0.00  0.00    -0.390 OA
ATOM     22  H   UNL     1      -6.838  13.146  23.805  0.00  0.00    +0.210 HD
ENDBRANCH   9  21
ENDBRANCH   4   5
BRANCH   4  23
ATOM     23  O   UNL     1      -2.071  12.114  26.086  0.00  0.00    -0.387 OA
ATOM     24  H   UNL     1      -1.172  11.914  26.359  0.00  0.00    +0.210 HD
ENDBRANCH   4  23
ENDBRANCH   1   4
BRANCH   1  25
ATOM     25  C   UNL     1      -1.754   9.428  27.840  0.00  0.00    +0.141 C 
BRANCH  25  28
ATOM     26  C   UNL     1      -3.925   8.925  28.908  0.00  0.00    +0.401 C 
ATOM     27  O   UNL     1      -3.961   7.761  28.503  0.00  0.00    -0.226 OA
ATOM     28  N   UNL     1      -2.934   9.777  28.641  0.00  0.00    -0.279 N 
ATOM     29  H   UNL     1      -2.999  10.715  29.010  0.00  0.00    +0.152 HD
BRANCH  26  30
ATOM     30  O   UNL     1      -5.002   9.415  29.711  0.00  0.00    -0.444 OA
BRANCH  30  31
ATOM     31  C   UNL     1      -4.691   9.226  31.094  0.00  0.00    +0.292 C 
BRANCH  31  33
ATOM     32  N   UNL     1      -2.623  10.382  31.826  0.00  0.00    -0.131 NA
ATOM     33  C   UNL     1      -3.980  10.401  31.628  0.00  0.00    +0.120 A 
ATOM     34  C   UNL     1      -4.472  11.628  32.009  0.00  0.00    +0.137 A 
ATOM     35  N   UNL     1      -3.366  12.313  32.420  0.00  0.00    -0.249 N 
ATOM     36  N   UNL     1      -2.258  11.559  32.319  0.00  0.00    -0.065 NA
BRANCH  35  37
ATOM     37  C   UNL     1      -3.310  13.635  33.008  0.00  0.00    +0.181 C 
BRANCH  37  38
ATOM     38  C   UNL     1      -2.755  14.679  32.030  0.00  0.00    +0.166 C 
BRANCH  38  39
ATOM     39  C   UNL     1      -3.812  15.581  31.409  0.00  0.00    -0.017 A 
ATOM     40  C   UNL     1      -4.728  15.025  30.497  0.00  0.00    +0.006 A 
ATOM     41  C   UNL     1      -5.731  15.810  29.923  0.00  0.00    +0.000 A 
ATOM     42  C   UNL     1      -5.839  17.157  30.255  0.00  0.00    +0.000 A 
ATOM     43  C   UNL     1      -4.954  17.718  31.169  0.00  0.00    +0.000 A 
ATOM     44  C   UNL     1      -3.950  16.936  31.746  0.00  0.00    +0.006 A 
ENDBRANCH  38  39
BRANCH  38  45
ATOM     45  O   UNL     1      -2.070  14.006  30.968  0.00  0.00    -0.385 OA
ATOM     46  H   UNL     1      -1.158  14.339  30.935  0.00  0.00    +0.210 HD
ENDBRANCH  38  45
ENDBRANCH  37  38
ENDBRANCH  35  37
ENDBRANCH  31  33
ENDBRANCH  30  31
ENDBRANCH  26  30
ENDBRANCH  25  28
ENDBRANCH   1  25
TORSDOF 17
