REMARK VINA RESULT:    -4.668      2.387      6.824
REMARK INTER + INTRA:         -13.068
REMARK INTER:                  -7.153
REMARK INTRA:                  -5.914
REMARK UNBOUND:                -3.487
REMARK  Name = lig_assembled_90.pdb
REMARK  22 active torsions:
REMARK  status: ('A' for Active; 'I' for Inactive)
REMARK    1  A    between atoms: _2  and  _13
REMARK    2  A    between atoms: _3  and  _15
REMARK    3  A    between atoms: _4  and  _17
REMARK    4  A    between atoms: _8  and  _28
REMARK    5  A    between atoms: _10  and  _11
REMARK    6  A    between atoms: _10  and  _28
REMARK    7  A    between atoms: _13  and  _14
REMARK    8  A    between atoms: _15  and  _16
REMARK    9  A    between atoms: _16  and  _17
REMARK   10  A    between atoms: _16  and  _22
REMARK   11  A    between atoms: _24  and  _44
REMARK   12  A    between atoms: _26  and  _32
REMARK   13  A    between atoms: _27  and  _31
REMARK   14  A    between atoms: _31  and  _32
REMARK   15  A    between atoms: _34  and  _35
REMARK   16  A    between atoms: _36  and  _37
REMARK   17  A    between atoms: _38  and  _40
REMARK   18  A    between atoms: _40  and  _41
REMARK   19  A    between atoms: _40  and  _42
REMARK   20  A    between atoms: _42  and  _43
REMARK   21  A    between atoms: _42  and  _44
REMARK   22  A    between atoms: _45  and  _47
REMARK                            x       y       z     vdW  Elec       q    Type
REMARK                         _______ _______ _______ _____ _____    ______ ____
ROOT
ATOM      1  C   UNL     1      -2.048   7.911  27.652  0.00  0.00    +0.401 C 
ATOM      2  O   UNL     1      -1.698   9.087  27.773  0.00  0.00    -0.226 OA
ATOM      3  N   UNL     1      -2.607   7.195  28.629  0.00  0.00    -0.279 N 
ATOM      4  H   UNL     1      -2.870   6.240  28.430  0.00  0.00    +0.152 HD
ENDROOT
BRANCH   3   5
ATOM      5  C   UNL     1      -2.861   7.717  29.977  0.00  0.00    +0.141 C 
BRANCH   5   6
ATOM      6  C   UNL     1      -4.337   7.633  30.350  0.00  0.00    +0.163 C 
BRANCH   6   7
ATOM      7  O   UNL     1      -4.518   8.001  31.727  0.00  0.00    -0.388 OA
ATOM      8  H   UNL     1      -4.511   7.211  32.274  0.00  0.00    +0.210 HD
ENDBRANCH   6   7
BRANCH   6   9
ATOM      9  C   UNL     1      -5.155   8.550  29.424  0.00  0.00    +0.175 C 
BRANCH   9  10
ATOM     10  C   UNL     1      -4.729  10.021  29.545  0.00  0.00    +0.176 C 
ATOM     11  O   UNL     1      -5.322  10.559  30.759  0.00  0.00    -0.332 OA
ATOM     12  C   UNL     1      -4.937  11.932  31.097  0.00  0.00    +0.277 C 
ATOM     13  C   UNL     1      -5.224  12.883  29.909  0.00  0.00    +0.110 C 
ATOM     14  C   UNL     1      -4.640  12.336  28.589  0.00  0.00    +0.143 C 
ATOM     15  C   UNL     1      -5.102  10.901  28.337  0.00  0.00    +0.133 C 
BRANCH  15  16
ATOM     16  N   UNL     1      -4.471  10.361  27.123  0.00  0.00    -0.308 N 
ATOM     17  H   UNL     1      -3.461  10.367  27.074  0.00  0.00    +0.149 HD
ATOM     18  C   UNL     1      -5.144   9.866  26.081  0.00  0.00    +0.210 C 
ATOM     19  C   UNL     1      -6.681   9.896  26.176  0.00  0.00    +0.109 C 
ATOM     20  O   UNL     1      -4.588   9.407  25.083  0.00  0.00    -0.276 OA
ENDBRANCH  15  16
BRANCH  12  21
ATOM     21  C   UNL     1      -3.441  12.006  31.467  0.00  0.00    +0.414 C 
ATOM     22  O   UNL     1      -2.854  11.006  31.879  0.00  0.00    -0.240 OA
ATOM     23  O   UNL     1      -2.821  13.064  31.353  0.00  0.00    -0.240 OA
ENDBRANCH  12  21
BRANCH  14  24
ATOM     24  O   UNL     1      -5.056  13.162  27.500  0.00  0.00    -0.390 OA
ATOM     25  H   UNL     1      -5.217  12.616  26.727  0.00  0.00    +0.210 HD
ENDBRANCH  14  24
BRANCH  12  26
ATOM     26  O   UNL     1      -5.741  12.358  32.228  0.00  0.00    -0.343 OA
ATOM     27  C   UNL     1      -6.171  11.291  33.110  0.00  0.00    +0.198 C 
ENDBRANCH  12  26
ENDBRANCH   9  10
BRANCH   9  28
ATOM     28  O   UNL     1      -6.562   8.415  29.707  0.00  0.00    -0.387 OA
ATOM     29  H   UNL     1      -6.947   9.284  29.837  0.00  0.00    +0.210 HD
ENDBRANCH   9  28
ENDBRANCH   6   9
ENDBRANCH   5   6
ENDBRANCH   3   5
BRANCH   1  30
ATOM     30  O   UNL     1      -1.859   7.255  26.395  0.00  0.00    -0.444 OA
BRANCH  30  31
ATOM     31  C   UNL     1      -2.697   6.099  26.328  0.00  0.00    +0.292 C 
BRANCH  31  33
ATOM     32  N   UNL     1      -2.909   6.304  23.865  0.00  0.00    -0.131 NA
ATOM     33  C   UNL     1      -3.498   6.114  25.089  0.00  0.00    +0.120 A 
ATOM     34  C   UNL     1      -4.855   5.962  24.914  0.00  0.00    +0.137 A 
ATOM     35  N   UNL     1      -5.026   6.046  23.565  0.00  0.00    -0.242 N 
ATOM     36  N   UNL     1      -3.857   6.270  22.938  0.00  0.00    -0.065 NA
BRANCH  35  37
ATOM     37  C   UNL     1      -6.260   6.031  22.817  0.00  0.00    +0.240 C 
BRANCH  37  38
ATOM     38  C   UNL     1      -6.455   7.319  22.051  0.00  0.00    +0.235 C 
ATOM     39  O   UNL     1      -6.884   7.346  20.898  0.00  0.00    -0.274 OA
ATOM     40  N   UNL     1      -6.171   8.473  22.756  0.00  0.00    -0.311 N 
ATOM     41  H   UNL     1      -5.575   8.408  23.577  0.00  0.00    +0.149 HD
BRANCH  40  42
ATOM     42  C   UNL     1      -6.237   9.773  22.102  0.00  0.00    +0.137 C 
BRANCH  42  43
ATOM     43  C   UNL     1      -4.870  10.180  21.534  0.00  0.00    +0.151 C 
BRANCH  43  44
ATOM     44  O   UNL     1      -4.767   9.693  20.191  0.00  0.00    -0.388 OA
ATOM     45  H   UNL     1      -4.414  10.406  19.621  0.00  0.00    +0.210 HD
ENDBRANCH  43  44
BRANCH  43  46
ATOM     46  C   UNL     1      -4.660  11.698  21.594  0.00  0.00    +0.162 C 
BRANCH  46  47
ATOM     47  N   UNL     1      -4.128  12.137  22.877  0.00  0.00    -0.269 N 
ATOM     48  C   UNL     1      -2.826  11.910  23.267  0.00  0.00    +0.113 A 
ATOM     49  C   UNL     1      -2.721  12.425  24.537  0.00  0.00    +0.137 A 
ATOM     50  N   UNL     1      -3.917  12.958  24.942  0.00  0.00    -0.172 NA
ATOM     51  C   UNL     1      -4.742  12.783  23.921  0.00  0.00    +0.450 A 
ATOM     52  N   UNL     1      -6.115  13.226  23.954  0.00  0.00    +0.120 N 
ATOM     53  O   UNL     1      -6.780  13.116  22.915  0.00  0.00    +0.045 OA
ATOM     54  O   UNL     1      -6.540  13.676  25.026  0.00  0.00    -0.573 OA
ENDBRANCH  46  47
ENDBRANCH  43  46
ENDBRANCH  42  43
ENDBRANCH  40  42
ENDBRANCH  37  38
ENDBRANCH  35  37
ENDBRANCH  31  33
ENDBRANCH  30  31
ENDBRANCH   1  30
TORSDOF 20
