REMARK VINA RESULT:    -4.765      3.755      8.772
REMARK INTER + INTRA:         -10.244
REMARK INTER:                  -7.436
REMARK INTRA:                  -2.808
REMARK UNBOUND:                -1.997
REMARK  Name = lig_assembled_57.pdb
REMARK  17 active torsions:
REMARK  status: ('A' for Active; 'I' for Inactive)
REMARK    1  A    between atoms: _2  and  _10
REMARK    2  A    between atoms: _3  and  _13
REMARK    3  A    between atoms: _5  and  _19
REMARK    4  A    between atoms: _7  and  _8
REMARK    5  A    between atoms: _7  and  _19
REMARK    6  A    between atoms: _15  and  _35
REMARK    7  A    between atoms: _17  and  _23
REMARK    8  A    between atoms: _18  and  _22
REMARK    9  A    between atoms: _22  and  _23
REMARK   10  A    between atoms: _25  and  _26
REMARK   11  A    between atoms: _27  and  _28
REMARK   12  A    between atoms: _29  and  _31
REMARK   13  A    between atoms: _31  and  _32
REMARK   14  A    between atoms: _31  and  _33
REMARK   15  A    between atoms: _33  and  _34
REMARK   16  A    between atoms: _33  and  _35
REMARK   17  A    between atoms: _36  and  _38
REMARK                            x       y       z     vdW  Elec       q    Type
REMARK                         _______ _______ _______ _____ _____    ______ ____
ROOT
ATOM      1  C   UNL     1      -5.262   8.750  24.360  0.00  0.00    +0.163 C 
ENDROOT
BRANCH   1   2
ATOM      2  O   UNL     1      -4.759   9.094  25.662  0.00  0.00    -0.388 OA
ATOM      3  H   UNL     1      -4.441   8.302  26.102  0.00  0.00    +0.210 HD
ENDBRANCH   1   2
BRANCH   1   4
ATOM      4  C   UNL     1      -5.503   7.246  24.275  0.00  0.00    +0.141 C 
BRANCH   4   7
ATOM      5  C   UNL     1      -3.721   5.790  25.174  0.00  0.00    +0.401 C 
ATOM      6  O   UNL     1      -3.166   5.637  24.083  0.00  0.00    -0.226 OA
ATOM      7  N   UNL     1      -4.822   6.520  25.354  0.00  0.00    -0.279 N 
ATOM      8  H   UNL     1      -5.209   6.578  26.285  0.00  0.00    +0.152 HD
BRANCH   5   9
ATOM      9  O   UNL     1      -3.171   5.151  26.329  0.00  0.00    -0.444 OA
BRANCH   9  10
ATOM     10  C   UNL     1      -1.860   5.663  26.579  0.00  0.00    +0.292 C 
BRANCH  10  12
ATOM     11  N   UNL     1      -1.810   8.124  26.380  0.00  0.00    -0.131 NA
ATOM     12  C   UNL     1      -1.949   7.014  27.163  0.00  0.00    +0.120 A 
ATOM     13  C   UNL     1      -2.191   7.406  28.462  0.00  0.00    +0.137 A 
ATOM     14  N   UNL     1      -2.277   8.764  28.390  0.00  0.00    -0.248 N 
ATOM     15  N   UNL     1      -1.973   9.190  27.146  0.00  0.00    -0.065 NA
BRANCH  14  16
ATOM     16  C   UNL     1      -2.687   9.753  29.381  0.00  0.00    +0.111 C 
ATOM     17  C   UNL     1      -3.931  10.518  28.903  0.00  0.00    +0.042 C 
ATOM     18  C   UNL     1      -5.175   9.639  29.010  0.00  0.00    +0.086 C 
ATOM     19  N   UNL     1      -5.426   9.169  30.377  0.00  0.00    -0.305 NA
ATOM     20  C   UNL     1      -4.270   8.485  30.957  0.00  0.00    +0.086 C 
ATOM     21  C   UNL     1      -5.953  10.224  31.238  0.00  0.00    +0.104 C 
ATOM     22  C   UNL     1      -2.934   9.226  30.804  0.00  0.00    +0.042 C 
ENDBRANCH  14  16
ENDBRANCH  10  12
ENDBRANCH   9  10
ENDBRANCH   5   9
ENDBRANCH   4   7
ENDBRANCH   1   4
BRANCH   1  23
ATOM     23  C   UNL     1      -4.275   9.175  23.260  0.00  0.00    +0.175 C 
BRANCH  23  24
ATOM     24  C   UNL     1      -4.875  10.233  22.322  0.00  0.00    +0.176 C 
ATOM     25  O   UNL     1      -4.481   9.901  20.963  0.00  0.00    -0.332 OA
ATOM     26  C   UNL     1      -5.054  10.748  19.912  0.00  0.00    +0.277 C 
ATOM     27  C   UNL     1      -4.751  12.240  20.195  0.00  0.00    +0.110 C 
ATOM     28  C   UNL     1      -5.124  12.633  21.640  0.00  0.00    +0.143 C 
ATOM     29  C   UNL     1      -4.478  11.685  22.650  0.00  0.00    +0.133 C 
BRANCH  29  30
ATOM     30  N   UNL     1      -4.910  12.016  24.017  0.00  0.00    -0.308 N 
ATOM     31  H   UNL     1      -5.893  11.930  24.235  0.00  0.00    +0.149 HD
ATOM     32  C   UNL     1      -4.088  12.423  24.988  0.00  0.00    +0.210 C 
ATOM     33  C   UNL     1      -2.600  12.569  24.617  0.00  0.00    +0.109 C 
ATOM     34  O   UNL     1      -4.476  12.679  26.129  0.00  0.00    -0.276 OA
ENDBRANCH  29  30
BRANCH  26  35
ATOM     35  C   UNL     1      -6.580  10.541  19.813  0.00  0.00    +0.414 C 
ATOM     36  O   UNL     1      -7.321  11.495  19.580  0.00  0.00    -0.240 OA
ATOM     37  O   UNL     1      -7.069   9.421  19.967  0.00  0.00    -0.240 OA
ENDBRANCH  26  35
BRANCH  28  38
ATOM     38  O   UNL     1      -4.691  13.968  21.903  0.00  0.00    -0.390 OA
ATOM     39  H   UNL     1      -5.417  14.577  21.750  0.00  0.00    +0.210 HD
ENDBRANCH  28  38
BRANCH  26  40
ATOM     40  O   UNL     1      -4.430  10.385  18.653  0.00  0.00    -0.343 OA
ATOM     41  C   UNL     1      -4.522  11.390  17.612  0.00  0.00    +0.198 C 
ENDBRANCH  26  40
ENDBRANCH  23  24
BRANCH  23  42
ATOM     42  O   UNL     1      -3.849   8.025  22.503  0.00  0.00    -0.387 OA
ATOM     43  H   UNL     1      -2.918   7.860  22.667  0.00  0.00    +0.210 HD
ENDBRANCH  23  42
ENDBRANCH   1  23
TORSDOF 14
