REMARK VINA RESULT:    -5.116      5.235     10.076
REMARK INTER + INTRA:         -12.193
REMARK INTER:                  -9.065
REMARK INTRA:                  -3.129
REMARK UNBOUND:                -2.890
REMARK  Name = lig_assembled_73.pdb
REMARK  18 active torsions:
REMARK  status: ('A' for Active; 'I' for Inactive)
REMARK    1  A    between atoms: _2  and  _10
REMARK    2  A    between atoms: _3  and  _14
REMARK    3  A    between atoms: _5  and  _22
REMARK    4  A    between atoms: _7  and  _8
REMARK    5  A    between atoms: _7  and  _22
REMARK    6  A    between atoms: _13  and  _16
REMARK    7  A    between atoms: _18  and  _38
REMARK    8  A    between atoms: _20  and  _26
REMARK    9  A    between atoms: _21  and  _25
REMARK   10  A    between atoms: _25  and  _26
REMARK   11  A    between atoms: _28  and  _29
REMARK   12  A    between atoms: _30  and  _31
REMARK   13  A    between atoms: _32  and  _34
REMARK   14  A    between atoms: _34  and  _35
REMARK   15  A    between atoms: _34  and  _36
REMARK   16  A    between atoms: _36  and  _37
REMARK   17  A    between atoms: _36  and  _38
REMARK   18  A    between atoms: _39  and  _41
REMARK                            x       y       z     vdW  Elec       q    Type
REMARK                         _______ _______ _______ _____ _____    ______ ____
ROOT
ATOM      1  C   UNL     1      -6.465   8.893  23.413  0.00  0.00    +0.163 C 
ENDROOT
BRANCH   1   2
ATOM      2  O   UNL     1      -6.963   9.204  24.725  0.00  0.00    -0.388 OA
ATOM      3  H   UNL     1      -6.247   9.142  25.362  0.00  0.00    +0.210 HD
ENDBRANCH   1   2
BRANCH   1   4
ATOM      4  C   UNL     1      -5.075   8.239  23.493  0.00  0.00    +0.175 C 
BRANCH   4   5
ATOM      5  C   UNL     1      -4.037   9.164  24.145  0.00  0.00    +0.176 C 
ATOM      6  O   UNL     1      -4.360   9.272  25.559  0.00  0.00    -0.332 OA
ATOM      7  C   UNL     1      -3.409  10.038  26.370  0.00  0.00    +0.277 C 
ATOM      8  C   UNL     1      -3.202  11.451  25.771  0.00  0.00    +0.110 C 
ATOM      9  C   UNL     1      -2.887  11.389  24.261  0.00  0.00    +0.143 C 
ATOM     10  C   UNL     1      -3.938  10.566  23.515  0.00  0.00    +0.133 C 
BRANCH  10  11
ATOM     11  N   UNL     1      -3.581  10.442  22.093  0.00  0.00    -0.308 N 
ATOM     12  H   UNL     1      -2.776   9.878  21.857  0.00  0.00    +0.149 HD
ATOM     13  C   UNL     1      -4.250  11.024  21.095  0.00  0.00    +0.210 C 
ATOM     14  C   UNL     1      -5.456  11.897  21.491  0.00  0.00    +0.109 C 
ATOM     15  O   UNL     1      -3.937  10.890  19.912  0.00  0.00    -0.276 OA
ENDBRANCH  10  11
BRANCH   7  16
ATOM     16  C   UNL     1      -2.051   9.310  26.454  0.00  0.00    +0.414 C 
ATOM     17  O   UNL     1      -2.007   8.081  26.477  0.00  0.00    -0.240 OA
ATOM     18  O   UNL     1      -1.000   9.952  26.498  0.00  0.00    -0.240 OA
ENDBRANCH   7  16
BRANCH   9  19
ATOM     19  O   UNL     1      -2.855  12.711  23.721  0.00  0.00    -0.390 OA
ATOM     20  H   UNL     1      -3.136  12.690  22.804  0.00  0.00    +0.210 HD
ENDBRANCH   9  19
BRANCH   7  21
ATOM     21  O   UNL     1      -3.968  10.183  27.701  0.00  0.00    -0.343 OA
ATOM     22  C   UNL     1      -3.851  11.510  28.273  0.00  0.00    +0.198 C 
ENDBRANCH   7  21
ENDBRANCH   4   5
BRANCH   4  23
ATOM     23  O   UNL     1      -4.633   7.846  22.178  0.00  0.00    -0.387 OA
ATOM     24  H   UNL     1      -4.930   8.494  21.534  0.00  0.00    +0.210 HD
ENDBRANCH   4  23
ENDBRANCH   1   4
BRANCH   1  25
ATOM     25  C   UNL     1      -7.430   7.952  22.698  0.00  0.00    +0.141 C 
BRANCH  25  28
ATOM     26  C   UNL     1      -7.355   7.903  20.229  0.00  0.00    +0.401 C 
ATOM     27  O   UNL     1      -6.596   6.932  20.178  0.00  0.00    -0.226 OA
ATOM     28  N   UNL     1      -7.791   8.449  21.365  0.00  0.00    -0.279 N 
ATOM     29  H   UNL     1      -8.404   9.250  21.305  0.00  0.00    +0.152 HD
BRANCH  26  30
ATOM     30  O   UNL     1      -7.806   8.497  19.009  0.00  0.00    -0.444 OA
BRANCH  30  31
ATOM     31  C   UNL     1      -7.902   9.914  19.175  0.00  0.00    +0.292 C 
BRANCH  31  33
ATOM     32  N   UNL     1      -6.923  11.966  18.197  0.00  0.00    -0.131 NA
ATOM     33  C   UNL     1      -7.019  10.605  18.216  0.00  0.00    +0.121 A 
ATOM     34  C   UNL     1      -6.196  10.083  17.247  0.00  0.00    +0.143 A 
ATOM     35  N   UNL     1      -5.603  11.175  16.658  0.00  0.00    -0.220 N 
ATOM     36  N   UNL     1      -6.061  12.305  17.248  0.00  0.00    -0.060 NA
BRANCH  35  37
ATOM     37  C   UNL     1      -4.661  11.213  15.597  0.00  0.00    +0.074 A 
ATOM     38  C   UNL     1      -4.576  12.355  14.780  0.00  0.00    +0.032 A 
ATOM     39  C   UNL     1      -3.660  12.411  13.721  0.00  0.00    +0.054 A 
ATOM     40  C   UNL     1      -2.823  11.328  13.465  0.00  0.00    +0.195 A 
ATOM     41  C   UNL     1      -2.911  10.199  14.279  0.00  0.00    +0.316 A 
ATOM     42  C   UNL     1      -3.815  10.126  15.348  0.00  0.00    +0.116 A 
BRANCH  41  43
ATOM     43  N   UNL     1      -2.061   9.051  14.032  0.00  0.00    +0.083 N 
ATOM     44  O   UNL     1      -1.316   8.682  14.950  0.00  0.00    +0.042 OA
ATOM     45  O   UNL     1      -2.079   8.582  12.885  0.00  0.00    -0.576 OA
ENDBRANCH  41  43
BRANCH  40  46
ATOM     46  O   UNL     1      -1.918  11.391  12.449  0.00  0.00    -0.501 OA
ATOM     47  H   UNL     1      -2.306  11.031  11.633  0.00  0.00    +0.292 HD
ENDBRANCH  40  46
ENDBRANCH  35  37
ENDBRANCH  31  33
ENDBRANCH  30  31
ENDBRANCH  26  30
ENDBRANCH  25  28
ENDBRANCH   1  25
TORSDOF 16
