REMARK VINA RESULT:    -4.574      6.191      9.845
REMARK INTER + INTRA:         -12.581
REMARK INTER:                  -9.152
REMARK INTRA:                  -3.429
REMARK UNBOUND:                -3.997
REMARK  Name = lig_assembled_68.pdb
REMARK  19 active torsions:
REMARK  status: ('A' for Active; 'I' for Inactive)
REMARK    1  A    between atoms: _2  and  _9
REMARK    2  A    between atoms: _4  and  _21
REMARK    3  A    between atoms: _6  and  _7
REMARK    4  A    between atoms: _6  and  _21
REMARK    5  A    between atoms: _9  and  _10
REMARK    6  A    between atoms: _10  and  _11
REMARK    7  A    between atoms: _10  and  _16
REMARK    8  A    between atoms: _17  and  _37
REMARK    9  A    between atoms: _19  and  _25
REMARK   10  A    between atoms: _20  and  _24
REMARK   11  A    between atoms: _24  and  _25
REMARK   12  A    between atoms: _27  and  _28
REMARK   13  A    between atoms: _29  and  _30
REMARK   14  A    between atoms: _31  and  _33
REMARK   15  A    between atoms: _33  and  _34
REMARK   16  A    between atoms: _33  and  _35
REMARK   17  A    between atoms: _35  and  _36
REMARK   18  A    between atoms: _35  and  _37
REMARK   19  A    between atoms: _38  and  _40
REMARK                            x       y       z     vdW  Elec       q    Type
REMARK                         _______ _______ _______ _____ _____    ______ ____
ROOT
ATOM      1  C   UNL     1      -5.142   6.335  17.429  0.00  0.00    +0.163 C 
ENDROOT
BRANCH   1   2
ATOM      2  O   UNL     1      -5.245   5.564  16.221  0.00  0.00    -0.388 OA
ATOM      3  H   UNL     1      -6.026   5.837  15.732  0.00  0.00    +0.210 HD
ENDBRANCH   1   2
BRANCH   1   4
ATOM      4  C   UNL     1      -5.173   7.843  17.124  0.00  0.00    +0.175 C 
BRANCH   4   5
ATOM      5  C   UNL     1      -4.223   8.220  15.978  0.00  0.00    +0.176 C 
ATOM      6  O   UNL     1      -3.000   7.449  16.139  0.00  0.00    -0.332 OA
ATOM      7  C   UNL     1      -2.010   7.601  15.069  0.00  0.00    +0.277 C 
ATOM      8  C   UNL     1      -1.663   9.096  14.862  0.00  0.00    +0.110 C 
ATOM      9  C   UNL     1      -2.932   9.961  14.718  0.00  0.00    +0.143 C 
ATOM     10  C   UNL     1      -3.894   9.721  15.882  0.00  0.00    +0.133 C 
BRANCH  10  11
ATOM     11  N   UNL     1      -5.137  10.485  15.689  0.00  0.00    -0.308 N 
ATOM     12  H   UNL     1      -5.767  10.184  14.959  0.00  0.00    +0.149 HD
ATOM     13  C   UNL     1      -5.487  11.550  16.415  0.00  0.00    +0.210 C 
ATOM     14  C   UNL     1      -4.493  12.000  17.503  0.00  0.00    +0.109 C 
ATOM     15  O   UNL     1      -6.541  12.162  16.241  0.00  0.00    -0.276 OA
ENDBRANCH  10  11
BRANCH   7  16
ATOM     16  C   UNL     1      -2.537   7.006  13.747  0.00  0.00    +0.414 C 
ATOM     17  O   UNL     1      -3.410   6.138  13.762  0.00  0.00    -0.240 OA
ATOM     18  O   UNL     1      -2.091   7.393  12.666  0.00  0.00    -0.240 OA
ENDBRANCH   7  16
BRANCH   7  19
ATOM     19  O   UNL     1      -0.803   6.903  15.472  0.00  0.00    -0.343 OA
ATOM     20  C   UNL     1      -0.946   6.060  16.643  0.00  0.00    +0.198 C 
ENDBRANCH   7  19
BRANCH   9  21
ATOM     21  O   UNL     1      -2.572  11.342  14.681  0.00  0.00    -0.390 OA
ATOM     22  H   UNL     1      -3.179  11.846  15.228  0.00  0.00    +0.210 HD
ENDBRANCH   9  21
ENDBRANCH   4   5
BRANCH   4  23
ATOM     23  O   UNL     1      -4.846   8.596  18.309  0.00  0.00    -0.387 OA
ATOM     24  H   UNL     1      -5.651   8.941  18.702  0.00  0.00    +0.210 HD
ENDBRANCH   4  23
ENDBRANCH   1   4
BRANCH   1  25
ATOM     25  C   UNL     1      -6.288   5.982  18.372  0.00  0.00    +0.141 C 
BRANCH  25  28
ATOM     26  C   UNL     1      -6.985   6.699  20.632  0.00  0.00    +0.401 C 
ATOM     27  O   UNL     1      -8.191   6.606  20.391  0.00  0.00    -0.226 OA
ATOM     28  N   UNL     1      -6.026   6.433  19.745  0.00  0.00    -0.279 N 
ATOM     29  H   UNL     1      -5.064   6.547  20.033  0.00  0.00    +0.152 HD
BRANCH  26  30
ATOM     30  O   UNL     1      -6.567   7.119  21.933  0.00  0.00    -0.444 OA
BRANCH  30  31
ATOM     31  C   UNL     1      -7.057   8.438  22.189  0.00  0.00    +0.292 C 
BRANCH  31  33
ATOM     32  N   UNL     1      -4.849   9.078  21.260  0.00  0.00    -0.131 NA
ATOM     33  C   UNL     1      -6.068   9.447  21.769  0.00  0.00    +0.120 A 
ATOM     34  C   UNL     1      -6.144  10.820  21.804  0.00  0.00    +0.137 A 
ATOM     35  N   UNL     1      -4.946  11.228  21.295  0.00  0.00    -0.249 N 
ATOM     36  N   UNL     1      -4.166  10.180  20.979  0.00  0.00    -0.065 NA
BRANCH  35  37
ATOM     37  C   UNL     1      -4.448  12.583  21.179  0.00  0.00    +0.181 C 
BRANCH  37  38
ATOM     38  C   UNL     1      -3.253  12.841  22.106  0.00  0.00    +0.166 C 
BRANCH  38  39
ATOM     39  C   UNL     1      -3.554  12.649  23.585  0.00  0.00    -0.017 A 
ATOM     40  C   UNL     1      -2.734  11.789  24.340  0.00  0.00    +0.006 A 
ATOM     41  C   UNL     1      -2.958  11.605  25.706  0.00  0.00    +0.000 A 
ATOM     42  C   UNL     1      -3.998  12.278  26.340  0.00  0.00    +0.000 A 
ATOM     43  C   UNL     1      -4.807  13.144  25.614  0.00  0.00    +0.000 A 
ATOM     44  C   UNL     1      -4.584  13.333  24.247  0.00  0.00    +0.006 A 
ENDBRANCH  38  39
BRANCH  38  45
ATOM     45  O   UNL     1      -2.799  14.186  21.919  0.00  0.00    -0.385 OA
ATOM     46  H   UNL     1      -3.390  14.620  21.282  0.00  0.00    +0.210 HD
ENDBRANCH  38  45
ENDBRANCH  37  38
ENDBRANCH  35  37
ENDBRANCH  31  33
ENDBRANCH  30  31
ENDBRANCH  26  30
ENDBRANCH  25  28
ENDBRANCH   1  25
TORSDOF 17
