REMARK VINA RESULT:    -4.827      4.247      9.106
REMARK INTER + INTRA:         -11.762
REMARK INTER:                  -8.040
REMARK INTRA:                  -3.722
REMARK UNBOUND:                -2.560
REMARK  Name = lig_assembled_18.pdb
REMARK  19 active torsions:
REMARK  status: ('A' for Active; 'I' for Inactive)
REMARK    1  A    between atoms: _2  and  _10
REMARK    2  A    between atoms: _3  and  _12
REMARK    3  A    between atoms: _5  and  _21
REMARK    4  A    between atoms: _7  and  _8
REMARK    5  A    between atoms: _7  and  _21
REMARK    6  A    between atoms: _10  and  _11
REMARK    7  A    between atoms: _12  and  _13
REMARK    8  A    between atoms: _17  and  _37
REMARK    9  A    between atoms: _19  and  _25
REMARK   10  A    between atoms: _20  and  _24
REMARK   11  A    between atoms: _24  and  _25
REMARK   12  A    between atoms: _27  and  _28
REMARK   13  A    between atoms: _29  and  _30
REMARK   14  A    between atoms: _31  and  _33
REMARK   15  A    between atoms: _33  and  _34
REMARK   16  A    between atoms: _33  and  _35
REMARK   17  A    between atoms: _35  and  _36
REMARK   18  A    between atoms: _35  and  _37
REMARK   19  A    between atoms: _38  and  _40
REMARK                            x       y       z     vdW  Elec       q    Type
REMARK                         _______ _______ _______ _____ _____    ______ ____
ROOT
ATOM      1  C   UNL     1      -2.882  11.951  24.210  0.00  0.00    +0.163 C 
ENDROOT
BRANCH   1   2
ATOM      2  O   UNL     1      -2.045  11.682  25.347  0.00  0.00    -0.388 OA
ATOM      3  H   UNL     1      -2.438  10.984  25.876  0.00  0.00    +0.210 HD
ENDBRANCH   1   2
BRANCH   1   4
ATOM      4  C   UNL     1      -3.768  10.738  23.880  0.00  0.00    +0.175 C 
BRANCH   4   5
ATOM      5  C   UNL     1      -4.010   9.848  25.108  0.00  0.00    +0.176 C 
ATOM      6  O   UNL     1      -2.844   8.996  25.280  0.00  0.00    -0.332 OA
ATOM      7  C   UNL     1      -2.851   8.146  26.474  0.00  0.00    +0.277 C 
ATOM      8  C   UNL     1      -4.138   7.286  26.519  0.00  0.00    +0.110 C 
ATOM      9  C   UNL     1      -5.403   8.144  26.308  0.00  0.00    +0.143 C 
ATOM     10  C   UNL     1      -5.288   8.990  25.040  0.00  0.00    +0.133 C 
BRANCH  10  11
ATOM     11  N   UNL     1      -6.461   9.867  24.897  0.00  0.00    -0.308 N 
ATOM     12  H   UNL     1      -6.571  10.620  25.562  0.00  0.00    +0.149 HD
ATOM     13  C   UNL     1      -7.390   9.732  23.947  0.00  0.00    +0.210 C 
ATOM     14  C   UNL     1      -7.207   8.560  22.965  0.00  0.00    +0.109 C 
ATOM     15  O   UNL     1      -8.354  10.491  23.842  0.00  0.00    -0.276 OA
ENDBRANCH  10  11
BRANCH   7  16
ATOM     16  C   UNL     1      -2.757   9.001  27.755  0.00  0.00    +0.414 C 
ATOM     17  O   UNL     1      -2.090  10.034  27.763  0.00  0.00    -0.240 OA
ATOM     18  O   UNL     1      -3.348   8.657  28.779  0.00  0.00    -0.240 OA
ENDBRANCH   7  16
BRANCH   7  19
ATOM     19  O   UNL     1      -1.708   7.255  26.397  0.00  0.00    -0.343 OA
ATOM     20  C   UNL     1      -1.918   5.939  26.969  0.00  0.00    +0.198 C 
ENDBRANCH   7  19
BRANCH   9  21
ATOM     21  O   UNL     1      -6.548   7.296  26.206  0.00  0.00    -0.390 OA
ATOM     22  H   UNL     1      -7.331   7.779  26.481  0.00  0.00    +0.210 HD
ENDBRANCH   9  21
ENDBRANCH   4   5
BRANCH   4  23
ATOM     23  O   UNL     1      -3.176   9.966  22.816  0.00  0.00    -0.387 OA
ATOM     24  H   UNL     1      -3.824   9.829  22.121  0.00  0.00    +0.210 HD
ENDBRANCH   4  23
ENDBRANCH   1   4
BRANCH   1  25
ATOM     25  C   UNL     1      -3.764  13.165  24.487  0.00  0.00    +0.141 C 
BRANCH  25  28
ATOM     26  C   UNL     1      -6.073  13.303  23.619  0.00  0.00    +0.401 C 
ATOM     27  O   UNL     1      -6.597  13.042  24.705  0.00  0.00    -0.226 OA
ATOM     28  N   UNL     1      -4.755  13.375  23.425  0.00  0.00    -0.279 N 
ATOM     29  H   UNL     1      -4.421  13.585  22.495  0.00  0.00    +0.152 HD
BRANCH  26  30
ATOM     30  O   UNL     1      -6.909  13.542  22.484  0.00  0.00    -0.444 OA
BRANCH  30  31
ATOM     31  C   UNL     1      -6.099  13.676  21.313  0.00  0.00    +0.292 C 
BRANCH  31  33
ATOM     32  N   UNL     1      -4.366  12.043  20.623  0.00  0.00    -0.131 NA
ATOM     33  C   UNL     1      -5.687  12.348  20.820  0.00  0.00    +0.120 A 
ATOM     34  C   UNL     1      -6.453  11.254  20.489  0.00  0.00    +0.137 A 
ATOM     35  N   UNL     1      -5.542  10.307  20.126  0.00  0.00    -0.242 N 
ATOM     36  N   UNL     1      -4.288  10.793  20.187  0.00  0.00    -0.065 NA
BRANCH  35  37
ATOM     37  C   UNL     1      -5.778   8.982  19.603  0.00  0.00    +0.240 C 
BRANCH  37  38
ATOM     38  C   UNL     1      -5.956   8.983  18.102  0.00  0.00    +0.235 C 
ATOM     39  O   UNL     1      -7.015   8.656  17.569  0.00  0.00    -0.274 OA
ATOM     40  N   UNL     1      -4.867   9.430  17.381  0.00  0.00    -0.309 N 
ATOM     41  H   UNL     1      -3.968   9.531  17.830  0.00  0.00    +0.149 HD
BRANCH  40  42
ATOM     42  C   UNL     1      -4.896   9.502  15.935  0.00  0.00    +0.146 C 
BRANCH  42  43
ATOM     43  C   UNL     1      -4.754  10.924  15.500  0.00  0.00    +0.007 A 
ATOM     44  S   UNL     1      -5.508  11.480  14.065  0.00  0.00    -0.100 S 
ATOM     45  C   UNL     1      -4.848  13.047  14.247  0.00  0.00    +0.045 A 
ATOM     46  C   UNL     1      -4.080  13.157  15.385  0.00  0.00    +0.008 A 
ATOM     47  C   UNL     1      -4.032  11.932  16.112  0.00  0.00    +0.013 A 
ENDBRANCH  42  43
ENDBRANCH  40  42
ENDBRANCH  37  38
ENDBRANCH  35  37
ENDBRANCH  31  33
ENDBRANCH  30  31
ENDBRANCH  26  30
ENDBRANCH  25  28
ENDBRANCH   1  25
TORSDOF 17
