REMARK VINA RESULT:    -5.722      2.396      3.788
REMARK INTER + INTRA:         -13.680
REMARK INTER:                 -10.876
REMARK INTRA:                  -2.805
REMARK UNBOUND:                -3.108
REMARK  Name = lig_assembled_58.pdb
REMARK  18 active torsions:
REMARK  status: ('A' for Active; 'I' for Inactive)
REMARK    1  A    between atoms: _2  and  _9
REMARK    2  A    between atoms: _4  and  _25
REMARK    3  A    between atoms: _6  and  _7
REMARK    4  A    between atoms: _6  and  _25
REMARK    5  A    between atoms: _9  and  _10
REMARK    6  A    between atoms: _9  and  _16
REMARK    7  A    between atoms: _21  and  _41
REMARK    8  A    between atoms: _23  and  _29
REMARK    9  A    between atoms: _24  and  _28
REMARK   10  A    between atoms: _28  and  _29
REMARK   11  A    between atoms: _31  and  _32
REMARK   12  A    between atoms: _33  and  _34
REMARK   13  A    between atoms: _35  and  _37
REMARK   14  A    between atoms: _37  and  _38
REMARK   15  A    between atoms: _37  and  _39
REMARK   16  A    between atoms: _39  and  _40
REMARK   17  A    between atoms: _39  and  _41
REMARK   18  A    between atoms: _42  and  _44
REMARK                            x       y       z     vdW  Elec       q    Type
REMARK                         _______ _______ _______ _____ _____    ______ ____
ROOT
ATOM      1  C   UNL     1      -4.182   7.645  15.099  0.00  0.00    +0.141 C 
ENDROOT
BRANCH   1   4
ATOM      2  C   UNL     1      -5.043   8.702  17.160  0.00  0.00    +0.401 C 
ATOM      3  O   UNL     1      -6.227   8.584  16.838  0.00  0.00    -0.226 OA
ATOM      4  N   UNL     1      -4.021   8.297  16.405  0.00  0.00    -0.279 N 
ATOM      5  H   UNL     1      -3.084   8.446  16.750  0.00  0.00    +0.152 HD
BRANCH   2   6
ATOM      6  O   UNL     1      -4.721   9.312  18.413  0.00  0.00    -0.444 OA
BRANCH   6   7
ATOM      7  C   UNL     1      -5.920   9.763  19.047  0.00  0.00    +0.292 C 
BRANCH   7   9
ATOM      8  N   UNL     1      -6.362  10.772  21.275  0.00  0.00    -0.131 NA
ATOM      9  C   UNL     1      -5.599  10.699  20.140  0.00  0.00    +0.120 A 
ATOM     10  C   UNL     1      -4.548  11.580  20.251  0.00  0.00    +0.138 A 
ATOM     11  N   UNL     1      -4.632  12.044  21.536  0.00  0.00    -0.240 N 
ATOM     12  N   UNL     1      -5.774  11.613  22.117  0.00  0.00    -0.064 NA
BRANCH  11  13
ATOM     13  C   UNL     1      -3.671  12.861  22.299  0.00  0.00    +0.169 C 
BRANCH  13  14
ATOM     14  C   UNL     1      -3.989  14.353  22.115  0.00  0.00    -0.019 A 
ATOM     15  C   UNL     1      -2.947  15.282  21.950  0.00  0.00    +0.006 A 
ATOM     16  C   UNL     1      -3.223  16.647  21.840  0.00  0.00    +0.000 A 
ATOM     17  C   UNL     1      -4.539  17.105  21.879  0.00  0.00    +0.000 A 
ATOM     18  C   UNL     1      -5.583  16.202  22.045  0.00  0.00    +0.000 A 
ATOM     19  C   UNL     1      -5.309  14.841  22.173  0.00  0.00    +0.006 A 
ENDBRANCH  13  14
BRANCH  13  20
ATOM     20  C   UNL     1      -3.531  12.405  23.758  0.00  0.00    -0.019 A 
ATOM     21  C   UNL     1      -4.132  13.123  24.807  0.00  0.00    +0.006 A 
ATOM     22  C   UNL     1      -3.999  12.703  26.134  0.00  0.00    +0.000 A 
ATOM     23  C   UNL     1      -3.284  11.548  26.435  0.00  0.00    +0.000 A 
ATOM     24  C   UNL     1      -2.729  10.793  25.410  0.00  0.00    +0.000 A 
ATOM     25  C   UNL     1      -2.867  11.206  24.086  0.00  0.00    +0.006 A 
ENDBRANCH  13  20
ENDBRANCH  11  13
ENDBRANCH   7   9
ENDBRANCH   6   7
ENDBRANCH   2   6
ENDBRANCH   1   4
BRANCH   1  26
ATOM     26  C   UNL     1      -4.186   8.655  13.956  0.00  0.00    +0.163 C 
BRANCH  26  27
ATOM     27  O   UNL     1      -5.513   9.169  13.758  0.00  0.00    -0.388 OA
ATOM     28  H   UNL     1      -5.874   9.456  14.600  0.00  0.00    +0.210 HD
ENDBRANCH  26  27
BRANCH  26  29
ATOM     29  C   UNL     1      -3.197   9.791  14.271  0.00  0.00    +0.175 C 
BRANCH  29  30
ATOM     30  C   UNL     1      -3.324  10.959  13.282  0.00  0.00    +0.176 C 
ATOM     31  O   UNL     1      -2.014  11.191  12.694  0.00  0.00    -0.332 OA
ATOM     32  C   UNL     1      -1.964  12.209  11.640  0.00  0.00    +0.277 C 
ATOM     33  C   UNL     1      -2.554  13.546  12.150  0.00  0.00    +0.110 C 
ATOM     34  C   UNL     1      -3.933  13.345  12.813  0.00  0.00    +0.143 C 
ATOM     35  C   UNL     1      -3.871  12.263  13.891  0.00  0.00    +0.133 C 
BRANCH  35  36
ATOM     36  N   UNL     1      -5.209  12.019  14.454  0.00  0.00    -0.308 N 
ATOM     37  H   UNL     1      -5.961  11.816  13.811  0.00  0.00    +0.149 HD
ATOM     38  C   UNL     1      -5.493  12.049  15.759  0.00  0.00    +0.210 C 
ATOM     39  C   UNL     1      -4.330  12.387  16.711  0.00  0.00    +0.109 C 
ATOM     40  O   UNL     1      -6.620  11.826  16.203  0.00  0.00    -0.276 OA
ENDBRANCH  35  36
BRANCH  32  41
ATOM     41  C   UNL     1      -2.745  11.743  10.393  0.00  0.00    +0.414 C 
ATOM     42  O   UNL     1      -2.593  10.603   9.956  0.00  0.00    -0.240 OA
ATOM     43  O   UNL     1      -3.526  12.507   9.825  0.00  0.00    -0.240 OA
ENDBRANCH  32  41
BRANCH  34  44
ATOM     44  O   UNL     1      -4.369  14.571  13.401  0.00  0.00    -0.390 OA
ATOM     45  H   UNL     1      -4.870  14.384  14.198  0.00  0.00    +0.210 HD
ENDBRANCH  34  44
BRANCH  32  46
ATOM     46  O   UNL     1      -0.573  12.426  11.291  0.00  0.00    -0.343 OA
ATOM     47  C   UNL     1      -0.327  13.568  10.432  0.00  0.00    +0.198 C 
ENDBRANCH  32  46
ENDBRANCH  29  30
BRANCH  29  48
ATOM     48  O   UNL     1      -1.846   9.287  14.274  0.00  0.00    -0.387 OA
ATOM     49  H   UNL     1      -1.696   8.778  15.075  0.00  0.00    +0.210 HD
ENDBRANCH  29  48
ENDBRANCH  26  29
ENDBRANCH   1  26
TORSDOF 16
