REMARK VINA RESULT:    -4.761      3.622      8.734
REMARK INTER + INTRA:         -11.153
REMARK INTER:                  -8.575
REMARK INTRA:                  -2.577
REMARK UNBOUND:                -2.913
REMARK  Name = lig_assembled_93.pdb
REMARK  16 active torsions:
REMARK  status: ('A' for Active; 'I' for Inactive)
REMARK    1  A    between atoms: _2  and  _9
REMARK    2  A    between atoms: _4  and  _18
REMARK    3  A    between atoms: _6  and  _7
REMARK    4  A    between atoms: _6  and  _18
REMARK    5  A    between atoms: _14  and  _34
REMARK    6  A    between atoms: _16  and  _22
REMARK    7  A    between atoms: _17  and  _21
REMARK    8  A    between atoms: _21  and  _22
REMARK    9  A    between atoms: _24  and  _25
REMARK   10  A    between atoms: _26  and  _27
REMARK   11  A    between atoms: _28  and  _30
REMARK   12  A    between atoms: _30  and  _31
REMARK   13  A    between atoms: _30  and  _32
REMARK   14  A    between atoms: _32  and  _33
REMARK   15  A    between atoms: _32  and  _34
REMARK   16  A    between atoms: _35  and  _37
REMARK                            x       y       z     vdW  Elec       q    Type
REMARK                         _______ _______ _______ _____ _____    ______ ____
ROOT
ATOM      1  C   UNL     1      -2.947  12.117  24.061  0.00  0.00    +0.163 C 
ENDROOT
BRANCH   1   2
ATOM      2  O   UNL     1      -2.052  11.789  25.137  0.00  0.00    -0.388 OA
ATOM      3  H   UNL     1      -2.434  11.087  25.669  0.00  0.00    +0.210 HD
ENDBRANCH   1   2
BRANCH   1   4
ATOM      4  C   UNL     1      -3.851  13.276  24.469  0.00  0.00    +0.141 C 
BRANCH   4   7
ATOM      5  C   UNL     1      -4.914  14.461  22.579  0.00  0.00    +0.401 C 
ATOM      6  O   UNL     1      -3.998  15.277  22.453  0.00  0.00    -0.226 OA
ATOM      7  N   UNL     1      -4.931  13.495  23.498  0.00  0.00    -0.279 N 
ATOM      8  H   UNL     1      -5.731  12.880  23.529  0.00  0.00    +0.152 HD
BRANCH   5   9
ATOM      9  O   UNL     1      -6.038  14.538  21.699  0.00  0.00    -0.444 OA
BRANCH   9  10
ATOM     10  C   UNL     1      -6.672  13.259  21.620  0.00  0.00    +0.292 C 
BRANCH  10  12
ATOM     11  N   UNL     1      -7.498  12.718  19.358  0.00  0.00    -0.131 NA
ATOM     12  C   UNL     1      -6.494  12.682  20.275  0.00  0.00    +0.121 A 
ATOM     13  C   UNL     1      -5.403  12.061  19.714  0.00  0.00    +0.143 A 
ATOM     14  N   UNL     1      -5.780  11.741  18.420  0.00  0.00    -0.219 N 
ATOM     15  N   UNL     1      -7.058  12.144  18.249  0.00  0.00    -0.060 NA
BRANCH  14  16
ATOM     16  C   UNL     1      -4.997  11.112  17.401  0.00  0.00    +0.080 A 
ATOM     17  C   UNL     1      -4.214  11.947  16.568  0.00  0.00    +0.029 A 
ATOM     18  C   UNL     1      -3.431  11.429  15.534  0.00  0.00    +0.002 A 
ATOM     19  C   UNL     1      -3.405  10.064  15.303  0.00  0.00    +0.001 A 
ATOM     20  C   UNL     1      -4.160   9.217  16.110  0.00  0.00    +0.016 A 
ATOM     21  C   UNL     1      -4.956   9.723  17.161  0.00  0.00    +0.039 A 
ATOM     22  I   UNL     1      -5.976   8.192  18.206  0.00  0.00    -0.042 I 
ENDBRANCH  14  16
ENDBRANCH  10  12
ENDBRANCH   9  10
ENDBRANCH   5   9
ENDBRANCH   4   7
ENDBRANCH   1   4
BRANCH   1  23
ATOM     23  C   UNL     1      -3.810  10.903  23.675  0.00  0.00    +0.175 C 
BRANCH  23  24
ATOM     24  C   UNL     1      -4.117  10.004  24.881  0.00  0.00    +0.176 C 
ATOM     25  O   UNL     1      -2.954   9.163  25.119  0.00  0.00    -0.332 OA
ATOM     26  C   UNL     1      -3.024   8.306  26.307  0.00  0.00    +0.277 C 
ATOM     27  C   UNL     1      -4.303   7.434  26.270  0.00  0.00    +0.110 C 
ATOM     28  C   UNL     1      -5.562   8.280  25.988  0.00  0.00    +0.143 C 
ATOM     29  C   UNL     1      -5.379   9.135  24.733  0.00  0.00    +0.133 C 
BRANCH  29  30
ATOM     30  N   UNL     1      -6.550  10.001  24.524  0.00  0.00    -0.308 N 
ATOM     31  H   UNL     1      -6.815  10.625  25.273  0.00  0.00    +0.149 HD
ATOM     32  C   UNL     1      -7.286  10.016  23.409  0.00  0.00    +0.210 C 
ATOM     33  C   UNL     1      -6.872   9.034  22.296  0.00  0.00    +0.109 C 
ATOM     34  O   UNL     1      -8.253  10.762  23.256  0.00  0.00    -0.276 OA
ENDBRANCH  29  30
BRANCH  26  35
ATOM     35  C   UNL     1      -3.016   9.155  27.595  0.00  0.00    +0.414 C 
ATOM     36  O   UNL     1      -3.567   8.740  28.614  0.00  0.00    -0.240 OA
ATOM     37  O   UNL     1      -2.460  10.254  27.615  0.00  0.00    -0.240 OA
ENDBRANCH  26  35
BRANCH  28  38
ATOM     38  O   UNL     1      -6.690   7.422  25.812  0.00  0.00    -0.390 OA
ATOM     39  H   UNL     1      -7.266   7.489  26.578  0.00  0.00    +0.210 HD
ENDBRANCH  28  38
BRANCH  26  40
ATOM     40  O   UNL     1      -1.870   7.427  26.294  0.00  0.00    -0.343 OA
ATOM     41  C   UNL     1      -2.151   6.044  26.626  0.00  0.00    +0.198 C 
ENDBRANCH  26  40
ENDBRANCH  23  24
BRANCH  23  42
ATOM     42  O   UNL     1      -3.158  10.140  22.639  0.00  0.00    -0.387 OA
ATOM     43  H   UNL     1      -3.821   9.735  22.075  0.00  0.00    +0.210 HD
ENDBRANCH  23  42
ENDBRANCH   1  23
TORSDOF 14
