REMARK VINA RESULT:    -5.254      3.419     11.640
REMARK INTER + INTRA:         -14.176
REMARK INTER:                 -10.807
REMARK INTRA:                  -3.369
REMARK UNBOUND:                -3.392
REMARK  Name = lig_assembled_47.pdb
REMARK  22 active torsions:
REMARK  status: ('A' for Active; 'I' for Inactive)
REMARK    1  A    between atoms: _2  and  _9
REMARK    2  A    between atoms: _4  and  _30
REMARK    3  A    between atoms: _6  and  _7
REMARK    4  A    between atoms: _6  and  _30
REMARK    5  A    between atoms: _9  and  _10
REMARK    6  A    between atoms: _10  and  _11
REMARK    7  A    between atoms: _10  and  _12
REMARK    8  A    between atoms: _11  and  _24
REMARK    9  A    between atoms: _12  and  _13
REMARK   10  A    between atoms: _12  and  _19
REMARK   11  A    between atoms: _26  and  _46
REMARK   12  A    between atoms: _28  and  _34
REMARK   13  A    between atoms: _29  and  _33
REMARK   14  A    between atoms: _33  and  _34
REMARK   15  A    between atoms: _36  and  _37
REMARK   16  A    between atoms: _38  and  _39
REMARK   17  A    between atoms: _40  and  _42
REMARK   18  A    between atoms: _42  and  _43
REMARK   19  A    between atoms: _42  and  _44
REMARK   20  A    between atoms: _44  and  _45
REMARK   21  A    between atoms: _44  and  _46
REMARK   22  A    between atoms: _47  and  _49
REMARK                            x       y       z     vdW  Elec       q    Type
REMARK                         _______ _______ _______ _____ _____    ______ ____
ROOT
ATOM      1  C   UNL     1      -4.928  10.210  20.307  0.00  0.00    +0.401 C 
ATOM      2  O   UNL     1      -6.008   9.779  20.715  0.00  0.00    -0.226 OA
ATOM      3  N   UNL     1      -4.757  10.789  19.118  0.00  0.00    -0.279 N 
ATOM      4  H   UNL     1      -3.834  11.120  18.876  0.00  0.00    +0.152 HD
ENDROOT
BRANCH   3   5
ATOM      5  C   UNL     1      -5.836  10.973  18.139  0.00  0.00    +0.141 C 
BRANCH   5   6
ATOM      6  C   UNL     1      -5.329  10.861  16.705  0.00  0.00    +0.163 C 
BRANCH   6   7
ATOM      7  O   UNL     1      -4.442  11.953  16.412  0.00  0.00    -0.388 OA
ATOM      8  H   UNL     1      -3.659  11.887  16.964  0.00  0.00    +0.210 HD
ENDBRANCH   6   7
BRANCH   6   9
ATOM      9  C   UNL     1      -4.620   9.510  16.515  0.00  0.00    +0.175 C 
BRANCH   9  10
ATOM     10  C   UNL     1      -3.765   9.480  15.239  0.00  0.00    +0.176 C 
ATOM     11  O   UNL     1      -4.543  10.078  14.166  0.00  0.00    -0.332 OA
ATOM     12  C   UNL     1      -3.844  10.233  12.886  0.00  0.00    +0.277 C 
ATOM     13  C   UNL     1      -3.264   8.875  12.419  0.00  0.00    +0.110 C 
ATOM     14  C   UNL     1      -2.455   8.186  13.538  0.00  0.00    +0.143 C 
ATOM     15  C   UNL     1      -3.276   8.080  14.823  0.00  0.00    +0.133 C 
BRANCH  15  16
ATOM     16  N   UNL     1      -2.465   7.502  15.906  0.00  0.00    -0.308 N 
ATOM     17  H   UNL     1      -1.675   8.035  16.241  0.00  0.00    +0.149 HD
ATOM     18  C   UNL     1      -2.705   6.317  16.475  0.00  0.00    +0.210 C 
ATOM     19  C   UNL     1      -3.900   5.517  15.925  0.00  0.00    +0.109 C 
ATOM     20  O   UNL     1      -2.017   5.864  17.391  0.00  0.00    -0.276 OA
ENDBRANCH  15  16
BRANCH  12  21
ATOM     21  C   UNL     1      -2.705  11.266  13.007  0.00  0.00    +0.414 C 
ATOM     22  O   UNL     1      -1.768  11.252  12.209  0.00  0.00    -0.240 OA
ATOM     23  O   UNL     1      -2.723  12.113  13.901  0.00  0.00    -0.240 OA
ENDBRANCH  12  21
BRANCH  12  24
ATOM     24  O   UNL     1      -4.809  10.682  11.900  0.00  0.00    -0.343 OA
ATOM     25  C   UNL     1      -5.930  11.430  12.435  0.00  0.00    +0.198 C 
ENDBRANCH  12  24
BRANCH  14  26
ATOM     26  O   UNL     1      -2.069   6.877  13.117  0.00  0.00    -0.390 OA
ATOM     27  H   UNL     1      -2.344   6.235  13.775  0.00  0.00    +0.210 HD
ENDBRANCH  14  26
ENDBRANCH   9  10
BRANCH   9  28
ATOM     28  O   UNL     1      -5.587   8.441  16.489  0.00  0.00    -0.387 OA
ATOM     29  H   UNL     1      -5.141   7.609  16.312  0.00  0.00    +0.210 HD
ENDBRANCH   9  28
ENDBRANCH   6   9
ENDBRANCH   5   6
ENDBRANCH   3   5
BRANCH   1  30
ATOM     30  O   UNL     1      -3.774  10.098  21.144  0.00  0.00    -0.444 OA
BRANCH  30  31
ATOM     31  C   UNL     1      -3.207  11.394  21.353  0.00  0.00    +0.292 C 
BRANCH  31  33
ATOM     32  N   UNL     1      -3.635  13.056  23.147  0.00  0.00    -0.131 NA
ATOM     33  C   UNL     1      -3.284  11.784  22.775  0.00  0.00    +0.120 A 
ATOM     34  C   UNL     1      -3.019  11.046  23.908  0.00  0.00    +0.137 A 
ATOM     35  N   UNL     1      -3.179  11.935  24.929  0.00  0.00    -0.251 N 
ATOM     36  N   UNL     1      -3.569  13.136  24.471  0.00  0.00    -0.065 NA
BRANCH  35  37
ATOM     37  C   UNL     1      -2.835  11.761  26.333  0.00  0.00    +0.160 C 
BRANCH  37  38
ATOM     38  C   UNL     1      -3.220  10.392  26.902  0.00  0.00    +0.131 C 
BRANCH  38  39
ATOM     39  C   UNL     1      -1.943   9.729  27.402  0.00  0.00    +0.311 C 
ATOM     40  O   UNL     1      -1.913   9.008  28.387  0.00  0.00    -0.251 OA
BRANCH  39  41
ATOM     41  O   UNL     1      -0.841   9.880  26.639  0.00  0.00    -0.480 OA
ATOM     42  H   UNL     1      -0.895  10.433  25.842  0.00  0.00    +0.295 HD
ENDBRANCH  39  41
ENDBRANCH  38  39
BRANCH  38  43
ATOM     43  C   UNL     1      -4.326  10.431  28.003  0.00  0.00    +0.064 C 
BRANCH  43  44
ATOM     44  C   UNL     1      -4.615  11.806  28.607  0.00  0.00    -0.039 A 
ATOM     45  C   UNL     1      -3.871  12.251  29.718  0.00  0.00    +0.004 A 
ATOM     46  C   UNL     1      -4.109  13.504  30.294  0.00  0.00    +0.000 A 
ATOM     47  C   UNL     1      -5.107  14.328  29.782  0.00  0.00    +0.000 A 
ATOM     48  C   UNL     1      -5.865  13.899  28.698  0.00  0.00    +0.000 A 
ATOM     49  C   UNL     1      -5.615  12.654  28.109  0.00  0.00    +0.004 A 
ENDBRANCH  43  44
BRANCH  43  50
ATOM     50  C   UNL     1      -5.592   9.717  27.510  0.00  0.00    -0.039 A 
ATOM     51  C   UNL     1      -6.466   9.107  28.424  0.00  0.00    +0.004 A 
ATOM     52  C   UNL     1      -7.524   8.311  27.972  0.00  0.00    +0.000 A 
ATOM     53  C   UNL     1      -7.737   8.135  26.607  0.00  0.00    +0.000 A 
ATOM     54  C   UNL     1      -6.904   8.762  25.690  0.00  0.00    +0.000 A 
ATOM     55  C   UNL     1      -5.840   9.546  26.137  0.00  0.00    +0.004 A 
ENDBRANCH  43  50
ENDBRANCH  38  43
ENDBRANCH  37  38
ENDBRANCH  35  37
ENDBRANCH  31  33
ENDBRANCH  30  31
ENDBRANCH   1  30
TORSDOF 20
