REMARK VINA RESULT:    -4.078      3.248      6.792
REMARK INTER + INTRA:         -10.905
REMARK INTER:                  -7.727
REMARK INTRA:                  -3.178
REMARK UNBOUND:                -2.894
REMARK  Name = lig_assembled_17.pdb
REMARK  22 active torsions:
REMARK  status: ('A' for Active; 'I' for Inactive)
REMARK    1  A    between atoms: _2  and  _10
REMARK    2  A    between atoms: _3  and  _11
REMARK    3  A    between atoms: _3  and  _12
REMARK    4  A    between atoms: _3  and  _14
REMARK    5  A    between atoms: _5  and  _19
REMARK    6  A    between atoms: _6  and  _14
REMARK    7  A    between atoms: _7  and  _8
REMARK    8  A    between atoms: _7  and  _19
REMARK    9  A    between atoms: _10  and  _11
REMARK   10  A    between atoms: _12  and  _13
REMARK   11  A    between atoms: _15  and  _35
REMARK   12  A    between atoms: _17  and  _23
REMARK   13  A    between atoms: _18  and  _22
REMARK   14  A    between atoms: _22  and  _23
REMARK   15  A    between atoms: _25  and  _26
REMARK   16  A    between atoms: _27  and  _28
REMARK   17  A    between atoms: _29  and  _31
REMARK   18  A    between atoms: _31  and  _32
REMARK   19  A    between atoms: _31  and  _33
REMARK   20  A    between atoms: _33  and  _34
REMARK   21  A    between atoms: _33  and  _35
REMARK   22  A    between atoms: _36  and  _38
REMARK                            x       y       z     vdW  Elec       q    Type
REMARK                         _______ _______ _______ _____ _____    ______ ____
ROOT
ATOM      1  C   UNL     1      -2.937  12.023  24.284  0.00  0.00    +0.163 C 
ENDROOT
BRANCH   1   2
ATOM      2  O   UNL     1      -2.055  11.842  25.404  0.00  0.00    -0.388 OA
ATOM      3  H   UNL     1      -1.337  12.477  25.352  0.00  0.00    +0.210 HD
ENDBRANCH   1   2
BRANCH   1   4
ATOM      4  C   UNL     1      -3.736  10.740  24.000  0.00  0.00    +0.175 C 
BRANCH   4   5
ATOM      5  C   UNL     1      -3.921   9.883  25.261  0.00  0.00    +0.176 C 
ATOM      6  O   UNL     1      -2.822   8.933  25.322  0.00  0.00    -0.332 OA
ATOM      7  C   UNL     1      -2.774   8.095  26.524  0.00  0.00    +0.277 C 
ATOM      8  C   UNL     1      -4.118   7.353  26.720  0.00  0.00    +0.110 C 
ATOM      9  C   UNL     1      -5.320   8.317  26.632  0.00  0.00    +0.143 C 
ATOM     10  C   UNL     1      -5.268   9.142  25.345  0.00  0.00    +0.133 C 
BRANCH  10  11
ATOM     11  N   UNL     1      -6.369  10.117  25.314  0.00  0.00    -0.308 N 
ATOM     12  H   UNL     1      -6.459  10.752  26.094  0.00  0.00    +0.149 HD
ATOM     13  C   UNL     1      -7.258  10.218  24.321  0.00  0.00    +0.210 C 
ATOM     14  C   UNL     1      -7.110   9.218  23.159  0.00  0.00    +0.109 C 
ATOM     15  O   UNL     1      -8.161  11.055  24.315  0.00  0.00    -0.276 OA
ENDBRANCH  10  11
BRANCH   7  16
ATOM     16  C   UNL     1      -2.469   8.947  27.773  0.00  0.00    +0.414 C 
ATOM     17  O   UNL     1      -1.798   9.974  27.675  0.00  0.00    -0.240 OA
ATOM     18  O   UNL     1      -2.893   8.608  28.879  0.00  0.00    -0.240 OA
ENDBRANCH   7  16
BRANCH   9  19
ATOM     19  O   UNL     1      -6.538   7.573  26.666  0.00  0.00    -0.390 OA
ATOM     20  H   UNL     1      -6.944   7.583  25.796  0.00  0.00    +0.210 HD
ENDBRANCH   9  19
BRANCH   7  21
ATOM     21  O   UNL     1      -1.728   7.106  26.340  0.00  0.00    -0.343 OA
ATOM     22  C   UNL     1      -2.046   5.780  26.833  0.00  0.00    +0.198 C 
ENDBRANCH   7  21
ENDBRANCH   4   5
BRANCH   4  23
ATOM     23  O   UNL     1      -3.089   9.970  22.967  0.00  0.00    -0.387 OA
ATOM     24  H   UNL     1      -3.029   9.052  23.242  0.00  0.00    +0.210 HD
ENDBRANCH   4  23
ENDBRANCH   1   4
BRANCH   1  25
ATOM     25  C   UNL     1      -3.901  13.173  24.560  0.00  0.00    +0.141 C 
BRANCH  25  28
ATOM     26  C   UNL     1      -4.827  14.152  22.489  0.00  0.00    +0.401 C 
ATOM     27  O   UNL     1      -3.886  14.933  22.326  0.00  0.00    -0.226 OA
ATOM     28  N   UNL     1      -4.918  13.298  23.510  0.00  0.00    -0.279 N 
ATOM     29  H   UNL     1      -5.734  12.704  23.563  0.00  0.00    +0.152 HD
BRANCH  26  30
ATOM     30  O   UNL     1      -5.898  14.148  21.542  0.00  0.00    -0.444 OA
BRANCH  30  31
ATOM     31  C   UNL     1      -6.475  12.841  21.480  0.00  0.00    +0.292 C 
BRANCH  31  33
ATOM     32  N   UNL     1      -4.810  11.079  20.995  0.00  0.00    -0.131 NA
ATOM     33  C   UNL     1      -5.720  11.995  20.537  0.00  0.00    +0.120 A 
ATOM     34  C   UNL     1      -5.768  11.936  19.162  0.00  0.00    +0.137 A 
ATOM     35  N   UNL     1      -4.880  10.952  18.849  0.00  0.00    -0.250 N 
ATOM     36  N   UNL     1      -4.297  10.446  19.950  0.00  0.00    -0.065 NA
BRANCH  35  37
ATOM     37  C   UNL     1      -4.561  10.407  17.545  0.00  0.00    +0.160 C 
BRANCH  37  38
ATOM     38  C   UNL     1      -5.432   9.179  17.246  0.00  0.00    +0.107 C 
BRANCH  38  39
ATOM     39  N   UNL     1      -4.946   7.887  17.790  0.00  0.00    -0.301 NA
BRANCH  39  40
ATOM     40  C   UNL     1      -5.875   7.274  18.756  0.00  0.00    +0.081 C 
ATOM     41  C   UNL     1      -7.108   8.092  19.128  0.00  0.00    +0.020 C 
ENDBRANCH  39  40
BRANCH  39  42
ATOM     42  C   UNL     1      -4.600   6.996  16.663  0.00  0.00    +0.081 C 
ATOM     43  C   UNL     1      -5.564   7.051  15.482  0.00  0.00    +0.020 C 
ENDBRANCH  39  42
ENDBRANCH  38  39
ENDBRANCH  37  38
ENDBRANCH  35  37
ENDBRANCH  31  33
ENDBRANCH  30  31
ENDBRANCH  26  30
ENDBRANCH  25  28
ENDBRANCH   1  25
TORSDOF 18
