REMARK VINA RESULT:    -4.961      3.156      8.448
REMARK INTER + INTRA:         -11.680
REMARK INTER:                  -8.091
REMARK INTRA:                  -3.589
REMARK UNBOUND:                -3.093
REMARK  Name = lig_assembled_80.pdb
REMARK  16 active torsions:
REMARK  status: ('A' for Active; 'I' for Inactive)
REMARK    1  A    between atoms: _2  and  _10
REMARK    2  A    between atoms: _5  and  _24
REMARK    3  A    between atoms: _7  and  _8
REMARK    4  A    between atoms: _7  and  _24
REMARK    5  A    between atoms: _20  and  _40
REMARK    6  A    between atoms: _22  and  _28
REMARK    7  A    between atoms: _23  and  _27
REMARK    8  A    between atoms: _27  and  _28
REMARK    9  A    between atoms: _30  and  _31
REMARK   10  A    between atoms: _32  and  _33
REMARK   11  A    between atoms: _34  and  _36
REMARK   12  A    between atoms: _36  and  _37
REMARK   13  A    between atoms: _36  and  _38
REMARK   14  A    between atoms: _38  and  _39
REMARK   15  A    between atoms: _38  and  _40
REMARK   16  A    between atoms: _41  and  _43
REMARK                            x       y       z     vdW  Elec       q    Type
REMARK                         _______ _______ _______ _____ _____    ______ ____
ROOT
ATOM      1  C   UNL     1      -3.042  11.104  32.053  0.00  0.00    +0.141 C 
ENDROOT
BRANCH   1   4
ATOM      2  C   UNL     1      -3.030  13.476  32.745  0.00  0.00    +0.401 C 
ATOM      3  O   UNL     1      -1.989  13.745  32.141  0.00  0.00    -0.226 OA
ATOM      4  N   UNL     1      -3.590  12.266  32.763  0.00  0.00    -0.279 N 
ATOM      5  H   UNL     1      -4.440  12.142  33.296  0.00  0.00    +0.152 HD
BRANCH   2   6
ATOM      6  O   UNL     1      -3.692  14.508  33.481  0.00  0.00    -0.444 OA
BRANCH   6   7
ATOM      7  C   UNL     1      -3.934  15.626  32.623  0.00  0.00    +0.292 C 
BRANCH   7   9
ATOM      8  N   UNL     1      -6.239  14.976  32.043  0.00  0.00    -0.131 NA
ATOM      9  C   UNL     1      -4.976  15.297  31.629  0.00  0.00    +0.120 A 
ATOM     10  C   UNL     1      -4.918  15.252  30.254  0.00  0.00    +0.138 A 
ATOM     11  N   UNL     1      -6.171  14.840  29.889  0.00  0.00    -0.239 N 
ATOM     12  N   UNL     1      -6.972  14.711  30.970  0.00  0.00    -0.065 NA
BRANCH  11  13
ATOM     13  C   UNL     1      -6.764  14.707  28.552  0.00  0.00    +0.195 C 
ATOM     14  C   UNL     1      -6.756  16.074  27.884  0.00  0.00    +0.041 C 
ATOM     15  C   UNL     1      -7.608  16.073  26.631  0.00  0.00    +0.039 C 
ATOM     16  C   UNL     1      -6.803  15.577  25.471  0.00  0.00    -0.026 A 
ATOM     17  C   UNL     1      -6.309  14.273  25.402  0.00  0.00    +0.037 A 
ATOM     18  C   UNL     1      -5.668  13.844  24.227  0.00  0.00    +0.023 A 
ATOM     19  C   UNL     1      -5.414  14.729  23.181  0.00  0.00    +0.002 A 
ATOM     20  C   UNL     1      -5.839  16.046  23.279  0.00  0.00    +0.000 A 
ATOM     21  N   UNL     1      -6.315  13.338  26.451  0.00  0.00    -0.284 N 
ATOM     22  H   UNL     1      -5.936  12.427  26.209  0.00  0.00    +0.155 HD
ATOM     23  C   UNL     1      -6.551  16.460  24.404  0.00  0.00    +0.005 A 
ATOM     24  C   UNL     1      -6.164  13.529  27.794  0.00  0.00    +0.242 C 
ATOM     25  O   UNL     1      -5.590  12.605  28.384  0.00  0.00    -0.273 OA
ENDBRANCH  11  13
ENDBRANCH   7   9
ENDBRANCH   6   7
ENDBRANCH   2   6
ENDBRANCH   1   4
BRANCH   1  26
ATOM     26  C   UNL     1      -3.668  10.934  30.672  0.00  0.00    +0.163 C 
BRANCH  26  27
ATOM     27  O   UNL     1      -3.027  11.810  29.731  0.00  0.00    -0.388 OA
ATOM     28  H   UNL     1      -3.331  12.710  29.871  0.00  0.00    +0.210 HD
ENDBRANCH  26  27
BRANCH  26  29
ATOM     29  C   UNL     1      -3.545   9.466  30.230  0.00  0.00    +0.175 C 
BRANCH  29  30
ATOM     30  C   UNL     1      -3.151   9.340  28.751  0.00  0.00    +0.176 C 
ATOM     31  O   UNL     1      -4.219   9.919  27.952  0.00  0.00    -0.332 OA
ATOM     32  C   UNL     1      -3.969   9.983  26.509  0.00  0.00    +0.277 C 
ATOM     33  C   UNL     1      -3.607   8.581  25.960  0.00  0.00    +0.110 C 
ATOM     34  C   UNL     1      -2.497   7.911  26.797  0.00  0.00    +0.143 C 
ATOM     35  C   UNL     1      -2.859   7.902  28.282  0.00  0.00    +0.133 C 
BRANCH  35  36
ATOM     36  N   UNL     1      -1.757   7.340  29.078  0.00  0.00    -0.308 N 
ATOM     37  H   UNL     1      -0.868   7.820  29.058  0.00  0.00    +0.149 HD
ATOM     38  C   UNL     1      -1.854   6.237  29.826  0.00  0.00    +0.210 C 
ATOM     39  C   UNL     1      -3.213   5.514  29.814  0.00  0.00    +0.109 C 
ATOM     40  O   UNL     1      -0.917   5.798  30.494  0.00  0.00    -0.276 OA
ENDBRANCH  35  36
BRANCH  32  41
ATOM     41  C   UNL     1      -2.826  10.970  26.195  0.00  0.00    +0.414 C 
ATOM     42  O   UNL     1      -1.919  10.647  25.429  0.00  0.00    -0.240 OA
ATOM     43  O   UNL     1      -2.809  12.090  26.709  0.00  0.00    -0.240 OA
ENDBRANCH  32  41
BRANCH  34  44
ATOM     44  O   UNL     1      -2.302   6.568  26.352  0.00  0.00    -0.390 OA
ATOM     45  H   UNL     1      -1.526   6.527  25.788  0.00  0.00    +0.210 HD
ENDBRANCH  34  44
BRANCH  32  46
ATOM     46  O   UNL     1      -5.189  10.427  25.861  0.00  0.00    -0.343 OA
ATOM     47  C   UNL     1      -5.325  10.028  24.474  0.00  0.00    +0.198 C 
ENDBRANCH  32  46
ENDBRANCH  29  30
BRANCH  29  48
ATOM     48  O   UNL     1      -4.783   8.768  30.475  0.00  0.00    -0.387 OA
ATOM     49  H   UNL     1      -5.512   9.268  30.101  0.00  0.00    +0.210 HD
ENDBRANCH  29  48
ENDBRANCH  26  29
ENDBRANCH   1  26
TORSDOF 14
