REMARK VINA RESULT:    -4.159      8.146     10.917
REMARK INTER + INTRA:         -11.574
REMARK INTER:                  -9.501
REMARK INTRA:                  -2.073
REMARK UNBOUND:                -3.890
REMARK  Name = lig_assembled_66.pdb
REMARK  18 active torsions:
REMARK  status: ('A' for Active; 'I' for Inactive)
REMARK    1  A    between atoms: _2  and  _10
REMARK    2  A    between atoms: _5  and  _21
REMARK    3  A    between atoms: _7  and  _8
REMARK    4  A    between atoms: _7  and  _21
REMARK    5  A    between atoms: _10  and  _11
REMARK    6  A    between atoms: _15  and  _16
REMARK    7  A    between atoms: _17  and  _37
REMARK    8  A    between atoms: _19  and  _25
REMARK    9  A    between atoms: _20  and  _24
REMARK   10  A    between atoms: _24  and  _25
REMARK   11  A    between atoms: _27  and  _28
REMARK   12  A    between atoms: _29  and  _30
REMARK   13  A    between atoms: _31  and  _33
REMARK   14  A    between atoms: _33  and  _34
REMARK   15  A    between atoms: _33  and  _35
REMARK   16  A    between atoms: _35  and  _36
REMARK   17  A    between atoms: _35  and  _37
REMARK   18  A    between atoms: _38  and  _40
REMARK                            x       y       z     vdW  Elec       q    Type
REMARK                         _______ _______ _______ _____ _____    ______ ____
ROOT
ATOM      1  C   UNL     1      -4.308  10.229  14.015  0.00  0.00    +0.163 C 
ENDROOT
BRANCH   1   2
ATOM      2  O   UNL     1      -5.566  10.804  13.626  0.00  0.00    -0.388 OA
ATOM      3  H   UNL     1      -5.418  11.476  12.957  0.00  0.00    +0.210 HD
ENDBRANCH   1   2
BRANCH   1   4
ATOM      4  C   UNL     1      -3.347  10.148  12.816  0.00  0.00    +0.175 C 
BRANCH   4   5
ATOM      5  C   UNL     1      -3.516   8.842  12.027  0.00  0.00    +0.176 C 
ATOM      6  O   UNL     1      -4.818   8.875  11.381  0.00  0.00    -0.332 OA
ATOM      7  C   UNL     1      -5.114   7.748  10.491  0.00  0.00    +0.277 C 
ATOM      8  C   UNL     1      -4.936   6.405  11.241  0.00  0.00    +0.110 C 
ATOM      9  C   UNL     1      -3.578   6.336  11.971  0.00  0.00    +0.143 C 
ATOM     10  C   UNL     1      -3.374   7.558  12.867  0.00  0.00    +0.133 C 
BRANCH  10  11
ATOM     11  N   UNL     1      -2.041   7.524  13.489  0.00  0.00    -0.308 N 
ATOM     12  H   UNL     1      -1.238   7.661  12.891  0.00  0.00    +0.149 HD
ATOM     13  C   UNL     1      -1.823   7.324  14.791  0.00  0.00    +0.210 C 
ATOM     14  C   UNL     1      -3.066   7.092  15.671  0.00  0.00    +0.109 C 
ATOM     15  O   UNL     1      -0.696   7.314  15.287  0.00  0.00    -0.276 OA
ENDBRANCH  10  11
BRANCH   7  16
ATOM     16  C   UNL     1      -4.193   7.772   9.253  0.00  0.00    +0.414 C 
ATOM     17  O   UNL     1      -3.800   8.844   8.794  0.00  0.00    -0.240 OA
ATOM     18  O   UNL     1      -3.844   6.721   8.714  0.00  0.00    -0.240 OA
ENDBRANCH   7  16
BRANCH   7  19
ATOM     19  O   UNL     1      -6.498   7.858  10.072  0.00  0.00    -0.343 OA
ATOM     20  C   UNL     1      -7.151   9.101  10.434  0.00  0.00    +0.198 C 
ENDBRANCH   7  19
BRANCH   9  21
ATOM     21  O   UNL     1      -3.521   5.153  12.770  0.00  0.00    -0.390 OA
ATOM     22  H   UNL     1      -4.111   4.490  12.404  0.00  0.00    +0.210 HD
ENDBRANCH   9  21
ENDBRANCH   4   5
BRANCH   4  23
ATOM     23  O   UNL     1      -1.983  10.285  13.263  0.00  0.00    -0.387 OA
ATOM     24  H   UNL     1      -1.458  10.691  12.569  0.00  0.00    +0.210 HD
ENDBRANCH   4  23
ENDBRANCH   1   4
BRANCH   1  25
ATOM     25  C   UNL     1      -3.672  11.064  15.122  0.00  0.00    +0.141 C 
BRANCH  25  28
ATOM     26  C   UNL     1      -5.217  11.087  17.050  0.00  0.00    +0.401 C 
ATOM     27  O   UNL     1      -5.976  11.923  16.552  0.00  0.00    -0.226 OA
ATOM     28  N   UNL     1      -4.114  10.634  16.454  0.00  0.00    -0.279 N 
ATOM     29  H   UNL     1      -3.550   9.955  16.947  0.00  0.00    +0.152 HD
BRANCH  26  30
ATOM     30  O   UNL     1      -5.517  10.563  18.346  0.00  0.00    -0.444 OA
BRANCH  30  31
ATOM     31  C   UNL     1      -6.059  11.600  19.167  0.00  0.00    +0.292 C 
BRANCH  31  33
ATOM     32  N   UNL     1      -3.830  11.486  20.245  0.00  0.00    -0.131 NA
ATOM     33  C   UNL     1      -5.128  11.925  20.266  0.00  0.00    +0.120 A 
ATOM     34  C   UNL     1      -5.326  12.689  21.394  0.00  0.00    +0.137 A 
ATOM     35  N   UNL     1      -4.097  12.725  21.989  0.00  0.00    -0.247 N 
ATOM     36  N   UNL     1      -3.206  11.983  21.305  0.00  0.00    -0.065 NA
BRANCH  35  37
ATOM     37  C   UNL     1      -3.650  13.627  23.034  0.00  0.00    +0.180 C 
BRANCH  37  38
ATOM     38  C   UNL     1      -3.706  13.018  24.412  0.00  0.00    -0.025 A 
ATOM     39  C   UNL     1      -4.738  13.362  25.297  0.00  0.00    +0.005 A 
ATOM     40  C   UNL     1      -4.844  12.741  26.544  0.00  0.00    +0.002 A 
ATOM     41  C   UNL     1      -3.908  11.783  26.930  0.00  0.00    +0.019 A 
ATOM     42  C   UNL     1      -2.853  11.454  26.074  0.00  0.00    +0.052 A 
ATOM     43  C   UNL     1      -2.753  12.070  24.819  0.00  0.00    +0.024 A 
BRANCH  42  44
ATOM     44  C   UNL     1      -1.879  10.481  26.475  0.00  0.00    +0.099 C 
ATOM     45  N   UNL     1      -1.089   9.691  26.791  0.00  0.00    -0.191 NA
ENDBRANCH  42  44
ENDBRANCH  37  38
ENDBRANCH  35  37
ENDBRANCH  31  33
ENDBRANCH  30  31
ENDBRANCH  26  30
ENDBRANCH  25  28
ENDBRANCH   1  25
TORSDOF 16
