REMARK VINA RESULT:    -4.262      2.086      5.717
REMARK INTER + INTRA:         -11.268
REMARK INTER:                  -8.374
REMARK INTRA:                  -2.894
REMARK UNBOUND:                -2.894
REMARK  Name = lig_assembled_17.pdb
REMARK  22 active torsions:
REMARK  status: ('A' for Active; 'I' for Inactive)
REMARK    1  A    between atoms: _2  and  _10
REMARK    2  A    between atoms: _3  and  _11
REMARK    3  A    between atoms: _3  and  _12
REMARK    4  A    between atoms: _3  and  _14
REMARK    5  A    between atoms: _5  and  _19
REMARK    6  A    between atoms: _6  and  _14
REMARK    7  A    between atoms: _7  and  _8
REMARK    8  A    between atoms: _7  and  _19
REMARK    9  A    between atoms: _10  and  _11
REMARK   10  A    between atoms: _12  and  _13
REMARK   11  A    between atoms: _15  and  _35
REMARK   12  A    between atoms: _17  and  _23
REMARK   13  A    between atoms: _18  and  _22
REMARK   14  A    between atoms: _22  and  _23
REMARK   15  A    between atoms: _25  and  _26
REMARK   16  A    between atoms: _27  and  _28
REMARK   17  A    between atoms: _29  and  _31
REMARK   18  A    between atoms: _31  and  _32
REMARK   19  A    between atoms: _31  and  _33
REMARK   20  A    between atoms: _33  and  _34
REMARK   21  A    between atoms: _33  and  _35
REMARK   22  A    between atoms: _36  and  _38
REMARK                            x       y       z     vdW  Elec       q    Type
REMARK                         _______ _______ _______ _____ _____    ______ ____
ROOT
ATOM      1  C   UNL     1      -3.354  11.380  26.265  0.00  0.00    +0.163 C 
ENDROOT
BRANCH   1   2
ATOM      2  O   UNL     1      -3.765  11.821  27.569  0.00  0.00    -0.388 OA
ATOM      3  H   UNL     1      -4.553  11.342  27.836  0.00  0.00    +0.210 HD
ENDBRANCH   1   2
BRANCH   1   4
ATOM      4  C   UNL     1      -3.287  12.560  25.281  0.00  0.00    +0.175 C 
BRANCH   4   5
ATOM      5  C   UNL     1      -4.624  12.791  24.563  0.00  0.00    +0.176 C 
ATOM      6  O   UNL     1      -5.526  13.447  25.497  0.00  0.00    -0.332 OA
ATOM      7  C   UNL     1      -6.827  13.844  24.949  0.00  0.00    +0.277 C 
ATOM      8  C   UNL     1      -7.536  12.628  24.303  0.00  0.00    +0.110 C 
ATOM      9  C   UNL     1      -6.605  11.880  23.326  0.00  0.00    +0.143 C 
ATOM     10  C   UNL     1      -5.280  11.518  23.997  0.00  0.00    +0.133 C 
BRANCH  10  11
ATOM     11  N   UNL     1      -4.370  10.883  23.032  0.00  0.00    -0.308 N 
ATOM     12  H   UNL     1      -3.992  11.458  22.291  0.00  0.00    +0.149 HD
ATOM     13  C   UNL     1      -4.010   9.597  23.069  0.00  0.00    +0.210 C 
ATOM     14  C   UNL     1      -4.623   8.742  24.194  0.00  0.00    +0.109 C 
ATOM     15  O   UNL     1      -3.233   9.096  22.255  0.00  0.00    -0.276 OA
ENDBRANCH  10  11
BRANCH   7  16
ATOM     16  C   UNL     1      -6.660  14.962  23.899  0.00  0.00    +0.414 C 
ATOM     17  O   UNL     1      -7.583  15.235  23.133  0.00  0.00    -0.240 OA
ATOM     18  O   UNL     1      -5.604  15.590  23.819  0.00  0.00    -0.240 OA
ENDBRANCH   7  16
BRANCH   9  19
ATOM     19  O   UNL     1      -7.244  10.686  22.871  0.00  0.00    -0.390 OA
ATOM     20  H   UNL     1      -7.565  10.816  21.975  0.00  0.00    +0.210 HD
ENDBRANCH   9  19
BRANCH   7  21
ATOM     21  O   UNL     1      -7.647  14.322  26.046  0.00  0.00    -0.343 OA
ATOM     22  C   UNL     1      -7.179  13.953  27.368  0.00  0.00    +0.198 C 
ENDBRANCH   7  21
ENDBRANCH   4   5
BRANCH   4  23
ATOM     23  O   UNL     1      -2.236  12.345  24.317  0.00  0.00    -0.387 OA
ATOM     24  H   UNL     1      -1.820  11.496  24.482  0.00  0.00    +0.210 HD
ENDBRANCH   4  23
ENDBRANCH   1   4
BRANCH   1  25
ATOM     25  C   UNL     1      -1.987  10.707  26.347  0.00  0.00    +0.141 C 
BRANCH  25  28
ATOM     26  C   UNL     1      -1.811   8.554  27.547  0.00  0.00    +0.401 C 
ATOM     27  O   UNL     1      -1.892   7.870  26.524  0.00  0.00    -0.226 OA
ATOM     28  N   UNL     1      -1.853   9.887  27.558  0.00  0.00    -0.279 N 
ATOM     29  H   UNL     1      -1.789  10.359  28.449  0.00  0.00    +0.152 HD
BRANCH  26  30
ATOM     30  O   UNL     1      -1.668   7.900  28.811  0.00  0.00    -0.444 OA
BRANCH  30  31
ATOM     31  C   UNL     1      -2.962   7.627  29.357  0.00  0.00    +0.292 C 
BRANCH  31  33
ATOM     32  N   UNL     1      -4.621   9.456  29.244  0.00  0.00    -0.131 NA
ATOM     33  C   UNL     1      -3.563   8.865  29.884  0.00  0.00    +0.120 A 
ATOM     34  C   UNL     1      -3.245   9.601  31.004  0.00  0.00    +0.137 A 
ATOM     35  N   UNL     1      -4.157  10.612  30.998  0.00  0.00    -0.250 N 
ATOM     36  N   UNL     1      -4.976  10.530  29.935  0.00  0.00    -0.065 NA
BRANCH  35  37
ATOM     37  C   UNL     1      -4.347  11.662  31.978  0.00  0.00    +0.160 C 
BRANCH  37  38
ATOM     38  C   UNL     1      -4.421  13.034  31.293  0.00  0.00    +0.107 C 
BRANCH  38  39
ATOM     39  N   UNL     1      -3.675  14.133  31.955  0.00  0.00    -0.301 NA
BRANCH  39  40
ATOM     40  C   UNL     1      -2.346  13.725  32.444  0.00  0.00    +0.081 C 
ATOM     41  C   UNL     1      -1.890  14.335  33.766  0.00  0.00    +0.020 C 
ENDBRANCH  39  40
BRANCH  39  42
ATOM     42  C   UNL     1      -3.633  15.295  31.044  0.00  0.00    +0.081 C 
ATOM     43  C   UNL     1      -4.090  16.612  31.663  0.00  0.00    +0.020 C 
ENDBRANCH  39  42
ENDBRANCH  38  39
ENDBRANCH  37  38
ENDBRANCH  35  37
ENDBRANCH  31  33
ENDBRANCH  30  31
ENDBRANCH  26  30
ENDBRANCH  25  28
ENDBRANCH   1  25
TORSDOF 18
