REMARK VINA RESULT:    -5.227      2.475      5.635
REMARK INTER + INTRA:         -11.585
REMARK INTER:                  -8.197
REMARK INTRA:                  -3.388
REMARK UNBOUND:                -2.233
REMARK  Name = lig_assembled_61.pdb
REMARK  17 active torsions:
REMARK  status: ('A' for Active; 'I' for Inactive)
REMARK    1  A    between atoms: _2  and  _9
REMARK    2  A    between atoms: _4  and  _17
REMARK    3  A    between atoms: _6  and  _7
REMARK    4  A    between atoms: _6  and  _17
REMARK    5  A    between atoms: _9  and  _10
REMARK    6  A    between atoms: _13  and  _33
REMARK    7  A    between atoms: _15  and  _21
REMARK    8  A    between atoms: _16  and  _20
REMARK    9  A    between atoms: _20  and  _21
REMARK   10  A    between atoms: _23  and  _24
REMARK   11  A    between atoms: _25  and  _26
REMARK   12  A    between atoms: _27  and  _29
REMARK   13  A    between atoms: _29  and  _30
REMARK   14  A    between atoms: _29  and  _31
REMARK   15  A    between atoms: _31  and  _32
REMARK   16  A    between atoms: _31  and  _33
REMARK   17  A    between atoms: _34  and  _36
REMARK                            x       y       z     vdW  Elec       q    Type
REMARK                         _______ _______ _______ _____ _____    ______ ____
ROOT
ATOM      1  C   UNL     1      -4.180  13.114  25.303  0.00  0.00    +0.163 C 
ENDROOT
BRANCH   1   2
ATOM      2  O   UNL     1      -4.908  13.698  24.211  0.00  0.00    -0.388 OA
ATOM      3  H   UNL     1      -4.385  13.635  23.407  0.00  0.00    +0.210 HD
ENDBRANCH   1   2
BRANCH   1   4
ATOM      4  C   UNL     1      -2.847  12.562  24.807  0.00  0.00    +0.141 C 
BRANCH   4   7
ATOM      5  C   UNL     1      -3.004  11.104  22.819  0.00  0.00    +0.401 C 
ATOM      6  O   UNL     1      -3.126  10.066  23.473  0.00  0.00    -0.226 OA
ATOM      7  N   UNL     1      -2.862  12.314  23.360  0.00  0.00    -0.279 N 
ATOM      8  H   UNL     1      -2.760  13.105  22.740  0.00  0.00    +0.152 HD
BRANCH   5   9
ATOM      9  O   UNL     1      -3.008  11.029  21.391  0.00  0.00    -0.444 OA
BRANCH   9  10
ATOM     10  C   UNL     1      -4.307  10.639  20.936  0.00  0.00    +0.292 C 
BRANCH  10  12
ATOM     11  N   UNL     1      -6.203  11.505  22.270  0.00  0.00    -0.131 NA
ATOM     12  C   UNL     1      -5.299  11.682  21.255  0.00  0.00    +0.120 A 
ATOM     13  C   UNL     1      -5.508  12.913  20.673  0.00  0.00    +0.137 A 
ATOM     14  N   UNL     1      -6.589  13.410  21.340  0.00  0.00    -0.247 N 
ATOM     15  N   UNL     1      -6.978  12.580  22.326  0.00  0.00    -0.065 NA
BRANCH  14  16
ATOM     16  C   UNL     1      -7.277  14.670  21.124  0.00  0.00    +0.180 C 
BRANCH  16  17
ATOM     17  C   UNL     1      -6.819  15.729  22.088  0.00  0.00    -0.019 A 
ATOM     18  C   UNL     1      -5.591  16.465  21.967  0.00  0.00    +0.013 A 
ATOM     19  C   UNL     1      -5.393  17.349  23.006  0.00  0.00    +0.045 A 
ATOM     20  S   UNL     1      -6.679  17.315  24.128  0.00  0.00    -0.105 S 
ATOM     21  C   UNL     1      -7.498  16.111  23.235  0.00  0.00    +0.050 A 
ENDBRANCH  16  17
ENDBRANCH  14  16
ENDBRANCH  10  12
ENDBRANCH   9  10
ENDBRANCH   5   9
ENDBRANCH   4   7
ENDBRANCH   1   4
BRANCH   1  22
ATOM     22  C   UNL     1      -4.990  11.984  25.962  0.00  0.00    +0.175 C 
BRANCH  22  23
ATOM     23  C   UNL     1      -4.158  11.196  26.984  0.00  0.00    +0.176 C 
ATOM     24  O   UNL     1      -4.176   9.796  26.592  0.00  0.00    -0.332 OA
ATOM     25  C   UNL     1      -3.341   8.901  27.398  0.00  0.00    +0.277 C 
ATOM     26  C   UNL     1      -3.703   9.028  28.898  0.00  0.00    +0.110 C 
ATOM     27  C   UNL     1      -3.728  10.502  29.355  0.00  0.00    +0.143 C 
ATOM     28  C   UNL     1      -4.624  11.344  28.445  0.00  0.00    +0.133 C 
BRANCH  28  29
ATOM     29  N   UNL     1      -4.571  12.761  28.837  0.00  0.00    -0.308 N 
ATOM     30  H   UNL     1      -3.674  13.225  28.808  0.00  0.00    +0.149 HD
ATOM     31  C   UNL     1      -5.631  13.474  29.228  0.00  0.00    +0.210 C 
ATOM     32  C   UNL     1      -6.979  12.730  29.286  0.00  0.00    +0.109 C 
ATOM     33  O   UNL     1      -5.559  14.664  29.537  0.00  0.00    -0.276 OA
ENDBRANCH  28  29
BRANCH  25  34
ATOM     34  C   UNL     1      -1.845   9.222  27.200  0.00  0.00    +0.414 C 
ATOM     35  O   UNL     1      -1.024   8.909  28.061  0.00  0.00    -0.240 OA
ATOM     36  O   UNL     1      -1.459   9.794  26.179  0.00  0.00    -0.240 OA
ENDBRANCH  25  34
BRANCH  25  37
ATOM     37  O   UNL     1      -3.608   7.538  26.977  0.00  0.00    -0.343 OA
ATOM     38  C   UNL     1      -3.996   7.391  25.588  0.00  0.00    +0.198 C 
ENDBRANCH  25  37
BRANCH  27  39
ATOM     39  O   UNL     1      -4.211  10.583  30.696  0.00  0.00    -0.390 OA
ATOM     40  H   UNL     1      -5.156  10.755  30.687  0.00  0.00    +0.210 HD
ENDBRANCH  27  39
ENDBRANCH  22  23
BRANCH  22  41
ATOM     41  O   UNL     1      -5.512  11.094  24.954  0.00  0.00    -0.387 OA
ATOM     42  H   UNL     1      -5.931  11.608  24.260  0.00  0.00    +0.210 HD
ENDBRANCH  22  41
ENDBRANCH   1  22
TORSDOF 15
