REMARK VINA RESULT:    -4.708      1.655      3.888
REMARK INTER + INTRA:         -12.568
REMARK INTER:                  -8.906
REMARK INTRA:                  -3.662
REMARK UNBOUND:                -3.181
REMARK  Name = lig_assembled_76.pdb
REMARK  21 active torsions:
REMARK  status: ('A' for Active; 'I' for Inactive)
REMARK    1  A    between atoms: _2  and  _9
REMARK    2  A    between atoms: _4  and  _23
REMARK    3  A    between atoms: _6  and  _7
REMARK    4  A    between atoms: _6  and  _23
REMARK    5  A    between atoms: _9  and  _10
REMARK    6  A    between atoms: _10  and  _11
REMARK    7  A    between atoms: _10  and  _18
REMARK    8  A    between atoms: _11  and  _12
REMARK    9  A    between atoms: _12  and  _13
REMARK   10  A    between atoms: _19  and  _39
REMARK   11  A    between atoms: _21  and  _27
REMARK   12  A    between atoms: _22  and  _26
REMARK   13  A    between atoms: _26  and  _27
REMARK   14  A    between atoms: _29  and  _30
REMARK   15  A    between atoms: _31  and  _32
REMARK   16  A    between atoms: _33  and  _35
REMARK   17  A    between atoms: _35  and  _36
REMARK   18  A    between atoms: _35  and  _37
REMARK   19  A    between atoms: _37  and  _38
REMARK   20  A    between atoms: _37  and  _39
REMARK   21  A    between atoms: _40  and  _42
REMARK                            x       y       z     vdW  Elec       q    Type
REMARK                         _______ _______ _______ _____ _____    ______ ____
ROOT
ATOM      1  C   UNL     1      -5.523   7.338  24.121  0.00  0.00    +0.141 C 
ENDROOT
BRANCH   1   4
ATOM      2  C   UNL     1      -3.719   5.949  25.080  0.00  0.00    +0.401 C 
ATOM      3  O   UNL     1      -3.061   5.918  24.038  0.00  0.00    -0.226 OA
ATOM      4  N   UNL     1      -4.885   6.584  25.207  0.00  0.00    -0.279 N 
ATOM      5  H   UNL     1      -5.355   6.544  26.100  0.00  0.00    +0.152 HD
BRANCH   2   6
ATOM      6  O   UNL     1      -3.224   5.266  26.235  0.00  0.00    -0.444 OA
BRANCH   6   7
ATOM      7  C   UNL     1      -1.987   5.854  26.644  0.00  0.00    +0.292 C 
BRANCH   7   9
ATOM      8  N   UNL     1      -1.905   8.320  26.400  0.00  0.00    -0.131 NA
ATOM      9  C   UNL     1      -2.210   7.217  27.155  0.00  0.00    +0.120 A 
ATOM     10  C   UNL     1      -2.706   7.627  28.373  0.00  0.00    +0.137 A 
ATOM     11  N   UNL     1      -2.681   8.985  28.293  0.00  0.00    -0.249 N 
ATOM     12  N   UNL     1      -2.191   9.401  27.114  0.00  0.00    -0.065 NA
BRANCH  11  13
ATOM     13  C   UNL     1      -2.978   9.938  29.338  0.00  0.00    +0.176 C 
BRANCH  13  14
ATOM     14  C   UNL     1      -3.735  11.169  28.827  0.00  0.00    +0.136 C 
BRANCH  14  15
ATOM     15  O   UNL     1      -4.705  10.780  27.844  0.00  0.00    -0.390 OA
ATOM     16  H   UNL     1      -5.499  10.443  28.296  0.00  0.00    +0.210 HD
ENDBRANCH  14  15
BRANCH  14  17
ATOM     17  C   UNL     1      -4.486  11.904  29.948  0.00  0.00    +0.038 C 
BRANCH  17  18
ATOM     18  C   UNL     1      -4.811  13.359  29.610  0.00  0.00    +0.038 C 
BRANCH  18  19
ATOM     19  C   UNL     1      -4.343  14.309  30.682  0.00  0.00    -0.047 A 
ATOM     20  C   UNL     1      -4.574  15.686  30.556  0.00  0.00    +0.003 A 
ATOM     21  C   UNL     1      -4.157  16.568  31.554  0.00  0.00    +0.000 A 
ATOM     22  C   UNL     1      -3.502  16.082  32.683  0.00  0.00    +0.000 A 
ATOM     23  C   UNL     1      -3.258  14.715  32.812  0.00  0.00    +0.000 A 
ATOM     24  C   UNL     1      -3.672  13.832  31.813  0.00  0.00    +0.003 A 
ENDBRANCH  18  19
ENDBRANCH  17  18
ENDBRANCH  14  17
ENDBRANCH  13  14
ENDBRANCH  11  13
ENDBRANCH   7   9
ENDBRANCH   6   7
ENDBRANCH   2   6
ENDBRANCH   1   4
BRANCH   1  25
ATOM     25  C   UNL     1      -5.386   8.844  24.318  0.00  0.00    +0.163 C 
BRANCH  25  26
ATOM     26  O   UNL     1      -5.002   9.130  25.673  0.00  0.00    -0.388 OA
ATOM     27  H   UNL     1      -4.169   9.608  25.676  0.00  0.00    +0.210 HD
ENDBRANCH  25  26
BRANCH  25  28
ATOM     28  C   UNL     1      -4.352   9.400  23.324  0.00  0.00    +0.175 C 
BRANCH  28  29
ATOM     29  C   UNL     1      -4.987  10.358  22.305  0.00  0.00    +0.176 C 
ATOM     30  O   UNL     1      -4.560   9.946  20.977  0.00  0.00    -0.332 OA
ATOM     31  C   UNL     1      -5.156  10.687  19.861  0.00  0.00    +0.277 C 
ATOM     32  C   UNL     1      -4.925  12.208  20.036  0.00  0.00    +0.110 C 
ATOM     33  C   UNL     1      -5.334  12.687  21.445  0.00  0.00    +0.143 C 
ATOM     34  C   UNL     1      -4.660  11.846  22.529  0.00  0.00    +0.133 C 
BRANCH  34  35
ATOM     35  N   UNL     1      -5.125  12.256  23.863  0.00  0.00    -0.308 N 
ATOM     36  H   UNL     1      -6.114  12.192  24.058  0.00  0.00    +0.149 HD
ATOM     37  C   UNL     1      -4.325  12.708  24.833  0.00  0.00    +0.210 C 
ATOM     38  C   UNL     1      -2.826  12.818  24.496  0.00  0.00    +0.109 C 
ATOM     39  O   UNL     1      -4.740  13.030  25.947  0.00  0.00    -0.276 OA
ENDBRANCH  34  35
BRANCH  31  40
ATOM     40  C   UNL     1      -6.670  10.403  19.763  0.00  0.00    +0.414 C 
ATOM     41  O   UNL     1      -7.105   9.275  19.989  0.00  0.00    -0.240 OA
ATOM     42  O   UNL     1      -7.455  11.302  19.459  0.00  0.00    -0.240 OA
ENDBRANCH  31  40
BRANCH  33  43
ATOM     43  O   UNL     1      -4.965  14.057  21.613  0.00  0.00    -0.390 OA
ATOM     44  H   UNL     1      -5.078  14.524  20.782  0.00  0.00    +0.210 HD
ENDBRANCH  33  43
BRANCH  31  45
ATOM     45  O   UNL     1      -4.500  10.262  18.639  0.00  0.00    -0.343 OA
ATOM     46  C   UNL     1      -4.421  11.273  17.603  0.00  0.00    +0.198 C 
ENDBRANCH  31  45
ENDBRANCH  28  29
BRANCH  28  47
ATOM     47  O   UNL     1      -3.688   8.318  22.641  0.00  0.00    -0.387 OA
ATOM     48  H   UNL     1      -3.828   7.501  23.124  0.00  0.00    +0.210 HD
ENDBRANCH  28  47
ENDBRANCH  25  28
ENDBRANCH   1  25
TORSDOF 19
