REMARK VINA RESULT:    -4.309      2.778      5.501
REMARK INTER + INTRA:         -11.754
REMARK INTER:                  -8.215
REMARK INTRA:                  -3.539
REMARK UNBOUND:                -2.785
REMARK  Name = lig_assembled_54.pdb
REMARK  24 active torsions:
REMARK  status: ('A' for Active; 'I' for Inactive)
REMARK    1  A    between atoms: _2  and  _9
REMARK    2  A    between atoms: _4  and  _21
REMARK    3  A    between atoms: _5  and  _14
REMARK    4  A    between atoms: _6  and  _7
REMARK    5  A    between atoms: _6  and  _21
REMARK    6  A    between atoms: _9  and  _10
REMARK    7  A    between atoms: _10  and  _11
REMARK    8  A    between atoms: _11  and  _15
REMARK    9  A    between atoms: _11  and  _16
REMARK   10  A    between atoms: _12  and  _13
REMARK   11  A    between atoms: _12  and  _16
REMARK   12  A    between atoms: _14  and  _15
REMARK   13  A    between atoms: _17  and  _37
REMARK   14  A    between atoms: _19  and  _25
REMARK   15  A    between atoms: _20  and  _24
REMARK   16  A    between atoms: _24  and  _25
REMARK   17  A    between atoms: _27  and  _28
REMARK   18  A    between atoms: _29  and  _30
REMARK   19  A    between atoms: _31  and  _33
REMARK   20  A    between atoms: _33  and  _34
REMARK   21  A    between atoms: _33  and  _35
REMARK   22  A    between atoms: _35  and  _36
REMARK   23  A    between atoms: _35  and  _37
REMARK   24  A    between atoms: _38  and  _40
REMARK                            x       y       z     vdW  Elec       q    Type
REMARK                         _______ _______ _______ _____ _____    ______ ____
ROOT
ATOM      1  C   UNL     1      -6.620   8.751  23.396  0.00  0.00    +0.163 C 
ENDROOT
BRANCH   1   2
ATOM      2  O   UNL     1      -6.209   8.824  24.771  0.00  0.00    -0.388 OA
ATOM      3  H   UNL     1      -5.251   8.861  24.818  0.00  0.00    +0.210 HD
ENDBRANCH   1   2
BRANCH   1   4
ATOM      4  C   UNL     1      -6.447  10.111  22.698  0.00  0.00    +0.175 C 
BRANCH   4   5
ATOM      5  C   UNL     1      -5.127  10.794  23.082  0.00  0.00    +0.176 C 
ATOM      6  O   UNL     1      -5.357  11.560  24.297  0.00  0.00    -0.332 OA
ATOM      7  C   UNL     1      -4.172  12.201  24.876  0.00  0.00    +0.277 C 
ATOM      8  C   UNL     1      -3.469  13.091  23.822  0.00  0.00    +0.110 C 
ATOM      9  C   UNL     1      -3.232  12.330  22.500  0.00  0.00    +0.143 C 
ATOM     10  C   UNL     1      -4.529  11.700  21.990  0.00  0.00    +0.133 C 
BRANCH  10  11
ATOM     11  N   UNL     1      -4.273  10.906  20.778  0.00  0.00    -0.308 N 
ATOM     12  H   UNL     1      -3.579  10.174  20.832  0.00  0.00    +0.149 HD
ATOM     13  C   UNL     1      -4.898  11.089  19.612  0.00  0.00    +0.210 C 
ATOM     14  C   UNL     1      -5.932  12.229  19.555  0.00  0.00    +0.109 C 
ATOM     15  O   UNL     1      -4.674  10.398  18.617  0.00  0.00    -0.276 OA
ENDBRANCH  10  11
BRANCH   7  16
ATOM     16  C   UNL     1      -3.180  11.143  25.402  0.00  0.00    +0.414 C 
ATOM     17  O   UNL     1      -2.018  11.457  25.660  0.00  0.00    -0.240 OA
ATOM     18  O   UNL     1      -3.541   9.978  25.569  0.00  0.00    -0.240 OA
ENDBRANCH   7  16
BRANCH   9  19
ATOM     19  O   UNL     1      -2.723  13.227  21.512  0.00  0.00    -0.390 OA
ATOM     20  H   UNL     1      -1.855  12.931  21.228  0.00  0.00    +0.210 HD
ENDBRANCH   9  19
BRANCH   7  21
ATOM     21  O   UNL     1      -4.610  13.047  25.970  0.00  0.00    -0.343 OA
ATOM     22  C   UNL     1      -6.006  13.436  25.923  0.00  0.00    +0.198 C 
ENDBRANCH   7  21
ENDBRANCH   4   5
BRANCH   4  23
ATOM     23  O   UNL     1      -7.561  10.972  23.006  0.00  0.00    -0.387 OA
ATOM     24  H   UNL     1      -8.379  10.544  22.743  0.00  0.00    +0.210 HD
ENDBRANCH   4  23
ENDBRANCH   1   4
BRANCH   1  25
ATOM     25  C   UNL     1      -5.800   7.694  22.663  0.00  0.00    +0.141 C 
BRANCH  25  28
ATOM     26  C   UNL     1      -3.792   6.309  23.053  0.00  0.00    +0.401 C 
ATOM     27  O   UNL     1      -3.792   5.822  21.920  0.00  0.00    -0.226 OA
ATOM     28  N   UNL     1      -4.697   7.187  23.487  0.00  0.00    -0.279 N 
ATOM     29  H   UNL     1      -4.619   7.522  24.437  0.00  0.00    +0.152 HD
BRANCH  26  30
ATOM     30  O   UNL     1      -2.771   5.920  23.976  0.00  0.00    -0.444 OA
BRANCH  30  31
ATOM     31  C   UNL     1      -3.373   5.484  25.198  0.00  0.00    +0.292 C 
BRANCH  31  33
ATOM     32  N   UNL     1      -1.772   7.006  26.317  0.00  0.00    -0.131 NA
ATOM     33  C   UNL     1      -2.995   6.391  26.299  0.00  0.00    +0.120 A 
ATOM     34  C   UNL     1      -3.715   6.785  27.406  0.00  0.00    +0.137 A 
ATOM     35  N   UNL     1      -2.891   7.669  28.035  0.00  0.00    -0.251 N 
ATOM     36  N   UNL     1      -1.722   7.795  27.382  0.00  0.00    -0.065 NA
BRANCH  35  37
ATOM     37  C   UNL     1      -3.162   8.469  29.212  0.00  0.00    +0.150 C 
BRANCH  37  38
ATOM     38  C   UNL     1      -2.746   9.919  29.016  0.00  0.00    +0.084 C 
BRANCH  38  39
ATOM     39  C   UNL     1      -3.884  10.919  29.255  0.00  0.00    +0.252 C 
BRANCH  39  40
ATOM     40  O   UNL     1      -4.375  10.797  30.592  0.00  0.00    -0.352 OA
BRANCH  40  41
ATOM     41  C   UNL     1      -3.927  11.824  31.474  0.00  0.00    +0.159 C 
ATOM     42  C   UNL     1      -3.759  13.107  30.683  0.00  0.00    +0.034 C 
ENDBRANCH  40  41
ENDBRANCH  39  40
BRANCH  39  43
ATOM     43  O   UNL     1      -4.929  10.616  28.323  0.00  0.00    -0.352 OA
BRANCH  43  44
ATOM     44  C   UNL     1      -6.215  10.555  28.944  0.00  0.00    +0.159 C 
ATOM     45  C   UNL     1      -7.190   9.879  28.001  0.00  0.00    +0.034 C 
ENDBRANCH  43  44
ENDBRANCH  39  43
ENDBRANCH  38  39
ENDBRANCH  37  38
ENDBRANCH  35  37
ENDBRANCH  31  33
ENDBRANCH  30  31
ENDBRANCH  26  30
ENDBRANCH  25  28
ENDBRANCH   1  25
TORSDOF 20
