REMARK VINA RESULT:    -4.666      3.474      9.549
REMARK INTER + INTRA:         -11.864
REMARK INTER:                  -9.467
REMARK INTRA:                  -2.397
REMARK UNBOUND:                -3.243
REMARK  Name = lig_assembled_78.pdb
REMARK  18 active torsions:
REMARK  status: ('A' for Active; 'I' for Inactive)
REMARK    1  A    between atoms: _2  and  _9
REMARK    2  A    between atoms: _4  and  _21
REMARK    3  A    between atoms: _6  and  _7
REMARK    4  A    between atoms: _6  and  _21
REMARK    5  A    between atoms: _9  and  _41
REMARK    6  A    between atoms: _10  and  _41
REMARK    7  A    between atoms: _17  and  _37
REMARK    8  A    between atoms: _19  and  _25
REMARK    9  A    between atoms: _20  and  _24
REMARK   10  A    between atoms: _24  and  _25
REMARK   11  A    between atoms: _27  and  _28
REMARK   12  A    between atoms: _29  and  _30
REMARK   13  A    between atoms: _31  and  _33
REMARK   14  A    between atoms: _33  and  _34
REMARK   15  A    between atoms: _33  and  _35
REMARK   16  A    between atoms: _35  and  _36
REMARK   17  A    between atoms: _35  and  _37
REMARK   18  A    between atoms: _38  and  _40
REMARK                            x       y       z     vdW  Elec       q    Type
REMARK                         _______ _______ _______ _____ _____    ______ ____
ROOT
ATOM      1  C   UNL     1      -5.466  10.042  18.158  0.00  0.00    +0.163 C 
ENDROOT
BRANCH   1   2
ATOM      2  O   UNL     1      -4.998   9.247  19.259  0.00  0.00    -0.388 OA
ATOM      3  H   UNL     1      -5.737   9.029  19.833  0.00  0.00    +0.210 HD
ENDBRANCH   1   2
BRANCH   1   4
ATOM      4  C   UNL     1      -6.045   9.153  17.044  0.00  0.00    +0.175 C 
BRANCH   4   5
ATOM      5  C   UNL     1      -4.971   8.715  16.037  0.00  0.00    +0.176 C 
ATOM      6  O   UNL     1      -4.109   7.746  16.696  0.00  0.00    -0.332 OA
ATOM      7  C   UNL     1      -3.081   7.134  15.849  0.00  0.00    +0.277 C 
ATOM      8  C   UNL     1      -2.218   8.226  15.170  0.00  0.00    +0.110 C 
ATOM      9  C   UNL     1      -3.092   9.296  14.483  0.00  0.00    +0.143 C 
ATOM     10  C   UNL     1      -4.129   9.864  15.453  0.00  0.00    +0.133 C 
BRANCH  10  11
ATOM     11  N   UNL     1      -5.011  10.819  14.764  0.00  0.00    -0.308 N 
ATOM     12  H   UNL     1      -5.640  10.457  14.061  0.00  0.00    +0.149 HD
ATOM     13  C   UNL     1      -5.034  12.132  15.006  0.00  0.00    +0.210 C 
ATOM     14  C   UNL     1      -4.044  12.656  16.063  0.00  0.00    +0.109 C 
ATOM     15  O   UNL     1      -5.794  12.906  14.423  0.00  0.00    -0.276 OA
ENDBRANCH  10  11
BRANCH   7  16
ATOM     16  C   UNL     1      -3.723   6.239  14.769  0.00  0.00    +0.414 C 
ATOM     17  O   UNL     1      -3.287   6.244  13.619  0.00  0.00    -0.240 OA
ATOM     18  O   UNL     1      -4.677   5.511  15.048  0.00  0.00    -0.240 OA
ENDBRANCH   7  16
BRANCH   7  19
ATOM     19  O   UNL     1      -2.219   6.333  16.698  0.00  0.00    -0.343 OA
ATOM     20  C   UNL     1      -0.801   6.460  16.424  0.00  0.00    +0.198 C 
ENDBRANCH   7  19
BRANCH   9  21
ATOM     21  O   UNL     1      -2.266  10.358  14.003  0.00  0.00    -0.390 OA
ATOM     22  H   UNL     1      -1.377  10.028  13.851  0.00  0.00    +0.210 HD
ENDBRANCH   9  21
ENDBRANCH   4   5
BRANCH   4  23
ATOM     23  O   UNL     1      -7.113   9.841  16.363  0.00  0.00    -0.387 OA
ATOM     24  H   UNL     1      -7.868   9.254  16.276  0.00  0.00    +0.210 HD
ENDBRANCH   4  23
ENDBRANCH   1   4
BRANCH   1  25
ATOM     25  C   UNL     1      -6.534  11.020  18.636  0.00  0.00    +0.141 C 
BRANCH  25  28
ATOM     26  C   UNL     1      -6.678  12.426  20.663  0.00  0.00    +0.401 C 
ATOM     27  O   UNL     1      -7.829  12.077  20.937  0.00  0.00    -0.226 OA
ATOM     28  N   UNL     1      -5.999  11.986  19.603  0.00  0.00    -0.279 N 
ATOM     29  H   UNL     1      -5.063  12.338  19.456  0.00  0.00    +0.152 HD
BRANCH  26  30
ATOM     30  O   UNL     1      -6.013  13.360  21.517  0.00  0.00    -0.444 OA
BRANCH  30  31
ATOM     31  C   UNL     1      -4.621  13.040  21.583  0.00  0.00    +0.292 C 
BRANCH  31  33
ATOM     32  N   UNL     1      -3.936  10.675  21.867  0.00  0.00    -0.131 NA
ATOM     33  C   UNL     1      -4.409  11.839  22.412  0.00  0.00    +0.120 A 
ATOM     34  C   UNL     1      -4.616  11.652  23.761  0.00  0.00    +0.139 A 
ATOM     35  N   UNL     1      -4.193  10.375  23.983  0.00  0.00    -0.230 N 
ATOM     36  N   UNL     1      -3.830   9.776  22.836  0.00  0.00    -0.064 NA
BRANCH  35  37
ATOM     37  C   UNL     1      -4.179   9.633  25.219  0.00  0.00    +0.316 C 
BRANCH  37  38
ATOM     38  S   UNL     1      -2.622   9.695  26.068  0.00  0.00    +0.017 S 
ATOM     39  O   UNL     1      -2.124   8.352  26.287  0.00  0.00    -0.168 OA
ATOM     40  O   UNL     1      -1.798  10.699  25.415  0.00  0.00    -0.168 OA
BRANCH  38  41
ATOM     41  C   UNL     1      -3.032  10.331  27.680  0.00  0.00    +0.090 A 
ATOM     42  C   UNL     1      -3.753  11.525  27.780  0.00  0.00    +0.027 A 
ATOM     43  C   UNL     1      -4.098  12.013  29.040  0.00  0.00    +0.002 A 
ATOM     44  C   UNL     1      -3.741  11.302  30.187  0.00  0.00    +0.000 A 
ATOM     45  C   UNL     1      -3.039  10.101  30.080  0.00  0.00    +0.002 A 
ATOM     46  C   UNL     1      -2.680   9.609  28.824  0.00  0.00    +0.027 A 
ENDBRANCH  38  41
ENDBRANCH  37  38
ENDBRANCH  35  37
ENDBRANCH  31  33
ENDBRANCH  30  31
ENDBRANCH  26  30
ENDBRANCH  25  28
ENDBRANCH   1  25
TORSDOF 16
