REMARK VINA RESULT:    -5.140      5.182      8.434
REMARK INTER + INTRA:         -10.710
REMARK INTER:                  -7.045
REMARK INTRA:                  -3.665
REMARK UNBOUND:                -1.813
REMARK  Name = lig_assembled_40.pdb
REMARK  17 active torsions:
REMARK  status: ('A' for Active; 'I' for Inactive)
REMARK    1  A    between atoms: _2  and  _9
REMARK    2  A    between atoms: _4  and  _19
REMARK    3  A    between atoms: _6  and  _7
REMARK    4  A    between atoms: _6  and  _19
REMARK    5  A    between atoms: _12  and  _13
REMARK    6  A    between atoms: _15  and  _35
REMARK    7  A    between atoms: _17  and  _23
REMARK    8  A    between atoms: _18  and  _22
REMARK    9  A    between atoms: _22  and  _23
REMARK   10  A    between atoms: _25  and  _26
REMARK   11  A    between atoms: _27  and  _28
REMARK   12  A    between atoms: _29  and  _31
REMARK   13  A    between atoms: _31  and  _32
REMARK   14  A    between atoms: _31  and  _33
REMARK   15  A    between atoms: _33  and  _34
REMARK   16  A    between atoms: _33  and  _35
REMARK   17  A    between atoms: _36  and  _38
REMARK                            x       y       z     vdW  Elec       q    Type
REMARK                         _______ _______ _______ _____ _____    ______ ____
ROOT
ATOM      1  C   UNL     1      -4.129   9.992  33.501  0.00  0.00    +0.163 C 
ENDROOT
BRANCH   1   2
ATOM      2  O   UNL     1      -2.947  10.790  33.324  0.00  0.00    -0.388 OA
ATOM      3  H   UNL     1      -2.904  11.103  32.417  0.00  0.00    +0.210 HD
ENDBRANCH   1   2
BRANCH   1   4
ATOM      4  C   UNL     1      -3.835   8.538  33.150  0.00  0.00    +0.141 C 
BRANCH   4   7
ATOM      5  C   UNL     1      -3.609   7.154  31.115  0.00  0.00    +0.401 C 
ATOM      6  O   UNL     1      -3.032   6.231  31.693  0.00  0.00    -0.226 OA
ATOM      7  N   UNL     1      -4.015   8.273  31.717  0.00  0.00    -0.279 N 
ATOM      8  H   UNL     1      -4.471   8.979  31.156  0.00  0.00    +0.152 HD
BRANCH   5   9
ATOM      9  O   UNL     1      -3.867   7.043  29.712  0.00  0.00    -0.444 OA
BRANCH   9  10
ATOM     10  C   UNL     1      -2.734   7.517  28.980  0.00  0.00    +0.292 C 
BRANCH  10  12
ATOM     11  N   UNL     1      -2.807   9.970  29.304  0.00  0.00    -0.131 NA
ATOM     12  C   UNL     1      -2.975   8.888  28.490  0.00  0.00    +0.121 A 
ATOM     13  C   UNL     1      -3.362   9.319  27.244  0.00  0.00    +0.143 A 
ATOM     14  N   UNL     1      -3.387  10.693  27.332  0.00  0.00    -0.220 N 
ATOM     15  N   UNL     1      -3.067  11.062  28.598  0.00  0.00    -0.060 NA
BRANCH  14  16
ATOM     16  C   UNL     1      -3.648  11.640  26.309  0.00  0.00    +0.067 A 
ATOM     17  C   UNL     1      -4.954  12.069  26.045  0.00  0.00    +0.028 A 
ATOM     18  C   UNL     1      -5.204  12.950  24.988  0.00  0.00    +0.005 A 
ATOM     19  C   UNL     1      -4.157  13.412  24.184  0.00  0.00    -0.050 A 
ATOM     20  C   UNL     1      -2.848  13.011  24.473  0.00  0.00    +0.005 A 
ATOM     21  C   UNL     1      -4.427  14.321  23.021  0.00  0.00    +0.044 C 
ATOM     22  C   UNL     1      -2.591  12.131  25.528  0.00  0.00    +0.028 A 
ENDBRANCH  14  16
ENDBRANCH  10  12
ENDBRANCH   9  10
ENDBRANCH   5   9
ENDBRANCH   4   7
ENDBRANCH   1   4
BRANCH   1  23
ATOM     23  C   UNL     1      -5.279  10.511  32.620  0.00  0.00    +0.175 C 
BRANCH  23  24
ATOM     24  C   UNL     1      -4.934  11.847  31.946  0.00  0.00    +0.176 C 
ATOM     25  O   UNL     1      -4.993  12.888  32.959  0.00  0.00    -0.332 OA
ATOM     26  C   UNL     1      -4.587  14.226  32.518  0.00  0.00    +0.277 C 
ATOM     27  C   UNL     1      -5.405  14.657  31.276  0.00  0.00    +0.110 C 
ATOM     28  C   UNL     1      -5.397  13.568  30.183  0.00  0.00    +0.143 C 
ATOM     29  C   UNL     1      -5.833  12.217  30.752  0.00  0.00    +0.133 C 
BRANCH  29  30
ATOM     30  N   UNL     1      -5.738  11.170  29.722  0.00  0.00    -0.308 N 
ATOM     31  H   UNL     1      -4.829  10.981  29.323  0.00  0.00    +0.149 HD
ATOM     32  C   UNL     1      -6.775  10.453  29.280  0.00  0.00    +0.210 C 
ATOM     33  C   UNL     1      -8.151  10.782  29.889  0.00  0.00    +0.109 C 
ATOM     34  O   UNL     1      -6.663   9.572  28.427  0.00  0.00    -0.276 OA
ENDBRANCH  29  30
BRANCH  26  35
ATOM     35  C   UNL     1      -3.082  14.257  32.182  0.00  0.00    +0.414 C 
ATOM     36  O   UNL     1      -2.285  13.592  32.841  0.00  0.00    -0.240 OA
ATOM     37  O   UNL     1      -2.665  14.947  31.251  0.00  0.00    -0.240 OA
ENDBRANCH  26  35
BRANCH  28  38
ATOM     38  O   UNL     1      -6.282  13.941  29.125  0.00  0.00    -0.390 OA
ATOM     39  H   UNL     1      -6.312  14.898  29.055  0.00  0.00    +0.210 HD
ENDBRANCH  28  38
BRANCH  26  40
ATOM     40  O   UNL     1      -4.866  15.157  33.595  0.00  0.00    -0.343 OA
ATOM     41  C   UNL     1      -4.831  16.557  33.219  0.00  0.00    +0.198 C 
ENDBRANCH  26  40
ENDBRANCH  23  24
BRANCH  23  42
ATOM     42  O   UNL     1      -6.482  10.646  33.404  0.00  0.00    -0.387 OA
ATOM     43  H   UNL     1      -6.255  10.927  34.293  0.00  0.00    +0.210 HD
ENDBRANCH  23  42
ENDBRANCH   1  23
TORSDOF 14
