REMARK VINA RESULT:    -3.801      2.434      3.972
REMARK INTER + INTRA:         -10.739
REMARK INTER:                  -7.204
REMARK INTRA:                  -3.536
REMARK UNBOUND:                -3.049
REMARK  Name = lig_assembled_45.pdb
REMARK  24 active torsions:
REMARK  status: ('A' for Active; 'I' for Inactive)
REMARK    1  A    between atoms: _2  and  _10
REMARK    2  A    between atoms: _3  and  _12
REMARK    3  A    between atoms: _3  and  _13
REMARK    4  A    between atoms: _3  and  _14
REMARK    5  A    between atoms: _3  and  _16
REMARK    6  A    between atoms: _5  and  _21
REMARK    7  A    between atoms: _6  and  _16
REMARK    8  A    between atoms: _7  and  _8
REMARK    9  A    between atoms: _7  and  _21
REMARK   10  A    between atoms: _10  and  _11
REMARK   11  A    between atoms: _11  and  _12
REMARK   12  A    between atoms: _14  and  _15
REMARK   13  A    between atoms: _17  and  _37
REMARK   14  A    between atoms: _19  and  _25
REMARK   15  A    between atoms: _20  and  _24
REMARK   16  A    between atoms: _24  and  _25
REMARK   17  A    between atoms: _27  and  _28
REMARK   18  A    between atoms: _29  and  _30
REMARK   19  A    between atoms: _31  and  _33
REMARK   20  A    between atoms: _33  and  _34
REMARK   21  A    between atoms: _33  and  _35
REMARK   22  A    between atoms: _35  and  _36
REMARK   23  A    between atoms: _35  and  _37
REMARK   24  A    between atoms: _38  and  _40
REMARK                            x       y       z     vdW  Elec       q    Type
REMARK                         _______ _______ _______ _____ _____    ______ ____
ROOT
ATOM      1  C   UNL     1      -2.860  11.691  24.812  0.00  0.00    +0.163 C 
ENDROOT
BRANCH   1   2
ATOM      2  O   UNL     1      -3.020  11.690  26.240  0.00  0.00    -0.388 OA
ATOM      3  H   UNL     1      -3.121  12.592  26.552  0.00  0.00    +0.210 HD
ENDBRANCH   1   2
BRANCH   1   4
ATOM      4  C   UNL     1      -3.894  10.770  24.142  0.00  0.00    +0.175 C 
BRANCH   4   5
ATOM      5  C   UNL     1      -4.217   9.540  25.003  0.00  0.00    +0.176 C 
ATOM      6  O   UNL     1      -2.958   8.931  25.402  0.00  0.00    -0.332 OA
ATOM      7  C   UNL     1      -3.067   7.795  26.323  0.00  0.00    +0.277 C 
ATOM      8  C   UNL     1      -4.011   6.715  25.740  0.00  0.00    +0.110 C 
ATOM      9  C   UNL     1      -5.351   7.321  25.273  0.00  0.00    +0.143 C 
ATOM     10  C   UNL     1      -5.120   8.495  24.322  0.00  0.00    +0.133 C 
BRANCH  10  11
ATOM     11  N   UNL     1      -6.401   9.119  23.952  0.00  0.00    -0.308 N 
ATOM     12  H   UNL     1      -6.910   9.612  24.672  0.00  0.00    +0.149 HD
ATOM     13  C   UNL     1      -6.934   9.075  22.729  0.00  0.00    +0.210 C 
ATOM     14  C   UNL     1      -6.147   8.293  21.661  0.00  0.00    +0.109 C 
ATOM     15  O   UNL     1      -8.002   9.619  22.445  0.00  0.00    -0.276 OA
ENDBRANCH  10  11
BRANCH   7  16
ATOM     16  C   UNL     1      -3.596   8.255  27.697  0.00  0.00    +0.414 C 
ATOM     17  O   UNL     1      -3.430   9.416  28.069  0.00  0.00    -0.240 OA
ATOM     18  O   UNL     1      -4.188   7.465  28.434  0.00  0.00    -0.240 OA
ENDBRANCH   7  16
BRANCH   9  19
ATOM     19  O   UNL     1      -6.126   6.322  24.608  0.00  0.00    -0.390 OA
ATOM     20  H   UNL     1      -5.924   6.332  23.669  0.00  0.00    +0.210 HD
ENDBRANCH   9  19
BRANCH   7  21
ATOM     21  O   UNL     1      -1.747   7.214  26.477  0.00  0.00    -0.343 OA
ATOM     22  C   UNL     1      -1.691   5.773  26.332  0.00  0.00    +0.198 C 
ENDBRANCH   7  21
ENDBRANCH   4   5
BRANCH   4  23
ATOM     23  O   UNL     1      -3.424  10.358  22.843  0.00  0.00    -0.387 OA
ATOM     24  H   UNL     1      -2.556   9.955  22.930  0.00  0.00    +0.210 HD
ENDBRANCH   4  23
ENDBRANCH   1   4
BRANCH   1  25
ATOM     25  C   UNL     1      -3.014  13.109  24.271  0.00  0.00    +0.141 C 
BRANCH  25  28
ATOM     26  C   UNL     1      -4.226  14.194  22.412  0.00  0.00    +0.401 C 
ATOM     27  O   UNL     1      -3.429  15.130  22.314  0.00  0.00    -0.226 OA
ATOM     28  N   UNL     1      -4.113  13.209  23.303  0.00  0.00    -0.279 N 
ATOM     29  H   UNL     1      -4.823  12.490  23.313  0.00  0.00    +0.152 HD
BRANCH  26  30
ATOM     30  O   UNL     1      -5.351  14.145  21.530  0.00  0.00    -0.444 OA
BRANCH  30  31
ATOM     31  C   UNL     1      -6.109  12.960  21.788  0.00  0.00    +0.292 C 
BRANCH  31  33
ATOM     32  N   UNL     1      -4.714  11.432  20.419  0.00  0.00    -0.131 NA
ATOM     33  C   UNL     1      -5.935  11.993  20.688  0.00  0.00    +0.120 A 
ATOM     34  C   UNL     1      -6.860  11.505  19.794  0.00  0.00    +0.137 A 
ATOM     35  N   UNL     1      -6.133  10.656  19.017  0.00  0.00    -0.251 N 
ATOM     36  N   UNL     1      -4.850  10.614  19.383  0.00  0.00    -0.065 NA
BRANCH  35  37
ATOM     37  C   UNL     1      -6.604   9.874  17.892  0.00  0.00    +0.150 C 
BRANCH  37  38
ATOM     38  C   UNL     1      -6.436  10.592  16.560  0.00  0.00    +0.074 C 
BRANCH  38  39
ATOM     39  C   UNL     1      -5.453   9.969  15.559  0.00  0.00    +0.134 C 
BRANCH  39  40
ATOM     40  N   UNL     1      -4.353  10.894  14.940  0.00  0.00    +0.241 N 
ATOM     41  C   UNL     1      -2.969  10.343  15.326  0.00  0.00    +0.192 C 
BRANCH  40  42
ATOM     42  C   UNL     1      -4.534  12.294  15.616  0.00  0.00    +0.129 C 
ATOM     43  C   UNL     1      -3.918  13.446  14.830  0.00  0.00    +0.060 C 
ENDBRANCH  40  42
BRANCH  40  44
ATOM     44  C   UNL     1      -4.420  11.044  13.409  0.00  0.00    +0.129 C 
ATOM     45  C   UNL     1      -3.344  10.277  12.659  0.00  0.00    +0.060 C 
ENDBRANCH  40  44
ENDBRANCH  39  40
ENDBRANCH  38  39
ENDBRANCH  37  38
ENDBRANCH  35  37
ENDBRANCH  31  33
ENDBRANCH  30  31
ENDBRANCH  26  30
ENDBRANCH  25  28
ENDBRANCH   1  25
TORSDOF 19
