REMARK VINA RESULT:    -4.698      8.100     11.535
REMARK INTER + INTRA:          -9.967
REMARK INTER:                  -7.728
REMARK INTRA:                  -2.239
REMARK UNBOUND:                -1.837
REMARK  Name = lig_assembled_2.pdb
REMARK  16 active torsions:
REMARK  status: ('A' for Active; 'I' for Inactive)
REMARK    1  A    between atoms: _2  and  _9
REMARK    2  A    between atoms: _4  and  _18
REMARK    3  A    between atoms: _6  and  _7
REMARK    4  A    between atoms: _6  and  _18
REMARK    5  A    between atoms: _14  and  _34
REMARK    6  A    between atoms: _16  and  _22
REMARK    7  A    between atoms: _17  and  _21
REMARK    8  A    between atoms: _21  and  _22
REMARK    9  A    between atoms: _24  and  _25
REMARK   10  A    between atoms: _26  and  _27
REMARK   11  A    between atoms: _28  and  _30
REMARK   12  A    between atoms: _30  and  _31
REMARK   13  A    between atoms: _30  and  _32
REMARK   14  A    between atoms: _32  and  _33
REMARK   15  A    between atoms: _32  and  _34
REMARK   16  A    between atoms: _35  and  _37
REMARK                            x       y       z     vdW  Elec       q    Type
REMARK                         _______ _______ _______ _____ _____    ______ ____
ROOT
ATOM      1  C   UNL     1      -5.411   7.782  23.792  0.00  0.00    +0.163 C 
ENDROOT
BRANCH   1   2
ATOM      2  O   UNL     1      -6.271   6.831  24.441  0.00  0.00    -0.388 OA
ATOM      3  H   UNL     1      -7.135   7.225  24.583  0.00  0.00    +0.210 HD
ENDBRANCH   1   2
BRANCH   1   4
ATOM      4  C   UNL     1      -4.071   7.853  24.517  0.00  0.00    +0.141 C 
BRANCH   4   7
ATOM      5  C   UNL     1      -3.185   7.261  26.747  0.00  0.00    +0.401 C 
ATOM      6  O   UNL     1      -2.018   7.162  26.361  0.00  0.00    -0.226 OA
ATOM      7  N   UNL     1      -4.209   7.573  25.952  0.00  0.00    -0.279 N 
ATOM      8  H   UNL     1      -5.133   7.621  26.360  0.00  0.00    +0.152 HD
BRANCH   5   9
ATOM      9  O   UNL     1      -3.483   7.026  28.126  0.00  0.00    -0.444 OA
BRANCH   9  10
ATOM     10  C   UNL     1      -2.343   7.355  28.923  0.00  0.00    +0.292 C 
BRANCH  10  12
ATOM     11  N   UNL     1      -2.832   8.261  31.174  0.00  0.00    -0.131 NA
ATOM     12  C   UNL     1      -2.662   8.470  29.836  0.00  0.00    +0.121 A 
ATOM     13  C   UNL     1      -2.826   9.809  29.565  0.00  0.00    +0.143 A 
ATOM     14  N   UNL     1      -3.070  10.391  30.789  0.00  0.00    -0.220 N 
ATOM     15  N   UNL     1      -3.086   9.430  31.744  0.00  0.00    -0.060 NA
BRANCH  14  16
ATOM     16  C   UNL     1      -3.255  11.764  31.098  0.00  0.00    +0.067 A 
ATOM     17  C   UNL     1      -3.958  12.610  30.229  0.00  0.00    +0.029 A 
ATOM     18  C   UNL     1      -4.096  13.969  30.535  0.00  0.00    +0.022 A 
ATOM     19  C   UNL     1      -3.537  14.482  31.703  0.00  0.00    +0.041 A 
ATOM     20 CL   UNL     1      -3.692  16.158  32.058  0.00  0.00    -0.084 Cl
ATOM     21  C   UNL     1      -2.849  13.647  32.580  0.00  0.00    +0.022 A 
ATOM     22  C   UNL     1      -2.708  12.288  32.282  0.00  0.00    +0.029 A 
ENDBRANCH  14  16
ENDBRANCH  10  12
ENDBRANCH   9  10
ENDBRANCH   5   9
ENDBRANCH   4   7
ENDBRANCH   1   4
BRANCH   1  23
ATOM     23  C   UNL     1      -6.056   9.178  23.766  0.00  0.00    +0.175 C 
BRANCH  23  24
ATOM     24  C   UNL     1      -5.007  10.300  23.805  0.00  0.00    +0.176 C 
ATOM     25  O   UNL     1      -5.340  11.185  24.909  0.00  0.00    -0.332 OA
ATOM     26  C   UNL     1      -4.382  12.265  25.167  0.00  0.00    +0.277 C 
ATOM     27  C   UNL     1      -4.145  13.096  23.883  0.00  0.00    +0.110 C 
ATOM     28  C   UNL     1      -3.819  12.195  22.673  0.00  0.00    +0.143 C 
ATOM     29  C   UNL     1      -4.878  11.106  22.499  0.00  0.00    +0.133 C 
BRANCH  29  30
ATOM     30  N   UNL     1      -4.510  10.202  21.398  0.00  0.00    -0.308 N 
ATOM     31  H   UNL     1      -3.667   9.655  21.498  0.00  0.00    +0.149 HD
ATOM     32  C   UNL     1      -5.219  10.057  20.275  0.00  0.00    +0.210 C 
ATOM     33  C   UNL     1      -6.485  10.924  20.141  0.00  0.00    +0.109 C 
ATOM     34  O   UNL     1      -4.895   9.281  19.375  0.00  0.00    -0.276 OA
ENDBRANCH  29  30
BRANCH  26  35
ATOM     35  C   UNL     1      -3.039  11.695  25.668  0.00  0.00    +0.414 C 
ATOM     36  O   UNL     1      -1.980  12.234  25.350  0.00  0.00    -0.240 OA
ATOM     37  O   UNL     1      -3.014  10.698  26.391  0.00  0.00    -0.240 OA
ENDBRANCH  26  35
BRANCH  28  38
ATOM     38  O   UNL     1      -3.757  12.986  21.486  0.00  0.00    -0.390 OA
ATOM     39  H   UNL     1      -4.330  12.604  20.816  0.00  0.00    +0.210 HD
ENDBRANCH  28  38
BRANCH  26  40
ATOM     40  O   UNL     1      -4.951  13.137  26.178  0.00  0.00    -0.343 OA
ATOM     41  C   UNL     1      -6.186  12.663  26.771  0.00  0.00    +0.198 C 
ENDBRANCH  26  40
ENDBRANCH  23  24
BRANCH  23  42
ATOM     42  O   UNL     1      -6.976   9.321  24.866  0.00  0.00    -0.387 OA
ATOM     43  H   UNL     1      -7.845   9.551  24.529  0.00  0.00    +0.210 HD
ENDBRANCH  23  42
ENDBRANCH   1  23
TORSDOF 14
