REMARK VINA RESULT:    -5.263      2.818      5.443
REMARK INTER + INTRA:         -11.279
REMARK INTER:                  -7.320
REMARK INTRA:                  -3.959
REMARK UNBOUND:                -2.170
REMARK  Name = lig_assembled_87.pdb
REMARK  17 active torsions:
REMARK  status: ('A' for Active; 'I' for Inactive)
REMARK    1  A    between atoms: _2  and  _10
REMARK    2  A    between atoms: _3  and  _13
REMARK    3  A    between atoms: _5  and  _21
REMARK    4  A    between atoms: _7  and  _8
REMARK    5  A    between atoms: _7  and  _21
REMARK    6  A    between atoms: _17  and  _37
REMARK    7  A    between atoms: _19  and  _25
REMARK    8  A    between atoms: _20  and  _24
REMARK    9  A    between atoms: _24  and  _25
REMARK   10  A    between atoms: _27  and  _28
REMARK   11  A    between atoms: _29  and  _30
REMARK   12  A    between atoms: _31  and  _33
REMARK   13  A    between atoms: _33  and  _34
REMARK   14  A    between atoms: _33  and  _35
REMARK   15  A    between atoms: _35  and  _36
REMARK   16  A    between atoms: _35  and  _37
REMARK   17  A    between atoms: _38  and  _40
REMARK                            x       y       z     vdW  Elec       q    Type
REMARK                         _______ _______ _______ _____ _____    ______ ____
ROOT
ATOM      1  C   UNL     1      -3.449  11.803  22.833  0.00  0.00    +0.163 C 
ENDROOT
BRANCH   1   2
ATOM      2  O   UNL     1      -2.669  12.257  23.951  0.00  0.00    -0.388 OA
ATOM      3  H   UNL     1      -2.897  13.168  24.153  0.00  0.00    +0.210 HD
ENDBRANCH   1   2
BRANCH   1   4
ATOM      4  C   UNL     1      -4.589  12.780  22.561  0.00  0.00    +0.141 C 
BRANCH   4   7
ATOM      5  C   UNL     1      -6.040  14.296  23.865  0.00  0.00    +0.401 C 
ATOM      6  O   UNL     1      -6.897  14.387  22.983  0.00  0.00    -0.226 OA
ATOM      7  N   UNL     1      -4.927  13.571  23.751  0.00  0.00    -0.279 N 
ATOM      8  H   UNL     1      -4.279  13.566  24.526  0.00  0.00    +0.152 HD
BRANCH   5   9
ATOM      9  O   UNL     1      -6.229  15.005  25.093  0.00  0.00    -0.444 OA
BRANCH   9  10
ATOM     10  C   UNL     1      -7.348  14.456  25.794  0.00  0.00    +0.292 C 
BRANCH  10  12
ATOM     11  N   UNL     1      -7.663  12.453  27.207  0.00  0.00    -0.131 NA
ATOM     12  C   UNL     1      -6.885  13.511  26.827  0.00  0.00    +0.120 A 
ATOM     13  C   UNL     1      -5.704  13.479  27.534  0.00  0.00    +0.137 A 
ATOM     14  N   UNL     1      -5.765  12.309  28.242  0.00  0.00    -0.248 N 
ATOM     15  N   UNL     1      -6.996  11.770  28.121  0.00  0.00    -0.065 NA
BRANCH  14  16
ATOM     16  C   UNL     1      -4.753  11.620  29.065  0.00  0.00    +0.112 C 
ATOM     17  C   UNL     1      -5.328  10.613  30.098  0.00  0.00    +0.045 C 
ATOM     18  C   UNL     1      -4.993  10.904  31.571  0.00  0.00    +0.059 C 
ATOM     19  C   UNL     1      -3.565  10.474  31.932  0.00  0.00    +0.020 C 
ATOM     20  C   UNL     1      -2.731  11.746  31.791  0.00  0.00    +0.020 C 
ATOM     21  C   UNL     1      -3.704  12.760  31.189  0.00  0.00    +0.059 C 
ATOM     22  N   UNL     1      -4.927  12.330  31.860  0.00  0.00    -0.299 NA
ATOM     23  C   UNL     1      -6.124  13.114  31.640  0.00  0.00    +0.105 C 
ATOM     24  C   UNL     1      -3.733  12.635  29.664  0.00  0.00    +0.045 C 
ENDBRANCH  14  16
ENDBRANCH  10  12
ENDBRANCH   9  10
ENDBRANCH   5   9
ENDBRANCH   4   7
ENDBRANCH   1   4
BRANCH   1  25
ATOM     25  C   UNL     1      -4.025  10.401  23.097  0.00  0.00    +0.175 C 
BRANCH  25  26
ATOM     26  C   UNL     1      -4.017  10.045  24.591  0.00  0.00    +0.176 C 
ATOM     27  O   UNL     1      -3.021   9.007  24.798  0.00  0.00    -0.332 OA
ATOM     28  C   UNL     1      -2.797   8.612  26.192  0.00  0.00    +0.277 C 
ATOM     29  C   UNL     1      -4.133   8.196  26.857  0.00  0.00    +0.110 C 
ATOM     30  C   UNL     1      -5.233   9.255  26.636  0.00  0.00    +0.143 C 
ATOM     31  C   UNL     1      -5.378   9.594  25.152  0.00  0.00    +0.133 C 
BRANCH  31  32
ATOM     32  N   UNL     1      -6.368  10.666  24.963  0.00  0.00    -0.308 N 
ATOM     33  H   UNL     1      -6.227  11.532  25.463  0.00  0.00    +0.149 HD
ATOM     34  C   UNL     1      -7.441  10.570  24.173  0.00  0.00    +0.210 C 
ATOM     35  C   UNL     1      -7.642   9.228  23.444  0.00  0.00    +0.109 C 
ATOM     36  O   UNL     1      -8.246  11.490  24.022  0.00  0.00    -0.276 OA
ENDBRANCH  31  32
BRANCH  28  37
ATOM     37  C   UNL     1      -2.160   9.767  26.992  0.00  0.00    +0.414 C 
ATOM     38  O   UNL     1      -1.756  10.774  26.413  0.00  0.00    -0.240 OA
ATOM     39  O   UNL     1      -2.051   9.691  28.217  0.00  0.00    -0.240 OA
ENDBRANCH  28  37
BRANCH  30  40
ATOM     40  O   UNL     1      -6.480   8.765  27.132  0.00  0.00    -0.390 OA
ATOM     41  H   UNL     1      -6.834   9.383  27.776  0.00  0.00    +0.210 HD
ENDBRANCH  30  40
BRANCH  28  42
ATOM     42  O   UNL     1      -1.908   7.466  26.196  0.00  0.00    -0.343 OA
ATOM     43  C   UNL     1      -2.344   6.355  27.020  0.00  0.00    +0.198 C 
ENDBRANCH  28  42
ENDBRANCH  25  26
BRANCH  25  44
ATOM     44  O   UNL     1      -3.290   9.414  22.347  0.00  0.00    -0.387 OA
ATOM     45  H   UNL     1      -3.006   8.710  22.936  0.00  0.00    +0.210 HD
ENDBRANCH  25  44
ENDBRANCH   1  25
TORSDOF 14
