REMARK VINA RESULT:    -5.124      2.454      6.491
REMARK INTER + INTRA:         -11.858
REMARK INTER:                  -8.319
REMARK INTRA:                  -3.539
REMARK UNBOUND:                -2.989
REMARK  Name = lig_assembled_51.pdb
REMARK  16 active torsions:
REMARK  status: ('A' for Active; 'I' for Inactive)
REMARK    1  A    between atoms: _2  and  _9
REMARK    2  A    between atoms: _4  and  _22
REMARK    3  A    between atoms: _6  and  _7
REMARK    4  A    between atoms: _6  and  _22
REMARK    5  A    between atoms: _18  and  _38
REMARK    6  A    between atoms: _20  and  _26
REMARK    7  A    between atoms: _21  and  _25
REMARK    8  A    between atoms: _25  and  _26
REMARK    9  A    between atoms: _28  and  _29
REMARK   10  A    between atoms: _30  and  _31
REMARK   11  A    between atoms: _32  and  _34
REMARK   12  A    between atoms: _34  and  _35
REMARK   13  A    between atoms: _34  and  _36
REMARK   14  A    between atoms: _36  and  _37
REMARK   15  A    between atoms: _36  and  _38
REMARK   16  A    between atoms: _39  and  _41
REMARK                            x       y       z     vdW  Elec       q    Type
REMARK                         _______ _______ _______ _____ _____    ______ ____
ROOT
ATOM      1  C   UNL     1      -4.217  13.139  29.783  0.00  0.00    +0.163 C 
ENDROOT
BRANCH   1   2
ATOM      2  O   UNL     1      -2.997  13.035  30.536  0.00  0.00    -0.388 OA
ATOM      3  H   UNL     1      -3.185  12.663  31.401  0.00  0.00    +0.210 HD
ENDBRANCH   1   2
BRANCH   1   4
ATOM      4  C   UNL     1      -5.224  14.000  30.539  0.00  0.00    +0.141 C 
BRANCH   4   7
ATOM      5  C   UNL     1      -7.417  14.545  29.540  0.00  0.00    +0.401 C 
ATOM      6  O   UNL     1      -8.034  13.710  30.205  0.00  0.00    -0.226 OA
ATOM      7  N   UNL     1      -6.101  14.744  29.626  0.00  0.00    -0.279 N 
ATOM      8  H   UNL     1      -5.685  15.446  29.031  0.00  0.00    +0.152 HD
BRANCH   5   9
ATOM      9  O   UNL     1      -8.135  15.358  28.608  0.00  0.00    -0.444 OA
BRANCH   9  10
ATOM     10  C   UNL     1      -8.941  14.525  27.769  0.00  0.00    +0.292 C 
BRANCH  10  12
ATOM     11  N   UNL     1      -8.098  12.435  26.745  0.00  0.00    -0.131 NA
ATOM     12  C   UNL     1      -8.097  13.801  26.801  0.00  0.00    +0.120 A 
ATOM     13  C   UNL     1      -7.225  14.288  25.853  0.00  0.00    +0.137 A 
ATOM     14  N   UNL     1      -6.718  13.169  25.253  0.00  0.00    -0.245 N 
ATOM     15  N   UNL     1      -7.252  12.059  25.796  0.00  0.00    -0.065 NA
BRANCH  14  16
ATOM     16  C   UNL     1      -5.728  13.100  24.176  0.00  0.00    +0.066 C 
ATOM     17  C   UNL     1      -4.323  13.480  24.718  0.00  0.00    +0.034 C 
ATOM     18  C   UNL     1      -3.259  13.369  23.612  0.00  0.00    -0.008 C 
ATOM     19  C   UNL     1      -3.230  11.926  23.081  0.00  0.00    +0.007 C 
ATOM     20  C   UNL     1      -4.602  11.550  22.498  0.00  0.00    -0.008 C 
ATOM     21  C   UNL     1      -4.953  12.517  21.358  0.00  0.00    +0.007 C 
ATOM     22  C   UNL     1      -4.993  13.959  21.887  0.00  0.00    -0.008 C 
ATOM     23  C   UNL     1      -3.617  14.325  22.466  0.00  0.00    +0.007 C 
ATOM     24  C   UNL     1      -5.668  11.657  23.602  0.00  0.00    +0.034 C 
ATOM     25  C   UNL     1      -6.055  14.064  22.995  0.00  0.00    +0.034 C 
ENDBRANCH  14  16
ENDBRANCH  10  12
ENDBRANCH   9  10
ENDBRANCH   5   9
ENDBRANCH   4   7
ENDBRANCH   1   4
BRANCH   1  26
ATOM     26  C   UNL     1      -4.822  11.750  29.521  0.00  0.00    +0.175 C 
BRANCH  26  27
ATOM     27  C   UNL     1      -3.795  10.774  28.927  0.00  0.00    +0.176 C 
ATOM     28  O   UNL     1      -4.252  10.397  27.600  0.00  0.00    -0.332 OA
ATOM     29  C   UNL     1      -3.338   9.545  26.833  0.00  0.00    +0.277 C 
ATOM     30  C   UNL     1      -2.974   8.276  27.641  0.00  0.00    +0.110 C 
ATOM     31  C   UNL     1      -2.511   8.626  29.072  0.00  0.00    +0.143 C 
ATOM     32  C   UNL     1      -3.535   9.516  29.777  0.00  0.00    +0.133 C 
BRANCH  32  33
ATOM     33  N   UNL     1      -3.044   9.914  31.106  0.00  0.00    -0.308 N 
ATOM     34  H   UNL     1      -2.188  10.449  31.152  0.00  0.00    +0.149 HD
ATOM     35  C   UNL     1      -3.654   9.612  32.255  0.00  0.00    +0.210 C 
ATOM     36  C   UNL     1      -4.941   8.773  32.153  0.00  0.00    +0.109 C 
ATOM     37  O   UNL     1      -3.227   9.971  33.353  0.00  0.00    -0.276 OA
ENDBRANCH  32  33
BRANCH  29  38
ATOM     38  C   UNL     1      -2.050  10.313  26.470  0.00  0.00    +0.414 C 
ATOM     39  O   UNL     1      -2.075  11.535  26.331  0.00  0.00    -0.240 OA
ATOM     40  O   UNL     1      -0.986   9.711  26.318  0.00  0.00    -0.240 OA
ENDBRANCH  29  38
BRANCH  31  41
ATOM     41  O   UNL     1      -2.332   7.427  29.827  0.00  0.00    -0.390 OA
ATOM     42  H   UNL     1      -2.490   6.666  29.262  0.00  0.00    +0.210 HD
ENDBRANCH  31  41
BRANCH  29  43
ATOM     43  O   UNL     1      -4.019   9.134  25.619  0.00  0.00    -0.343 OA
ATOM     44  C   UNL     1      -4.907   7.997  25.770  0.00  0.00    +0.198 C 
ENDBRANCH  29  43
ENDBRANCH  26  27
BRANCH  26  45
ATOM     45  O   UNL     1      -5.963  11.862  28.647  0.00  0.00    -0.387 OA
ATOM     46  H   UNL     1      -5.665  11.917  27.736  0.00  0.00    +0.210 HD
ENDBRANCH  26  45
ENDBRANCH   1  26
TORSDOF 14
