REMARK VINA RESULT:    -5.261      5.365      9.716
REMARK INTER + INTRA:         -12.463
REMARK INTER:                  -9.399
REMARK INTRA:                  -3.065
REMARK UNBOUND:                -3.358
REMARK  Name = lig_assembled_42.pdb
REMARK  16 active torsions:
REMARK  status: ('A' for Active; 'I' for Inactive)
REMARK    1  A    between atoms: _2  and  _9
REMARK    2  A    between atoms: _4  and  _21
REMARK    3  A    between atoms: _6  and  _7
REMARK    4  A    between atoms: _6  and  _21
REMARK    5  A    between atoms: _17  and  _37
REMARK    6  A    between atoms: _19  and  _25
REMARK    7  A    between atoms: _20  and  _24
REMARK    8  A    between atoms: _24  and  _25
REMARK    9  A    between atoms: _27  and  _28
REMARK   10  A    between atoms: _29  and  _30
REMARK   11  A    between atoms: _31  and  _33
REMARK   12  A    between atoms: _33  and  _34
REMARK   13  A    between atoms: _33  and  _35
REMARK   14  A    between atoms: _35  and  _36
REMARK   15  A    between atoms: _35  and  _37
REMARK   16  A    between atoms: _38  and  _40
REMARK                            x       y       z     vdW  Elec       q    Type
REMARK                         _______ _______ _______ _____ _____    ______ ____
ROOT
ATOM      1  C   UNL     1      -6.603   8.845  23.465  0.00  0.00    +0.163 C 
ENDROOT
BRANCH   1   2
ATOM      2  O   UNL     1      -6.005   9.123  24.742  0.00  0.00    -0.388 OA
ATOM      3  H   UNL     1      -5.638   8.314  25.107  0.00  0.00    +0.210 HD
ENDBRANCH   1   2
BRANCH   1   4
ATOM      4  C   UNL     1      -6.030   7.554  22.890  0.00  0.00    +0.141 C 
BRANCH   4   7
ATOM      5  C   UNL     1      -3.757   6.865  23.573  0.00  0.00    +0.401 C 
ATOM      6  O   UNL     1      -3.215   7.317  22.562  0.00  0.00    -0.226 OA
ATOM      7  N   UNL     1      -5.069   6.926  23.806  0.00  0.00    -0.279 N 
ATOM      8  H   UNL     1      -5.421   6.518  24.660  0.00  0.00    +0.152 HD
BRANCH   5   9
ATOM      9  O   UNL     1      -2.951   6.228  24.567  0.00  0.00    -0.444 OA
BRANCH   9  10
ATOM     10  C   UNL     1      -3.650   6.220  25.815  0.00  0.00    +0.292 C 
BRANCH  10  12
ATOM     11  N   UNL     1      -1.858   7.679  26.719  0.00  0.00    -0.131 NA
ATOM     12  C   UNL     1      -3.172   7.311  26.684  0.00  0.00    +0.121 A 
ATOM     13  C   UNL     1      -3.881   8.104  27.554  0.00  0.00    +0.143 A 
ATOM     14  N   UNL     1      -2.952   8.953  28.106  0.00  0.00    -0.220 N 
ATOM     15  N   UNL     1      -1.730   8.678  27.585  0.00  0.00    -0.060 NA
BRANCH  14  16
ATOM     16  C   UNL     1      -3.157   9.973  29.069  0.00  0.00    +0.071 A 
ATOM     17  C   UNL     1      -3.710  11.203  28.683  0.00  0.00    +0.077 A 
ATOM     18  C   UNL     1      -3.890  12.162  29.657  0.00  0.00    +0.168 A 
ATOM     19  O   UNL     1      -4.415  13.398  29.450  0.00  0.00    -0.453 OA
ATOM     20  C   UNL     1      -4.368  13.937  30.787  0.00  0.00    +0.466 C 
ATOM     21  O   UNL     1      -3.812  13.020  31.755  0.00  0.00    -0.453 OA
ATOM     22  C   UNL     1      -3.547  11.944  30.969  0.00  0.00    +0.166 A 
ATOM     23  C   UNL     1      -2.999  10.749  31.384  0.00  0.00    +0.051 A 
ATOM     24  C   UNL     1      -2.802   9.750  30.421  0.00  0.00    +0.031 A 
ENDBRANCH  14  16
ENDBRANCH  10  12
ENDBRANCH   9  10
ENDBRANCH   5   9
ENDBRANCH   4   7
ENDBRANCH   1   4
BRANCH   1  25
ATOM     25  C   UNL     1      -6.357  10.000  22.479  0.00  0.00    +0.175 C 
BRANCH  25  26
ATOM     26  C   UNL     1      -5.038  10.733  22.765  0.00  0.00    +0.176 C 
ATOM     27  O   UNL     1      -5.240  11.580  23.929  0.00  0.00    -0.332 OA
ATOM     28  C   UNL     1      -4.049  12.282  24.417  0.00  0.00    +0.277 C 
ATOM     29  C   UNL     1      -3.401  13.105  23.277  0.00  0.00    +0.110 C 
ATOM     30  C   UNL     1      -3.195  12.254  22.006  0.00  0.00    +0.143 C 
ATOM     31  C   UNL     1      -4.496  11.567  21.589  0.00  0.00    +0.133 C 
BRANCH  31  32
ATOM     32  N   UNL     1      -4.268  10.691  20.429  0.00  0.00    -0.308 N 
ATOM     33  H   UNL     1      -3.603   9.937  20.531  0.00  0.00    +0.149 HD
ATOM     34  C   UNL     1      -4.882  10.827  19.251  0.00  0.00    +0.210 C 
ATOM     35  C   UNL     1      -5.870  12.001  19.119  0.00  0.00    +0.109 C 
ATOM     36  O   UNL     1      -4.681  10.069  18.301  0.00  0.00    -0.276 OA
ENDBRANCH  31  32
BRANCH  28  37
ATOM     37  C   UNL     1      -3.018  11.282  24.981  0.00  0.00    +0.414 C 
ATOM     38  O   UNL     1      -2.041  11.688  25.609  0.00  0.00    -0.240 OA
ATOM     39  O   UNL     1      -3.163  10.072  24.809  0.00  0.00    -0.240 OA
ENDBRANCH  28  37
BRANCH  30  40
ATOM     40  O   UNL     1      -2.739  13.085  20.938  0.00  0.00    -0.390 OA
ATOM     41  H   UNL     1      -3.245  13.901  20.928  0.00  0.00    +0.210 HD
ENDBRANCH  30  40
BRANCH  28  42
ATOM     42  O   UNL     1      -4.464  13.198  25.463  0.00  0.00    -0.343 OA
ATOM     43  C   UNL     1      -5.743  12.889  26.074  0.00  0.00    +0.198 C 
ENDBRANCH  28  42
ENDBRANCH  25  26
BRANCH  25  44
ATOM     44  O   UNL     1      -7.459  10.929  22.517  0.00  0.00    -0.387 OA
ATOM     45  H   UNL     1      -8.110  10.627  23.155  0.00  0.00    +0.210 HD
ENDBRANCH  25  44
ENDBRANCH   1  25
TORSDOF 14
