REMARK VINA RESULT:    -4.589      2.012      5.666
REMARK INTER + INTRA:         -11.059
REMARK INTER:                  -8.299
REMARK INTRA:                  -2.760
REMARK UNBOUND:                -2.848
REMARK  Name = lig_assembled_63.pdb
REMARK  17 active torsions:
REMARK  status: ('A' for Active; 'I' for Inactive)
REMARK    1  A    between atoms: _2  and  _11
REMARK    2  A    between atoms: _6  and  _20
REMARK    3  A    between atoms: _7  and  _15
REMARK    4  A    between atoms: _8  and  _9
REMARK    5  A    between atoms: _8  and  _20
REMARK    6  A    between atoms: _16  and  _36
REMARK    7  A    between atoms: _18  and  _24
REMARK    8  A    between atoms: _19  and  _23
REMARK    9  A    between atoms: _23  and  _24
REMARK   10  A    between atoms: _26  and  _27
REMARK   11  A    between atoms: _28  and  _29
REMARK   12  A    between atoms: _30  and  _32
REMARK   13  A    between atoms: _32  and  _33
REMARK   14  A    between atoms: _32  and  _34
REMARK   15  A    between atoms: _34  and  _35
REMARK   16  A    between atoms: _34  and  _36
REMARK   17  A    between atoms: _37  and  _39
REMARK                            x       y       z     vdW  Elec       q    Type
REMARK                         _______ _______ _______ _____ _____    ______ ____
ROOT
ATOM      1  C   UNL     1      -3.224  10.187  24.367  0.00  0.00    +0.163 C 
ENDROOT
BRANCH   1   2
ATOM      2  O   UNL     1      -3.855  10.230  23.076  0.00  0.00    -0.388 OA
ATOM      3  H   UNL     1      -3.505   9.526  22.525  0.00  0.00    +0.210 HD
ENDBRANCH   1   2
BRANCH   1   4
ATOM      4  C   UNL     1      -3.918   9.157  25.252  0.00  0.00    +0.141 C 
BRANCH   4   7
ATOM      5  C   UNL     1      -2.358   8.310  26.970  0.00  0.00    +0.401 C 
ATOM      6  O   UNL     1      -1.825   7.491  26.217  0.00  0.00    -0.226 OA
ATOM      7  N   UNL     1      -3.348   9.125  26.604  0.00  0.00    -0.279 N 
ATOM      8  H   UNL     1      -3.727   9.756  27.297  0.00  0.00    +0.152 HD
BRANCH   5   9
ATOM      9  O   UNL     1      -1.906   8.406  28.323  0.00  0.00    -0.444 OA
BRANCH   9  10
ATOM     10  C   UNL     1      -2.977   8.072  29.210  0.00  0.00    +0.292 C 
BRANCH  10  12
ATOM     11  N   UNL     1      -3.217   8.579  31.617  0.00  0.00    -0.131 NA
ATOM     12  C   UNL     1      -3.026   9.019  30.339  0.00  0.00    +0.121 A 
ATOM     13  C   UNL     1      -2.919  10.390  30.351  0.00  0.00    +0.145 A 
ATOM     14  N   UNL     1      -3.092  10.750  31.672  0.00  0.00    -0.200 N 
ATOM     15  N   UNL     1      -3.248   9.635  32.418  0.00  0.00    -0.059 NA
BRANCH  14  16
ATOM     16  C   UNL     1      -3.162  12.078  32.187  0.00  0.00    +0.173 A 
ATOM     17  C   UNL     1      -4.374  12.755  32.349  0.00  0.00    +0.096 A 
ATOM     18  C   UNL     1      -4.321  14.094  32.771  0.00  0.00    +0.024 A 
ATOM     19  C   UNL     1      -3.098  14.703  33.040  0.00  0.00    +0.021 A 
ATOM     20  C   UNL     1      -1.952  13.949  32.891  0.00  0.00    +0.113 A 
ATOM     21  N   UNL     1      -1.957  12.666  32.471  0.00  0.00    -0.235 NA
BRANCH  17  22
ATOM     22  C   UNL     1      -5.676  12.194  32.139  0.00  0.00    +0.103 C 
ATOM     23  N   UNL     1      -6.685  11.671  31.900  0.00  0.00    -0.191 NA
ENDBRANCH  17  22
ENDBRANCH  14  16
ENDBRANCH  10  12
ENDBRANCH   9  10
ENDBRANCH   5   9
ENDBRANCH   4   7
ENDBRANCH   1   4
BRANCH   1  24
ATOM     24  C   UNL     1      -3.272  11.566  25.048  0.00  0.00    +0.175 C 
BRANCH  24  25
ATOM     25  C   UNL     1      -4.476  12.398  24.585  0.00  0.00    +0.176 C 
ATOM     26  O   UNL     1      -3.984  13.449  23.709  0.00  0.00    -0.332 OA
ATOM     27  C   UNL     1      -5.012  14.286  23.083  0.00  0.00    +0.277 C 
ATOM     28  C   UNL     1      -5.943  14.895  24.159  0.00  0.00    +0.110 C 
ATOM     29  C   UNL     1      -6.467  13.820  25.134  0.00  0.00    +0.143 C 
ATOM     30  C   UNL     1      -5.315  13.007  25.725  0.00  0.00    +0.133 C 
BRANCH  30  31
ATOM     31  N   UNL     1      -5.831  11.930  26.584  0.00  0.00    -0.308 N 
ATOM     32  H   UNL     1      -6.395  11.211  26.152  0.00  0.00    +0.149 HD
ATOM     33  C   UNL     1      -5.604  11.840  27.898  0.00  0.00    +0.210 C 
ATOM     34  C   UNL     1      -4.764  12.965  28.530  0.00  0.00    +0.109 C 
ATOM     35  O   UNL     1      -6.037  10.919  28.590  0.00  0.00    -0.276 OA
ENDBRANCH  30  31
BRANCH  27  36
ATOM     36  C   UNL     1      -5.850  13.464  22.081  0.00  0.00    +0.414 C 
ATOM     37  O   UNL     1      -5.436  12.382  21.668  0.00  0.00    -0.240 OA
ATOM     38  O   UNL     1      -6.938  13.884  21.686  0.00  0.00    -0.240 OA
ENDBRANCH  27  36
BRANCH  27  39
ATOM     39  O   UNL     1      -4.345  15.371  22.388  0.00  0.00    -0.343 OA
ATOM     40  C   UNL     1      -5.044  16.641  22.422  0.00  0.00    +0.198 C 
ENDBRANCH  27  39
BRANCH  29  41
ATOM     41  O   UNL     1      -7.195  14.443  26.193  0.00  0.00    -0.390 OA
ATOM     42  H   UNL     1      -8.118  14.524  25.943  0.00  0.00    +0.210 HD
ENDBRANCH  29  41
ENDBRANCH  24  25
BRANCH  24  43
ATOM     43  O   UNL     1      -2.047  12.284  24.800  0.00  0.00    -0.387 OA
ATOM     44  H   UNL     1      -1.397  12.049  25.466  0.00  0.00    +0.210 HD
ENDBRANCH  24  43
ENDBRANCH   1  24
TORSDOF 15
