REMARK VINA RESULT:    -5.347      4.596     12.539
REMARK INTER + INTRA:         -12.877
REMARK INTER:                  -8.771
REMARK INTRA:                  -4.106
REMARK UNBOUND:                -2.840
REMARK  Name = lig_assembled_77.pdb
REMARK  19 active torsions:
REMARK  status: ('A' for Active; 'I' for Inactive)
REMARK    1  A    between atoms: _2  and  _10
REMARK    2  A    between atoms: _3  and  _17
REMARK    3  A    between atoms: _5  and  _27
REMARK    4  A    between atoms: _7  and  _8
REMARK    5  A    between atoms: _7  and  _27
REMARK    6  A    between atoms: _13  and  _47
REMARK    7  A    between atoms: _14  and  _47
REMARK    8  A    between atoms: _23  and  _43
REMARK    9  A    between atoms: _25  and  _31
REMARK   10  A    between atoms: _26  and  _30
REMARK   11  A    between atoms: _30  and  _31
REMARK   12  A    between atoms: _33  and  _34
REMARK   13  A    between atoms: _35  and  _36
REMARK   14  A    between atoms: _37  and  _39
REMARK   15  A    between atoms: _39  and  _40
REMARK   16  A    between atoms: _39  and  _41
REMARK   17  A    between atoms: _41  and  _42
REMARK   18  A    between atoms: _41  and  _43
REMARK   19  A    between atoms: _44  and  _46
REMARK                            x       y       z     vdW  Elec       q    Type
REMARK                         _______ _______ _______ _____ _____    ______ ____
ROOT
ATOM      1  C   UNL     1      -6.429   6.679  14.558  0.00  0.00    +0.401 C 
ATOM      2  O   UNL     1      -5.444   5.986  14.824  0.00  0.00    -0.226 OA
ATOM      3  N   UNL     1      -6.763   7.058  13.324  0.00  0.00    -0.279 N 
ATOM      4  H   UNL     1      -7.595   7.618  13.206  0.00  0.00    +0.152 HD
ENDROOT
BRANCH   3   5
ATOM      5  C   UNL     1      -5.988   6.709  12.127  0.00  0.00    +0.141 C 
BRANCH   5   6
ATOM      6  C   UNL     1      -5.391   7.941  11.456  0.00  0.00    +0.163 C 
BRANCH   6   7
ATOM      7  O   UNL     1      -6.379   8.981  11.371  0.00  0.00    -0.388 OA
ATOM      8  H   UNL     1      -7.243   8.591  11.221  0.00  0.00    +0.210 HD
ENDBRANCH   6   7
BRANCH   6   9
ATOM      9  C   UNL     1      -4.161   8.415  12.250  0.00  0.00    +0.175 C 
BRANCH   9  10
ATOM     10  C   UNL     1      -4.493   9.587  13.185  0.00  0.00    +0.176 C 
ATOM     11  O   UNL     1      -4.515  10.803  12.387  0.00  0.00    -0.332 OA
ATOM     12  C   UNL     1      -4.921  12.019  13.097  0.00  0.00    +0.277 C 
ATOM     13  C   UNL     1      -4.040  12.233  14.353  0.00  0.00    +0.110 C 
ATOM     14  C   UNL     1      -3.961  10.956  15.217  0.00  0.00    +0.143 C 
ATOM     15  C   UNL     1      -3.533   9.752  14.378  0.00  0.00    +0.133 C 
BRANCH  15  16
ATOM     16  N   UNL     1      -3.545   8.526  15.192  0.00  0.00    -0.308 N 
ATOM     17  H   UNL     1      -4.419   8.252  15.618  0.00  0.00    +0.149 HD
ATOM     18  C   UNL     1      -2.477   7.752  15.403  0.00  0.00    +0.210 C 
ATOM     19  C   UNL     1      -1.155   8.211  14.761  0.00  0.00    +0.109 C 
ATOM     20  O   UNL     1      -2.521   6.723  16.078  0.00  0.00    -0.276 OA
ENDBRANCH  15  16
BRANCH  12  21
ATOM     21  C   UNL     1      -6.404  11.940  13.515  0.00  0.00    +0.414 C 
ATOM     22  O   UNL     1      -7.222  11.373  12.792  0.00  0.00    -0.240 OA
ATOM     23  O   UNL     1      -6.782  12.442  14.574  0.00  0.00    -0.240 OA
ENDBRANCH  12  21
BRANCH  14  24
ATOM     24  O   UNL     1      -3.023  11.149  16.276  0.00  0.00    -0.390 OA
ATOM     25  H   UNL     1      -3.429  11.671  16.973  0.00  0.00    +0.210 HD
ENDBRANCH  14  24
BRANCH  12  26
ATOM     26  O   UNL     1      -4.725  13.146  12.204  0.00  0.00    -0.343 OA
ATOM     27  C   UNL     1      -3.524  13.921  12.451  0.00  0.00    +0.198 C 
ENDBRANCH  12  26
ENDBRANCH   9  10
BRANCH   9  28
ATOM     28  O   UNL     1      -3.099   8.784  11.348  0.00  0.00    -0.387 OA
ATOM     29  H   UNL     1      -2.259   8.753  11.812  0.00  0.00    +0.210 HD
ENDBRANCH   9  28
ENDBRANCH   6   9
ENDBRANCH   5   6
ENDBRANCH   3   5
BRANCH   1  30
ATOM     30  O   UNL     1      -7.283   7.109  15.622  0.00  0.00    -0.444 OA
BRANCH  30  31
ATOM     31  C   UNL     1      -7.358   8.537  15.626  0.00  0.00    +0.292 C 
BRANCH  31  33
ATOM     32  N   UNL     1      -5.537   8.412  17.293  0.00  0.00    -0.131 NA
ATOM     33  C   UNL     1      -6.592   9.091  16.759  0.00  0.00    +0.121 A 
ATOM     34  C   UNL     1      -6.755  10.276  17.439  0.00  0.00    +0.143 A 
ATOM     35  N   UNL     1      -5.757  10.283  18.386  0.00  0.00    -0.220 N 
ATOM     36  N   UNL     1      -5.041   9.136  18.287  0.00  0.00    -0.060 NA
BRANCH  35  37
ATOM     37  C   UNL     1      -5.412  11.304  19.311  0.00  0.00    +0.067 A 
ATOM     38  C   UNL     1      -4.100  11.425  19.794  0.00  0.00    +0.030 A 
ATOM     39  C   UNL     1      -3.805  12.358  20.794  0.00  0.00    +0.029 A 
ATOM     40  C   UNL     1      -4.820  13.170  21.304  0.00  0.00    +0.094 A 
ATOM     41  C   UNL     1      -6.109  13.121  20.766  0.00  0.00    +0.029 A 
ATOM     42  C   UNL     1      -6.408  12.180  19.778  0.00  0.00    +0.030 A 
BRANCH  40  43
ATOM     43  S   UNL     1      -4.458  14.308  22.626  0.00  0.00    +0.025 S 
ATOM     44  O   UNL     1      -3.252  15.016  22.231  0.00  0.00    -0.164 OA
ATOM     45  O   UNL     1      -5.679  15.034  22.920  0.00  0.00    -0.164 OA
BRANCH  43  46
ATOM     46  C   UNL     1      -4.061  13.380  24.093  0.00  0.00    +0.094 A 
ATOM     47  C   UNL     1      -4.997  13.212  25.114  0.00  0.00    +0.029 A 
ATOM     48  C   UNL     1      -4.631  12.529  26.280  0.00  0.00    +0.024 A 
ATOM     49  C   UNL     1      -3.354  11.971  26.420  0.00  0.00    +0.025 A 
ATOM     50  C   UNL     1      -2.419  12.175  25.399  0.00  0.00    +0.024 A 
ATOM     51  C   UNL     1      -2.771  12.857  24.231  0.00  0.00    +0.029 A 
BRANCH  49  52
ATOM     52  N   UNL     1      -2.946  11.445  27.648  0.00  0.00    -0.358 N 
ATOM     53  H   UNL     1      -3.517  11.723  28.440  0.00  0.00    +0.142 HD
ATOM     54  H   UNL     1      -2.758  10.448  27.636  0.00  0.00    +0.142 HD
ENDBRANCH  49  52
ENDBRANCH  43  46
ENDBRANCH  40  43
ENDBRANCH  35  37
ENDBRANCH  31  33
ENDBRANCH  30  31
ENDBRANCH   1  30
TORSDOF 17
