REMARK VINA RESULT:    -4.954      5.089      8.201
REMARK INTER + INTRA:         -10.954
REMARK INTER:                  -7.795
REMARK INTRA:                  -3.159
REMARK UNBOUND:                -2.381
REMARK  Name = lig_assembled_7.pdb
REMARK  19 active torsions:
REMARK  status: ('A' for Active; 'I' for Inactive)
REMARK    1  A    between atoms: _2  and  _9
REMARK    2  A    between atoms: _4  and  _21
REMARK    3  A    between atoms: _5  and  _16
REMARK    4  A    between atoms: _6  and  _7
REMARK    5  A    between atoms: _6  and  _21
REMARK    6  A    between atoms: _10  and  _11
REMARK    7  A    between atoms: _13  and  _14
REMARK    8  A    between atoms: _17  and  _37
REMARK    9  A    between atoms: _19  and  _25
REMARK   10  A    between atoms: _20  and  _24
REMARK   11  A    between atoms: _24  and  _25
REMARK   12  A    between atoms: _27  and  _28
REMARK   13  A    between atoms: _29  and  _30
REMARK   14  A    between atoms: _31  and  _33
REMARK   15  A    between atoms: _33  and  _34
REMARK   16  A    between atoms: _33  and  _35
REMARK   17  A    between atoms: _35  and  _36
REMARK   18  A    between atoms: _35  and  _37
REMARK   19  A    between atoms: _38  and  _40
REMARK                            x       y       z     vdW  Elec       q    Type
REMARK                         _______ _______ _______ _____ _____    ______ ____
ROOT
ATOM      1  C   UNL     1      -2.747  10.420  31.092  0.00  0.00    +0.163 C 
ENDROOT
BRANCH   1   2
ATOM      2  O   UNL     1      -3.013  11.102  29.855  0.00  0.00    -0.388 OA
ATOM      3  H   UNL     1      -2.275  10.976  29.255  0.00  0.00    +0.210 HD
ENDBRANCH   1   2
BRANCH   1   4
ATOM      4  C   UNL     1      -2.979   8.923  30.923  0.00  0.00    +0.141 C 
BRANCH   4   7
ATOM      5  C   UNL     1      -2.776   7.714  28.778  0.00  0.00    +0.401 C 
ATOM      6  O   UNL     1      -1.754   7.107  29.108  0.00  0.00    -0.226 OA
ATOM      7  N   UNL     1      -3.411   8.586  29.561  0.00  0.00    -0.279 N 
ATOM      8  H   UNL     1      -4.237   9.041  29.197  0.00  0.00    +0.152 HD
BRANCH   5   9
ATOM      9  O   UNL     1      -3.328   7.487  27.478  0.00  0.00    -0.444 OA
BRANCH   9  10
ATOM     10  C   UNL     1      -2.486   8.088  26.490  0.00  0.00    +0.292 C 
BRANCH  10  12
ATOM     11  N   UNL     1      -2.093  10.467  27.003  0.00  0.00    -0.131 NA
ATOM     12  C   UNL     1      -2.811   9.519  26.343  0.00  0.00    +0.121 A 
ATOM     13  C   UNL     1      -3.787  10.143  25.592  0.00  0.00    +0.143 A 
ATOM     14  N   UNL     1      -3.655  11.489  25.866  0.00  0.00    -0.219 N 
ATOM     15  N   UNL     1      -2.588  11.652  26.688  0.00  0.00    -0.060 NA
BRANCH  14  16
ATOM     16  C   UNL     1      -4.439  12.596  25.406  0.00  0.00    +0.073 A 
ATOM     17  C   UNL     1      -5.488  13.102  26.233  0.00  0.00    -0.024 A 
ATOM     18  C   UNL     1      -6.265  14.193  25.789  0.00  0.00    +0.008 A 
ATOM     19  C   UNL     1      -6.030  14.803  24.559  0.00  0.00    -0.050 A 
ATOM     20  C   UNL     1      -6.873  15.962  24.118  0.00  0.00    +0.044 C 
ATOM     21  C   UNL     1      -5.005  14.308  23.757  0.00  0.00    +0.008 A 
ATOM     22  C   UNL     1      -5.817  12.582  27.615  0.00  0.00    +0.046 C 
ATOM     23  C   UNL     1      -4.214  13.200  24.142  0.00  0.00    -0.024 A 
ATOM     24  C   UNL     1      -3.247  12.747  23.077  0.00  0.00    +0.046 C 
ENDBRANCH  14  16
ENDBRANCH  10  12
ENDBRANCH   9  10
ENDBRANCH   5   9
ENDBRANCH   4   7
ENDBRANCH   1   4
BRANCH   1  25
ATOM     25  C   UNL     1      -3.645  10.956  32.220  0.00  0.00    +0.175 C 
BRANCH  25  26
ATOM     26  C   UNL     1      -4.474  12.169  31.773  0.00  0.00    +0.176 C 
ATOM     27  O   UNL     1      -4.320  13.210  32.776  0.00  0.00    -0.332 OA
ATOM     28  C   UNL     1      -4.960  14.491  32.464  0.00  0.00    +0.277 C 
ATOM     29  C   UNL     1      -6.462  14.284  32.151  0.00  0.00    +0.110 C 
ATOM     30  C   UNL     1      -6.678  13.164  31.112  0.00  0.00    +0.143 C 
ATOM     31  C   UNL     1      -5.967  11.878  31.535  0.00  0.00    +0.133 C 
BRANCH  31  32
ATOM     32  N   UNL     1      -6.107  10.845  30.496  0.00  0.00    -0.308 N 
ATOM     33  H   UNL     1      -5.790  11.069  29.563  0.00  0.00    +0.149 HD
ATOM     34  C   UNL     1      -6.626   9.632  30.705  0.00  0.00    +0.210 C 
ATOM     35  C   UNL     1      -7.124   9.332  32.131  0.00  0.00    +0.109 C 
ATOM     36  O   UNL     1      -6.717   8.782  29.819  0.00  0.00    -0.276 OA
ENDBRANCH  31  32
BRANCH  28  37
ATOM     37  C   UNL     1      -4.272  15.168  31.260  0.00  0.00    +0.414 C 
ATOM     38  O   UNL     1      -4.946  15.643  30.346  0.00  0.00    -0.240 OA
ATOM     39  O   UNL     1      -3.043  15.239  31.202  0.00  0.00    -0.240 OA
ENDBRANCH  28  37
BRANCH  30  40
ATOM     40  O   UNL     1      -8.075  12.903  30.967  0.00  0.00    -0.390 OA
ATOM     41  H   UNL     1      -8.382  12.381  31.711  0.00  0.00    +0.210 HD
ENDBRANCH  30  40
BRANCH  28  42
ATOM     42  O   UNL     1      -4.850  15.345  33.632  0.00  0.00    -0.343 OA
ATOM     43  C   UNL     1      -5.755  16.478  33.650  0.00  0.00    +0.198 C 
ENDBRANCH  28  42
ENDBRANCH  25  26
BRANCH  25  44
ATOM     44  O   UNL     1      -2.848  11.296  33.371  0.00  0.00    -0.387 OA
ATOM     45  H   UNL     1      -2.562  10.493  33.813  0.00  0.00    +0.210 HD
ENDBRANCH  25  44
ENDBRANCH   1  25
TORSDOF 14
