REMARK VINA RESULT:    -3.503      2.744      8.028
REMARK INTER + INTRA:         -10.478
REMARK INTER:                  -7.698
REMARK INTRA:                  -2.780
REMARK UNBOUND:                -4.108
REMARK  Name = lig_assembled_53.pdb
REMARK  18 active torsions:
REMARK  status: ('A' for Active; 'I' for Inactive)
REMARK    1  A    between atoms: _2  and  _9
REMARK    2  A    between atoms: _4  and  _16
REMARK    3  A    between atoms: _5  and  _9
REMARK    4  A    between atoms: _5  and  _10
REMARK    5  A    between atoms: _6  and  _7
REMARK    6  A    between atoms: _6  and  _16
REMARK    7  A    between atoms: _12  and  _32
REMARK    8  A    between atoms: _14  and  _20
REMARK    9  A    between atoms: _15  and  _19
REMARK   10  A    between atoms: _19  and  _20
REMARK   11  A    between atoms: _22  and  _23
REMARK   12  A    between atoms: _24  and  _25
REMARK   13  A    between atoms: _26  and  _28
REMARK   14  A    between atoms: _28  and  _29
REMARK   15  A    between atoms: _28  and  _30
REMARK   16  A    between atoms: _30  and  _31
REMARK   17  A    between atoms: _30  and  _32
REMARK   18  A    between atoms: _33  and  _35
REMARK                            x       y       z     vdW  Elec       q    Type
REMARK                         _______ _______ _______ _____ _____    ______ ____
ROOT
ATOM      1  C   UNL     1      -3.646   8.793  26.456  0.00  0.00    +0.175 C 
ENDROOT
BRANCH   1   2
ATOM      2  C   UNL     1      -4.350   9.752  25.485  0.00  0.00    +0.176 C 
ATOM      3  O   UNL     1      -3.517   9.881  24.300  0.00  0.00    -0.332 OA
ATOM      4  C   UNL     1      -4.084  10.682  23.211  0.00  0.00    +0.277 C 
ATOM      5  C   UNL     1      -4.485  12.087  23.724  0.00  0.00    +0.110 C 
ATOM      6  C   UNL     1      -5.345  12.002  25.002  0.00  0.00    +0.143 C 
ATOM      7  C   UNL     1      -4.663  11.143  26.067  0.00  0.00    +0.133 C 
BRANCH   7   8
ATOM      8  N   UNL     1      -5.531  10.999  27.247  0.00  0.00    -0.308 N 
ATOM      9  H   UNL     1      -6.358  10.426  27.156  0.00  0.00    +0.149 HD
ATOM     10  C   UNL     1      -5.296  11.574  28.429  0.00  0.00    +0.210 C 
ATOM     11  C   UNL     1      -4.041  12.461  28.528  0.00  0.00    +0.109 C 
ATOM     12  O   UNL     1      -6.033  11.423  29.404  0.00  0.00    -0.276 OA
ENDBRANCH   7   8
BRANCH   4  13
ATOM     13  C   UNL     1      -5.319   9.983  22.604  0.00  0.00    +0.414 C 
ATOM     14  O   UNL     1      -6.388  10.585  22.509  0.00  0.00    -0.240 OA
ATOM     15  O   UNL     1      -5.246   8.819  22.208  0.00  0.00    -0.240 OA
ENDBRANCH   4  13
BRANCH   4  16
ATOM     16  O   UNL     1      -3.063  10.841  22.192  0.00  0.00    -0.343 OA
ATOM     17  C   UNL     1      -3.329  11.880  21.216  0.00  0.00    +0.198 C 
ENDBRANCH   4  16
BRANCH   6  18
ATOM     18  O   UNL     1      -5.563  13.313  25.524  0.00  0.00    -0.390 OA
ATOM     19  H   UNL     1      -6.220  13.275  26.223  0.00  0.00    +0.210 HD
ENDBRANCH   6  18
ENDBRANCH   1   2
BRANCH   1  20
ATOM     20  O   UNL     1      -4.592   8.262  27.405  0.00  0.00    -0.387 OA
ATOM     21  H   UNL     1      -5.478   8.314  27.037  0.00  0.00    +0.210 HD
ENDBRANCH   1  20
BRANCH   1  22
ATOM     22  C   UNL     1      -2.478   9.470  27.194  0.00  0.00    +0.163 C 
BRANCH  22  23
ATOM     23  O   UNL     1      -1.331   9.594  26.337  0.00  0.00    -0.388 OA
ATOM     24  H   UNL     1      -1.176   8.760  25.886  0.00  0.00    +0.210 HD
ENDBRANCH  22  23
BRANCH  22  25
ATOM     25  C   UNL     1      -2.118   8.657  28.433  0.00  0.00    +0.141 C 
BRANCH  25  28
ATOM     26  C   UNL     1      -3.462   8.756  30.504  0.00  0.00    +0.401 C 
ATOM     27  O   UNL     1      -3.987   7.654  30.328  0.00  0.00    -0.226 OA
ATOM     28  N   UNL     1      -2.581   9.305  29.666  0.00  0.00    -0.279 N 
ATOM     29  H   UNL     1      -2.212  10.217  29.893  0.00  0.00    +0.152 HD
BRANCH  26  30
ATOM     30  O   UNL     1      -3.805   9.510  31.669  0.00  0.00    -0.444 OA
BRANCH  30  31
ATOM     31  C   UNL     1      -2.637  10.160  32.179  0.00  0.00    +0.292 C 
BRANCH  31  33
ATOM     32  N   UNL     1      -1.837  12.503  32.253  0.00  0.00    -0.131 NA
ATOM     33  C   UNL     1      -2.872  11.610  32.316  0.00  0.00    +0.120 A 
ATOM     34  C   UNL     1      -4.048  12.297  32.517  0.00  0.00    +0.137 A 
ATOM     35  N   UNL     1      -3.658  13.597  32.631  0.00  0.00    -0.241 N 
ATOM     36  N   UNL     1      -2.331  13.721  32.425  0.00  0.00    -0.065 NA
BRANCH  35  37
ATOM     37  C   UNL     1      -4.447  14.803  32.774  0.00  0.00    +0.265 C 
BRANCH  37  38
ATOM     38  C   UNL     1      -4.000  15.969  31.933  0.00  0.00    +0.326 C 
ATOM     39  O   UNL     1      -4.284  16.177  30.763  0.00  0.00    -0.249 OA
BRANCH  38  40
ATOM     40  O   UNL     1      -3.192  16.823  32.616  0.00  0.00    -0.479 OA
ATOM     41  H   UNL     1      -3.327  16.857  33.582  0.00  0.00    +0.295 HD
ENDBRANCH  38  40
ENDBRANCH  37  38
ENDBRANCH  35  37
ENDBRANCH  31  33
ENDBRANCH  30  31
ENDBRANCH  26  30
ENDBRANCH  25  28
ENDBRANCH  22  25
ENDBRANCH   1  22
TORSDOF 16
