REMARK VINA RESULT:    -4.897      5.053      8.783
REMARK INTER + INTRA:         -12.681
REMARK INTER:                  -9.454
REMARK INTRA:                  -3.227
REMARK UNBOUND:                -3.060
REMARK  Name = lig_assembled_37.pdb
REMARK  21 active torsions:
REMARK  status: ('A' for Active; 'I' for Inactive)
REMARK    1  A    between atoms: _2  and  _9
REMARK    2  A    between atoms: _4  and  _24
REMARK    3  A    between atoms: _6  and  _7
REMARK    4  A    between atoms: _6  and  _24
REMARK    5  A    between atoms: _9  and  _10
REMARK    6  A    between atoms: _9  and  _11
REMARK    7  A    between atoms: _11  and  _18
REMARK    8  A    between atoms: _12  and  _13
REMARK    9  A    between atoms: _12  and  _18
REMARK   10  A    between atoms: _20  and  _40
REMARK   11  A    between atoms: _22  and  _28
REMARK   12  A    between atoms: _23  and  _27
REMARK   13  A    between atoms: _27  and  _28
REMARK   14  A    between atoms: _30  and  _31
REMARK   15  A    between atoms: _32  and  _33
REMARK   16  A    between atoms: _34  and  _36
REMARK   17  A    between atoms: _36  and  _37
REMARK   18  A    between atoms: _36  and  _38
REMARK   19  A    between atoms: _38  and  _39
REMARK   20  A    between atoms: _38  and  _40
REMARK   21  A    between atoms: _41  and  _43
REMARK                            x       y       z     vdW  Elec       q    Type
REMARK                         _______ _______ _______ _____ _____    ______ ____
ROOT
ATOM      1  C   UNL     1      -3.953  10.661  21.744  0.00  0.00    +0.141 C 
ENDROOT
BRANCH   1   4
ATOM      2  C   UNL     1      -5.022  10.553  19.519  0.00  0.00    +0.401 C 
ATOM      3  O   UNL     1      -4.881   9.333  19.407  0.00  0.00    -0.226 OA
ATOM      4  N   UNL     1      -4.612  11.256  20.575  0.00  0.00    -0.279 N 
ATOM      5  H   UNL     1      -4.763  12.255  20.571  0.00  0.00    +0.152 HD
BRANCH   2   6
ATOM      6  O   UNL     1      -5.655  11.279  18.463  0.00  0.00    -0.444 OA
BRANCH   6   7
ATOM      7  C   UNL     1      -5.775  10.441  17.311  0.00  0.00    +0.292 C 
BRANCH   7   9
ATOM      8  N   UNL     1      -3.529  10.899  16.365  0.00  0.00    -0.131 NA
ATOM      9  C   UNL     1      -4.893  10.921  16.230  0.00  0.00    +0.120 A 
ATOM     10  C   UNL     1      -5.214  11.433  14.994  0.00  0.00    +0.138 A 
ATOM     11  N   UNL     1      -4.008  11.731  14.433  0.00  0.00    -0.238 N 
ATOM     12  N   UNL     1      -2.997  11.391  15.255  0.00  0.00    -0.065 NA
BRANCH  11  13
ATOM     13  C   UNL     1      -3.712  12.268  13.119  0.00  0.00    +0.214 C 
ATOM     14  C   UNL     1      -3.007  13.621  13.214  0.00  0.00    +0.045 C 
BRANCH  13  15
ATOM     15  C   UNL     1      -2.880  11.300  12.308  0.00  0.00    +0.332 C 
ATOM     16  O   UNL     1      -1.719  11.508  11.972  0.00  0.00    -0.248 OA
BRANCH  15  17
ATOM     17  O   UNL     1      -3.589  10.181  12.002  0.00  0.00    -0.458 OA
BRANCH  17  18
ATOM     18  C   UNL     1      -2.848   8.950  11.980  0.00  0.00    +0.267 C 
BRANCH  18  19
ATOM     19  C   UNL     1      -2.769   8.372  13.369  0.00  0.00    -0.010 A 
ATOM     20  C   UNL     1      -3.938   8.026  14.062  0.00  0.00    +0.007 A 
ATOM     21  C   UNL     1      -3.865   7.465  15.338  0.00  0.00    +0.000 A 
ATOM     22  C   UNL     1      -2.625   7.247  15.935  0.00  0.00    +0.000 A 
ATOM     23  C   UNL     1      -1.457   7.592  15.260  0.00  0.00    +0.000 A 
ATOM     24  C   UNL     1      -1.528   8.156  13.983  0.00  0.00    +0.007 A 
ENDBRANCH  18  19
ENDBRANCH  17  18
ENDBRANCH  15  17
ENDBRANCH  13  15
ENDBRANCH  11  13
ENDBRANCH   7   9
ENDBRANCH   6   7
ENDBRANCH   2   6
ENDBRANCH   1   4
BRANCH   1  25
ATOM     25  C   UNL     1      -2.858  11.564  22.301  0.00  0.00    +0.163 C 
BRANCH  25  26
ATOM     26  O   UNL     1      -2.694  12.716  21.458  0.00  0.00    -0.388 OA
ATOM     27  H   UNL     1      -2.688  13.510  21.998  0.00  0.00    +0.210 HD
ENDBRANCH  25  26
BRANCH  25  28
ATOM     28  C   UNL     1      -3.216  11.981  23.738  0.00  0.00    +0.175 C 
BRANCH  28  29
ATOM     29  C   UNL     1      -4.526  12.781  23.798  0.00  0.00    +0.176 C 
ATOM     30  O   UNL     1      -4.261  14.112  23.276  0.00  0.00    -0.332 OA
ATOM     31  C   UNL     1      -5.428  14.990  23.157  0.00  0.00    +0.277 C 
ATOM     32  C   UNL     1      -6.165  15.098  24.514  0.00  0.00    +0.110 C 
ATOM     33  C   UNL     1      -6.440  13.708  25.125  0.00  0.00    +0.143 C 
ATOM     34  C   UNL     1      -5.159  12.877  25.199  0.00  0.00    +0.133 C 
BRANCH  34  35
ATOM     35  N   UNL     1      -5.449  11.525  25.701  0.00  0.00    -0.308 N 
ATOM     36  H   UNL     1      -6.098  10.956  25.175  0.00  0.00    +0.149 HD
ATOM     37  C   UNL     1      -4.913  11.001  26.806  0.00  0.00    +0.210 C 
ATOM     38  C   UNL     1      -3.949  11.903  27.599  0.00  0.00    +0.109 C 
ATOM     39  O   UNL     1      -5.163   9.860  27.194  0.00  0.00    -0.276 OA
ENDBRANCH  34  35
BRANCH  31  40
ATOM     40  C   UNL     1      -6.402  14.464  22.082  0.00  0.00    +0.414 C 
ATOM     41  O   UNL     1      -7.607  14.696  22.170  0.00  0.00    -0.240 OA
ATOM     42  O   UNL     1      -5.983  13.807  21.128  0.00  0.00    -0.240 OA
ENDBRANCH  31  40
BRANCH  31  43
ATOM     43  O   UNL     1      -4.959  16.312  22.784  0.00  0.00    -0.343 OA
ATOM     44  C   UNL     1      -3.771  16.329  21.954  0.00  0.00    +0.198 C 
ENDBRANCH  31  43
BRANCH  33  45
ATOM     45  O   UNL     1      -6.981  13.857  26.438  0.00  0.00    -0.390 OA
ATOM     46  H   UNL     1      -6.338  14.295  27.002  0.00  0.00    +0.210 HD
ENDBRANCH  33  45
ENDBRANCH  28  29
BRANCH  28  47
ATOM     47  O   UNL     1      -2.140  12.745  24.317  0.00  0.00    -0.387 OA
ATOM     48  H   UNL     1      -2.270  12.815  25.266  0.00  0.00    +0.210 HD
ENDBRANCH  28  47
ENDBRANCH  25  28
ENDBRANCH   1  25
TORSDOF 18
