REMARK VINA RESULT:    -5.109      0.000      0.000
REMARK INTER + INTRA:         -12.217
REMARK INTER:                  -9.649
REMARK INTRA:                  -2.567
REMARK UNBOUND:                -3.373
REMARK  Name = lig_assembled_27.pdb
REMARK  16 active torsions:
REMARK  status: ('A' for Active; 'I' for Inactive)
REMARK    1  A    between atoms: _2  and  _9
REMARK    2  A    between atoms: _4  and  _18
REMARK    3  A    between atoms: _6  and  _7
REMARK    4  A    between atoms: _6  and  _18
REMARK    5  A    between atoms: _14  and  _34
REMARK    6  A    between atoms: _16  and  _22
REMARK    7  A    between atoms: _17  and  _21
REMARK    8  A    between atoms: _21  and  _22
REMARK    9  A    between atoms: _24  and  _25
REMARK   10  A    between atoms: _26  and  _27
REMARK   11  A    between atoms: _28  and  _30
REMARK   12  A    between atoms: _30  and  _31
REMARK   13  A    between atoms: _30  and  _32
REMARK   14  A    between atoms: _32  and  _33
REMARK   15  A    between atoms: _32  and  _34
REMARK   16  A    between atoms: _35  and  _37
REMARK                            x       y       z     vdW  Elec       q    Type
REMARK                         _______ _______ _______ _____ _____    ______ ____
ROOT
ATOM      1  C   UNL     1      -3.064  12.249  25.969  0.00  0.00    +0.163 C 
ENDROOT
BRANCH   1   2
ATOM      2  O   UNL     1      -3.612  13.245  25.089  0.00  0.00    -0.388 OA
ATOM      3  H   UNL     1      -4.557  13.102  24.992  0.00  0.00    +0.210 HD
ENDBRANCH   1   2
BRANCH   1   4
ATOM      4  C   UNL     1      -2.327  11.187  25.160  0.00  0.00    +0.141 C 
BRANCH   4   7
ATOM      5  C   UNL     1      -3.569  10.145  23.295  0.00  0.00    +0.401 C 
ATOM      6  O   UNL     1      -3.948   9.180  23.963  0.00  0.00    -0.226 OA
ATOM      7  N   UNL     1      -2.803  11.127  23.772  0.00  0.00    -0.279 N 
ATOM      8  H   UNL     1      -2.536  11.872  23.144  0.00  0.00    +0.152 HD
BRANCH   5   9
ATOM      9  O   UNL     1      -3.958  10.236  21.922  0.00  0.00    -0.444 OA
BRANCH   9  10
ATOM     10  C   UNL     1      -5.205  10.929  21.824  0.00  0.00    +0.292 C 
BRANCH  10  12
ATOM     11  N   UNL     1      -5.724  12.992  23.089  0.00  0.00    -0.131 NA
ATOM     12  C   UNL     1      -5.018  12.365  22.102  0.00  0.00    +0.121 A 
ATOM     13  C   UNL     1      -4.185  13.276  21.498  0.00  0.00    +0.143 A 
ATOM     14  N   UNL     1      -4.409  14.461  22.161  0.00  0.00    -0.220 N 
ATOM     15  N   UNL     1      -5.350  14.264  23.118  0.00  0.00    -0.060 NA
BRANCH  14  16
ATOM     16  C   UNL     1      -3.805  15.726  21.949  0.00  0.00    +0.068 A 
ATOM     17  C   UNL     1      -4.581  16.893  22.044  0.00  0.00    +0.028 A 
ATOM     18  C   UNL     1      -3.998  18.145  21.834  0.00  0.00    +0.003 A 
ATOM     19  C   UNL     1      -2.642  18.242  21.528  0.00  0.00    +0.020 A 
ATOM     20  C   UNL     1      -1.870  17.086  21.437  0.00  0.00    +0.043 A 
ATOM     21 CL   UNL     1      -0.195  17.206  21.061  0.00  0.00    -0.083 Cl
ATOM     22  C   UNL     1      -2.440  15.829  21.645  0.00  0.00    +0.047 A 
ENDBRANCH  14  16
ENDBRANCH  10  12
ENDBRANCH   9  10
ENDBRANCH   5   9
ENDBRANCH   4   7
ENDBRANCH   1   4
BRANCH   1  23
ATOM     23  C   UNL     1      -4.172  11.582  26.803  0.00  0.00    +0.175 C 
BRANCH  23  24
ATOM     24  C   UNL     1      -3.631  10.437  27.671  0.00  0.00    +0.176 C 
ATOM     25  O   UNL     1      -4.257   9.203  27.224  0.00  0.00    -0.332 OA
ATOM     26  C   UNL     1      -3.780   7.978  27.873  0.00  0.00    +0.277 C 
ATOM     27  C   UNL     1      -3.902   8.099  29.412  0.00  0.00    +0.110 C 
ATOM     28  C   UNL     1      -3.278   9.411  29.931  0.00  0.00    +0.143 C 
ATOM     29  C   UNL     1      -3.843  10.621  29.185  0.00  0.00    +0.133 C 
BRANCH  29  30
ATOM     30  N   UNL     1      -3.178  11.856  29.628  0.00  0.00    -0.308 N 
ATOM     31  H   UNL     1      -2.178  11.924  29.502  0.00  0.00    +0.149 HD
ATOM     32  C   UNL     1      -3.809  12.893  30.185  0.00  0.00    +0.210 C 
ATOM     33  C   UNL     1      -5.329  12.747  30.387  0.00  0.00    +0.109 C 
ATOM     34  O   UNL     1      -3.228  13.921  30.533  0.00  0.00    -0.276 OA
ENDBRANCH  29  30
BRANCH  26  35
ATOM     35  C   UNL     1      -2.312   7.694  27.493  0.00  0.00    +0.414 C 
ATOM     36  O   UNL     1      -1.538   7.219  28.322  0.00  0.00    -0.240 OA
ATOM     37  O   UNL     1      -1.903   7.939  26.357  0.00  0.00    -0.240 OA
ENDBRANCH  26  35
BRANCH  28  38
ATOM     38  O   UNL     1      -3.545   9.553  31.327  0.00  0.00    -0.390 OA
ATOM     39  H   UNL     1      -3.171   8.807  31.802  0.00  0.00    +0.210 HD
ENDBRANCH  28  38
BRANCH  26  40
ATOM     40  O   UNL     1      -4.620   6.880  27.433  0.00  0.00    -0.343 OA
ATOM     41  C   UNL     1      -5.859   7.276  26.791  0.00  0.00    +0.198 C 
ENDBRANCH  26  40
ENDBRANCH  23  24
BRANCH  23  42
ATOM     42  O   UNL     1      -5.221  11.099  25.940  0.00  0.00    -0.387 OA
ATOM     43  H   UNL     1      -5.717  10.413  26.392  0.00  0.00    +0.210 HD
ENDBRANCH  23  42
ENDBRANCH   1  23
TORSDOF 14
