REMARK VINA RESULT:    -3.732      2.193      5.125
REMARK INTER + INTRA:         -10.895
REMARK INTER:                  -6.946
REMARK INTRA:                  -3.949
REMARK UNBOUND:                -4.108
REMARK  Name = lig_assembled_53.pdb
REMARK  18 active torsions:
REMARK  status: ('A' for Active; 'I' for Inactive)
REMARK    1  A    between atoms: _2  and  _9
REMARK    2  A    between atoms: _4  and  _16
REMARK    3  A    between atoms: _5  and  _9
REMARK    4  A    between atoms: _5  and  _10
REMARK    5  A    between atoms: _6  and  _7
REMARK    6  A    between atoms: _6  and  _16
REMARK    7  A    between atoms: _12  and  _32
REMARK    8  A    between atoms: _14  and  _20
REMARK    9  A    between atoms: _15  and  _19
REMARK   10  A    between atoms: _19  and  _20
REMARK   11  A    between atoms: _22  and  _23
REMARK   12  A    between atoms: _24  and  _25
REMARK   13  A    between atoms: _26  and  _28
REMARK   14  A    between atoms: _28  and  _29
REMARK   15  A    between atoms: _28  and  _30
REMARK   16  A    between atoms: _30  and  _31
REMARK   17  A    between atoms: _30  and  _32
REMARK   18  A    between atoms: _33  and  _35
REMARK                            x       y       z     vdW  Elec       q    Type
REMARK                         _______ _______ _______ _____ _____    ______ ____
ROOT
ATOM      1  C   UNL     1      -6.115   8.259  26.013  0.00  0.00    +0.175 C 
ENDROOT
BRANCH   1   2
ATOM      2  C   UNL     1      -4.904   9.203  26.060  0.00  0.00    +0.176 C 
ATOM      3  O   UNL     1      -4.329   9.127  27.394  0.00  0.00    -0.332 OA
ATOM      4  C   UNL     1      -3.092   9.888  27.595  0.00  0.00    +0.277 C 
ATOM      5  C   UNL     1      -3.298  11.370  27.197  0.00  0.00    +0.110 C 
ATOM      6  C   UNL     1      -3.937  11.501  25.799  0.00  0.00    +0.143 C 
ATOM      7  C   UNL     1      -5.215  10.668  25.699  0.00  0.00    +0.133 C 
BRANCH   7   8
ATOM      8  N   UNL     1      -5.767  10.731  24.336  0.00  0.00    -0.308 N 
ATOM      9  H   UNL     1      -5.179  10.421  23.575  0.00  0.00    +0.149 HD
ATOM     10  C   UNL     1      -6.993  11.171  24.040  0.00  0.00    +0.210 C 
ATOM     11  C   UNL     1      -7.853  11.661  25.221  0.00  0.00    +0.109 C 
ATOM     12  O   UNL     1      -7.434  11.200  22.891  0.00  0.00    -0.276 OA
ENDBRANCH   7   8
BRANCH   4  13
ATOM     13  C   UNL     1      -1.939   9.287  26.765  0.00  0.00    +0.414 C 
ATOM     14  O   UNL     1      -1.940   8.090  26.478  0.00  0.00    -0.240 OA
ATOM     15  O   UNL     1      -1.009   9.997  26.383  0.00  0.00    -0.240 OA
ENDBRANCH   4  13
BRANCH   4  16
ATOM     16  O   UNL     1      -2.758   9.835  29.006  0.00  0.00    -0.343 OA
ATOM     17  C   UNL     1      -3.609  10.633  29.867  0.00  0.00    +0.198 C 
ENDBRANCH   4  16
BRANCH   6  18
ATOM     18  O   UNL     1      -4.247  12.871  25.537  0.00  0.00    -0.390 OA
ATOM     19  H   UNL     1      -3.814  13.427  26.188  0.00  0.00    +0.210 HD
ENDBRANCH   6  18
ENDBRANCH   1   2
BRANCH   1  20
ATOM     20  O   UNL     1      -7.033   8.576  27.079  0.00  0.00    -0.387 OA
ATOM     21  H   UNL     1      -7.336   7.764  27.493  0.00  0.00    +0.210 HD
ENDBRANCH   1  20
BRANCH   1  22
ATOM     22  C   UNL     1      -5.699   6.780  26.094  0.00  0.00    +0.163 C 
BRANCH  22  23
ATOM     23  O   UNL     1      -4.272   6.653  26.211  0.00  0.00    -0.388 OA
ATOM     24  H   UNL     1      -3.929   6.180  25.449  0.00  0.00    +0.210 HD
ENDBRANCH  22  23
BRANCH  22  25
ATOM     25  C   UNL     1      -6.188   6.044  24.851  0.00  0.00    +0.141 C 
BRANCH  25  28
ATOM     26  C   UNL     1      -5.928   6.201  22.399  0.00  0.00    +0.401 C 
ATOM     27  O   UNL     1      -6.843   5.410  22.157  0.00  0.00    -0.226 OA
ATOM     28  N   UNL     1      -5.550   6.550  23.629  0.00  0.00    -0.279 N 
ATOM     29  H   UNL     1      -4.782   7.199  23.726  0.00  0.00    +0.152 HD
BRANCH  26  30
ATOM     30  O   UNL     1      -5.212   6.788  21.310  0.00  0.00    -0.444 OA
BRANCH  30  31
ATOM     31  C   UNL     1      -5.783   8.060  20.993  0.00  0.00    +0.292 C 
BRANCH  31  33
ATOM     32  N   UNL     1      -3.914   9.003  22.317  0.00  0.00    -0.131 NA
ATOM     33  C   UNL     1      -4.840   9.146  21.319  0.00  0.00    +0.120 A 
ATOM     34  C   UNL     1      -4.704  10.395  20.755  0.00  0.00    +0.137 A 
ATOM     35  N   UNL     1      -3.725  10.988  21.493  0.00  0.00    -0.241 N 
ATOM     36  N   UNL     1      -3.221  10.130  22.402  0.00  0.00    -0.065 NA
BRANCH  35  37
ATOM     37  C   UNL     1      -3.085  12.278  21.335  0.00  0.00    +0.265 C 
BRANCH  37  38
ATOM     38  C   UNL     1      -3.586  13.362  22.251  0.00  0.00    +0.326 C 
ATOM     39  O   UNL     1      -4.675  13.407  22.803  0.00  0.00    -0.249 OA
BRANCH  38  40
ATOM     40  O   UNL     1      -2.680  14.363  22.417  0.00  0.00    -0.479 OA
ATOM     41  H   UNL     1      -1.743  14.110  22.319  0.00  0.00    +0.295 HD
ENDBRANCH  38  40
ENDBRANCH  37  38
ENDBRANCH  35  37
ENDBRANCH  31  33
ENDBRANCH  30  31
ENDBRANCH  26  30
ENDBRANCH  25  28
ENDBRANCH  22  25
ENDBRANCH   1  22
TORSDOF 16
