REMARK VINA RESULT:    -4.473      4.304     10.162
REMARK INTER + INTRA:         -10.863
REMARK INTER:                  -8.184
REMARK INTRA:                  -2.679
REMARK UNBOUND:                -2.598
REMARK  Name = lig_assembled_67.pdb
REMARK  18 active torsions:
REMARK  status: ('A' for Active; 'I' for Inactive)
REMARK    1  A    between atoms: _2  and  _9
REMARK    2  A    between atoms: _4  and  _19
REMARK    3  A    between atoms: _6  and  _7
REMARK    4  A    between atoms: _6  and  _19
REMARK    5  A    between atoms: _9  and  _10
REMARK    6  A    between atoms: _10  and  _11
REMARK    7  A    between atoms: _15  and  _35
REMARK    8  A    between atoms: _17  and  _23
REMARK    9  A    between atoms: _18  and  _22
REMARK   10  A    between atoms: _22  and  _23
REMARK   11  A    between atoms: _25  and  _26
REMARK   12  A    between atoms: _27  and  _28
REMARK   13  A    between atoms: _29  and  _31
REMARK   14  A    between atoms: _31  and  _32
REMARK   15  A    between atoms: _31  and  _33
REMARK   16  A    between atoms: _33  and  _34
REMARK   17  A    between atoms: _33  and  _35
REMARK   18  A    between atoms: _36  and  _38
REMARK                            x       y       z     vdW  Elec       q    Type
REMARK                         _______ _______ _______ _____ _____    ______ ____
ROOT
ATOM      1  C   UNL     1      -6.581   9.652  23.220  0.00  0.00    +0.163 C 
ENDROOT
BRANCH   1   2
ATOM      2  O   UNL     1      -7.259   9.767  24.482  0.00  0.00    -0.388 OA
ATOM      3  H   UNL     1      -7.792  10.566  24.488  0.00  0.00    +0.210 HD
ENDBRANCH   1   2
BRANCH   1   4
ATOM      4  C   UNL     1      -5.308   8.799  23.355  0.00  0.00    +0.175 C 
BRANCH   4   5
ATOM      5  C   UNL     1      -4.171   9.564  24.047  0.00  0.00    +0.176 C 
ATOM      6  O   UNL     1      -4.474   9.629  25.468  0.00  0.00    -0.332 OA
ATOM      7  C   UNL     1      -3.440  10.237  26.310  0.00  0.00    +0.277 C 
ATOM      8  C   UNL     1      -3.077  11.649  25.787  0.00  0.00    +0.110 C 
ATOM      9  C   UNL     1      -2.776  11.636  24.274  0.00  0.00    +0.143 C 
ATOM     10  C   UNL     1      -3.916  10.979  23.494  0.00  0.00    +0.133 C 
BRANCH  10  11
ATOM     11  N   UNL     1      -3.580  10.894  22.064  0.00  0.00    -0.308 N 
ATOM     12  H   UNL     1      -2.872  10.229  21.784  0.00  0.00    +0.149 HD
ATOM     13  C   UNL     1      -4.148  11.639  21.111  0.00  0.00    +0.210 C 
ATOM     14  C   UNL     1      -5.203  12.661  21.573  0.00  0.00    +0.109 C 
ATOM     15  O   UNL     1      -3.857  11.535  19.919  0.00  0.00    -0.276 OA
ENDBRANCH  10  11
BRANCH   7  16
ATOM     16  C   UNL     1      -2.173   9.357  26.341  0.00  0.00    +0.414 C 
ATOM     17  O   UNL     1      -2.270   8.130  26.341  0.00  0.00    -0.240 OA
ATOM     18  O   UNL     1      -1.055   9.873  26.365  0.00  0.00    -0.240 OA
ENDBRANCH   7  16
BRANCH   9  19
ATOM     19  O   UNL     1      -2.596  12.973  23.807  0.00  0.00    -0.390 OA
ATOM     20  H   UNL     1      -2.989  13.064  22.936  0.00  0.00    +0.210 HD
ENDBRANCH   9  19
BRANCH   7  21
ATOM     21  O   UNL     1      -3.975  10.370  27.652  0.00  0.00    -0.343 OA
ATOM     22  C   UNL     1      -5.204   9.641  27.896  0.00  0.00    +0.198 C 
ENDBRANCH   7  21
ENDBRANCH   4   5
BRANCH   4  23
ATOM     23  O   UNL     1      -4.880   8.337  22.059  0.00  0.00    -0.387 OA
ATOM     24  H   UNL     1      -5.427   7.597  21.786  0.00  0.00    +0.210 HD
ENDBRANCH   4  23
ENDBRANCH   1   4
BRANCH   1  25
ATOM     25  C   UNL     1      -7.508   9.024  22.185  0.00  0.00    +0.141 C 
BRANCH  25  28
ATOM     26  C   UNL     1      -7.793  10.583  20.289  0.00  0.00    +0.401 C 
ATOM     27  O   UNL     1      -8.630  11.280  20.866  0.00  0.00    -0.226 OA
ATOM     28  N   UNL     1      -7.221   9.506  20.828  0.00  0.00    -0.279 N 
ATOM     29  H   UNL     1      -6.552   8.992  20.272  0.00  0.00    +0.152 HD
BRANCH  26  30
ATOM     30  O   UNL     1      -7.399  10.928  18.959  0.00  0.00    -0.444 OA
BRANCH  30  31
ATOM     31  C   UNL     1      -7.583   9.801  18.098  0.00  0.00    +0.292 C 
BRANCH  31  33
ATOM     32  N   UNL     1      -5.368   8.703  18.226  0.00  0.00    -0.131 NA
ATOM     33  C   UNL     1      -6.298   9.398  17.496  0.00  0.00    +0.120 A 
ATOM     34  C   UNL     1      -5.808   9.604  16.226  0.00  0.00    +0.137 A 
ATOM     35  N   UNL     1      -4.580   9.017  16.248  0.00  0.00    -0.251 N 
ATOM     36  N   UNL     1      -4.317   8.478  17.450  0.00  0.00    -0.065 NA
BRANCH  35  37
ATOM     37  C   UNL     1      -3.616   8.916  15.175  0.00  0.00    +0.150 C 
BRANCH  37  38
ATOM     38  C   UNL     1      -2.981  10.252  14.797  0.00  0.00    +0.084 C 
BRANCH  38  39
ATOM     39  C   UNL     1      -3.218  10.618  13.339  0.00  0.00    +0.252 C 
ATOM     40  O   UNL     1      -4.124  11.724  13.248  0.00  0.00    -0.349 OA
ATOM     41  C   UNL     1      -3.727  12.371  12.041  0.00  0.00    +0.191 C 
ATOM     42  C   UNL     1      -2.229  12.207  12.037  0.00  0.00    +0.191 C 
ATOM     43  O   UNL     1      -1.984  10.968  12.704  0.00  0.00    -0.349 OA
ENDBRANCH  38  39
ENDBRANCH  37  38
ENDBRANCH  35  37
ENDBRANCH  31  33
ENDBRANCH  30  31
ENDBRANCH  26  30
ENDBRANCH  25  28
ENDBRANCH   1  25
TORSDOF 16
