REMARK VINA RESULT:    -4.701      2.161      4.680
REMARK INTER + INTRA:         -10.643
REMARK INTER:                  -8.233
REMARK INTRA:                  -2.410
REMARK UNBOUND:                -2.508
REMARK  Name = lig_assembled_48.pdb
REMARK  16 active torsions:
REMARK  status: ('A' for Active; 'I' for Inactive)
REMARK    1  A    between atoms: _2  and  _9
REMARK    2  A    between atoms: _4  and  _18
REMARK    3  A    between atoms: _6  and  _7
REMARK    4  A    between atoms: _6  and  _18
REMARK    5  A    between atoms: _14  and  _34
REMARK    6  A    between atoms: _16  and  _22
REMARK    7  A    between atoms: _17  and  _21
REMARK    8  A    between atoms: _21  and  _22
REMARK    9  A    between atoms: _24  and  _25
REMARK   10  A    between atoms: _26  and  _27
REMARK   11  A    between atoms: _28  and  _30
REMARK   12  A    between atoms: _30  and  _31
REMARK   13  A    between atoms: _30  and  _32
REMARK   14  A    between atoms: _32  and  _33
REMARK   15  A    between atoms: _32  and  _34
REMARK   16  A    between atoms: _35  and  _37
REMARK                            x       y       z     vdW  Elec       q    Type
REMARK                         _______ _______ _______ _____ _____    ______ ____
ROOT
ATOM      1  C   UNL     1      -4.886  12.302  28.195  0.00  0.00    +0.163 C 
ENDROOT
BRANCH   1   2
ATOM      2  O   UNL     1      -5.891  11.358  27.790  0.00  0.00    -0.388 OA
ATOM      3  H   UNL     1      -5.493  10.490  27.691  0.00  0.00    +0.210 HD
ENDBRANCH   1   2
BRANCH   1   4
ATOM      4  C   UNL     1      -3.530  11.898  27.625  0.00  0.00    +0.141 C 
BRANCH   4   7
ATOM      5  C   UNL     1      -2.834  10.421  25.771  0.00  0.00    +0.401 C 
ATOM      6  O   UNL     1      -1.962  11.190  25.360  0.00  0.00    -0.226 OA
ATOM      7  N   UNL     1      -3.618  10.674  26.819  0.00  0.00    -0.279 N 
ATOM      8  H   UNL     1      -4.312   9.984  27.074  0.00  0.00    +0.152 HD
BRANCH   5   9
ATOM      9  O   UNL     1      -3.038   9.177  25.094  0.00  0.00    -0.444 OA
BRANCH   9  10
ATOM     10  C   UNL     1      -4.440   8.930  24.962  0.00  0.00    +0.292 C 
BRANCH  10  12
ATOM     11  N   UNL     1      -6.040  10.802  24.760  0.00  0.00    -0.131 NA
ATOM     12  C   UNL     1      -5.076  10.016  24.194  0.00  0.00    +0.120 A 
ATOM     13  C   UNL     1      -4.847  10.442  22.904  0.00  0.00    +0.137 A 
ATOM     14  N   UNL     1      -5.631  11.549  22.773  0.00  0.00    -0.248 N 
ATOM     15  N   UNL     1      -6.402  11.714  23.870  0.00  0.00    -0.065 NA
BRANCH  14  16
ATOM     16  C   UNL     1      -5.703  12.544  21.709  0.00  0.00    +0.109 C 
ATOM     17  C   UNL     1      -5.701  13.973  22.286  0.00  0.00    +0.027 C 
ATOM     18  C   UNL     1      -4.326  14.354  22.830  0.00  0.00    +0.002 C 
ATOM     19  C   UNL     1      -3.270  14.285  21.733  0.00  0.00    +0.000 C 
ATOM     20  C   UNL     1      -3.238  12.928  21.036  0.00  0.00    +0.002 C 
ATOM     21  C   UNL     1      -4.626  12.431  20.612  0.00  0.00    +0.027 C 
ENDBRANCH  14  16
ENDBRANCH  10  12
ENDBRANCH   9  10
ENDBRANCH   5   9
ENDBRANCH   4   7
ENDBRANCH   1   4
BRANCH   1  22
ATOM     22  C   UNL     1      -4.795  12.386  29.728  0.00  0.00    +0.175 C 
BRANCH  22  23
ATOM     23  C   UNL     1      -4.354  11.055  30.354  0.00  0.00    +0.176 C 
ATOM     24  O   UNL     1      -5.525  10.198  30.453  0.00  0.00    -0.332 OA
ATOM     25  C   UNL     1      -5.274   8.836  30.935  0.00  0.00    +0.277 C 
ATOM     26  C   UNL     1      -4.534   8.870  32.295  0.00  0.00    +0.110 C 
ATOM     27  C   UNL     1      -3.300   9.795  32.248  0.00  0.00    +0.143 C 
ATOM     28  C   UNL     1      -3.674  11.184  31.730  0.00  0.00    +0.133 C 
BRANCH  28  29
ATOM     29  N   UNL     1      -2.475  12.028  31.608  0.00  0.00    -0.308 N 
ATOM     30  H   UNL     1      -1.757  11.737  30.960  0.00  0.00    +0.149 HD
ATOM     31  C   UNL     1      -2.274  13.155  32.297  0.00  0.00    +0.210 C 
ATOM     32  C   UNL     1      -3.375  13.558  33.296  0.00  0.00    +0.109 C 
ATOM     33  O   UNL     1      -1.266  13.850  32.163  0.00  0.00    -0.276 OA
ENDBRANCH  28  29
BRANCH  25  34
ATOM     34  C   UNL     1      -4.437   8.039  29.912  0.00  0.00    +0.414 C 
ATOM     35  O   UNL     1      -4.335   8.435  28.752  0.00  0.00    -0.240 OA
ATOM     36  O   UNL     1      -3.863   7.002  30.248  0.00  0.00    -0.240 OA
ENDBRANCH  25  34
BRANCH  27  37
ATOM     37  O   UNL     1      -2.739   9.916  33.556  0.00  0.00    -0.390 OA
ATOM     38  H   UNL     1      -1.896   9.458  33.587  0.00  0.00    +0.210 HD
ENDBRANCH  27  37
BRANCH  25  39
ATOM     39  O   UNL     1      -6.556   8.185  31.128  0.00  0.00    -0.343 OA
ATOM     40  C   UNL     1      -7.609   9.045  31.633  0.00  0.00    +0.198 C 
ENDBRANCH  25  39
ENDBRANCH  22  23
BRANCH  22  41
ATOM     41  O   UNL     1      -6.062  12.798  30.279  0.00  0.00    -0.387 OA
ATOM     42  H   UNL     1      -5.930  13.138  31.167  0.00  0.00    +0.210 HD
ENDBRANCH  22  41
ENDBRANCH   1  22
TORSDOF 14
