REMARK VINA RESULT:    -5.062      0.000      0.000
REMARK INTER + INTRA:         -12.595
REMARK INTER:                  -8.925
REMARK INTRA:                  -3.670
REMARK UNBOUND:                -3.243
REMARK  Name = lig_assembled_78.pdb
REMARK  18 active torsions:
REMARK  status: ('A' for Active; 'I' for Inactive)
REMARK    1  A    between atoms: _2  and  _9
REMARK    2  A    between atoms: _4  and  _21
REMARK    3  A    between atoms: _6  and  _7
REMARK    4  A    between atoms: _6  and  _21
REMARK    5  A    between atoms: _9  and  _41
REMARK    6  A    between atoms: _10  and  _41
REMARK    7  A    between atoms: _17  and  _37
REMARK    8  A    between atoms: _19  and  _25
REMARK    9  A    between atoms: _20  and  _24
REMARK   10  A    between atoms: _24  and  _25
REMARK   11  A    between atoms: _27  and  _28
REMARK   12  A    between atoms: _29  and  _30
REMARK   13  A    between atoms: _31  and  _33
REMARK   14  A    between atoms: _33  and  _34
REMARK   15  A    between atoms: _33  and  _35
REMARK   16  A    between atoms: _35  and  _36
REMARK   17  A    between atoms: _35  and  _37
REMARK   18  A    between atoms: _38  and  _40
REMARK                            x       y       z     vdW  Elec       q    Type
REMARK                         _______ _______ _______ _____ _____    ______ ____
ROOT
ATOM      1  C   UNL     1      -3.162  12.283  23.735  0.00  0.00    +0.163 C 
ENDROOT
BRANCH   1   2
ATOM      2  O   UNL     1      -2.073  12.243  24.671  0.00  0.00    -0.388 OA
ATOM      3  H   UNL     1      -1.577  13.064  24.621  0.00  0.00    +0.210 HD
ENDBRANCH   1   2
BRANCH   1   4
ATOM      4  C   UNL     1      -4.433  11.665  24.343  0.00  0.00    +0.175 C 
BRANCH   4   5
ATOM      5  C   UNL     1      -4.127  10.828  25.594  0.00  0.00    +0.176 C 
ATOM      6  O   UNL     1      -3.638   9.531  25.154  0.00  0.00    -0.332 OA
ATOM      7  C   UNL     1      -3.193   8.627  26.219  0.00  0.00    +0.277 C 
ATOM      8  C   UNL     1      -4.314   8.435  27.270  0.00  0.00    +0.110 C 
ATOM      9  C   UNL     1      -4.887   9.787  27.744  0.00  0.00    +0.143 C 
ATOM     10  C   UNL     1      -5.316  10.648  26.556  0.00  0.00    +0.133 C 
BRANCH  10  11
ATOM     11  N   UNL     1      -5.780  11.967  27.016  0.00  0.00    -0.308 N 
ATOM     12  H   UNL     1      -5.132  12.538  27.540  0.00  0.00    +0.149 HD
ATOM     13  C   UNL     1      -7.001  12.458  26.786  0.00  0.00    +0.210 C 
ATOM     14  C   UNL     1      -7.973  11.552  26.007  0.00  0.00    +0.109 C 
ATOM     15  O   UNL     1      -7.357  13.572  27.170  0.00  0.00    -0.276 OA
ENDBRANCH  10  11
BRANCH   7  16
ATOM     16  C   UNL     1      -1.927   9.178  26.910  0.00  0.00    +0.414 C 
ATOM     17  O   UNL     1      -1.189   9.963  26.316  0.00  0.00    -0.240 OA
ATOM     18  O   UNL     1      -1.645   8.836  28.059  0.00  0.00    -0.240 OA
ENDBRANCH   7  16
BRANCH   7  19
ATOM     19  O   UNL     1      -2.901   7.338  25.621  0.00  0.00    -0.343 OA
ATOM     20  C   UNL     1      -3.929   6.827  24.736  0.00  0.00    +0.198 C 
ENDBRANCH   7  19
BRANCH   9  21
ATOM     21  O   UNL     1      -6.013   9.562  28.593  0.00  0.00    -0.390 OA
ATOM     22  H   UNL     1      -6.392   8.701  28.401  0.00  0.00    +0.210 HD
ENDBRANCH   9  21
ENDBRANCH   4   5
BRANCH   4  23
ATOM     23  O   UNL     1      -5.114  10.860  23.360  0.00  0.00    -0.387 OA
ATOM     24  H   UNL     1      -5.912  10.491  23.745  0.00  0.00    +0.210 HD
ENDBRANCH   4  23
ENDBRANCH   1   4
BRANCH   1  25
ATOM     25  C   UNL     1      -3.443  13.724  23.323  0.00  0.00    +0.141 C 
BRANCH  25  28
ATOM     26  C   UNL     1      -5.408  15.171  22.933  0.00  0.00    +0.401 C 
ATOM     27  O   UNL     1      -4.765  16.048  22.351  0.00  0.00    -0.226 OA
ATOM     28  N   UNL     1      -4.870  14.055  23.425  0.00  0.00    -0.279 N 
ATOM     29  H   UNL     1      -5.479  13.399  23.895  0.00  0.00    +0.152 HD
BRANCH  26  30
ATOM     30  O   UNL     1      -6.817  15.343  23.105  0.00  0.00    -0.444 OA
BRANCH  30  31
ATOM     31  C   UNL     1      -7.489  15.042  21.879  0.00  0.00    +0.292 C 
BRANCH  31  33
ATOM     32  N   UNL     1      -7.654  12.658  22.534  0.00  0.00    -0.131 NA
ATOM     33  C   UNL     1      -7.387  13.602  21.578  0.00  0.00    +0.120 A 
ATOM     34  C   UNL     1      -7.045  12.968  20.404  0.00  0.00    +0.139 A 
ATOM     35  N   UNL     1      -7.180  11.644  20.695  0.00  0.00    -0.230 N 
ATOM     36  N   UNL     1      -7.501  11.459  21.987  0.00  0.00    -0.064 NA
BRANCH  35  37
ATOM     37  C   UNL     1      -6.948  10.505  19.840  0.00  0.00    +0.316 C 
BRANCH  37  38
ATOM     38  S   UNL     1      -5.235  10.071  19.686  0.00  0.00    +0.017 S 
ATOM     39  O   UNL     1      -4.436  10.889  20.576  0.00  0.00    -0.168 OA
ATOM     40  O   UNL     1      -5.137   8.622  19.715  0.00  0.00    -0.168 OA
BRANCH  38  41
ATOM     41  C   UNL     1      -4.804  10.587  18.037  0.00  0.00    +0.090 A 
ATOM     42  C   UNL     1      -4.625  11.949  17.772  0.00  0.00    +0.027 A 
ATOM     43  C   UNL     1      -4.262  12.354  16.488  0.00  0.00    +0.002 A 
ATOM     44  C   UNL     1      -4.063  11.405  15.484  0.00  0.00    +0.000 A 
ATOM     45  C   UNL     1      -4.224  10.046  15.760  0.00  0.00    +0.002 A 
ATOM     46  C   UNL     1      -4.596   9.630  17.039  0.00  0.00    +0.027 A 
ENDBRANCH  38  41
ENDBRANCH  37  38
ENDBRANCH  35  37
ENDBRANCH  31  33
ENDBRANCH  30  31
ENDBRANCH  26  30
ENDBRANCH  25  28
ENDBRANCH   1  25
TORSDOF 16
