REMARK VINA RESULT:    -4.192      1.473      2.421
REMARK INTER + INTRA:         -13.575
REMARK INTER:                  -9.282
REMARK INTRA:                  -4.293
REMARK UNBOUND:                -3.746
REMARK  Name = lig_assembled_30.pdb
REMARK  27 active torsions:
REMARK  status: ('A' for Active; 'I' for Inactive)
REMARK    1  A    between atoms: _2  and  _9
REMARK    2  A    between atoms: _4  and  _25
REMARK    3  A    between atoms: _5  and  _18
REMARK    4  A    between atoms: _5  and  _19
REMARK    5  A    between atoms: _6  and  _7
REMARK    6  A    between atoms: _6  and  _25
REMARK    7  A    between atoms: _9  and  _10
REMARK    8  A    between atoms: _10  and  _11
REMARK    9  A    between atoms: _11  and  _12
REMARK   10  A    between atoms: _12  and  _13
REMARK   11  A    between atoms: _13  and  _14
REMARK   12  A    between atoms: _14  and  _15
REMARK   13  A    between atoms: _15  and  _16
REMARK   14  A    between atoms: _16  and  _17
REMARK   15  A    between atoms: _17  and  _18
REMARK   16  A    between atoms: _21  and  _41
REMARK   17  A    between atoms: _23  and  _29
REMARK   18  A    between atoms: _24  and  _28
REMARK   19  A    between atoms: _28  and  _29
REMARK   20  A    between atoms: _31  and  _32
REMARK   21  A    between atoms: _33  and  _34
REMARK   22  A    between atoms: _35  and  _37
REMARK   23  A    between atoms: _37  and  _38
REMARK   24  A    between atoms: _37  and  _39
REMARK   25  A    between atoms: _39  and  _40
REMARK   26  A    between atoms: _39  and  _41
REMARK   27  A    between atoms: _42  and  _44
REMARK                            x       y       z     vdW  Elec       q    Type
REMARK                         _______ _______ _______ _____ _____    ______ ____
ROOT
ATOM      1  C   UNL     1      -3.961   6.293  23.281  0.00  0.00    +0.401 C 
ATOM      2  O   UNL     1      -4.147   5.446  22.404  0.00  0.00    -0.226 OA
ATOM      3  N   UNL     1      -4.698   7.395  23.422  0.00  0.00    -0.279 N 
ATOM      4  H   UNL     1      -4.473   8.026  24.179  0.00  0.00    +0.152 HD
ENDROOT
BRANCH   1   5
ATOM      5  O   UNL     1      -2.898   6.100  24.218  0.00  0.00    -0.444 OA
BRANCH   5   6
ATOM      6  C   UNL     1      -3.440   5.710  25.483  0.00  0.00    +0.292 C 
BRANCH   6   8
ATOM      7  N   UNL     1      -1.949   7.385  26.529  0.00  0.00    -0.131 NA
ATOM      8  C   UNL     1      -3.156   6.737  26.500  0.00  0.00    +0.120 A 
ATOM      9  C   UNL     1      -3.946   7.211  27.524  0.00  0.00    +0.137 A 
ATOM     10  N   UNL     1      -3.162   8.141  28.136  0.00  0.00    -0.251 N 
ATOM     11  N   UNL     1      -1.963   8.245  27.540  0.00  0.00    -0.065 NA
BRANCH  10  12
ATOM     12  C   UNL     1      -3.470   8.931  29.309  0.00  0.00    +0.145 C 
BRANCH  12  13
ATOM     13  C   UNL     1      -2.948  10.356  29.167  0.00  0.00    +0.023 C 
BRANCH  13  14
ATOM     14  C   UNL     1      -3.952  11.266  28.463  0.00  0.00    +0.002 C 
BRANCH  14  15
ATOM     15  C   UNL     1      -3.987  12.635  29.140  0.00  0.00    +0.000 C 
BRANCH  15  16
ATOM     16  C   UNL     1      -5.178  12.771  30.085  0.00  0.00    +0.000 C 
BRANCH  16  17
ATOM     17  C   UNL     1      -6.300  11.813  29.684  0.00  0.00    +0.000 C 
BRANCH  17  18
ATOM     18  C   UNL     1      -6.623  10.845  30.820  0.00  0.00    +0.000 C 
BRANCH  18  19
ATOM     19  C   UNL     1      -5.921  11.245  32.118  0.00  0.00    +0.001 C 
BRANCH  19  20
ATOM     20  C   UNL     1      -4.885  10.193  32.510  0.00  0.00    +0.011 C 
BRANCH  20  21
ATOM     21  C   UNL     1      -3.881  10.732  33.526  0.00  0.00    +0.120 C 
BRANCH  21  22
ATOM     22  C   UNL     1      -2.990  11.789  32.915  0.00  0.00    +0.305 C 
ATOM     23  O   UNL     1      -3.183  12.994  32.967  0.00  0.00    -0.251 OA
BRANCH  22  24
ATOM     24  O   UNL     1      -1.920  11.258  32.282  0.00  0.00    -0.481 OA
ATOM     25  H   UNL     1      -1.129  11.179  32.847  0.00  0.00    +0.295 HD
ENDBRANCH  22  24
ENDBRANCH  21  22
ENDBRANCH  20  21
ENDBRANCH  19  20
ENDBRANCH  18  19
ENDBRANCH  17  18
ENDBRANCH  16  17
ENDBRANCH  15  16
ENDBRANCH  14  15
ENDBRANCH  13  14
ENDBRANCH  12  13
ENDBRANCH  10  12
ENDBRANCH   6   8
ENDBRANCH   5   6
ENDBRANCH   1   5
BRANCH   3  26
ATOM     26  C   UNL     1      -5.817   7.744  22.539  0.00  0.00    +0.141 C 
BRANCH  26  27
ATOM     27  C   UNL     1      -6.694   8.839  23.139  0.00  0.00    +0.163 C 
BRANCH  27  28
ATOM     28  O   UNL     1      -6.405   8.989  24.538  0.00  0.00    -0.388 OA
ATOM     29  H   UNL     1      -6.192   9.907  24.725  0.00  0.00    +0.210 HD
ENDBRANCH  27  28
BRANCH  27  30
ATOM     30  C   UNL     1      -6.459  10.158  22.383  0.00  0.00    +0.175 C 
BRANCH  30  31
ATOM     31  C   UNL     1      -5.100  10.786  22.727  0.00  0.00    +0.176 C 
ATOM     32  O   UNL     1      -5.287  11.656  23.877  0.00  0.00    -0.332 OA
ATOM     33  C   UNL     1      -4.068  12.265  24.416  0.00  0.00    +0.277 C 
ATOM     34  C   UNL     1      -3.305  13.025  23.304  0.00  0.00    +0.110 C 
ATOM     35  C   UNL     1      -3.109  12.150  22.048  0.00  0.00    +0.143 C 
ATOM     36  C   UNL     1      -4.440  11.565  21.574  0.00  0.00    +0.133 C 
BRANCH  36  37
ATOM     37  N   UNL     1      -4.229  10.665  20.430  0.00  0.00    -0.308 N 
ATOM     38  H   UNL     1      -3.586   9.894  20.548  0.00  0.00    +0.149 HD
ATOM     39  C   UNL     1      -4.831  10.799  19.245  0.00  0.00    +0.210 C 
ATOM     40  C   UNL     1      -5.785  11.998  19.088  0.00  0.00    +0.109 C 
ATOM     41  O   UNL     1      -4.646  10.021  18.309  0.00  0.00    -0.276 OA
ENDBRANCH  36  37
BRANCH  33  42
ATOM     42  C   UNL     1      -3.147  11.191  25.033  0.00  0.00    +0.414 C 
ATOM     43  O   UNL     1      -2.034  11.499  25.457  0.00  0.00    -0.240 OA
ATOM     44  O   UNL     1      -3.517  10.019  25.105  0.00  0.00    -0.240 OA
ENDBRANCH  33  42
BRANCH  35  45
ATOM     45  O   UNL     1      -2.540  12.934  20.999  0.00  0.00    -0.390 OA
ATOM     46  H   UNL     1      -2.898  13.824  21.033  0.00  0.00    +0.210 HD
ENDBRANCH  35  45
BRANCH  33  47
ATOM     47  O   UNL     1      -4.457  13.219  25.438  0.00  0.00    -0.343 OA
ATOM     48  C   UNL     1      -5.849  13.153  25.838  0.00  0.00    +0.198 C 
ENDBRANCH  33  47
ENDBRANCH  30  31
BRANCH  30  49
ATOM     49  O   UNL     1      -7.522  11.089  22.666  0.00  0.00    -0.387 OA
ATOM     50  H   UNL     1      -7.677  11.120  23.613  0.00  0.00    +0.210 HD
ENDBRANCH  30  49
ENDBRANCH  27  30
ENDBRANCH  26  27
ENDBRANCH   3  26
TORSDOF 25
