REMARK VINA RESULT:    -4.694      1.705      2.059
REMARK INTER + INTRA:         -10.134
REMARK INTER:                  -7.646
REMARK INTRA:                  -2.489
REMARK UNBOUND:                -2.010
REMARK  Name = lig_assembled_49.pdb
REMARK  16 active torsions:
REMARK  status: ('A' for Active; 'I' for Inactive)
REMARK    1  A    between atoms: _2  and  _9
REMARK    2  A    between atoms: _4  and  _17
REMARK    3  A    between atoms: _6  and  _7
REMARK    4  A    between atoms: _6  and  _17
REMARK    5  A    between atoms: _13  and  _33
REMARK    6  A    between atoms: _15  and  _21
REMARK    7  A    between atoms: _16  and  _20
REMARK    8  A    between atoms: _20  and  _21
REMARK    9  A    between atoms: _23  and  _24
REMARK   10  A    between atoms: _25  and  _26
REMARK   11  A    between atoms: _27  and  _29
REMARK   12  A    between atoms: _29  and  _30
REMARK   13  A    between atoms: _29  and  _31
REMARK   14  A    between atoms: _31  and  _32
REMARK   15  A    between atoms: _31  and  _33
REMARK   16  A    between atoms: _34  and  _36
REMARK                            x       y       z     vdW  Elec       q    Type
REMARK                         _______ _______ _______ _____ _____    ______ ____
ROOT
ATOM      1  C   UNL     1      -2.805  10.385  29.527  0.00  0.00    +0.175 C 
ENDROOT
BRANCH   1   2
ATOM      2  C   UNL     1      -3.498  11.619  30.121  0.00  0.00    +0.176 C 
ATOM      3  O   UNL     1      -3.353  11.561  31.567  0.00  0.00    -0.332 OA
ATOM      4  C   UNL     1      -3.866  12.720  32.303  0.00  0.00    +0.277 C 
ATOM      5  C   UNL     1      -5.347  12.982  31.937  0.00  0.00    +0.110 C 
ATOM      6  C   UNL     1      -5.557  13.021  30.408  0.00  0.00    +0.143 C 
ATOM      7  C   UNL     1      -4.984  11.769  29.743  0.00  0.00    +0.133 C 
BRANCH   7   8
ATOM      8  N   UNL     1      -5.112  11.857  28.280  0.00  0.00    -0.308 N 
ATOM      9  H   UNL     1      -4.545  12.541  27.798  0.00  0.00    +0.149 HD
ATOM     10  C   UNL     1      -5.928  11.094  27.549  0.00  0.00    +0.210 C 
ATOM     11  C   UNL     1      -6.797  10.080  28.316  0.00  0.00    +0.109 C 
ATOM     12  O   UNL     1      -6.004  11.181  26.322  0.00  0.00    -0.276 OA
ENDBRANCH   7   8
BRANCH   4  13
ATOM     13  C   UNL     1      -3.028  13.978  31.994  0.00  0.00    +0.414 C 
ATOM     14  O   UNL     1      -1.802  13.905  31.921  0.00  0.00    -0.240 OA
ATOM     15  O   UNL     1      -3.578  15.067  31.819  0.00  0.00    -0.240 OA
ENDBRANCH   4  13
BRANCH   6  16
ATOM     16  O   UNL     1      -6.952  13.112  30.116  0.00  0.00    -0.390 OA
ATOM     17  H   UNL     1      -7.159  12.553  29.363  0.00  0.00    +0.210 HD
ENDBRANCH   6  16
BRANCH   4  18
ATOM     18  O   UNL     1      -3.792  12.420  33.721  0.00  0.00    -0.343 OA
ATOM     19  C   UNL     1      -4.212  11.081  34.086  0.00  0.00    +0.198 C 
ENDBRANCH   4  18
ENDBRANCH   1   2
BRANCH   1  20
ATOM     20  O   UNL     1      -2.536  10.593  28.126  0.00  0.00    -0.387 OA
ATOM     21  H   UNL     1      -2.841  11.466  27.867  0.00  0.00    +0.210 HD
ENDBRANCH   1  20
BRANCH   1  22
ATOM     22  C   UNL     1      -3.634   9.104  29.723  0.00  0.00    +0.163 C 
BRANCH  22  23
ATOM     23  O   UNL     1      -3.907   8.877  31.115  0.00  0.00    -0.388 OA
ATOM     24  H   UNL     1      -4.596   8.214  31.203  0.00  0.00    +0.210 HD
ENDBRANCH  22  23
BRANCH  22  25
ATOM     25  C   UNL     1      -2.881   7.914  29.137  0.00  0.00    +0.141 C 
BRANCH  25  28
ATOM     26  C   UNL     1      -2.749   6.886  26.894  0.00  0.00    +0.401 C 
ATOM     27  O   UNL     1      -2.700   5.731  27.323  0.00  0.00    -0.226 OA
ATOM     28  N   UNL     1      -2.829   7.967  27.671  0.00  0.00    -0.279 N 
ATOM     29  H   UNL     1      -2.854   8.874  27.226  0.00  0.00    +0.152 HD
BRANCH  26  30
ATOM     30  O   UNL     1      -2.716   7.105  25.482  0.00  0.00    -0.444 OA
BRANCH  30  31
ATOM     31  C   UNL     1      -3.939   7.718  25.064  0.00  0.00    +0.292 C 
BRANCH  31  33
ATOM     32  N   UNL     1      -2.669   9.841  25.101  0.00  0.00    -0.131 NA
ATOM     33  C   UNL     1      -3.686   9.088  24.578  0.00  0.00    +0.120 A 
ATOM     34  C   UNL     1      -4.343   9.823  23.617  0.00  0.00    +0.137 A 
ATOM     35  N   UNL     1      -3.682  11.016  23.607  0.00  0.00    -0.248 N 
ATOM     36  N   UNL     1      -2.675  11.021  24.498  0.00  0.00    -0.065 NA
BRANCH  35  37
ATOM     37  C   UNL     1      -3.969  12.178  22.800  0.00  0.00    +0.109 C 
ATOM     38  C   UNL     1      -3.521  13.497  23.433  0.00  0.00    +0.027 C 
ATOM     39  C   UNL     1      -3.521  14.455  22.254  0.00  0.00    +0.002 C 
ATOM     40  C   UNL     1      -2.968  13.629  21.100  0.00  0.00    +0.002 C 
ATOM     41  C   UNL     1      -3.311  12.171  21.414  0.00  0.00    +0.027 C 
ENDBRANCH  35  37
ENDBRANCH  31  33
ENDBRANCH  30  31
ENDBRANCH  26  30
ENDBRANCH  25  28
ENDBRANCH  22  25
ENDBRANCH   1  22
TORSDOF 14
