REMARK VINA RESULT:    -3.994      2.367      4.340
REMARK INTER + INTRA:         -13.110
REMARK INTER:                  -8.063
REMARK INTRA:                  -5.047
REMARK UNBOUND:                -3.746
REMARK  Name = lig_assembled_30.pdb
REMARK  27 active torsions:
REMARK  status: ('A' for Active; 'I' for Inactive)
REMARK    1  A    between atoms: _2  and  _9
REMARK    2  A    between atoms: _4  and  _25
REMARK    3  A    between atoms: _5  and  _18
REMARK    4  A    between atoms: _5  and  _19
REMARK    5  A    between atoms: _6  and  _7
REMARK    6  A    between atoms: _6  and  _25
REMARK    7  A    between atoms: _9  and  _10
REMARK    8  A    between atoms: _10  and  _11
REMARK    9  A    between atoms: _11  and  _12
REMARK   10  A    between atoms: _12  and  _13
REMARK   11  A    between atoms: _13  and  _14
REMARK   12  A    between atoms: _14  and  _15
REMARK   13  A    between atoms: _15  and  _16
REMARK   14  A    between atoms: _16  and  _17
REMARK   15  A    between atoms: _17  and  _18
REMARK   16  A    between atoms: _21  and  _41
REMARK   17  A    between atoms: _23  and  _29
REMARK   18  A    between atoms: _24  and  _28
REMARK   19  A    between atoms: _28  and  _29
REMARK   20  A    between atoms: _31  and  _32
REMARK   21  A    between atoms: _33  and  _34
REMARK   22  A    between atoms: _35  and  _37
REMARK   23  A    between atoms: _37  and  _38
REMARK   24  A    between atoms: _37  and  _39
REMARK   25  A    between atoms: _39  and  _40
REMARK   26  A    between atoms: _39  and  _41
REMARK   27  A    between atoms: _42  and  _44
REMARK                            x       y       z     vdW  Elec       q    Type
REMARK                         _______ _______ _______ _____ _____    ______ ____
ROOT
ATOM      1  C   UNL     1      -2.702   8.793  27.090  0.00  0.00    +0.401 C 
ATOM      2  O   UNL     1      -1.713   8.652  26.368  0.00  0.00    -0.226 OA
ATOM      3  N   UNL     1      -3.949   8.510  26.711  0.00  0.00    -0.279 N 
ATOM      4  H   UNL     1      -4.694   8.650  27.378  0.00  0.00    +0.152 HD
ENDROOT
BRANCH   1   5
ATOM      5  O   UNL     1      -2.526   9.284  28.421  0.00  0.00    -0.444 OA
BRANCH   5   6
ATOM      6  C   UNL     1      -3.628   8.871  29.233  0.00  0.00    +0.292 C 
BRANCH   6   8
ATOM      7  N   UNL     1      -5.004  10.073  30.903  0.00  0.00    -0.131 NA
ATOM      8  C   UNL     1      -3.768   9.763  30.399  0.00  0.00    +0.120 A 
ATOM      9  C   UNL     1      -2.803  10.405  31.142  0.00  0.00    +0.137 A 
ATOM     10  N   UNL     1      -3.517  11.088  32.080  0.00  0.00    -0.251 N 
ATOM     11  N   UNL     1      -4.837  10.890  31.936  0.00  0.00    -0.065 NA
BRANCH  10  12
ATOM     12  C   UNL     1      -3.014  11.973  33.108  0.00  0.00    +0.145 C 
BRANCH  12  13
ATOM     13  C   UNL     1      -3.418  13.419  32.837  0.00  0.00    +0.023 C 
BRANCH  13  14
ATOM     14  C   UNL     1      -2.621  14.029  31.686  0.00  0.00    +0.002 C 
BRANCH  14  15
ATOM     15  C   UNL     1      -3.570  14.623  30.645  0.00  0.00    +0.000 C 
BRANCH  15  16
ATOM     16  C   UNL     1      -5.016  14.629  31.134  0.00  0.00    +0.000 C 
BRANCH  16  17
ATOM     17  C   UNL     1      -5.899  13.772  30.226  0.00  0.00    +0.000 C 
BRANCH  17  18
ATOM     18  C   UNL     1      -5.098  13.219  29.051  0.00  0.00    +0.000 C 
BRANCH  18  19
ATOM     19  C   UNL     1      -5.901  12.191  28.255  0.00  0.00    +0.001 C 
BRANCH  19  20
ATOM     20  C   UNL     1      -5.248  11.938  26.896  0.00  0.00    +0.011 C 
BRANCH  20  21
ATOM     21  C   UNL     1      -3.768  12.312  26.897  0.00  0.00    +0.120 C 
BRANCH  21  22
ATOM     22  C   UNL     1      -3.180  12.245  25.507  0.00  0.00    +0.305 C 
ATOM     23  O   UNL     1      -2.031  11.931  25.238  0.00  0.00    -0.251 OA
BRANCH  22  24
ATOM     24  O   UNL     1      -4.077  12.579  24.551  0.00  0.00    -0.481 OA
ATOM     25  H   UNL     1      -4.964  12.198  24.696  0.00  0.00    +0.295 HD
ENDBRANCH  22  24
ENDBRANCH  21  22
ENDBRANCH  20  21
ENDBRANCH  19  20
ENDBRANCH  18  19
ENDBRANCH  17  18
ENDBRANCH  16  17
ENDBRANCH  15  16
ENDBRANCH  14  15
ENDBRANCH  13  14
ENDBRANCH  12  13
ENDBRANCH  10  12
ENDBRANCH   6   8
ENDBRANCH   5   6
ENDBRANCH   1   5
BRANCH   3  26
ATOM     26  C   UNL     1      -4.299   8.006  25.377  0.00  0.00    +0.141 C 
BRANCH  26  27
ATOM     27  C   UNL     1      -4.536   9.141  24.385  0.00  0.00    +0.163 C 
BRANCH  27  28
ATOM     28  O   UNL     1      -3.278   9.647  23.908  0.00  0.00    -0.388 OA
ATOM     29  H   UNL     1      -2.622   8.945  23.927  0.00  0.00    +0.210 HD
ENDBRANCH  27  28
BRANCH  27  30
ATOM     30  C   UNL     1      -5.402   8.632  23.220  0.00  0.00    +0.175 C 
BRANCH  30  31
ATOM     31  C   UNL     1      -5.364   9.583  22.014  0.00  0.00    +0.176 C 
ATOM     32  O   UNL     1      -5.543  10.939  22.508  0.00  0.00    -0.332 OA
ATOM     33  C   UNL     1      -5.430  12.000  21.503  0.00  0.00    +0.277 C 
ATOM     34  C   UNL     1      -6.403  11.739  20.328  0.00  0.00    +0.110 C 
ATOM     35  C   UNL     1      -6.272  10.298  19.789  0.00  0.00    +0.143 C 
ATOM     36  C   UNL     1      -6.403   9.276  20.919  0.00  0.00    +0.133 C 
BRANCH  36  37
ATOM     37  N   UNL     1      -6.190   7.913  20.408  0.00  0.00    -0.308 N 
ATOM     38  H   UNL     1      -5.263   7.669  20.088  0.00  0.00    +0.149 HD
ATOM     39  C   UNL     1      -7.141   6.978  20.338  0.00  0.00    +0.210 C 
ATOM     40  C   UNL     1      -8.549   7.390  20.808  0.00  0.00    +0.109 C 
ATOM     41  O   UNL     1      -6.930   5.839  19.918  0.00  0.00    -0.276 OA
ENDBRANCH  36  37
BRANCH  33  42
ATOM     42  C   UNL     1      -3.986  12.093  20.966  0.00  0.00    +0.414 C 
ATOM     43  O   UNL     1      -3.031  11.962  21.730  0.00  0.00    -0.240 OA
ATOM     44  O   UNL     1      -3.778  12.297  19.770  0.00  0.00    -0.240 OA
ENDBRANCH  33  42
BRANCH  35  45
ATOM     45  O   UNL     1      -7.287  10.054  18.814  0.00  0.00    -0.390 OA
ATOM     46  H   UNL     1      -7.045   9.292  18.284  0.00  0.00    +0.210 HD
ENDBRANCH  35  45
BRANCH  33  47
ATOM     47  O   UNL     1      -5.798  13.255  22.132  0.00  0.00    -0.343 OA
ATOM     48  C   UNL     1      -7.019  13.213  22.913  0.00  0.00    +0.198 C 
ENDBRANCH  33  47
ENDBRANCH  30  31
BRANCH  30  49
ATOM     49  O   UNL     1      -6.761   8.439  23.658  0.00  0.00    -0.387 OA
ATOM     50  H   UNL     1      -6.874   7.537  23.965  0.00  0.00    +0.210 HD
ENDBRANCH  30  49
ENDBRANCH  27  30
ENDBRANCH  26  27
ENDBRANCH   3  26
TORSDOF 25
