REMARK VINA RESULT:    -3.918      5.145     11.180
REMARK INTER + INTRA:         -11.278
REMARK INTER:                  -8.373
REMARK INTRA:                  -2.905
REMARK UNBOUND:                -3.581
REMARK  Name = lig_assembled_31.pdb
REMARK  20 active torsions:
REMARK  status: ('A' for Active; 'I' for Inactive)
REMARK    1  A    between atoms: _2  and  _11
REMARK    2  A    between atoms: _3  and  _12
REMARK    3  A    between atoms: _4  and  _14
REMARK    4  A    between atoms: _6  and  _24
REMARK    5  A    between atoms: _8  and  _9
REMARK    6  A    between atoms: _8  and  _24
REMARK    7  A    between atoms: _11  and  _12
REMARK    8  A    between atoms: _14  and  _15
REMARK    9  A    between atoms: _20  and  _40
REMARK   10  A    between atoms: _22  and  _28
REMARK   11  A    between atoms: _23  and  _27
REMARK   12  A    between atoms: _27  and  _28
REMARK   13  A    between atoms: _30  and  _31
REMARK   14  A    between atoms: _32  and  _33
REMARK   15  A    between atoms: _34  and  _36
REMARK   16  A    between atoms: _36  and  _37
REMARK   17  A    between atoms: _36  and  _38
REMARK   18  A    between atoms: _38  and  _39
REMARK   19  A    between atoms: _38  and  _40
REMARK   20  A    between atoms: _41  and  _43
REMARK                            x       y       z     vdW  Elec       q    Type
REMARK                         _______ _______ _______ _____ _____    ______ ____
ROOT
ATOM      1  C   UNL     1      -4.153  12.422  21.444  0.00  0.00    +0.401 C 
ATOM      2  O   UNL     1      -5.271  12.857  21.728  0.00  0.00    -0.226 OA
ATOM      3  N   UNL     1      -3.080  12.557  22.224  0.00  0.00    -0.279 N 
ATOM      4  H   UNL     1      -2.207  12.157  21.909  0.00  0.00    +0.152 HD
ENDROOT
BRANCH   1   5
ATOM      5  O   UNL     1      -3.973  11.722  20.210  0.00  0.00    -0.444 OA
BRANCH   5   6
ATOM      6  C   UNL     1      -5.215  11.143  19.803  0.00  0.00    +0.292 C 
BRANCH   6   8
ATOM      7  N   UNL     1      -5.827  12.032  17.575  0.00  0.00    -0.131 NA
ATOM      8  C   UNL     1      -5.276  11.033  18.332  0.00  0.00    +0.120 A 
ATOM      9  C   UNL     1      -4.843  10.025  17.499  0.00  0.00    +0.137 A 
ATOM     10  N   UNL     1      -5.170  10.468  16.252  0.00  0.00    -0.250 N 
ATOM     11  N   UNL     1      -5.755  11.676  16.299  0.00  0.00    -0.065 NA
BRANCH  10  12
ATOM     12  C   UNL     1      -4.962   9.802  14.983  0.00  0.00    +0.164 C 
BRANCH  12  13
ATOM     13  C   UNL     1      -3.601  10.140  14.396  0.00  0.00    +0.129 C 
BRANCH  13  14
ATOM     14  N   UNL     1      -3.116  11.478  14.711  0.00  0.00    -0.298 N 
ATOM     15  H   UNL     1      -2.991  11.768  15.670  0.00  0.00    +0.150 HD
ATOM     16  C   UNL     1      -3.242  12.455  13.760  0.00  0.00    +0.300 C 
ATOM     17  O   UNL     1      -3.652  12.229  12.624  0.00  0.00    -0.253 OA
ATOM     18  N   UNL     1      -2.849  13.692  14.169  0.00  0.00    -0.292 N 
ATOM     19  H   UNL     1      -2.552  13.886  15.115  0.00  0.00    +0.151 HD
BRANCH  18  20
ATOM     20  C   UNL     1      -2.937  14.790  13.235  0.00  0.00    +0.180 C 
BRANCH  20  21
ATOM     21  C   UNL     1      -1.664  15.059  12.521  0.00  0.00    +0.122 A 
ATOM     22  O   UNL     1      -0.788  14.029  12.314  0.00  0.00    -0.466 OA
ATOM     23  C   UNL     1       0.278  14.550  11.645  0.00  0.00    +0.195 A 
ATOM     24  C   UNL     1       0.103  15.895  11.421  0.00  0.00    +0.041 A 
ATOM     25  C   UNL     1      -1.150  16.226  11.986  0.00  0.00    +0.046 A 
ENDBRANCH  20  21
ENDBRANCH  18  20
ENDBRANCH  13  14
ENDBRANCH  12  13
ENDBRANCH  10  12
ENDBRANCH   6   8
ENDBRANCH   5   6
ENDBRANCH   1   5
BRANCH   3  26
ATOM     26  C   UNL     1      -3.095  13.256  23.515  0.00  0.00    +0.141 C 
BRANCH  26  27
ATOM     27  C   UNL     1      -3.259  12.288  24.683  0.00  0.00    +0.163 C 
BRANCH  27  28
ATOM     28  O   UNL     1      -2.069  12.282  25.487  0.00  0.00    -0.388 OA
ATOM     29  H   UNL     1      -2.308  12.198  26.414  0.00  0.00    +0.210 HD
ENDBRANCH  27  28
BRANCH  27  30
ATOM     30  C   UNL     1      -4.486  12.694  25.518  0.00  0.00    +0.175 C 
BRANCH  30  31
ATOM     31  C   UNL     1      -4.912  11.588  26.494  0.00  0.00    +0.176 C 
ATOM     32  O   UNL     1      -3.944  11.550  27.579  0.00  0.00    -0.332 OA
ATOM     33  C   UNL     1      -4.249  10.618  28.668  0.00  0.00    +0.277 C 
ATOM     34  C   UNL     1      -4.468   9.189  28.112  0.00  0.00    +0.110 C 
ATOM     35  C   UNL     1      -5.467   9.183  26.935  0.00  0.00    +0.143 C 
ATOM     36  C   UNL     1      -5.055  10.191  25.862  0.00  0.00    +0.133 C 
BRANCH  36  37
ATOM     37  N   UNL     1      -6.060  10.238  24.788  0.00  0.00    -0.308 N 
ATOM     38  H   UNL     1      -6.971  10.615  25.010  0.00  0.00    +0.149 HD
ATOM     39  C   UNL     1      -5.847   9.816  23.538  0.00  0.00    +0.210 C 
ATOM     40  C   UNL     1      -4.457   9.224  23.238  0.00  0.00    +0.109 C 
ATOM     41  O   UNL     1      -6.702   9.882  22.655  0.00  0.00    -0.276 OA
ENDBRANCH  36  37
BRANCH  33  42
ATOM     42  C   UNL     1      -5.506  11.069  29.439  0.00  0.00    +0.414 C 
ATOM     43  O   UNL     1      -5.651  12.251  29.752  0.00  0.00    -0.240 OA
ATOM     44  O   UNL     1      -6.376  10.254  29.748  0.00  0.00    -0.240 OA
ENDBRANCH  33  42
BRANCH  35  45
ATOM     45  O   UNL     1      -5.523   7.878  26.359  0.00  0.00    -0.390 OA
ATOM     46  H   UNL     1      -5.936   7.927  25.493  0.00  0.00    +0.210 HD
ENDBRANCH  35  45
BRANCH  33  47
ATOM     47  O   UNL     1      -3.110  10.589  29.566  0.00  0.00    -0.343 OA
ATOM     48  C   UNL     1      -3.049   9.435  30.442  0.00  0.00    +0.198 C 
ENDBRANCH  33  47
ENDBRANCH  30  31
BRANCH  30  49
ATOM     49  O   UNL     1      -5.583  13.043  24.652  0.00  0.00    -0.387 OA
ATOM     50  H   UNL     1      -5.653  13.999  24.592  0.00  0.00    +0.210 HD
ENDBRANCH  30  49
ENDBRANCH  27  30
ENDBRANCH  26  27
ENDBRANCH   3  26
TORSDOF 18
