REMARK VINA RESULT:    -4.645      2.796      5.049
REMARK INTER + INTRA:         -11.181
REMARK INTER:                  -8.297
REMARK INTRA:                  -2.883
REMARK UNBOUND:                -2.598
REMARK  Name = lig_assembled_67.pdb
REMARK  18 active torsions:
REMARK  status: ('A' for Active; 'I' for Inactive)
REMARK    1  A    between atoms: _2  and  _9
REMARK    2  A    between atoms: _4  and  _19
REMARK    3  A    between atoms: _6  and  _7
REMARK    4  A    between atoms: _6  and  _19
REMARK    5  A    between atoms: _9  and  _10
REMARK    6  A    between atoms: _10  and  _11
REMARK    7  A    between atoms: _15  and  _35
REMARK    8  A    between atoms: _17  and  _23
REMARK    9  A    between atoms: _18  and  _22
REMARK   10  A    between atoms: _22  and  _23
REMARK   11  A    between atoms: _25  and  _26
REMARK   12  A    between atoms: _27  and  _28
REMARK   13  A    between atoms: _29  and  _31
REMARK   14  A    between atoms: _31  and  _32
REMARK   15  A    between atoms: _31  and  _33
REMARK   16  A    between atoms: _33  and  _34
REMARK   17  A    between atoms: _33  and  _35
REMARK   18  A    between atoms: _36  and  _38
REMARK                            x       y       z     vdW  Elec       q    Type
REMARK                         _______ _______ _______ _____ _____    ______ ____
ROOT
ATOM      1  C   UNL     1      -2.784  11.140  22.623  0.00  0.00    +0.163 C 
ENDROOT
BRANCH   1   2
ATOM      2  O   UNL     1      -2.749  12.071  21.530  0.00  0.00    -0.388 OA
ATOM      3  H   UNL     1      -3.577  12.028  21.045  0.00  0.00    +0.210 HD
ENDBRANCH   1   2
BRANCH   1   4
ATOM      4  C   UNL     1      -3.127  11.853  23.942  0.00  0.00    +0.175 C 
BRANCH   4   5
ATOM      5  C   UNL     1      -4.406  12.695  23.828  0.00  0.00    +0.176 C 
ATOM      6  O   UNL     1      -4.056  13.956  23.195  0.00  0.00    -0.332 OA
ATOM      7  C   UNL     1      -5.178  14.854  22.905  0.00  0.00    +0.277 C 
ATOM      8  C   UNL     1      -6.000  15.124  24.190  0.00  0.00    +0.110 C 
ATOM      9  C   UNL     1      -6.369  13.813  24.916  0.00  0.00    +0.143 C 
ATOM     10  C   UNL     1      -5.128  12.955  25.164  0.00  0.00    +0.133 C 
BRANCH  10  11
ATOM     11  N   UNL     1      -5.503  11.672  25.778  0.00  0.00    -0.308 N 
ATOM     12  H   UNL     1      -6.236  11.135  25.337  0.00  0.00    +0.149 HD
ATOM     13  C   UNL     1      -4.937  11.170  26.879  0.00  0.00    +0.210 C 
ATOM     14  C   UNL     1      -3.840  12.025  27.541  0.00  0.00    +0.109 C 
ATOM     15  O   UNL     1      -5.262  10.085  27.363  0.00  0.00    -0.276 OA
ENDBRANCH  10  11
BRANCH   7  16
ATOM     16  C   UNL     1      -6.097  14.249  21.823  0.00  0.00    +0.414 C 
ATOM     17  O   UNL     1      -5.661  13.407  21.040  0.00  0.00    -0.240 OA
ATOM     18  O   UNL     1      -7.274  14.604  21.734  0.00  0.00    -0.240 OA
ENDBRANCH   7  16
BRANCH   9  19
ATOM     19  O   UNL     1      -6.990  14.114  26.166  0.00  0.00    -0.390 OA
ATOM     20  H   UNL     1      -7.421  13.327  26.508  0.00  0.00    +0.210 HD
ENDBRANCH   9  19
BRANCH   7  21
ATOM     21  O   UNL     1      -4.635  16.115  22.436  0.00  0.00    -0.343 OA
ATOM     22  C   UNL     1      -5.360  17.293  22.871  0.00  0.00    +0.198 C 
ENDBRANCH   7  21
ENDBRANCH   4   5
BRANCH   4  23
ATOM     23  O   UNL     1      -2.023  12.680  24.361  0.00  0.00    -0.387 OA
ATOM     24  H   UNL     1      -1.704  13.191  23.614  0.00  0.00    +0.210 HD
ENDBRANCH   4  23
ENDBRANCH   1   4
BRANCH   1  25
ATOM     25  C   UNL     1      -3.817  10.052  22.349  0.00  0.00    +0.141 C 
BRANCH  25  28
ATOM     26  C   UNL     1      -4.152   7.894  23.505  0.00  0.00    +0.401 C 
ATOM     27  O   UNL     1      -4.037   7.219  22.479  0.00  0.00    -0.226 OA
ATOM     28  N   UNL     1      -4.070   9.224  23.535  0.00  0.00    -0.279 N 
ATOM     29  H   UNL     1      -4.187   9.690  24.424  0.00  0.00    +0.152 HD
BRANCH  26  30
ATOM     30  O   UNL     1      -4.393   7.231  24.749  0.00  0.00    -0.444 OA
BRANCH  30  31
ATOM     31  C   UNL     1      -3.160   6.723  25.267  0.00  0.00    +0.292 C 
BRANCH  31  33
ATOM     32  N   UNL     1      -1.843   8.354  26.581  0.00  0.00    -0.131 NA
ATOM     33  C   UNL     1      -2.820   7.393  26.536  0.00  0.00    +0.120 A 
ATOM     34  C   UNL     1      -3.340   7.223  27.798  0.00  0.00    +0.137 A 
ATOM     35  N   UNL     1      -2.639   8.103  28.565  0.00  0.00    -0.251 N 
ATOM     36  N   UNL     1      -1.740   8.780  27.833  0.00  0.00    -0.065 NA
BRANCH  35  37
ATOM     37  C   UNL     1      -2.776   8.364  29.980  0.00  0.00    +0.150 C 
BRANCH  37  38
ATOM     38  C   UNL     1      -2.647   9.841  30.346  0.00  0.00    +0.084 C 
BRANCH  38  39
ATOM     39  C   UNL     1      -3.790  10.324  31.227  0.00  0.00    +0.252 C 
ATOM     40  O   UNL     1      -4.045  11.712  30.989  0.00  0.00    -0.349 OA
ATOM     41  C   UNL     1      -5.437  11.840  31.273  0.00  0.00    +0.191 C 
ATOM     42  C   UNL     1      -6.014  10.541  30.773  0.00  0.00    +0.191 C 
ATOM     43  O   UNL     1      -4.979   9.574  30.960  0.00  0.00    -0.349 OA
ENDBRANCH  38  39
ENDBRANCH  37  38
ENDBRANCH  35  37
ENDBRANCH  31  33
ENDBRANCH  30  31
ENDBRANCH  26  30
ENDBRANCH  25  28
ENDBRANCH   1  25
TORSDOF 16
