REMARK VINA RESULT:    -4.843      4.529      8.414
REMARK INTER + INTRA:         -11.169
REMARK INTER:                  -8.860
REMARK INTRA:                  -2.309
REMARK UNBOUND:                -2.363
REMARK  Name = lig_assembled_59.pdb
REMARK  18 active torsions:
REMARK  status: ('A' for Active; 'I' for Inactive)
REMARK    1  A    between atoms: _2  and  _10
REMARK    2  A    between atoms: _5  and  _20
REMARK    3  A    between atoms: _7  and  _8
REMARK    4  A    between atoms: _7  and  _20
REMARK    5  A    between atoms: _13  and  _14
REMARK    6  A    between atoms: _14  and  _15
REMARK    7  A    between atoms: _16  and  _36
REMARK    8  A    between atoms: _18  and  _24
REMARK    9  A    between atoms: _19  and  _23
REMARK   10  A    between atoms: _23  and  _24
REMARK   11  A    between atoms: _26  and  _27
REMARK   12  A    between atoms: _28  and  _29
REMARK   13  A    between atoms: _30  and  _32
REMARK   14  A    between atoms: _32  and  _33
REMARK   15  A    between atoms: _32  and  _34
REMARK   16  A    between atoms: _34  and  _35
REMARK   17  A    between atoms: _34  and  _36
REMARK   18  A    between atoms: _37  and  _39
REMARK                            x       y       z     vdW  Elec       q    Type
REMARK                         _______ _______ _______ _____ _____    ______ ____
ROOT
ATOM      1  C   UNL     1      -2.981  12.479  23.276  0.00  0.00    +0.163 C 
ENDROOT
BRANCH   1   2
ATOM      2  O   UNL     1      -2.640  12.990  24.575  0.00  0.00    -0.388 OA
ATOM      3  H   UNL     1      -2.555  13.945  24.531  0.00  0.00    +0.210 HD
ENDBRANCH   1   2
BRANCH   1   4
ATOM      4  C   UNL     1      -3.661  11.103  23.387  0.00  0.00    +0.175 C 
BRANCH   4   5
ATOM      5  C   UNL     1      -3.691  10.589  24.833  0.00  0.00    +0.176 C 
ATOM      6  O   UNL     1      -3.219   9.213  24.829  0.00  0.00    -0.332 OA
ATOM      7  C   UNL     1      -3.079   8.587  26.146  0.00  0.00    +0.277 C 
ATOM      8  C   UNL     1      -4.408   8.681  26.935  0.00  0.00    +0.110 C 
ATOM      9  C   UNL     1      -4.966  10.119  26.940  0.00  0.00    +0.143 C 
ATOM     10  C   UNL     1      -5.068  10.674  25.519  0.00  0.00    +0.133 C 
BRANCH  10  11
ATOM     11  N   UNL     1      -5.518  12.075  25.544  0.00  0.00    -0.308 N 
ATOM     12  H   UNL     1      -4.939  12.748  26.026  0.00  0.00    +0.149 HD
ATOM     13  C   UNL     1      -6.641  12.515  24.970  0.00  0.00    +0.210 C 
ATOM     14  C   UNL     1      -7.514  11.460  24.265  0.00  0.00    +0.109 C 
ATOM     15  O   UNL     1      -6.986  13.697  24.994  0.00  0.00    -0.276 OA
ENDBRANCH  10  11
BRANCH   7  16
ATOM     16  C   UNL     1      -1.951   9.261  26.955  0.00  0.00    +0.414 C 
ATOM     17  O   UNL     1      -1.979   9.251  28.185  0.00  0.00    -0.240 OA
ATOM     18  O   UNL     1      -1.014   9.814  26.378  0.00  0.00    -0.240 OA
ENDBRANCH   7  16
BRANCH   7  19
ATOM     19  O   UNL     1      -2.764   7.185  25.945  0.00  0.00    -0.343 OA
ATOM     20  C   UNL     1      -3.606   6.257  26.676  0.00  0.00    +0.198 C 
ENDBRANCH   7  19
BRANCH   9  21
ATOM     21  O   UNL     1      -6.261  10.131  27.544  0.00  0.00    -0.390 OA
ATOM     22  H   UNL     1      -6.259  10.730  28.294  0.00  0.00    +0.210 HD
ENDBRANCH   9  21
ENDBRANCH   4   5
BRANCH   4  23
ATOM     23  O   UNL     1      -2.996  10.150  22.534  0.00  0.00    -0.387 OA
ATOM     24  H   UNL     1      -3.019   9.282  22.944  0.00  0.00    +0.210 HD
ENDBRANCH   4  23
ENDBRANCH   1   4
BRANCH   1  25
ATOM     25  C   UNL     1      -3.913  13.451  22.560  0.00  0.00    +0.141 C 
BRANCH  25  28
ATOM     26  C   UNL     1      -6.036  13.253  21.312  0.00  0.00    +0.401 C 
ATOM     27  O   UNL     1      -6.474  14.339  21.698  0.00  0.00    -0.226 OA
ATOM     28  N   UNL     1      -4.851  12.757  21.670  0.00  0.00    -0.279 N 
ATOM     29  H   UNL     1      -4.584  11.852  21.309  0.00  0.00    +0.152 HD
BRANCH  26  30
ATOM     30  O   UNL     1      -6.832  12.457  20.430  0.00  0.00    -0.444 OA
BRANCH  30  31
ATOM     31  C   UNL     1      -6.508  11.076  20.609  0.00  0.00    +0.292 C 
BRANCH  31  33
ATOM     32  N   UNL     1      -5.363   9.264  19.379  0.00  0.00    -0.131 NA
ATOM     33  C   UNL     1      -5.790  10.562  19.428  0.00  0.00    +0.121 A 
ATOM     34  C   UNL     1      -5.433  11.198  18.261  0.00  0.00    +0.145 A 
ATOM     35  N   UNL     1      -4.783  10.236  17.521  0.00  0.00    -0.202 N 
ATOM     36  N   UNL     1      -4.755   9.071  18.216  0.00  0.00    -0.059 NA
BRANCH  35  37
ATOM     37  C   UNL     1      -4.199  10.387  16.234  0.00  0.00    +0.156 A 
ATOM     38  C   UNL     1      -4.224  11.638  15.620  0.00  0.00    +0.048 A 
ATOM     39  C   UNL     1      -3.687  11.768  14.341  0.00  0.00    +0.011 A 
ATOM     40  C   UNL     1      -3.131  10.658  13.701  0.00  0.00    -0.004 A 
ATOM     41  C   UNL     1      -3.150   9.450  14.392  0.00  0.00    +0.119 A 
ATOM     42  N   UNL     1      -3.657   9.289  15.637  0.00  0.00    -0.236 NA
BRANCH  40  43
ATOM     43  C   UNL     1      -2.633  10.756  12.289  0.00  0.00    +0.192 C 
BRANCH  43  44
ATOM     44  O   UNL     1      -1.613  11.736  12.167  0.00  0.00    -0.390 OA
ATOM     45  H   UNL     1      -1.957  12.431  11.578  0.00  0.00    +0.210 HD
ENDBRANCH  43  44
ENDBRANCH  40  43
ENDBRANCH  35  37
ENDBRANCH  31  33
ENDBRANCH  30  31
ENDBRANCH  26  30
ENDBRANCH  25  28
ENDBRANCH   1  25
TORSDOF 16
