REMARK VINA RESULT:    -5.500      3.102     10.678
REMARK INTER + INTRA:         -14.679
REMARK INTER:                 -11.287
REMARK INTRA:                  -3.392
REMARK UNBOUND:                -3.392
REMARK  Name = lig_assembled_47.pdb
REMARK  22 active torsions:
REMARK  status: ('A' for Active; 'I' for Inactive)
REMARK    1  A    between atoms: _2  and  _9
REMARK    2  A    between atoms: _4  and  _30
REMARK    3  A    between atoms: _6  and  _7
REMARK    4  A    between atoms: _6  and  _30
REMARK    5  A    between atoms: _9  and  _10
REMARK    6  A    between atoms: _10  and  _11
REMARK    7  A    between atoms: _10  and  _12
REMARK    8  A    between atoms: _11  and  _24
REMARK    9  A    between atoms: _12  and  _13
REMARK   10  A    between atoms: _12  and  _19
REMARK   11  A    between atoms: _26  and  _46
REMARK   12  A    between atoms: _28  and  _34
REMARK   13  A    between atoms: _29  and  _33
REMARK   14  A    between atoms: _33  and  _34
REMARK   15  A    between atoms: _36  and  _37
REMARK   16  A    between atoms: _38  and  _39
REMARK   17  A    between atoms: _40  and  _42
REMARK   18  A    between atoms: _42  and  _43
REMARK   19  A    between atoms: _42  and  _44
REMARK   20  A    between atoms: _44  and  _45
REMARK   21  A    between atoms: _44  and  _46
REMARK   22  A    between atoms: _47  and  _49
REMARK                            x       y       z     vdW  Elec       q    Type
REMARK                         _______ _______ _______ _____ _____    ______ ____
ROOT
ATOM      1  C   UNL     1      -6.109  12.688  21.035  0.00  0.00    +0.401 C 
ATOM      2  O   UNL     1      -7.235  12.362  21.418  0.00  0.00    -0.226 OA
ATOM      3  N   UNL     1      -5.535  12.223  19.924  0.00  0.00    -0.279 N 
ATOM      4  H   UNL     1      -4.611  12.558  19.689  0.00  0.00    +0.152 HD
ENDROOT
BRANCH   3   5
ATOM      5  C   UNL     1      -6.170  11.252  19.025  0.00  0.00    +0.141 C 
BRANCH   5   6
ATOM      6  C   UNL     1      -5.196  10.165  18.583  0.00  0.00    +0.163 C 
BRANCH   6   7
ATOM      7  O   UNL     1      -4.716   9.441  19.727  0.00  0.00    -0.388 OA
ATOM      8  H   UNL     1      -5.151   9.766  20.519  0.00  0.00    +0.210 HD
ENDBRANCH   6   7
BRANCH   6   9
ATOM      9  C   UNL     1      -5.896   9.222  17.589  0.00  0.00    +0.175 C 
BRANCH   9  10
ATOM     10  C   UNL     1      -4.943   8.732  16.489  0.00  0.00    +0.176 C 
ATOM     11  O   UNL     1      -4.032   7.767  17.083  0.00  0.00    -0.332 OA
ATOM     12  C   UNL     1      -3.111   7.108  16.153  0.00  0.00    +0.277 C 
ATOM     13  C   UNL     1      -2.307   8.161  15.351  0.00  0.00    +0.110 C 
ATOM     14  C   UNL     1      -3.231   9.228  14.726  0.00  0.00    +0.143 C 
ATOM     15  C   UNL     1      -4.148   9.845  15.781  0.00  0.00    +0.133 C 
BRANCH  15  16
ATOM     16  N   UNL     1      -5.083  10.797  15.159  0.00  0.00    -0.308 N 
ATOM     17  H   UNL     1      -5.795  10.425  14.546  0.00  0.00    +0.149 HD
ATOM     18  C   UNL     1      -5.051  12.118  15.351  0.00  0.00    +0.210 C 
ATOM     19  C   UNL     1      -3.937  12.655  16.270  0.00  0.00    +0.109 C 
ATOM     20  O   UNL     1      -5.856  12.889  14.828  0.00  0.00    -0.276 OA
ENDBRANCH  15  16
BRANCH  12  21
ATOM     21  C   UNL     1      -3.879   6.194  15.177  0.00  0.00    +0.414 C 
ATOM     22  O   UNL     1      -3.576   6.165  13.985  0.00  0.00    -0.240 OA
ATOM     23  O   UNL     1      -4.802   5.485  15.581  0.00  0.00    -0.240 OA
ENDBRANCH  12  21
BRANCH  12  24
ATOM     24  O   UNL     1      -2.177   6.316  16.931  0.00  0.00    -0.343 OA
ATOM     25  C   UNL     1      -0.813   6.317  16.439  0.00  0.00    +0.198 C 
ENDBRANCH  12  24
BRANCH  14  26
ATOM     26  O   UNL     1      -2.442  10.257  14.127  0.00  0.00    -0.390 OA
ATOM     27  H   UNL     1      -2.684  10.349  13.203  0.00  0.00    +0.210 HD
ENDBRANCH  14  26
ENDBRANCH   9  10
BRANCH   9  28
ATOM     28  O   UNL     1      -7.037   9.878  17.001  0.00  0.00    -0.387 OA
ATOM     29  H   UNL     1      -7.553  10.302  17.691  0.00  0.00    +0.210 HD
ENDBRANCH   9  28
ENDBRANCH   6   9
ENDBRANCH   5   6
ENDBRANCH   3   5
BRANCH   1  30
ATOM     30  O   UNL     1      -5.355  13.624  21.811  0.00  0.00    -0.444 OA
BRANCH  30  31
ATOM     31  C   UNL     1      -3.963  13.315  21.712  0.00  0.00    +0.292 C 
BRANCH  31  33
ATOM     32  N   UNL     1      -3.161  11.282  22.890  0.00  0.00    -0.131 NA
ATOM     33  C   UNL     1      -3.487  12.613  22.921  0.00  0.00    +0.120 A 
ATOM     34  C   UNL     1      -3.317  13.084  24.204  0.00  0.00    +0.137 A 
ATOM     35  N   UNL     1      -2.935  11.984  24.914  0.00  0.00    -0.251 N 
ATOM     36  N   UNL     1      -2.822  10.908  24.117  0.00  0.00    -0.065 NA
BRANCH  35  37
ATOM     37  C   UNL     1      -2.809  11.846  26.358  0.00  0.00    +0.160 C 
BRANCH  37  38
ATOM     38  C   UNL     1      -3.235  10.475  26.891  0.00  0.00    +0.131 C 
BRANCH  38  39
ATOM     39  C   UNL     1      -1.985   9.779  27.414  0.00  0.00    +0.311 C 
ATOM     40  O   UNL     1      -1.976   9.115  28.439  0.00  0.00    -0.251 OA
BRANCH  39  41
ATOM     41  O   UNL     1      -0.887   9.832  26.632  0.00  0.00    -0.480 OA
ATOM     42  H   UNL     1      -0.497  10.698  26.431  0.00  0.00    +0.295 HD
ENDBRANCH  39  41
ENDBRANCH  38  39
BRANCH  38  43
ATOM     43  C   UNL     1      -4.371  10.516  27.961  0.00  0.00    +0.064 C 
BRANCH  43  44
ATOM     44  C   UNL     1      -4.561  11.854  28.678  0.00  0.00    -0.039 A 
ATOM     45  C   UNL     1      -3.788  12.152  29.818  0.00  0.00    +0.004 A 
ATOM     46  C   UNL     1      -3.937  13.366  30.496  0.00  0.00    +0.000 A 
ATOM     47  C   UNL     1      -4.873  14.299  30.060  0.00  0.00    +0.000 A 
ATOM     48  C   UNL     1      -5.659  14.015  28.947  0.00  0.00    +0.000 A 
ATOM     49  C   UNL     1      -5.498  12.809  28.256  0.00  0.00    +0.004 A 
ENDBRANCH  43  44
BRANCH  43  50
ATOM     50  C   UNL     1      -5.675   9.962  27.372  0.00  0.00    -0.039 A 
ATOM     51  C   UNL     1      -5.877   9.948  25.982  0.00  0.00    +0.004 A 
ATOM     52  C   UNL     1      -7.124   9.607  25.449  0.00  0.00    +0.000 A 
ATOM     53  C   UNL     1      -8.175   9.252  26.292  0.00  0.00    +0.000 A 
ATOM     54  C   UNL     1      -7.980   9.225  27.667  0.00  0.00    +0.000 A 
ATOM     55  C   UNL     1      -6.742   9.577  28.202  0.00  0.00    +0.004 A 
ENDBRANCH  43  50
ENDBRANCH  38  43
ENDBRANCH  37  38
ENDBRANCH  35  37
ENDBRANCH  31  33
ENDBRANCH  30  31
ENDBRANCH   1  30
TORSDOF 20
