REMARK VINA RESULT:    -5.324      2.809      4.313
REMARK INTER + INTRA:         -11.972
REMARK INTER:                  -8.410
REMARK INTRA:                  -3.562
REMARK UNBOUND:                -2.447
REMARK  Name = lig_assembled_85.pdb
REMARK  19 active torsions:
REMARK  status: ('A' for Active; 'I' for Inactive)
REMARK    1  A    between atoms: _2  and  _10
REMARK    2  A    between atoms: _3  and  _6
REMARK    3  A    between atoms: _3  and  _17
REMARK    4  A    between atoms: _5  and  _23
REMARK    5  A    between atoms: _7  and  _8
REMARK    6  A    between atoms: _7  and  _23
REMARK    7  A    between atoms: _15  and  _16
REMARK    8  A    between atoms: _19  and  _39
REMARK    9  A    between atoms: _21  and  _27
REMARK   10  A    between atoms: _22  and  _26
REMARK   11  A    between atoms: _26  and  _27
REMARK   12  A    between atoms: _29  and  _30
REMARK   13  A    between atoms: _31  and  _32
REMARK   14  A    between atoms: _33  and  _35
REMARK   15  A    between atoms: _35  and  _36
REMARK   16  A    between atoms: _35  and  _37
REMARK   17  A    between atoms: _37  and  _38
REMARK   18  A    between atoms: _37  and  _39
REMARK   19  A    between atoms: _40  and  _42
REMARK                            x       y       z     vdW  Elec       q    Type
REMARK                         _______ _______ _______ _____ _____    ______ ____
ROOT
ATOM      1  C   UNL     1      -3.010  13.168  24.353  0.00  0.00    +0.141 C 
ENDROOT
BRANCH   1   4
ATOM      2  C   UNL     1      -4.246  13.951  22.362  0.00  0.00    +0.401 C 
ATOM      3  O   UNL     1      -3.239  14.363  21.782  0.00  0.00    -0.226 OA
ATOM      4  N   UNL     1      -4.232  13.385  23.569  0.00  0.00    -0.279 N 
ATOM      5  H   UNL     1      -5.112  13.087  23.966  0.00  0.00    +0.152 HD
BRANCH   2   6
ATOM      6  O   UNL     1      -5.518  14.082  21.722  0.00  0.00    -0.444 OA
BRANCH   6   7
ATOM      7  C   UNL     1      -6.117  12.791  21.580  0.00  0.00    +0.292 C 
BRANCH   7   9
ATOM      8  N   UNL     1      -7.289  12.584  19.417  0.00  0.00    -0.131 NA
ATOM      9  C   UNL     1      -6.158  12.402  20.159  0.00  0.00    +0.121 A 
ATOM     10  C   UNL     1      -5.163  11.890  19.357  0.00  0.00    +0.143 A 
ATOM     11  N   UNL     1      -5.741  11.778  18.117  0.00  0.00    -0.219 N 
ATOM     12  N   UNL     1      -7.017  12.227  18.170  0.00  0.00    -0.060 NA
BRANCH  11  13
ATOM     13  C   UNL     1      -5.168  11.379  16.890  0.00  0.00    +0.080 A 
ATOM     14  C   UNL     1      -4.932  10.044  16.527  0.00  0.00    +0.062 A 
ATOM     15  C   UNL     1      -4.129   9.805  15.387  0.00  0.00    +0.016 A 
ATOM     16  C   UNL     1      -3.600  10.849  14.622  0.00  0.00    +0.021 A 
ATOM     17  C   UNL     1      -3.905  12.160  14.956  0.00  0.00    +0.043 A 
ATOM     18 CL   UNL     1      -3.236  13.458  14.047  0.00  0.00    -0.083 Cl
ATOM     19  C   UNL     1      -4.705  12.428  16.063  0.00  0.00    +0.048 A 
BRANCH  14  20
ATOM     20  C   UNL     1      -5.355   8.798  17.234  0.00  0.00    +0.248 C 
ATOM     21  O   UNL     1      -4.443   8.175  17.783  0.00  0.00    -0.270 OA
ATOM     22  N   UNL     1      -6.666   8.309  17.236  0.00  0.00    -0.304 N 
ATOM     23  C   UNL     1      -7.869   8.975  16.754  0.00  0.00    +0.132 C 
ATOM     24  C   UNL     1      -6.894   7.069  17.972  0.00  0.00    +0.132 C 
ENDBRANCH  14  20
ENDBRANCH  11  13
ENDBRANCH   7   9
ENDBRANCH   6   7
ENDBRANCH   2   6
ENDBRANCH   1   4
BRANCH   1  25
ATOM     25  C   UNL     1      -2.895  11.728  24.841  0.00  0.00    +0.163 C 
BRANCH  25  26
ATOM     26  O   UNL     1      -3.152  11.666  26.253  0.00  0.00    -0.388 OA
ATOM     27  H   UNL     1      -3.817  12.318  26.487  0.00  0.00    +0.210 HD
ENDBRANCH  25  26
BRANCH  25  28
ATOM     28  C   UNL     1      -3.881  10.841  24.062  0.00  0.00    +0.175 C 
BRANCH  28  29
ATOM     29  C   UNL     1      -4.234   9.558  24.829  0.00  0.00    +0.176 C 
ATOM     30  O   UNL     1      -2.996   8.977  25.322  0.00  0.00    -0.332 OA
ATOM     31  C   UNL     1      -3.146   7.793  26.174  0.00  0.00    +0.277 C 
ATOM     32  C   UNL     1      -3.981   6.709  25.451  0.00  0.00    +0.110 C 
ATOM     33  C   UNL     1      -5.294   7.287  24.881  0.00  0.00    +0.143 C 
ATOM     34  C   UNL     1      -5.021   8.516  24.013  0.00  0.00    +0.133 C 
BRANCH  34  35
ATOM     35  N   UNL     1      -6.285   9.108  23.548  0.00  0.00    -0.308 N 
ATOM     36  H   UNL     1      -6.907   9.498  24.242  0.00  0.00    +0.149 HD
ATOM     37  C   UNL     1      -6.664   9.165  22.268  0.00  0.00    +0.210 C 
ATOM     38  C   UNL     1      -5.706   8.539  21.237  0.00  0.00    +0.109 C 
ATOM     39  O   UNL     1      -7.722   9.681  21.906  0.00  0.00    -0.276 OA
ENDBRANCH  34  35
BRANCH  31  40
ATOM     40  C   UNL     1      -3.825   8.163  27.509  0.00  0.00    +0.414 C 
ATOM     41  O   UNL     1      -3.549   9.221  28.073  0.00  0.00    -0.240 OA
ATOM     42  O   UNL     1      -4.649   7.403  28.021  0.00  0.00    -0.240 OA
ENDBRANCH  31  40
BRANCH  33  43
ATOM     43  O   UNL     1      -5.957   6.294  24.097  0.00  0.00    -0.390 OA
ATOM     44  H   UNL     1      -5.387   6.024  23.373  0.00  0.00    +0.210 HD
ENDBRANCH  33  43
BRANCH  31  45
ATOM     45  O   UNL     1      -1.823   7.255  26.432  0.00  0.00    -0.343 OA
ATOM     46  C   UNL     1      -1.788   5.840  26.746  0.00  0.00    +0.198 C 
ENDBRANCH  31  45
ENDBRANCH  28  29
BRANCH  28  47
ATOM     47  O   UNL     1      -3.339  10.513  22.768  0.00  0.00    -0.387 OA
ATOM     48  H   UNL     1      -3.307   9.559  22.666  0.00  0.00    +0.210 HD
ENDBRANCH  28  47
ENDBRANCH  25  28
ENDBRANCH   1  25
TORSDOF 15
