REMARK VINA RESULT:    -5.133      3.300      8.409
REMARK INTER + INTRA:         -11.873
REMARK INTER:                  -7.728
REMARK INTRA:                  -4.146
REMARK UNBOUND:                -2.389
REMARK  Name = lig_assembled_92.pdb
REMARK  18 active torsions:
REMARK  status: ('A' for Active; 'I' for Inactive)
REMARK    1  A    between atoms: _2  and  _11
REMARK    2  A    between atoms: _3  and  _46
REMARK    3  A    between atoms: _6  and  _25
REMARK    4  A    between atoms: _8  and  _9
REMARK    5  A    between atoms: _8  and  _25
REMARK    6  A    between atoms: _14  and  _46
REMARK    7  A    between atoms: _21  and  _41
REMARK    8  A    between atoms: _23  and  _29
REMARK    9  A    between atoms: _24  and  _28
REMARK   10  A    between atoms: _28  and  _29
REMARK   11  A    between atoms: _31  and  _32
REMARK   12  A    between atoms: _33  and  _34
REMARK   13  A    between atoms: _35  and  _37
REMARK   14  A    between atoms: _37  and  _38
REMARK   15  A    between atoms: _37  and  _39
REMARK   16  A    between atoms: _39  and  _40
REMARK   17  A    between atoms: _39  and  _41
REMARK   18  A    between atoms: _42  and  _44
REMARK                            x       y       z     vdW  Elec       q    Type
REMARK                         _______ _______ _______ _____ _____    ______ ____
ROOT
ATOM      1  C   UNL     1      -3.073  11.996  32.968  0.00  0.00    +0.401 C 
ATOM      2  O   UNL     1      -2.019  12.357  32.438  0.00  0.00    -0.226 OA
ATOM      3  N   UNL     1      -3.578  10.766  32.860  0.00  0.00    -0.279 N 
ATOM      4  H   UNL     1      -4.444  10.563  33.339  0.00  0.00    +0.152 HD
ENDROOT
BRANCH   3   5
ATOM      5  C   UNL     1      -2.947   9.691  32.084  0.00  0.00    +0.141 C 
BRANCH   5   6
ATOM      6  C   UNL     1      -3.886   9.129  31.022  0.00  0.00    +0.163 C 
BRANCH   6   7
ATOM      7  O   UNL     1      -5.166   8.835  31.604  0.00  0.00    -0.388 OA
ATOM      8  H   UNL     1      -5.863   9.140  31.018  0.00  0.00    +0.210 HD
ENDBRANCH   6   7
BRANCH   6   9
ATOM      9  C   UNL     1      -4.024  10.141  29.872  0.00  0.00    +0.175 C 
BRANCH   9  10
ATOM     10  C   UNL     1      -4.107   9.451  28.502  0.00  0.00    +0.176 C 
ATOM     11  O   UNL     1      -3.107  10.054  27.636  0.00  0.00    -0.332 OA
ATOM     12  C   UNL     1      -2.967   9.446  26.310  0.00  0.00    +0.277 C 
ATOM     13  C   UNL     1      -4.334   9.411  25.584  0.00  0.00    +0.110 C 
ATOM     14  C   UNL     1      -5.438   8.806  26.477  0.00  0.00    +0.143 C 
ATOM     15  C   UNL     1      -5.493   9.511  27.833  0.00  0.00    +0.133 C 
BRANCH  15  16
ATOM     16  N   UNL     1      -6.488   8.870  28.707  0.00  0.00    -0.308 N 
ATOM     17  H   UNL     1      -6.298   7.932  29.030  0.00  0.00    +0.149 HD
ATOM     18  C   UNL     1      -7.627   9.447  29.101  0.00  0.00    +0.210 C 
ATOM     19  C   UNL     1      -7.900  10.867  28.571  0.00  0.00    +0.109 C 
ATOM     20  O   UNL     1      -8.435   8.891  29.845  0.00  0.00    -0.276 OA
ENDBRANCH  15  16
BRANCH  12  21
ATOM     21  C   UNL     1      -2.405   8.014  26.421  0.00  0.00    +0.414 C 
ATOM     22  O   UNL     1      -2.702   7.164  25.583  0.00  0.00    -0.240 OA
ATOM     23  O   UNL     1      -1.654   7.708  27.348  0.00  0.00    -0.240 OA
ENDBRANCH  12  21
BRANCH  14  24
ATOM     24  O   UNL     1      -6.704   8.931  25.830  0.00  0.00    -0.390 OA
ATOM     25  H   UNL     1      -6.653   8.551  24.950  0.00  0.00    +0.210 HD
ENDBRANCH  14  24
BRANCH  12  26
ATOM     26  O   UNL     1      -2.058  10.268  25.533  0.00  0.00    -0.343 OA
ATOM     27  C   UNL     1      -2.699  11.220  24.646  0.00  0.00    +0.198 C 
ENDBRANCH  12  26
ENDBRANCH   9  10
BRANCH   9  28
ATOM     28  O   UNL     1      -2.924  11.072  29.893  0.00  0.00    -0.387 OA
ATOM     29  H   UNL     1      -2.721  11.349  28.997  0.00  0.00    +0.210 HD
ENDBRANCH   9  28
ENDBRANCH   6   9
ENDBRANCH   5   6
ENDBRANCH   3   5
BRANCH   1  30
ATOM     30  O   UNL     1      -3.813  12.934  33.753  0.00  0.00    -0.444 OA
BRANCH  30  31
ATOM     31  C   UNL     1      -5.172  12.961  33.309  0.00  0.00    +0.292 C 
BRANCH  31  33
ATOM     32  N   UNL     1      -4.828  14.843  31.734  0.00  0.00    -0.131 NA
ATOM     33  C   UNL     1      -5.264  13.572  31.970  0.00  0.00    +0.121 A 
ATOM     34  C   UNL     1      -5.748  13.039  30.799  0.00  0.00    +0.143 A 
ATOM     35  N   UNL     1      -5.558  14.021  29.854  0.00  0.00    -0.220 N 
ATOM     36  N   UNL     1      -5.016  15.112  30.447  0.00  0.00    -0.060 NA
BRANCH  35  37
ATOM     37  C   UNL     1      -5.824  13.967  28.463  0.00  0.00    +0.067 A 
ATOM     38  C   UNL     1      -6.837  14.761  27.902  0.00  0.00    +0.030 A 
ATOM     39  C   UNL     1      -7.134  14.662  26.543  0.00  0.00    +0.031 A 
ATOM     40  C   UNL     1      -6.415  13.778  25.737  0.00  0.00    +0.109 A 
ATOM     41  C   UNL     1      -5.397  12.988  26.278  0.00  0.00    +0.031 A 
ATOM     42  C   UNL     1      -5.095  13.091  27.641  0.00  0.00    +0.030 A 
BRANCH  40  43
ATOM     43  S   UNL     1      -6.922  13.568  24.051  0.00  0.00    +0.074 S 
ATOM     44  O   UNL     1      -7.722  12.360  23.983  0.00  0.00    -0.150 OA
ATOM     45  O   UNL     1      -7.458  14.820  23.571  0.00  0.00    -0.150 OA
BRANCH  43  46
ATOM     46  N   UNL     1      -5.485  13.187  23.251  0.00  0.00    -0.194 N 
ATOM     47  H   UNL     1      -4.897  12.716  23.934  0.00  0.00    +0.176 HD
ATOM     48  C   UNL     1      -5.711  12.428  22.084  0.00  0.00    +0.177 A 
ATOM     49  S   UNL     1      -5.565  10.726  22.048  0.00  0.00    -0.059 S 
ATOM     50  C   UNL     1      -5.857  10.761  20.357  0.00  0.00    +0.068 A 
ATOM     51  C   UNL     1      -5.965  12.070  19.936  0.00  0.00    +0.120 A 
ATOM     52  N   UNL     1      -5.913  13.025  20.936  0.00  0.00    -0.232 NA
ENDBRANCH  43  46
ENDBRANCH  40  43
ENDBRANCH  35  37
ENDBRANCH  31  33
ENDBRANCH  30  31
ENDBRANCH   1  30
TORSDOF 16
