REMARK VINA RESULT:    -4.536      7.343     12.286
REMARK INTER + INTRA:         -10.959
REMARK INTER:                  -8.481
REMARK INTRA:                  -2.478
REMARK UNBOUND:                -2.844
REMARK  Name = lig_assembled_44.pdb
REMARK  17 active torsions:
REMARK  status: ('A' for Active; 'I' for Inactive)
REMARK    1  A    between atoms: _2  and  _9
REMARK    2  A    between atoms: _4  and  _19
REMARK    3  A    between atoms: _6  and  _7
REMARK    4  A    between atoms: _6  and  _19
REMARK    5  A    between atoms: _9  and  _10
REMARK    6  A    between atoms: _15  and  _35
REMARK    7  A    between atoms: _17  and  _23
REMARK    8  A    between atoms: _18  and  _22
REMARK    9  A    between atoms: _22  and  _23
REMARK   10  A    between atoms: _25  and  _26
REMARK   11  A    between atoms: _27  and  _28
REMARK   12  A    between atoms: _29  and  _31
REMARK   13  A    between atoms: _31  and  _32
REMARK   14  A    between atoms: _31  and  _33
REMARK   15  A    between atoms: _33  and  _34
REMARK   16  A    between atoms: _33  and  _35
REMARK   17  A    between atoms: _36  and  _38
REMARK                            x       y       z     vdW  Elec       q    Type
REMARK                         _______ _______ _______ _____ _____    ______ ____
ROOT
ATOM      1  C   UNL     1      -4.358  11.352  28.061  0.00  0.00    +0.163 C 
ENDROOT
BRANCH   1   2
ATOM      2  O   UNL     1      -4.943  12.458  28.766  0.00  0.00    -0.388 OA
ATOM      3  H   UNL     1      -4.658  12.441  29.683  0.00  0.00    +0.210 HD
ENDBRANCH   1   2
BRANCH   1   4
ATOM      4  C   UNL     1      -3.692  10.398  29.047  0.00  0.00    +0.141 C 
BRANCH   4   7
ATOM      5  C   UNL     1      -2.807  10.669  31.338  0.00  0.00    +0.401 C 
ATOM      6  O   UNL     1      -3.288   9.610  31.750  0.00  0.00    -0.226 OA
ATOM      7  N   UNL     1      -2.952  11.117  30.091  0.00  0.00    -0.279 N 
ATOM      8  H   UNL     1      -2.528  12.002  29.850  0.00  0.00    +0.152 HD
BRANCH   5   9
ATOM      9  O   UNL     1      -2.049  11.483  32.236  0.00  0.00    -0.444 OA
BRANCH   9  10
ATOM     10  C   UNL     1      -2.938  12.229  33.071  0.00  0.00    +0.292 C 
BRANCH  10  12
ATOM     11  N   UNL     1      -2.394  14.048  31.478  0.00  0.00    -0.131 NA
ATOM     12  C   UNL     1      -3.152  13.579  32.518  0.00  0.00    +0.120 A 
ATOM     13  C   UNL     1      -4.069  14.541  32.876  0.00  0.00    +0.137 A 
ATOM     14  N   UNL     1      -3.870  15.537  31.966  0.00  0.00    -0.247 N 
ATOM     15  N   UNL     1      -2.836  15.256  31.153  0.00  0.00    -0.065 NA
BRANCH  14  16
ATOM     16  C   UNL     1      -4.615  16.771  31.810  0.00  0.00    +0.180 C 
BRANCH  16  17
ATOM     17  C   UNL     1      -5.307  16.834  30.469  0.00  0.00    -0.026 A 
ATOM     18  C   UNL     1      -5.181  17.967  29.650  0.00  0.00    +0.006 A 
ATOM     19  C   UNL     1      -5.835  18.028  28.418  0.00  0.00    +0.015 A 
ATOM     20  C   UNL     1      -6.620  16.956  27.997  0.00  0.00    +0.018 A 
ATOM     21 BR   UNL     1      -7.490  17.034  26.320  0.00  0.00    -0.050 Br
ATOM     22  C   UNL     1      -6.767  15.829  28.801  0.00  0.00    +0.015 A 
ATOM     23  C   UNL     1      -6.116  15.770  30.037  0.00  0.00    +0.006 A 
ENDBRANCH  16  17
ENDBRANCH  14  16
ENDBRANCH  10  12
ENDBRANCH   9  10
ENDBRANCH   5   9
ENDBRANCH   4   7
ENDBRANCH   1   4
BRANCH   1  24
ATOM     24  C   UNL     1      -3.318  11.841  27.037  0.00  0.00    +0.175 C 
BRANCH  24  25
ATOM     25  C   UNL     1      -3.776  11.603  25.591  0.00  0.00    +0.176 C 
ATOM     26  O   UNL     1      -4.900  12.486  25.327  0.00  0.00    -0.332 OA
ATOM     27  C   UNL     1      -5.407  12.474  23.951  0.00  0.00    +0.277 C 
ATOM     28  C   UNL     1      -5.761  11.030  23.518  0.00  0.00    +0.110 C 
ATOM     29  C   UNL     1      -4.607  10.049  23.808  0.00  0.00    +0.143 C 
ATOM     30  C   UNL     1      -4.157  10.147  25.266  0.00  0.00    +0.133 C 
BRANCH  30  31
ATOM     31  N   UNL     1      -3.000   9.270  25.508  0.00  0.00    -0.308 N 
ATOM     32  H   UNL     1      -2.109   9.548  25.120  0.00  0.00    +0.149 HD
ATOM     33  C   UNL     1      -3.050   8.133  26.207  0.00  0.00    +0.210 C 
ATOM     34  C   UNL     1      -4.428   7.725  26.762  0.00  0.00    +0.109 C 
ATOM     35  O   UNL     1      -2.062   7.426  26.406  0.00  0.00    -0.276 OA
ENDBRANCH  30  31
BRANCH  27  36
ATOM     36  C   UNL     1      -4.363  13.062  22.979  0.00  0.00    +0.414 C 
ATOM     37  O   UNL     1      -3.733  14.074  23.284  0.00  0.00    -0.240 OA
ATOM     38  O   UNL     1      -4.152  12.526  21.891  0.00  0.00    -0.240 OA
ENDBRANCH  27  36
BRANCH  27  39
ATOM     39  O   UNL     1      -6.617  13.274  23.911  0.00  0.00    -0.343 OA
ATOM     40  C   UNL     1      -7.536  13.049  25.009  0.00  0.00    +0.198 C 
ENDBRANCH  27  39
BRANCH  29  41
ATOM     41  O   UNL     1      -5.030   8.712  23.535  0.00  0.00    -0.390 OA
ATOM     42  H   UNL     1      -5.963   8.712  23.308  0.00  0.00    +0.210 HD
ENDBRANCH  29  41
ENDBRANCH  24  25
BRANCH  24  43
ATOM     43  O   UNL     1      -2.051  11.194  27.270  0.00  0.00    -0.387 OA
ATOM     44  H   UNL     1      -2.173  10.454  27.869  0.00  0.00    +0.210 HD
ENDBRANCH  24  43
ENDBRANCH   1  24
TORSDOF 15
