REMARK VINA RESULT:    -4.582      3.872      8.779
REMARK INTER + INTRA:         -10.978
REMARK INTER:                  -8.824
REMARK INTRA:                  -2.154
REMARK UNBOUND:                -2.779
REMARK  Name = lig_assembled_39.pdb
REMARK  17 active torsions:
REMARK  status: ('A' for Active; 'I' for Inactive)
REMARK    1  A    between atoms: _2  and  _9
REMARK    2  A    between atoms: _4  and  _19
REMARK    3  A    between atoms: _6  and  _7
REMARK    4  A    between atoms: _6  and  _19
REMARK    5  A    between atoms: _9  and  _10
REMARK    6  A    between atoms: _15  and  _35
REMARK    7  A    between atoms: _17  and  _23
REMARK    8  A    between atoms: _18  and  _22
REMARK    9  A    between atoms: _22  and  _23
REMARK   10  A    between atoms: _25  and  _26
REMARK   11  A    between atoms: _27  and  _28
REMARK   12  A    between atoms: _29  and  _31
REMARK   13  A    between atoms: _31  and  _32
REMARK   14  A    between atoms: _31  and  _33
REMARK   15  A    between atoms: _33  and  _34
REMARK   16  A    between atoms: _33  and  _35
REMARK   17  A    between atoms: _36  and  _38
REMARK                            x       y       z     vdW  Elec       q    Type
REMARK                         _______ _______ _______ _____ _____    ______ ____
ROOT
ATOM      1  C   UNL     1      -2.842  11.645  23.877  0.00  0.00    +0.163 C 
ENDROOT
BRANCH   1   2
ATOM      2  O   UNL     1      -3.379  10.382  23.451  0.00  0.00    -0.388 OA
ATOM      3  H   UNL     1      -2.670   9.738  23.387  0.00  0.00    +0.210 HD
ENDBRANCH   1   2
BRANCH   1   4
ATOM      4  C   UNL     1      -2.881  11.742  25.399  0.00  0.00    +0.141 C 
BRANCH   4   7
ATOM      5  C   UNL     1      -2.311   9.592  26.474  0.00  0.00    +0.401 C 
ATOM      6  O   UNL     1      -1.093   9.774  26.408  0.00  0.00    -0.226 OA
ATOM      7  N   UNL     1      -3.220  10.456  26.021  0.00  0.00    -0.279 N 
ATOM      8  H   UNL     1      -4.196  10.213  26.111  0.00  0.00    +0.152 HD
BRANCH   5   9
ATOM      9  O   UNL     1      -2.802   8.385  27.063  0.00  0.00    -0.444 OA
BRANCH   9  10
ATOM     10  C   UNL     1      -2.372   8.309  28.425  0.00  0.00    +0.292 C 
BRANCH  10  12
ATOM     11  N   UNL     1      -4.578   8.845  29.413  0.00  0.00    -0.131 NA
ATOM     12  C   UNL     1      -3.243   9.130  29.286  0.00  0.00    +0.120 A 
ATOM     13  C   UNL     1      -2.937  10.216  30.074  0.00  0.00    +0.137 A 
ATOM     14  N   UNL     1      -4.108  10.493  30.716  0.00  0.00    -0.247 N 
ATOM     15  N   UNL     1      -5.106   9.707  30.270  0.00  0.00    -0.065 NA
BRANCH  14  16
ATOM     16  C   UNL     1      -4.332  11.435  31.803  0.00  0.00    +0.181 C 
BRANCH  16  17
ATOM     17  C   UNL     1      -4.452  12.874  31.334  0.00  0.00    -0.012 A 
ATOM     18  C   UNL     1      -5.452  13.259  30.419  0.00  0.00    +0.006 A 
ATOM     19  C   UNL     1      -5.570  14.579  29.975  0.00  0.00    +0.000 A 
ATOM     20  C   UNL     1      -4.675  15.543  30.417  0.00  0.00    +0.001 A 
ATOM     21  C   UNL     1      -3.649  15.183  31.289  0.00  0.00    +0.015 A 
ATOM     22  C   UNL     1      -3.529  13.859  31.735  0.00  0.00    +0.023 A 
ATOM     23 BR   UNL     1      -2.056  13.475  32.875  0.00  0.00    -0.050 Br
ENDBRANCH  16  17
ENDBRANCH  14  16
ENDBRANCH  10  12
ENDBRANCH   9  10
ENDBRANCH   5   9
ENDBRANCH   4   7
ENDBRANCH   1   4
BRANCH   1  24
ATOM     24  C   UNL     1      -3.635  12.814  23.267  0.00  0.00    +0.175 C 
BRANCH  24  25
ATOM     25  C   UNL     1      -4.713  12.331  22.286  0.00  0.00    +0.176 C 
ATOM     26  O   UNL     1      -4.041  11.767  21.126  0.00  0.00    -0.332 OA
ATOM     27  C   UNL     1      -4.917  11.155  20.122  0.00  0.00    +0.277 C 
ATOM     28  C   UNL     1      -5.999  12.162  19.661  0.00  0.00    +0.110 C 
ATOM     29  C   UNL     1      -6.719  12.812  20.861  0.00  0.00    +0.143 C 
ATOM     30  C   UNL     1      -5.714  13.415  21.844  0.00  0.00    +0.133 C 
BRANCH  30  31
ATOM     31  N   UNL     1      -6.408  13.954  23.024  0.00  0.00    -0.308 N 
ATOM     32  H   UNL     1      -6.989  13.323  23.559  0.00  0.00    +0.149 HD
ATOM     33  C   UNL     1      -6.320  15.222  23.435  0.00  0.00    +0.210 C 
ATOM     34  C   UNL     1      -5.448  16.164  22.584  0.00  0.00    +0.109 C 
ATOM     35  O   UNL     1      -6.901  15.642  24.436  0.00  0.00    -0.276 OA
ENDBRANCH  30  31
BRANCH  27  36
ATOM     36  C   UNL     1      -5.597   9.890  20.687  0.00  0.00    +0.414 C 
ATOM     37  O   UNL     1      -4.932   9.040  21.277  0.00  0.00    -0.240 OA
ATOM     38  O   UNL     1      -6.809   9.720  20.552  0.00  0.00    -0.240 OA
ENDBRANCH  27  36
BRANCH  27  39
ATOM     39  O   UNL     1      -4.103  10.800  18.974  0.00  0.00    -0.343 OA
ATOM     40  C   UNL     1      -4.829  10.676  17.725  0.00  0.00    +0.198 C 
ENDBRANCH  27  39
BRANCH  29  41
ATOM     41  O   UNL     1      -7.597  13.839  20.397  0.00  0.00    -0.390 OA
ATOM     42  H   UNL     1      -7.328  14.682  20.769  0.00  0.00    +0.210 HD
ENDBRANCH  29  41
ENDBRANCH  24  25
BRANCH  24  43
ATOM     43  O   UNL     1      -2.740  13.732  22.610  0.00  0.00    -0.387 OA
ATOM     44  H   UNL     1      -2.936  14.628  22.892  0.00  0.00    +0.210 HD
ENDBRANCH  24  43
ENDBRANCH   1  24
TORSDOF 15
