REMARK VINA RESULT:    -4.792      2.341      4.333
REMARK INTER + INTRA:         -10.578
REMARK INTER:                  -7.885
REMARK INTRA:                  -2.693
REMARK UNBOUND:                -2.004
REMARK  Name = lig_assembled_6.pdb
REMARK  17 active torsions:
REMARK  status: ('A' for Active; 'I' for Inactive)
REMARK    1  A    between atoms: _2  and  _10
REMARK    2  A    between atoms: _3  and  _13
REMARK    3  A    between atoms: _5  and  _21
REMARK    4  A    between atoms: _7  and  _8
REMARK    5  A    between atoms: _7  and  _21
REMARK    6  A    between atoms: _17  and  _37
REMARK    7  A    between atoms: _19  and  _25
REMARK    8  A    between atoms: _20  and  _24
REMARK    9  A    between atoms: _24  and  _25
REMARK   10  A    between atoms: _27  and  _28
REMARK   11  A    between atoms: _29  and  _30
REMARK   12  A    between atoms: _31  and  _33
REMARK   13  A    between atoms: _33  and  _34
REMARK   14  A    between atoms: _33  and  _35
REMARK   15  A    between atoms: _35  and  _36
REMARK   16  A    between atoms: _35  and  _37
REMARK   17  A    between atoms: _38  and  _40
REMARK                            x       y       z     vdW  Elec       q    Type
REMARK                         _______ _______ _______ _____ _____    ______ ____
ROOT
ATOM      1  C   UNL     1      -7.318  11.572  25.361  0.00  0.00    +0.163 C 
ENDROOT
BRANCH   1   2
ATOM      2  O   UNL     1      -7.742  12.071  26.641  0.00  0.00    -0.388 OA
ATOM      3  H   UNL     1      -7.642  11.383  27.302  0.00  0.00    +0.210 HD
ENDBRANCH   1   2
BRANCH   1   4
ATOM      4  C   UNL     1      -8.526  11.377  24.451  0.00  0.00    +0.141 C 
BRANCH   4   7
ATOM      5  C   UNL     1      -8.176  11.313  22.006  0.00  0.00    +0.401 C 
ATOM      6  O   UNL     1      -8.175  10.082  21.943  0.00  0.00    -0.226 OA
ATOM      7  N   UNL     1      -8.327  12.002  23.137  0.00  0.00    -0.279 N 
ATOM      8  H   UNL     1      -8.304  13.011  23.088  0.00  0.00    +0.152 HD
BRANCH   5   9
ATOM      9  O   UNL     1      -8.001  12.069  20.805  0.00  0.00    -0.444 OA
BRANCH   9  10
ATOM     10  C   UNL     1      -8.263  11.236  19.673  0.00  0.00    +0.292 C 
BRANCH  10  12
ATOM     11  N   UNL     1      -6.235  12.257  18.686  0.00  0.00    -0.131 NA
ATOM     12  C   UNL     1      -7.088  11.196  18.782  0.00  0.00    +0.121 A 
ATOM     13  C   UNL     1      -6.643  10.186  17.959  0.00  0.00    +0.143 A 
ATOM     14  N   UNL     1      -5.484  10.670  17.397  0.00  0.00    -0.220 N 
ATOM     15  N   UNL     1      -5.268  11.934  17.837  0.00  0.00    -0.060 NA
BRANCH  14  16
ATOM     16  C   UNL     1      -4.577  10.011  16.525  0.00  0.00    +0.067 A 
ATOM     17  C   UNL     1      -4.424   8.617  16.573  0.00  0.00    +0.034 A 
ATOM     18  C   UNL     1      -3.483   7.986  15.752  0.00  0.00    +0.086 A 
ATOM     19  C   UNL     1      -2.696   8.748  14.881  0.00  0.00    +0.273 A 
ATOM     20  C   UNL     1      -2.860  10.136  14.806  0.00  0.00    +0.086 A 
ATOM     21  C   UNL     1      -3.802  10.765  15.628  0.00  0.00    +0.034 A 
BRANCH  19  22
ATOM     22  N   UNL     1      -1.680   8.084  14.053  0.00  0.00    +0.080 N 
ATOM     23  O   UNL     1      -0.881   7.326  14.622  0.00  0.00    +0.041 OA
ATOM     24  O   UNL     1      -1.677   8.327  12.839  0.00  0.00    -0.576 OA
ENDBRANCH  19  22
ENDBRANCH  14  16
ENDBRANCH  10  12
ENDBRANCH   9  10
ENDBRANCH   5   9
ENDBRANCH   4   7
ENDBRANCH   1   4
BRANCH   1  25
ATOM     25  C   UNL     1      -6.568  10.237  25.513  0.00  0.00    +0.175 C 
BRANCH  25  26
ATOM     26  C   UNL     1      -5.086  10.443  25.860  0.00  0.00    +0.176 C 
ATOM     27  O   UNL     1      -5.012  10.942  27.224  0.00  0.00    -0.332 OA
ATOM     28  C   UNL     1      -3.660  11.099  27.769  0.00  0.00    +0.277 C 
ATOM     29  C   UNL     1      -2.801  11.990  26.838  0.00  0.00    +0.110 C 
ATOM     30  C   UNL     1      -2.874  11.516  25.371  0.00  0.00    +0.143 C 
ATOM     31  C   UNL     1      -4.326  11.384  24.908  0.00  0.00    +0.133 C 
BRANCH  31  32
ATOM     32  N   UNL     1      -4.384  10.850  23.539  0.00  0.00    -0.308 N 
ATOM     33  H   UNL     1      -4.168   9.872  23.404  0.00  0.00    +0.149 HD
ATOM     34  C   UNL     1      -4.703  11.572  22.461  0.00  0.00    +0.210 C 
ATOM     35  C   UNL     1      -5.001  13.065  22.696  0.00  0.00    +0.109 C 
ATOM     36  O   UNL     1      -4.757  11.094  21.328  0.00  0.00    -0.276 OA
ENDBRANCH  31  32
BRANCH  28  37
ATOM     37  C   UNL     1      -2.978   9.727  27.943  0.00  0.00    +0.414 C 
ATOM     38  O   UNL     1      -3.642   8.739  28.252  0.00  0.00    -0.240 OA
ATOM     39  O   UNL     1      -1.764   9.607  27.773  0.00  0.00    -0.240 OA
ENDBRANCH  28  37
BRANCH  30  40
ATOM     40  O   UNL     1      -2.195  12.449  24.529  0.00  0.00    -0.390 OA
ATOM     41  H   UNL     1      -1.637  11.974  23.909  0.00  0.00    +0.210 HD
ENDBRANCH  30  40
BRANCH  28  42
ATOM     42  O   UNL     1      -3.769  11.757  29.058  0.00  0.00    -0.343 OA
ATOM     43  C   UNL     1      -5.124  11.922  29.548  0.00  0.00    +0.198 C 
ENDBRANCH  28  42
ENDBRANCH  25  26
BRANCH  25  44
ATOM     44  O   UNL     1      -6.692   9.458  24.306  0.00  0.00    -0.387 OA
ATOM     45  H   UNL     1      -6.571  10.028  23.543  0.00  0.00    +0.210 HD
ENDBRANCH  25  44
ENDBRANCH   1  25
TORSDOF 15
