REMARK VINA RESULT:    -5.167      2.355      8.117
REMARK INTER + INTRA:         -12.148
REMARK INTER:                  -8.177
REMARK INTRA:                  -3.971
REMARK UNBOUND:                -2.903
REMARK  Name = lig_assembled_69.pdb
REMARK  18 active torsions:
REMARK  status: ('A' for Active; 'I' for Inactive)
REMARK    1  A    between atoms: _2  and  _9
REMARK    2  A    between atoms: _4  and  _21
REMARK    3  A    between atoms: _6  and  _7
REMARK    4  A    between atoms: _6  and  _21
REMARK    5  A    between atoms: _11  and  _16
REMARK    6  A    between atoms: _14  and  _15
REMARK    7  A    between atoms: _17  and  _37
REMARK    8  A    between atoms: _19  and  _25
REMARK    9  A    between atoms: _20  and  _24
REMARK   10  A    between atoms: _24  and  _25
REMARK   11  A    between atoms: _27  and  _28
REMARK   12  A    between atoms: _29  and  _30
REMARK   13  A    between atoms: _31  and  _33
REMARK   14  A    between atoms: _33  and  _34
REMARK   15  A    between atoms: _33  and  _35
REMARK   16  A    between atoms: _35  and  _36
REMARK   17  A    between atoms: _35  and  _37
REMARK   18  A    between atoms: _38  and  _40
REMARK                            x       y       z     vdW  Elec       q    Type
REMARK                         _______ _______ _______ _____ _____    ______ ____
ROOT
ATOM      1  C   UNL     1      -2.922  11.146  24.200  0.00  0.00    +0.163 C 
ENDROOT
BRANCH   1   2
ATOM      2  O   UNL     1      -2.317  11.354  25.487  0.00  0.00    -0.388 OA
ATOM      3  H   UNL     1      -1.569  11.949  25.398  0.00  0.00    +0.210 HD
ENDBRANCH   1   2
BRANCH   1   4
ATOM      4  C   UNL     1      -3.950  10.004  24.253  0.00  0.00    +0.175 C 
BRANCH   4   5
ATOM      5  C   UNL     1      -3.875   9.219  25.572  0.00  0.00    +0.176 C 
ATOM      6  O   UNL     1      -2.793   8.255  25.457  0.00  0.00    -0.332 OA
ATOM      7  C   UNL     1      -2.502   7.482  26.669  0.00  0.00    +0.277 C 
ATOM      8  C   UNL     1      -3.781   6.775  27.179  0.00  0.00    +0.110 C 
ATOM      9  C   UNL     1      -4.969   7.754  27.286  0.00  0.00    +0.143 C 
ATOM     10  C   UNL     1      -5.180   8.507  25.972  0.00  0.00    +0.133 C 
BRANCH  10  11
ATOM     11  N   UNL     1      -6.258   9.498  26.114  0.00  0.00    -0.308 N 
ATOM     12  H   UNL     1      -6.122  10.253  26.772  0.00  0.00    +0.149 HD
ATOM     13  C   UNL     1      -7.405   9.466  25.430  0.00  0.00    +0.210 C 
ATOM     14  C   UNL     1      -7.593   8.290  24.454  0.00  0.00    +0.109 C 
ATOM     15  O   UNL     1      -8.284  10.319  25.559  0.00  0.00    -0.276 OA
ENDBRANCH  10  11
BRANCH   7  16
ATOM     16  C   UNL     1      -1.940   8.395  27.778  0.00  0.00    +0.414 C 
ATOM     17  O   UNL     1      -2.215   8.178  28.958  0.00  0.00    -0.240 OA
ATOM     18  O   UNL     1      -1.212   9.347  27.494  0.00  0.00    -0.240 OA
ENDBRANCH   7  16
BRANCH   7  19
ATOM     19  O   UNL     1      -1.523   6.467  26.329  0.00  0.00    -0.343 OA
ATOM     20  C   UNL     1      -1.526   5.300  27.190  0.00  0.00    +0.198 C 
ENDBRANCH   7  19
BRANCH   9  21
ATOM     21  O   UNL     1      -6.159   7.034  27.613  0.00  0.00    -0.390 OA
ATOM     22  H   UNL     1      -6.668   6.877  26.814  0.00  0.00    +0.210 HD
ENDBRANCH   9  21
ENDBRANCH   4   5
BRANCH   4  23
ATOM     23  O   UNL     1      -3.762   9.114  23.135  0.00  0.00    -0.387 OA
ATOM     24  H   UNL     1      -3.205   9.539  22.478  0.00  0.00    +0.210 HD
ENDBRANCH   4  23
ENDBRANCH   1   4
BRANCH   1  25
ATOM     25  C   UNL     1      -3.606  12.427  23.733  0.00  0.00    +0.141 C 
BRANCH  25  28
ATOM     26  C   UNL     1      -5.514  13.301  25.037  0.00  0.00    +0.401 C 
ATOM     27  O   UNL     1      -6.368  12.824  24.285  0.00  0.00    -0.226 OA
ATOM     28  N   UNL     1      -4.200  13.169  24.851  0.00  0.00    -0.279 N 
ATOM     29  H   UNL     1      -3.579  13.605  25.518  0.00  0.00    +0.152 HD
BRANCH  26  30
ATOM     30  O   UNL     1      -5.936  14.048  26.181  0.00  0.00    -0.444 OA
BRANCH  30  31
ATOM     31  C   UNL     1      -6.458  13.155  27.168  0.00  0.00    +0.292 C 
BRANCH  31  33
ATOM     32  N   UNL     1      -4.509  11.706  27.627  0.00  0.00    -0.131 NA
ATOM     33  C   UNL     1      -5.379  12.676  28.050  0.00  0.00    +0.120 A 
ATOM     34  C   UNL     1      -5.052  13.043  29.337  0.00  0.00    +0.137 A 
ATOM     35  N   UNL     1      -3.985  12.252  29.643  0.00  0.00    -0.248 N 
ATOM     36  N   UNL     1      -3.664  11.451  28.613  0.00  0.00    -0.065 NA
BRANCH  35  37
ATOM     37  C   UNL     1      -3.259  12.170  30.910  0.00  0.00    +0.114 C 
ATOM     38  C   UNL     1      -2.762  10.745  31.182  0.00  0.00    +0.062 C 
ATOM     39  C   UNL     1      -3.763   9.793  31.840  0.00  0.00    +0.139 C 
ATOM     40  C   UNL     1      -4.099  10.066  33.279  0.00  0.00    +0.002 C 
ATOM     41  C   UNL     1      -3.971  11.211  33.969  0.00  0.00    +0.002 C 
ATOM     42  C   UNL     1      -3.594  12.562  33.442  0.00  0.00    +0.139 C 
ATOM     43  C   UNL     1      -4.074  12.844  32.023  0.00  0.00    +0.062 C 
BRANCH  39  44
ATOM     44  O   UNL     1      -3.171   8.488  31.827  0.00  0.00    -0.388 OA
ATOM     45  H   UNL     1      -2.787   8.335  32.707  0.00  0.00    +0.210 HD
ENDBRANCH  39  44
BRANCH  42  46
ATOM     46  O   UNL     1      -2.188  12.726  33.532  0.00  0.00    -0.388 OA
ATOM     47  H   UNL     1      -1.856  12.050  34.148  0.00  0.00    +0.210 HD
ENDBRANCH  42  46
ENDBRANCH  35  37
ENDBRANCH  31  33
ENDBRANCH  30  31
ENDBRANCH  26  30
ENDBRANCH  25  28
ENDBRANCH   1  25
TORSDOF 16
