REMARK VINA RESULT:    -4.337      3.804     10.713
REMARK INTER + INTRA:         -11.823
REMARK INTER:                  -8.837
REMARK INTRA:                  -2.986
REMARK UNBOUND:                -3.049
REMARK  Name = lig_assembled_45.pdb
REMARK  24 active torsions:
REMARK  status: ('A' for Active; 'I' for Inactive)
REMARK    1  A    between atoms: _2  and  _10
REMARK    2  A    between atoms: _3  and  _12
REMARK    3  A    between atoms: _3  and  _13
REMARK    4  A    between atoms: _3  and  _14
REMARK    5  A    between atoms: _3  and  _16
REMARK    6  A    between atoms: _5  and  _21
REMARK    7  A    between atoms: _6  and  _16
REMARK    8  A    between atoms: _7  and  _8
REMARK    9  A    between atoms: _7  and  _21
REMARK   10  A    between atoms: _10  and  _11
REMARK   11  A    between atoms: _11  and  _12
REMARK   12  A    between atoms: _14  and  _15
REMARK   13  A    between atoms: _17  and  _37
REMARK   14  A    between atoms: _19  and  _25
REMARK   15  A    between atoms: _20  and  _24
REMARK   16  A    between atoms: _24  and  _25
REMARK   17  A    between atoms: _27  and  _28
REMARK   18  A    between atoms: _29  and  _30
REMARK   19  A    between atoms: _31  and  _33
REMARK   20  A    between atoms: _33  and  _34
REMARK   21  A    between atoms: _33  and  _35
REMARK   22  A    between atoms: _35  and  _36
REMARK   23  A    between atoms: _35  and  _37
REMARK   24  A    between atoms: _38  and  _40
REMARK                            x       y       z     vdW  Elec       q    Type
REMARK                         _______ _______ _______ _____ _____    ______ ____
ROOT
ATOM      1  C   UNL     1      -4.028   8.146  24.008  0.00  0.00    +0.163 C 
ENDROOT
BRANCH   1   2
ATOM      2  O   UNL     1      -3.825   7.680  22.664  0.00  0.00    -0.388 OA
ATOM      3  H   UNL     1      -4.474   8.084  22.083  0.00  0.00    +0.210 HD
ENDBRANCH   1   2
BRANCH   1   4
ATOM      4  C   UNL     1      -5.248   9.080  24.088  0.00  0.00    +0.175 C 
BRANCH   4   5
ATOM      5  C   UNL     1      -4.909  10.512  23.651  0.00  0.00    +0.176 C 
ATOM      6  O   UNL     1      -4.688  10.501  22.214  0.00  0.00    -0.332 OA
ATOM      7  C   UNL     1      -4.454  11.811  21.598  0.00  0.00    +0.277 C 
ATOM      8  C   UNL     1      -3.283  12.539  22.303  0.00  0.00    +0.110 C 
ATOM      9  C   UNL     1      -3.459  12.549  23.836  0.00  0.00    +0.143 C 
ATOM     10  C   UNL     1      -3.699  11.136  24.370  0.00  0.00    +0.133 C 
BRANCH  10  11
ATOM     11  N   UNL     1      -3.951  11.169  25.819  0.00  0.00    -0.308 N 
ATOM     12  H   UNL     1      -4.841  11.528  26.135  0.00  0.00    +0.149 HD
ATOM     13  C   UNL     1      -3.081  10.755  26.744  0.00  0.00    +0.210 C 
ATOM     14  C   UNL     1      -1.723  10.238  26.232  0.00  0.00    +0.109 C 
ATOM     15  O   UNL     1      -3.325  10.781  27.951  0.00  0.00    -0.276 OA
ENDBRANCH  10  11
BRANCH   7  16
ATOM     16  C   UNL     1      -5.723  12.684  21.672  0.00  0.00    +0.414 C 
ATOM     17  O   UNL     1      -6.831  12.160  21.785  0.00  0.00    -0.240 OA
ATOM     18  O   UNL     1      -5.640  13.912  21.619  0.00  0.00    -0.240 OA
ENDBRANCH   7  16
BRANCH   9  19
ATOM     19  O   UNL     1      -2.290  13.092  24.451  0.00  0.00    -0.390 OA
ATOM     20  H   UNL     1      -2.310  12.910  25.394  0.00  0.00    +0.210 HD
ENDBRANCH   9  19
BRANCH   7  21
ATOM     21  O   UNL     1      -4.089  11.595  20.210  0.00  0.00    -0.343 OA
ATOM     22  C   UNL     1      -4.622  10.383  19.618  0.00  0.00    +0.198 C 
ENDBRANCH   7  21
ENDBRANCH   4   5
BRANCH   4  23
ATOM     23  O   UNL     1      -5.784   9.082  25.426  0.00  0.00    -0.387 OA
ATOM     24  H   UNL     1      -6.617   9.560  25.437  0.00  0.00    +0.210 HD
ENDBRANCH   4  23
ENDBRANCH   1   4
BRANCH   1  25
ATOM     25  C   UNL     1      -4.231   6.961  24.946  0.00  0.00    +0.141 C 
BRANCH  25  28
ATOM     26  C   UNL     1      -2.272   6.841  26.446  0.00  0.00    +0.401 C 
ATOM     27  O   UNL     1      -1.532   6.342  25.595  0.00  0.00    -0.226 OA
ATOM     28  N   UNL     1      -3.549   7.157  26.231  0.00  0.00    -0.279 N 
ATOM     29  H   UNL     1      -4.078   7.553  26.995  0.00  0.00    +0.152 HD
BRANCH  26  30
ATOM     30  O   UNL     1      -1.751   7.102  27.752  0.00  0.00    -0.444 OA
BRANCH  30  31
ATOM     31  C   UNL     1      -2.510   6.376  28.723  0.00  0.00    +0.292 C 
BRANCH  31  33
ATOM     32  N   UNL     1      -4.451   7.840  29.214  0.00  0.00    -0.131 NA
ATOM     33  C   UNL     1      -3.248   7.309  29.596  0.00  0.00    +0.120 A 
ATOM     34  C   UNL     1      -2.918   7.793  30.841  0.00  0.00    +0.137 A 
ATOM     35  N   UNL     1      -3.964   8.606  31.152  0.00  0.00    -0.251 N 
ATOM     36  N   UNL     1      -4.879   8.642  30.180  0.00  0.00    -0.065 NA
BRANCH  35  37
ATOM     37  C   UNL     1      -4.134   9.397  32.354  0.00  0.00    +0.150 C 
BRANCH  37  38
ATOM     38  C   UNL     1      -3.023  10.420  32.551  0.00  0.00    +0.074 C 
BRANCH  38  39
ATOM     39  C   UNL     1      -2.924  11.544  31.511  0.00  0.00    +0.134 C 
BRANCH  39  40
ATOM     40  N   UNL     1      -3.058  13.020  32.011  0.00  0.00    +0.241 N 
ATOM     41  C   UNL     1      -4.342  13.144  32.848  0.00  0.00    +0.192 C 
BRANCH  40  42
ATOM     42  C   UNL     1      -3.218  13.899  30.726  0.00  0.00    +0.129 C 
ATOM     43  C   UNL     1      -3.811  15.279  30.989  0.00  0.00    +0.060 C 
ENDBRANCH  40  42
BRANCH  40  44
ATOM     44  C   UNL     1      -1.868  13.531  32.844  0.00  0.00    +0.129 C 
ATOM     45  C   UNL     1      -2.255  14.106  34.196  0.00  0.00    +0.060 C 
ENDBRANCH  40  44
ENDBRANCH  39  40
ENDBRANCH  38  39
ENDBRANCH  37  38
ENDBRANCH  35  37
ENDBRANCH  31  33
ENDBRANCH  30  31
ENDBRANCH  26  30
ENDBRANCH  25  28
ENDBRANCH   1  25
TORSDOF 19
