REMARK VINA RESULT:    -5.015      4.581      8.633
REMARK INTER + INTRA:         -11.483
REMARK INTER:                  -9.246
REMARK INTRA:                  -2.236
REMARK UNBOUND:                -2.363
REMARK  Name = lig_assembled_59.pdb
REMARK  18 active torsions:
REMARK  status: ('A' for Active; 'I' for Inactive)
REMARK    1  A    between atoms: _2  and  _10
REMARK    2  A    between atoms: _5  and  _20
REMARK    3  A    between atoms: _7  and  _8
REMARK    4  A    between atoms: _7  and  _20
REMARK    5  A    between atoms: _13  and  _14
REMARK    6  A    between atoms: _14  and  _15
REMARK    7  A    between atoms: _16  and  _36
REMARK    8  A    between atoms: _18  and  _24
REMARK    9  A    between atoms: _19  and  _23
REMARK   10  A    between atoms: _23  and  _24
REMARK   11  A    between atoms: _26  and  _27
REMARK   12  A    between atoms: _28  and  _29
REMARK   13  A    between atoms: _30  and  _32
REMARK   14  A    between atoms: _32  and  _33
REMARK   15  A    between atoms: _32  and  _34
REMARK   16  A    between atoms: _34  and  _35
REMARK   17  A    between atoms: _34  and  _36
REMARK   18  A    between atoms: _37  and  _39
REMARK                            x       y       z     vdW  Elec       q    Type
REMARK                         _______ _______ _______ _____ _____    ______ ____
ROOT
ATOM      1  C   UNL     1      -3.426  12.759  24.150  0.00  0.00    +0.163 C 
ENDROOT
BRANCH   1   2
ATOM      2  O   UNL     1      -2.018  12.931  24.375  0.00  0.00    -0.388 OA
ATOM      3  H   UNL     1      -1.881  13.567  25.081  0.00  0.00    +0.210 HD
ENDBRANCH   1   2
BRANCH   1   4
ATOM      4  C   UNL     1      -4.218  12.937  25.457  0.00  0.00    +0.175 C 
BRANCH   4   5
ATOM      5  C   UNL     1      -3.961  11.793  26.448  0.00  0.00    +0.176 C 
ATOM      6  O   UNL     1      -3.936  10.547  25.698  0.00  0.00    -0.332 OA
ATOM      7  C   UNL     1      -3.595   9.349  26.470  0.00  0.00    +0.277 C 
ATOM      8  C   UNL     1      -4.537   9.205  27.690  0.00  0.00    +0.110 C 
ATOM      9  C   UNL     1      -4.621  10.515  28.502  0.00  0.00    +0.143 C 
ATOM     10  C   UNL     1      -4.978  11.697  27.600  0.00  0.00    +0.133 C 
BRANCH  10  11
ATOM     11  N   UNL     1      -4.970  12.952  28.369  0.00  0.00    -0.308 N 
ATOM     12  H   UNL     1      -4.078  13.304  28.687  0.00  0.00    +0.149 HD
ATOM     13  C   UNL     1      -6.064  13.656  28.673  0.00  0.00    +0.210 C 
ATOM     14  C   UNL     1      -7.410  13.079  28.195  0.00  0.00    +0.109 C 
ATOM     15  O   UNL     1      -6.025  14.712  29.305  0.00  0.00    -0.276 OA
ENDBRANCH  10  11
BRANCH   7  16
ATOM     16  C   UNL     1      -2.131   9.407  26.953  0.00  0.00    +0.414 C 
ATOM     17  O   UNL     1      -1.820   8.939  28.048  0.00  0.00    -0.240 OA
ATOM     18  O   UNL     1      -1.261   9.921  26.248  0.00  0.00    -0.240 OA
ENDBRANCH   7  16
BRANCH   7  19
ATOM     19  O   UNL     1      -3.781   8.194  25.611  0.00  0.00    -0.343 OA
ATOM     20  C   UNL     1      -4.236   8.497  24.268  0.00  0.00    +0.198 C 
ENDBRANCH   7  19
BRANCH   9  21
ATOM     21  O   UNL     1      -5.611  10.387  29.524  0.00  0.00    -0.390 OA
ATOM     22  H   UNL     1      -5.652  11.199  30.034  0.00  0.00    +0.210 HD
ENDBRANCH   9  21
ENDBRANCH   4   5
BRANCH   4  23
ATOM     23  O   UNL     1      -5.628  13.041  25.173  0.00  0.00    -0.387 OA
ATOM     24  H   UNL     1      -5.856  12.441  24.459  0.00  0.00    +0.210 HD
ENDBRANCH   4  23
ENDBRANCH   1   4
BRANCH   1  25
ATOM     25  C   UNL     1      -3.916  13.768  23.116  0.00  0.00    +0.141 C 
BRANCH  25  28
ATOM     26  C   UNL     1      -5.965  13.318  21.811  0.00  0.00    +0.401 C 
ATOM     27  O   UNL     1      -6.678  14.053  22.498  0.00  0.00    -0.226 OA
ATOM     28  N   UNL     1      -4.665  13.121  22.032  0.00  0.00    -0.279 N 
ATOM     29  H   UNL     1      -4.167  12.492  21.418  0.00  0.00    +0.152 HD
BRANCH  26  30
ATOM     30  O   UNL     1      -6.548  12.621  20.707  0.00  0.00    -0.444 OA
BRANCH  30  31
ATOM     31  C   UNL     1      -6.310  11.217  20.849  0.00  0.00    +0.292 C 
BRANCH  31  33
ATOM     32  N   UNL     1      -5.276   9.373  19.569  0.00  0.00    -0.131 NA
ATOM     33  C   UNL     1      -5.649  10.686  19.642  0.00  0.00    +0.121 A 
ATOM     34  C   UNL     1      -5.301  11.319  18.471  0.00  0.00    +0.145 A 
ATOM     35  N   UNL     1      -4.713  10.339  17.703  0.00  0.00    -0.202 N 
ATOM     36  N   UNL     1      -4.712   9.167  18.387  0.00  0.00    -0.059 NA
BRANCH  35  37
ATOM     37  C   UNL     1      -4.162  10.478  16.401  0.00  0.00    +0.156 A 
ATOM     38  C   UNL     1      -3.817  11.749  15.943  0.00  0.00    +0.048 A 
ATOM     39  C   UNL     1      -3.316  11.882  14.649  0.00  0.00    +0.011 A 
ATOM     40  C   UNL     1      -3.163  10.755  13.840  0.00  0.00    -0.004 A 
ATOM     41  C   UNL     1      -3.533   9.527  14.382  0.00  0.00    +0.119 A 
ATOM     42  N   UNL     1      -4.016   9.361  15.637  0.00  0.00    -0.236 NA
BRANCH  40  43
ATOM     43  C   UNL     1      -2.714  10.888  12.414  0.00  0.00    +0.192 C 
BRANCH  43  44
ATOM     44  O   UNL     1      -1.716  11.888  12.276  0.00  0.00    -0.390 OA
ATOM     45  H   UNL     1      -1.799  12.478  13.047  0.00  0.00    +0.210 HD
ENDBRANCH  43  44
ENDBRANCH  40  43
ENDBRANCH  35  37
ENDBRANCH  31  33
ENDBRANCH  30  31
ENDBRANCH  26  30
ENDBRANCH  25  28
ENDBRANCH   1  25
TORSDOF 16
