REMARK VINA RESULT:    -5.279      3.139      7.987
REMARK INTER + INTRA:         -13.639
REMARK INTER:                  -9.144
REMARK INTRA:                  -4.495
REMARK UNBOUND:                -3.885
REMARK  Name = lig_assembled_79.pdb
REMARK  20 active torsions:
REMARK  status: ('A' for Active; 'I' for Inactive)
REMARK    1  A    between atoms: _2  and  _10
REMARK    2  A    between atoms: _5  and  _26
REMARK    3  A    between atoms: _7  and  _8
REMARK    4  A    between atoms: _7  and  _26
REMARK    5  A    between atoms: _10  and  _11
REMARK    6  A    between atoms: _10  and  _12
REMARK    7  A    between atoms: _10  and  _13
REMARK    8  A    between atoms: _13  and  _14
REMARK    9  A    between atoms: _22  and  _42
REMARK   10  A    between atoms: _24  and  _30
REMARK   11  A    between atoms: _25  and  _29
REMARK   12  A    between atoms: _29  and  _30
REMARK   13  A    between atoms: _32  and  _33
REMARK   14  A    between atoms: _34  and  _35
REMARK   15  A    between atoms: _36  and  _38
REMARK   16  A    between atoms: _38  and  _39
REMARK   17  A    between atoms: _38  and  _40
REMARK   18  A    between atoms: _40  and  _41
REMARK   19  A    between atoms: _40  and  _42
REMARK   20  A    between atoms: _43  and  _45
REMARK                            x       y       z     vdW  Elec       q    Type
REMARK                         _______ _______ _______ _____ _____    ______ ____
ROOT
ATOM      1  C   UNL     1      -3.972   6.883  23.270  0.00  0.00    +0.401 C 
ATOM      2  O   UNL     1      -3.577   7.643  22.383  0.00  0.00    -0.226 OA
ATOM      3  N   UNL     1      -5.255   6.716  23.592  0.00  0.00    -0.279 N 
ATOM      4  H   UNL     1      -5.481   6.063  24.329  0.00  0.00    +0.152 HD
ENDROOT
BRANCH   3   5
ATOM      5  C   UNL     1      -6.359   7.429  22.937  0.00  0.00    +0.141 C 
BRANCH   5   6
ATOM      6  C   UNL     1      -6.830   8.625  23.757  0.00  0.00    +0.163 C 
BRANCH   6   7
ATOM      7  O   UNL     1      -6.160   8.644  25.028  0.00  0.00    -0.388 OA
ATOM      8  H   UNL     1      -5.235   8.868  24.900  0.00  0.00    +0.210 HD
ENDBRANCH   6   7
BRANCH   6   9
ATOM      9  C   UNL     1      -6.562   9.922  22.974  0.00  0.00    +0.175 C 
BRANCH   9  10
ATOM     10  C   UNL     1      -5.179  10.511  23.288  0.00  0.00    +0.176 C 
ATOM     11  O   UNL     1      -5.325  11.420  24.414  0.00  0.00    -0.332 OA
ATOM     12  C   UNL     1      -4.079  12.001  24.925  0.00  0.00    +0.277 C 
ATOM     13  C   UNL     1      -3.300  12.701  23.785  0.00  0.00    +0.110 C 
ATOM     14  C   UNL     1      -3.148  11.784  22.553  0.00  0.00    +0.143 C 
ATOM     15  C   UNL     1      -4.503  11.233  22.108  0.00  0.00    +0.133 C 
BRANCH  15  16
ATOM     16  N   UNL     1      -4.334  10.293  20.988  0.00  0.00    -0.308 N 
ATOM     17  H   UNL     1      -3.827   9.437  21.163  0.00  0.00    +0.149 HD
ATOM     18  C   UNL     1      -4.807  10.498  19.756  0.00  0.00    +0.210 C 
ATOM     19  C   UNL     1      -5.552  11.824  19.514  0.00  0.00    +0.109 C 
ATOM     20  O   UNL     1      -4.663   9.686  18.841  0.00  0.00    -0.276 OA
ENDBRANCH  15  16
BRANCH  12  21
ATOM     21  C   UNL     1      -3.191  10.913  25.564  0.00  0.00    +0.414 C 
ATOM     22  O   UNL     1      -2.027  11.165  25.872  0.00  0.00    -0.240 OA
ATOM     23  O   UNL     1      -3.638   9.785  25.773  0.00  0.00    -0.240 OA
ENDBRANCH  12  21
BRANCH  14  24
ATOM     24  O   UNL     1      -2.561  12.517  21.477  0.00  0.00    -0.390 OA
ATOM     25  H   UNL     1      -2.635  13.458  21.652  0.00  0.00    +0.210 HD
ENDBRANCH  14  24
BRANCH  12  26
ATOM     26  O   UNL     1      -4.425  12.997  25.922  0.00  0.00    -0.343 OA
ATOM     27  C   UNL     1      -5.710  13.639  25.726  0.00  0.00    +0.198 C 
ENDBRANCH  12  26
ENDBRANCH   9  10
BRANCH   9  28
ATOM     28  O   UNL     1      -7.590  10.893  23.254  0.00  0.00    -0.387 OA
ATOM     29  H   UNL     1      -7.415  11.697  22.759  0.00  0.00    +0.210 HD
ENDBRANCH   9  28
ENDBRANCH   6   9
ENDBRANCH   5   6
ENDBRANCH   3   5
BRANCH   1  30
ATOM     30  O   UNL     1      -3.014   6.122  24.010  0.00  0.00    -0.444 OA
BRANCH  30  31
ATOM     31  C   UNL     1      -3.678   5.395  25.047  0.00  0.00    +0.292 C 
BRANCH  31  33
ATOM     32  N   UNL     1      -4.962   6.678  26.718  0.00  0.00    -0.131 NA
ATOM     33  C   UNL     1      -3.760   6.216  26.269  0.00  0.00    +0.120 A 
ATOM     34  C   UNL     1      -2.764   6.650  27.116  0.00  0.00    +0.138 A 
ATOM     35  N   UNL     1      -3.427   7.299  28.120  0.00  0.00    -0.238 N 
ATOM     36  N   UNL     1      -4.748   7.376  27.821  0.00  0.00    -0.064 NA
BRANCH  35  37
ATOM     37  C   UNL     1      -2.913   8.056  29.300  0.00  0.00    +0.122 C 
ATOM     38  C   UNL     1      -1.864   9.055  28.757  0.00  0.00    +0.044 C 
ATOM     39  C   UNL     1      -2.350   6.979  30.248  0.00  0.00    +0.044 C 
BRANCH  37  40
ATOM     40  C   UNL     1      -4.000   8.877  30.024  0.00  0.00    +0.192 C 
ATOM     41  O   UNL     1      -4.849   8.311  30.720  0.00  0.00    -0.289 OA
BRANCH  40  42
ATOM     42  C   UNL     1      -4.096  10.362  29.909  0.00  0.00    +0.045 A 
ATOM     43  C   UNL     1      -4.846  10.930  28.886  0.00  0.00    +0.095 A 
ATOM     44  N   UNL     1      -4.770  12.287  28.958  0.00  0.00    -0.360 N 
ATOM     45  H   UNL     1      -5.218  12.933  28.322  0.00  0.00    +0.165 HD
ATOM     46  C   UNL     1      -3.982  12.656  30.017  0.00  0.00    +0.047 A 
ATOM     47  C   UNL     1      -3.631  13.945  30.444  0.00  0.00    +0.026 A 
ATOM     48  C   UNL     1      -2.802  14.068  31.559  0.00  0.00    +0.002 A 
ATOM     49  C   UNL     1      -2.344  12.941  32.221  0.00  0.00    +0.001 A 
ATOM     50  C   UNL     1      -2.706  11.663  31.780  0.00  0.00    +0.011 A 
ATOM     51  C   UNL     1      -3.543  11.484  30.648  0.00  0.00    +0.010 A 
ENDBRANCH  40  42
ENDBRANCH  37  40
ENDBRANCH  35  37
ENDBRANCH  31  33
ENDBRANCH  30  31
ENDBRANCH   1  30
TORSDOF 16
