REMARK VINA RESULT:    -4.152      3.557      6.192
REMARK INTER + INTRA:         -11.056
REMARK INTER:                  -8.029
REMARK INTRA:                  -3.027
REMARK UNBOUND:                -3.505
REMARK  Name = lig_assembled_22.pdb
REMARK  20 active torsions:
REMARK  status: ('A' for Active; 'I' for Inactive)
REMARK    1  A    between atoms: _2  and  _9
REMARK    2  A    between atoms: _4  and  _18
REMARK    3  A    between atoms: _5  and  _9
REMARK    4  A    between atoms: _5  and  _12
REMARK    5  A    between atoms: _6  and  _7
REMARK    6  A    between atoms: _6  and  _18
REMARK    7  A    between atoms: _9  and  _10
REMARK    8  A    between atoms: _9  and  _11
REMARK    9  A    between atoms: _14  and  _34
REMARK   10  A    between atoms: _16  and  _22
REMARK   11  A    between atoms: _17  and  _21
REMARK   12  A    between atoms: _21  and  _22
REMARK   13  A    between atoms: _24  and  _25
REMARK   14  A    between atoms: _26  and  _27
REMARK   15  A    between atoms: _28  and  _30
REMARK   16  A    between atoms: _30  and  _31
REMARK   17  A    between atoms: _30  and  _32
REMARK   18  A    between atoms: _32  and  _33
REMARK   19  A    between atoms: _32  and  _34
REMARK   20  A    between atoms: _35  and  _37
REMARK                            x       y       z     vdW  Elec       q    Type
REMARK                         _______ _______ _______ _____ _____    ______ ____
ROOT
ATOM      1  C   UNL     1      -5.264   7.330  24.082  0.00  0.00    +0.163 C 
ENDROOT
BRANCH   1   2
ATOM      2  O   UNL     1      -4.085   6.869  24.763  0.00  0.00    -0.388 OA
ATOM      3  H   UNL     1      -3.305   7.198  24.310  0.00  0.00    +0.210 HD
ENDBRANCH   1   2
BRANCH   1   4
ATOM      4  C   UNL     1      -5.673   6.327  23.009  0.00  0.00    +0.141 C 
BRANCH   4   7
ATOM      5  C   UNL     1      -7.032   6.483  20.951  0.00  0.00    +0.401 C 
ATOM      6  O   UNL     1      -7.589   5.396  21.124  0.00  0.00    -0.226 OA
ATOM      7  N   UNL     1      -6.119   6.992  21.779  0.00  0.00    -0.279 N 
ATOM      8  H   UNL     1      -5.711   7.887  21.546  0.00  0.00    +0.152 HD
BRANCH   5   9
ATOM      9  O   UNL     1      -7.367   7.259  19.798  0.00  0.00    -0.444 OA
BRANCH   9  10
ATOM     10  C   UNL     1      -6.926   8.606  19.984  0.00  0.00    +0.292 C 
BRANCH  10  12
ATOM     11  N   UNL     1      -5.055   8.248  18.414  0.00  0.00    -0.131 NA
ATOM     12  C   UNL     1      -6.087   9.031  18.848  0.00  0.00    +0.120 A 
ATOM     13  C   UNL     1      -6.148  10.167  18.070  0.00  0.00    +0.138 A 
ATOM     14  N   UNL     1      -5.124  10.017  17.177  0.00  0.00    -0.235 N 
ATOM     15  N   UNL     1      -4.470   8.860  17.396  0.00  0.00    -0.064 NA
BRANCH  14  16
ATOM     16  C   UNL     1      -4.682  10.918  16.110  0.00  0.00    +0.155 C 
ATOM     17  C   UNL     1      -4.184  12.272  16.660  0.00  0.00    +0.048 C 
ATOM     18  C   UNL     1      -5.869  11.183  15.165  0.00  0.00    +0.048 C 
BRANCH  16  19
ATOM     19  C   UNL     1      -3.530  10.287  15.324  0.00  0.00    +0.332 C 
ATOM     20  O   UNL     1      -2.376  10.700  15.344  0.00  0.00    -0.248 OA
BRANCH  19  21
ATOM     21  O   UNL     1      -3.861   9.208  14.576  0.00  0.00    -0.479 OA
ATOM     22  H   UNL     1      -4.419   9.376  13.791  0.00  0.00    +0.295 HD
ENDBRANCH  19  21
ENDBRANCH  16  19
ENDBRANCH  14  16
ENDBRANCH  10  12
ENDBRANCH   9  10
ENDBRANCH   5   9
ENDBRANCH   4   7
ENDBRANCH   1   4
BRANCH   1  23
ATOM     23  C   UNL     1      -5.025   8.705  23.436  0.00  0.00    +0.175 C 
BRANCH  23  24
ATOM     24  C   UNL     1      -3.964   9.521  24.190  0.00  0.00    +0.176 C 
ATOM     25  O   UNL     1      -4.310   9.507  25.602  0.00  0.00    -0.332 OA
ATOM     26  C   UNL     1      -3.345  10.153  26.497  0.00  0.00    +0.277 C 
ATOM     27  C   UNL     1      -3.070  11.606  26.039  0.00  0.00    +0.110 C 
ATOM     28  C   UNL     1      -2.730  11.675  24.536  0.00  0.00    +0.143 C 
ATOM     29  C   UNL     1      -3.798  10.971  23.698  0.00  0.00    +0.133 C 
BRANCH  29  30
ATOM     30  N   UNL     1      -3.418  10.968  22.277  0.00  0.00    -0.308 N 
ATOM     31  H   UNL     1      -2.584  10.463  22.012  0.00  0.00    +0.149 HD
ATOM     32  C   UNL     1      -4.104  11.588  21.313  0.00  0.00    +0.210 C 
ATOM     33  C   UNL     1      -5.356  12.370  21.752  0.00  0.00    +0.109 C 
ATOM     34  O   UNL     1      -3.771  11.556  20.128  0.00  0.00    -0.276 OA
ENDBRANCH  29  30
BRANCH  26  35
ATOM     35  C   UNL     1      -2.019   9.364  26.532  0.00  0.00    +0.414 C 
ATOM     36  O   UNL     1      -0.946   9.960  26.620  0.00  0.00    -0.240 OA
ATOM     37  O   UNL     1      -2.023   8.134  26.472  0.00  0.00    -0.240 OA
ENDBRANCH  26  35
BRANCH  26  38
ATOM     38  O   UNL     1      -3.923  10.194  27.827  0.00  0.00    -0.343 OA
ATOM     39  C   UNL     1      -3.638  11.398  28.582  0.00  0.00    +0.198 C 
ENDBRANCH  26  38
BRANCH  28  40
ATOM     40  O   UNL     1      -2.634  13.040  24.126  0.00  0.00    -0.390 OA
ATOM     41  H   UNL     1      -3.395  13.267  23.586  0.00  0.00    +0.210 HD
ENDBRANCH  28  40
ENDBRANCH  23  24
BRANCH  23  42
ATOM     42  O   UNL     1      -6.262   9.443  23.366  0.00  0.00    -0.387 OA
ATOM     43  H   UNL     1      -6.976   8.904  23.713  0.00  0.00    +0.210 HD
ENDBRANCH  23  42
ENDBRANCH   1  23
TORSDOF 16
