REMARK VINA RESULT:    -4.316      2.879      5.486
REMARK INTER + INTRA:         -10.467
REMARK INTER:                  -7.470
REMARK INTRA:                  -2.997
REMARK UNBOUND:                -2.997
REMARK  Name = lig_assembled_15.pdb
REMARK  16 active torsions:
REMARK  status: ('A' for Active; 'I' for Inactive)
REMARK    1  A    between atoms: _2  and  _9
REMARK    2  A    between atoms: _4  and  _18
REMARK    3  A    between atoms: _6  and  _7
REMARK    4  A    between atoms: _6  and  _18
REMARK    5  A    between atoms: _14  and  _34
REMARK    6  A    between atoms: _16  and  _22
REMARK    7  A    between atoms: _17  and  _21
REMARK    8  A    between atoms: _21  and  _22
REMARK    9  A    between atoms: _24  and  _25
REMARK   10  A    between atoms: _26  and  _27
REMARK   11  A    between atoms: _28  and  _30
REMARK   12  A    between atoms: _30  and  _31
REMARK   13  A    between atoms: _30  and  _32
REMARK   14  A    between atoms: _32  and  _33
REMARK   15  A    between atoms: _32  and  _34
REMARK   16  A    between atoms: _35  and  _37
REMARK                            x       y       z     vdW  Elec       q    Type
REMARK                         _______ _______ _______ _____ _____    ______ ____
ROOT
ATOM      1  C   UNL     1      -2.821  11.930  23.165  0.00  0.00    +0.163 C 
ENDROOT
BRANCH   1   2
ATOM      2  O   UNL     1      -2.345  12.091  24.512  0.00  0.00    -0.388 OA
ATOM      3  H   UNL     1      -2.634  11.346  25.044  0.00  0.00    +0.210 HD
ENDBRANCH   1   2
BRANCH   1   4
ATOM      4  C   UNL     1      -3.578  13.180  22.728  0.00  0.00    +0.141 C 
BRANCH   4   7
ATOM      5  C   UNL     1      -5.832  13.485  23.694  0.00  0.00    +0.401 C 
ATOM      6  O   UNL     1      -6.412  12.941  22.751  0.00  0.00    -0.226 OA
ATOM      7  N   UNL     1      -4.510  13.645  23.762  0.00  0.00    -0.279 N 
ATOM      8  H   UNL     1      -4.128  14.113  24.572  0.00  0.00    +0.152 HD
BRANCH   5   9
ATOM      9  O   UNL     1      -6.604  13.987  24.788  0.00  0.00    -0.444 OA
BRANCH   9  10
ATOM     10  C   UNL     1      -7.047  12.896  25.600  0.00  0.00    +0.292 C 
BRANCH  10  12
ATOM     11  N   UNL     1      -7.655  13.175  27.982  0.00  0.00    -0.131 NA
ATOM     12  C   UNL     1      -6.695  13.133  27.013  0.00  0.00    +0.121 A 
ATOM     13  C   UNL     1      -5.463  13.330  27.593  0.00  0.00    +0.143 A 
ATOM     14  N   UNL     1      -5.720  13.460  28.938  0.00  0.00    -0.220 N 
ATOM     15  N   UNL     1      -7.056  13.379  29.147  0.00  0.00    -0.060 NA
BRANCH  14  16
ATOM     16  C   UNL     1      -4.798  13.621  30.006  0.00  0.00    +0.067 A 
ATOM     17  C   UNL     1      -4.042  12.537  30.475  0.00  0.00    +0.029 A 
ATOM     18  C   UNL     1      -3.170  12.707  31.556  0.00  0.00    +0.017 A 
ATOM     19  C   UNL     1      -3.049  13.955  32.163  0.00  0.00    +0.018 A 
ATOM     20 BR   UNL     1      -1.888  14.168  33.639  0.00  0.00    -0.050 Br
ATOM     21  C   UNL     1      -3.784  15.042  31.695  0.00  0.00    +0.017 A 
ATOM     22  C   UNL     1      -4.656  14.878  30.616  0.00  0.00    +0.029 A 
ENDBRANCH  14  16
ENDBRANCH  10  12
ENDBRANCH   9  10
ENDBRANCH   5   9
ENDBRANCH   4   7
ENDBRANCH   1   4
BRANCH   1  23
ATOM     23  C   UNL     1      -3.742  10.704  23.050  0.00  0.00    +0.175 C 
BRANCH  23  24
ATOM     24  C   UNL     1      -4.098  10.117  24.423  0.00  0.00    +0.176 C 
ATOM     25  O   UNL     1      -2.924   9.426  24.932  0.00  0.00    -0.332 OA
ATOM     26  C   UNL     1      -3.043   8.887  26.290  0.00  0.00    +0.277 C 
ATOM     27  C   UNL     1      -4.282   7.964  26.399  0.00  0.00    +0.110 C 
ATOM     28  C   UNL     1      -5.550   8.644  25.841  0.00  0.00    +0.143 C 
ATOM     29  C   UNL     1      -5.312   9.170  24.425  0.00  0.00    +0.133 C 
BRANCH  29  30
ATOM     30  N   UNL     1      -6.498   9.892  23.938  0.00  0.00    -0.308 N 
ATOM     31  H   UNL     1      -6.768  10.737  24.421  0.00  0.00    +0.149 HD
ATOM     32  C   UNL     1      -7.242   9.503  22.898  0.00  0.00    +0.210 C 
ATOM     33  C   UNL     1      -6.820   8.197  22.199  0.00  0.00    +0.109 C 
ATOM     34  O   UNL     1      -8.222  10.136  22.503  0.00  0.00    -0.276 OA
ENDBRANCH  29  30
BRANCH  26  35
ATOM     35  C   UNL     1      -3.158  10.028  27.323  0.00  0.00    +0.414 C 
ATOM     36  O   UNL     1      -2.472  11.043  27.204  0.00  0.00    -0.240 OA
ATOM     37  O   UNL     1      -3.936   9.934  28.273  0.00  0.00    -0.240 OA
ENDBRANCH  26  35
BRANCH  28  38
ATOM     38  O   UNL     1      -6.629   7.709  25.821  0.00  0.00    -0.390 OA
ATOM     39  H   UNL     1      -6.386   6.950  25.286  0.00  0.00    +0.210 HD
ENDBRANCH  28  38
BRANCH  26  40
ATOM     40  O   UNL     1      -1.858   8.097  26.566  0.00  0.00    -0.343 OA
ATOM     41  C   UNL     1      -2.117   6.754  27.048  0.00  0.00    +0.198 C 
ENDBRANCH  26  40
ENDBRANCH  23  24
BRANCH  23  42
ATOM     42  O   UNL     1      -3.126   9.696  22.223  0.00  0.00    -0.387 OA
ATOM     43  H   UNL     1      -2.269   9.463  22.588  0.00  0.00    +0.210 HD
ENDBRANCH  23  42
ENDBRANCH   1  23
TORSDOF 14
