REMARK VINA RESULT:    -4.905      3.807      9.752
REMARK INTER + INTRA:         -11.533
REMARK INTER:                  -8.802
REMARK INTRA:                  -2.731
REMARK UNBOUND:                -2.756
REMARK  Name = lig_assembled_41.pdb
REMARK  18 active torsions:
REMARK  status: ('A' for Active; 'I' for Inactive)
REMARK    1  A    between atoms: _2  and  _9
REMARK    2  A    between atoms: _4  and  _21
REMARK    3  A    between atoms: _6  and  _7
REMARK    4  A    between atoms: _6  and  _21
REMARK    5  A    between atoms: _10  and  _11
REMARK    6  A    between atoms: _11  and  _12
REMARK    7  A    between atoms: _17  and  _37
REMARK    8  A    between atoms: _19  and  _25
REMARK    9  A    between atoms: _20  and  _24
REMARK   10  A    between atoms: _24  and  _25
REMARK   11  A    between atoms: _27  and  _28
REMARK   12  A    between atoms: _29  and  _30
REMARK   13  A    between atoms: _31  and  _33
REMARK   14  A    between atoms: _33  and  _34
REMARK   15  A    between atoms: _33  and  _35
REMARK   16  A    between atoms: _35  and  _36
REMARK   17  A    between atoms: _35  and  _37
REMARK   18  A    between atoms: _38  and  _40
REMARK                            x       y       z     vdW  Elec       q    Type
REMARK                         _______ _______ _______ _____ _____    ______ ____
ROOT
ATOM      1  C   UNL     1      -6.570   9.450  23.483  0.00  0.00    +0.163 C 
ENDROOT
BRANCH   1   2
ATOM      2  O   UNL     1      -7.274   9.384  24.734  0.00  0.00    -0.388 OA
ATOM      3  H   UNL     1      -8.051   8.829  24.635  0.00  0.00    +0.210 HD
ENDBRANCH   1   2
BRANCH   1   4
ATOM      4  C   UNL     1      -7.447   8.906  22.361  0.00  0.00    +0.141 C 
BRANCH   4   7
ATOM      5  C   UNL     1      -6.994   9.447  19.992  0.00  0.00    +0.401 C 
ATOM      6  O   UNL     1      -6.500   8.346  19.738  0.00  0.00    -0.226 OA
ATOM      7  N   UNL     1      -7.457   9.797  21.193  0.00  0.00    -0.279 N 
ATOM      8  H   UNL     1      -7.836  10.726  21.306  0.00  0.00    +0.152 HD
BRANCH   5   9
ATOM      9  O   UNL     1      -7.083  10.425  18.953  0.00  0.00    -0.444 OA
BRANCH   9  10
ATOM     10  C   UNL     1      -6.995   9.780  17.680  0.00  0.00    +0.292 C 
BRANCH  10  12
ATOM     11  N   UNL     1      -4.572  10.011  17.281  0.00  0.00    -0.131 NA
ATOM     12  C   UNL     1      -5.851  10.306  16.915  0.00  0.00    +0.121 A 
ATOM     13  C   UNL     1      -5.824  11.098  15.788  0.00  0.00    +0.143 A 
ATOM     14  N   UNL     1      -4.491  11.353  15.559  0.00  0.00    -0.219 N 
ATOM     15  N   UNL     1      -3.753  10.602  16.425  0.00  0.00    -0.060 NA
BRANCH  14  16
ATOM     16  C   UNL     1      -3.851  12.133  14.555  0.00  0.00    +0.077 A 
ATOM     17  C   UNL     1      -3.045  11.611  13.522  0.00  0.00    +0.043 A 
ATOM     18  C   UNL     1      -2.430  12.506  12.621  0.00  0.00    +0.013 A 
ATOM     19  C   UNL     1      -2.600  13.887  12.741  0.00  0.00    +0.001 A 
ATOM     20  C   UNL     1      -3.413  14.400  13.741  0.00  0.00    +0.002 A 
ATOM     21  C   UNL     1      -4.042  13.532  14.632  0.00  0.00    +0.028 A 
BRANCH  17  22
ATOM     22  C   UNL     1      -2.962  10.157  13.184  0.00  0.00    +0.162 C 
ATOM     23  O   UNL     1      -1.894   9.566  13.328  0.00  0.00    -0.292 OA
ATOM     24  C   UNL     1      -4.179   9.423  12.676  0.00  0.00    +0.091 C 
ENDBRANCH  17  22
ENDBRANCH  14  16
ENDBRANCH  10  12
ENDBRANCH   9  10
ENDBRANCH   5   9
ENDBRANCH   4   7
ENDBRANCH   1   4
BRANCH   1  25
ATOM     25  C   UNL     1      -5.259   8.647  23.547  0.00  0.00    +0.175 C 
BRANCH  25  26
ATOM     26  C   UNL     1      -4.131   9.434  24.230  0.00  0.00    +0.176 C 
ATOM     27  O   UNL     1      -4.428   9.497  25.652  0.00  0.00    -0.332 OA
ATOM     28  C   UNL     1      -3.400  10.125  26.487  0.00  0.00    +0.277 C 
ATOM     29  C   UNL     1      -3.064  11.541  25.958  0.00  0.00    +0.110 C 
ATOM     30  C   UNL     1      -2.772  11.529  24.443  0.00  0.00    +0.143 C 
ATOM     31  C   UNL     1      -3.904  10.851  23.672  0.00  0.00    +0.133 C 
BRANCH  31  32
ATOM     32  N   UNL     1      -3.575  10.768  22.240  0.00  0.00    -0.308 N 
ATOM     33  H   UNL     1      -2.855  10.117  21.959  0.00  0.00    +0.149 HD
ATOM     34  C   UNL     1      -4.165  11.496  21.288  0.00  0.00    +0.210 C 
ATOM     35  C   UNL     1      -5.240  12.496  21.753  0.00  0.00    +0.109 C 
ATOM     36  O   UNL     1      -3.879  11.395  20.095  0.00  0.00    -0.276 OA
ENDBRANCH  31  32
BRANCH  28  37
ATOM     37  C   UNL     1      -2.117   9.267  26.513  0.00  0.00    +0.414 C 
ATOM     38  O   UNL     1      -2.193   8.039  26.506  0.00  0.00    -0.240 OA
ATOM     39  O   UNL     1      -1.009   9.803  26.540  0.00  0.00    -0.240 OA
ENDBRANCH  28  37
BRANCH  30  40
ATOM     40  O   UNL     1      -2.618  12.869  23.972  0.00  0.00    -0.390 OA
ATOM     41  H   UNL     1      -1.773  13.217  24.266  0.00  0.00    +0.210 HD
ENDBRANCH  30  40
BRANCH  28  42
ATOM     42  O   UNL     1      -3.929  10.252  27.832  0.00  0.00    -0.343 OA
ATOM     43  C   UNL     1      -3.953  11.604  28.355  0.00  0.00    +0.198 C 
ENDBRANCH  28  42
ENDBRANCH  25  26
BRANCH  25  44
ATOM     44  O   UNL     1      -4.856   8.249  22.221  0.00  0.00    -0.387 OA
ATOM     45  H   UNL     1      -4.660   7.309  22.214  0.00  0.00    +0.210 HD
ENDBRANCH  25  44
ENDBRANCH   1  25
TORSDOF 15
