REMARK VINA RESULT:    -4.283      5.381     11.975
REMARK INTER + INTRA:         -10.999
REMARK INTER:                  -8.420
REMARK INTRA:                  -2.578
REMARK UNBOUND:                -2.835
REMARK  Name = lig_assembled_13.pdb
REMARK  20 active torsions:
REMARK  status: ('A' for Active; 'I' for Inactive)
REMARK    1  A    between atoms: _2  and  _9
REMARK    2  A    between atoms: _4  and  _18
REMARK    3  A    between atoms: _5  and  _11
REMARK    4  A    between atoms: _6  and  _7
REMARK    5  A    between atoms: _6  and  _18
REMARK    6  A    between atoms: _9  and  _10
REMARK    7  A    between atoms: _10  and  _12
REMARK    8  A    between atoms: _11  and  _12
REMARK    9  A    between atoms: _14  and  _34
REMARK   10  A    between atoms: _16  and  _22
REMARK   11  A    between atoms: _17  and  _21
REMARK   12  A    between atoms: _21  and  _22
REMARK   13  A    between atoms: _24  and  _25
REMARK   14  A    between atoms: _26  and  _27
REMARK   15  A    between atoms: _28  and  _30
REMARK   16  A    between atoms: _30  and  _31
REMARK   17  A    between atoms: _30  and  _32
REMARK   18  A    between atoms: _32  and  _33
REMARK   19  A    between atoms: _32  and  _34
REMARK   20  A    between atoms: _35  and  _37
REMARK                            x       y       z     vdW  Elec       q    Type
REMARK                         _______ _______ _______ _____ _____    ______ ____
ROOT
ATOM      1  C   UNL     1      -6.383   9.442  23.051  0.00  0.00    +0.163 C 
ENDROOT
BRANCH   1   2
ATOM      2  O   UNL     1      -7.136   9.437  24.275  0.00  0.00    -0.388 OA
ATOM      3  H   UNL     1      -6.589   9.772  24.990  0.00  0.00    +0.210 HD
ENDBRANCH   1   2
BRANCH   1   4
ATOM      4  C   UNL     1      -5.053   8.688  23.221  0.00  0.00    +0.175 C 
BRANCH   4   5
ATOM      5  C   UNL     1      -4.016   9.512  23.998  0.00  0.00    +0.176 C 
ATOM      6  O   UNL     1      -4.376   9.472  25.406  0.00  0.00    -0.332 OA
ATOM      7  C   UNL     1      -3.433  10.123  26.320  0.00  0.00    +0.277 C 
ATOM      8  C   UNL     1      -3.181  11.587  25.886  0.00  0.00    +0.110 C 
ATOM      9  C   UNL     1      -2.825  11.684  24.388  0.00  0.00    +0.143 C 
ATOM     10  C   UNL     1      -3.871  10.972  23.528  0.00  0.00    +0.133 C 
BRANCH  10  11
ATOM     11  N   UNL     1      -3.476  10.996  22.111  0.00  0.00    -0.308 N 
ATOM     12  H   UNL     1      -2.692  10.423  21.830  0.00  0.00    +0.149 HD
ATOM     13  C   UNL     1      -4.085  11.724  21.172  0.00  0.00    +0.210 C 
ATOM     14  C   UNL     1      -5.260  12.605  21.637  0.00  0.00    +0.109 C 
ATOM     15  O   UNL     1      -3.742  11.713  19.989  0.00  0.00    -0.276 OA
ENDBRANCH  10  11
BRANCH   7  16
ATOM     16  C   UNL     1      -2.094   9.358  26.359  0.00  0.00    +0.414 C 
ATOM     17  O   UNL     1      -1.029   9.974  26.389  0.00  0.00    -0.240 OA
ATOM     18  O   UNL     1      -2.077   8.127  26.361  0.00  0.00    -0.240 OA
ENDBRANCH   7  16
BRANCH   7  19
ATOM     19  O   UNL     1      -4.027  10.134  27.644  0.00  0.00    -0.343 OA
ATOM     20  C   UNL     1      -4.658  11.384  28.021  0.00  0.00    +0.198 C 
ENDBRANCH   7  19
BRANCH   9  21
ATOM     21  O   UNL     1      -2.750  13.056  23.998  0.00  0.00    -0.390 OA
ATOM     22  H   UNL     1      -2.443  13.583  24.738  0.00  0.00    +0.210 HD
ENDBRANCH   9  21
ENDBRANCH   4   5
BRANCH   4  23
ATOM     23  O   UNL     1      -4.526   8.314  21.932  0.00  0.00    -0.387 OA
ATOM     24  H   UNL     1      -5.160   8.543  21.248  0.00  0.00    +0.210 HD
ENDBRANCH   4  23
ENDBRANCH   1   4
BRANCH   1  25
ATOM     25  C   UNL     1      -7.197   8.796  21.935  0.00  0.00    +0.141 C 
BRANCH  25  28
ATOM     26  C   UNL     1      -6.586   9.642  19.695  0.00  0.00    +0.401 C 
ATOM     27  O   UNL     1      -5.655   8.847  19.545  0.00  0.00    -0.226 OA
ATOM     28  N   UNL     1      -7.355   9.692  20.783  0.00  0.00    -0.279 N 
ATOM     29  H   UNL     1      -8.088  10.387  20.818  0.00  0.00    +0.152 HD
BRANCH  26  30
ATOM     30  O   UNL     1      -6.874  10.579  18.654  0.00  0.00    -0.444 OA
BRANCH  30  31
ATOM     31  C   UNL     1      -6.629   9.970  17.383  0.00  0.00    +0.292 C 
BRANCH  31  33
ATOM     32  N   UNL     1      -5.546  12.105  16.754  0.00  0.00    -0.131 NA
ATOM     33  C   UNL     1      -5.631  10.746  16.625  0.00  0.00    +0.120 A 
ATOM     34  C   UNL     1      -4.686  10.318  15.724  0.00  0.00    +0.137 A 
ATOM     35  N   UNL     1      -4.103  11.473  15.288  0.00  0.00    -0.241 N 
ATOM     36  N   UNL     1      -4.588  12.539  15.943  0.00  0.00    -0.065 NA
BRANCH  35  37
ATOM     37  C   UNL     1      -3.022  11.629  14.340  0.00  0.00    +0.265 C 
BRANCH  37  38
ATOM     38  C   UNL     1      -3.057  10.578  13.268  0.00  0.00    +0.329 C 
ATOM     39  O   UNL     1      -3.978  10.357  12.495  0.00  0.00    -0.249 OA
BRANCH  38  40
ATOM     40  O   UNL     1      -1.923   9.819  13.355  0.00  0.00    -0.464 OA
BRANCH  40  41
ATOM     41  C   UNL     1      -2.138   8.453  13.742  0.00  0.00    +0.229 C 
ATOM     42  C   UNL     1      -1.236   8.159  14.928  0.00  0.00    +0.048 C 
ENDBRANCH  40  41
ENDBRANCH  38  40
ENDBRANCH  37  38
ENDBRANCH  35  37
ENDBRANCH  31  33
ENDBRANCH  30  31
ENDBRANCH  26  30
ENDBRANCH  25  28
ENDBRANCH   1  25
TORSDOF 17
