REMARK VINA RESULT:    -3.894      2.883      5.481
REMARK INTER + INTRA:         -10.927
REMARK INTER:                  -8.162
REMARK INTRA:                  -2.765
REMARK UNBOUND:                -3.049
REMARK  Name = lig_assembled_45.pdb
REMARK  24 active torsions:
REMARK  status: ('A' for Active; 'I' for Inactive)
REMARK    1  A    between atoms: _2  and  _10
REMARK    2  A    between atoms: _3  and  _12
REMARK    3  A    between atoms: _3  and  _13
REMARK    4  A    between atoms: _3  and  _14
REMARK    5  A    between atoms: _3  and  _16
REMARK    6  A    between atoms: _5  and  _21
REMARK    7  A    between atoms: _6  and  _16
REMARK    8  A    between atoms: _7  and  _8
REMARK    9  A    between atoms: _7  and  _21
REMARK   10  A    between atoms: _10  and  _11
REMARK   11  A    between atoms: _11  and  _12
REMARK   12  A    between atoms: _14  and  _15
REMARK   13  A    between atoms: _17  and  _37
REMARK   14  A    between atoms: _19  and  _25
REMARK   15  A    between atoms: _20  and  _24
REMARK   16  A    between atoms: _24  and  _25
REMARK   17  A    between atoms: _27  and  _28
REMARK   18  A    between atoms: _29  and  _30
REMARK   19  A    between atoms: _31  and  _33
REMARK   20  A    between atoms: _33  and  _34
REMARK   21  A    between atoms: _33  and  _35
REMARK   22  A    between atoms: _35  and  _36
REMARK   23  A    between atoms: _35  and  _37
REMARK   24  A    between atoms: _38  and  _40
REMARK                            x       y       z     vdW  Elec       q    Type
REMARK                         _______ _______ _______ _____ _____    ______ ____
ROOT
ATOM      1  C   UNL     1      -6.422   9.366  23.216  0.00  0.00    +0.163 C 
ENDROOT
BRANCH   1   2
ATOM      2  O   UNL     1      -7.204   9.146  24.401  0.00  0.00    -0.388 OA
ATOM      3  H   UNL     1      -8.130   9.059  24.162  0.00  0.00    +0.210 HD
ENDBRANCH   1   2
BRANCH   1   4
ATOM      4  C   UNL     1      -5.070   8.637  23.305  0.00  0.00    +0.175 C 
BRANCH   4   5
ATOM      5  C   UNL     1      -4.025   9.451  24.082  0.00  0.00    +0.176 C 
ATOM      6  O   UNL     1      -4.387   9.414  25.490  0.00  0.00    -0.332 OA
ATOM      7  C   UNL     1      -3.437  10.054  26.405  0.00  0.00    +0.277 C 
ATOM      8  C   UNL     1      -3.170  11.517  25.971  0.00  0.00    +0.110 C 
ATOM      9  C   UNL     1      -2.812  11.610  24.473  0.00  0.00    +0.143 C 
ATOM     10  C   UNL     1      -3.865  10.909  23.613  0.00  0.00    +0.133 C 
BRANCH  10  11
ATOM     11  N   UNL     1      -3.469  10.929  22.196  0.00  0.00    -0.308 N 
ATOM     12  H   UNL     1      -2.712  10.325  21.909  0.00  0.00    +0.149 HD
ATOM     13  C   UNL     1      -4.045  11.694  21.265  0.00  0.00    +0.210 C 
ATOM     14  C   UNL     1      -5.178  12.624  21.739  0.00  0.00    +0.109 C 
ATOM     15  O   UNL     1      -3.702  11.679  20.082  0.00  0.00    -0.276 OA
ENDBRANCH  10  11
BRANCH   7  16
ATOM     16  C   UNL     1      -2.105   9.276  26.444  0.00  0.00    +0.414 C 
ATOM     17  O   UNL     1      -1.034   9.881  26.476  0.00  0.00    -0.240 OA
ATOM     18  O   UNL     1      -2.102   8.045  26.443  0.00  0.00    -0.240 OA
ENDBRANCH   7  16
BRANCH   9  19
ATOM     19  O   UNL     1      -2.723  12.981  24.083  0.00  0.00    -0.390 OA
ATOM     20  H   UNL     1      -2.329  13.041  23.210  0.00  0.00    +0.210 HD
ENDBRANCH   9  19
BRANCH   7  21
ATOM     21  O   UNL     1      -4.031  10.071  27.729  0.00  0.00    -0.343 OA
ATOM     22  C   UNL     1      -5.451   9.778  27.766  0.00  0.00    +0.198 C 
ENDBRANCH   7  21
ENDBRANCH   4   5
BRANCH   4  23
ATOM     23  O   UNL     1      -4.581   8.335  21.983  0.00  0.00    -0.387 OA
ATOM     24  H   UNL     1      -5.255   7.857  21.494  0.00  0.00    +0.210 HD
ENDBRANCH   4  23
ENDBRANCH   1   4
BRANCH   1  25
ATOM     25  C   UNL     1      -7.185   8.877  21.989  0.00  0.00    +0.141 C 
BRANCH  25  28
ATOM     26  C   UNL     1      -6.578   9.570  19.696  0.00  0.00    +0.401 C 
ATOM     27  O   UNL     1      -6.064   8.488  19.404  0.00  0.00    -0.226 OA
ATOM     28  N   UNL     1      -7.120   9.842  20.884  0.00  0.00    -0.279 N 
ATOM     29  H   UNL     1      -7.509  10.763  21.032  0.00  0.00    +0.152 HD
BRANCH  26  30
ATOM     30  O   UNL     1      -6.601  10.614  18.719  0.00  0.00    -0.444 OA
BRANCH  30  31
ATOM     31  C   UNL     1      -6.787  10.048  17.419  0.00  0.00    +0.292 C 
BRANCH  31  33
ATOM     32  N   UNL     1      -5.227   9.942  15.494  0.00  0.00    -0.131 NA
ATOM     33  C   UNL     1      -5.872  10.680  16.451  0.00  0.00    +0.120 A 
ATOM     34  C   UNL     1      -5.508  12.001  16.320  0.00  0.00    +0.137 A 
ATOM     35  N   UNL     1      -4.646  11.989  15.267  0.00  0.00    -0.251 N 
ATOM     36  N   UNL     1      -4.470  10.761  14.774  0.00  0.00    -0.065 NA
BRANCH  35  37
ATOM     37  C   UNL     1      -3.938  13.118  14.700  0.00  0.00    +0.150 C 
BRANCH  37  38
ATOM     38  C   UNL     1      -2.995  12.721  13.572  0.00  0.00    +0.074 C 
BRANCH  38  39
ATOM     39  C   UNL     1      -3.341  13.237  12.168  0.00  0.00    +0.134 C 
BRANCH  39  40
ATOM     40  N   UNL     1      -2.371  14.272  11.508  0.00  0.00    +0.241 N 
ATOM     41  C   UNL     1      -2.891  14.610  10.100  0.00  0.00    +0.192 C 
BRANCH  40  42
ATOM     42  C   UNL     1      -0.993  13.545  11.366  0.00  0.00    +0.129 C 
ATOM     43  C   UNL     1       0.208  14.419  11.711  0.00  0.00    +0.060 C 
ENDBRANCH  40  42
BRANCH  40  44
ATOM     44  C   UNL     1      -2.188  15.581  12.299  0.00  0.00    +0.129 C 
ATOM     45  C   UNL     1      -3.485  16.308  12.611  0.00  0.00    +0.060 C 
ENDBRANCH  40  44
ENDBRANCH  39  40
ENDBRANCH  38  39
ENDBRANCH  37  38
ENDBRANCH  35  37
ENDBRANCH  31  33
ENDBRANCH  30  31
ENDBRANCH  26  30
ENDBRANCH  25  28
ENDBRANCH   1  25
TORSDOF 19
