REMARK VINA RESULT:    -4.698      7.345     10.935
REMARK INTER + INTRA:         -10.191
REMARK INTER:                  -7.857
REMARK INTRA:                  -2.334
REMARK UNBOUND:                -2.334
REMARK  Name = lig_assembled_65.pdb
REMARK  16 active torsions:
REMARK  status: ('A' for Active; 'I' for Inactive)
REMARK    1  A    between atoms: _8  and  _20
REMARK    2  A    between atoms: _9  and  _15
REMARK    3  A    between atoms: _10  and  _11
REMARK    4  A    between atoms: _10  and  _20
REMARK    5  A    between atoms: _16  and  _36
REMARK    6  A    between atoms: _18  and  _24
REMARK    7  A    between atoms: _19  and  _23
REMARK    8  A    between atoms: _23  and  _24
REMARK    9  A    between atoms: _26  and  _27
REMARK   10  A    between atoms: _28  and  _29
REMARK   11  A    between atoms: _30  and  _32
REMARK   12  A    between atoms: _32  and  _33
REMARK   13  A    between atoms: _32  and  _34
REMARK   14  A    between atoms: _34  and  _35
REMARK   15  A    between atoms: _34  and  _36
REMARK   16  A    between atoms: _37  and  _39
REMARK                            x       y       z     vdW  Elec       q    Type
REMARK                         _______ _______ _______ _____ _____    ______ ____
ROOT
ATOM      1  C   UNL     1      -4.814   8.022  22.584  0.00  0.00    +0.163 C 
ENDROOT
BRANCH   1   2
ATOM      2  O   UNL     1      -5.011   7.205  21.419  0.00  0.00    -0.388 OA
ATOM      3  H   UNL     1      -5.108   6.287  21.683  0.00  0.00    +0.210 HD
ENDBRANCH   1   2
BRANCH   1   4
ATOM      4  C   UNL     1      -5.330   7.298  23.823  0.00  0.00    +0.141 C 
BRANCH   4   7
ATOM      5  C   UNL     1      -4.590   7.189  26.178  0.00  0.00    +0.401 C 
ATOM      6  O   UNL     1      -4.825   5.984  26.294  0.00  0.00    -0.226 OA
ATOM      7  N   UNL     1      -4.802   7.885  25.060  0.00  0.00    -0.279 N 
ATOM      8  H   UNL     1      -4.587   8.872  25.065  0.00  0.00    +0.152 HD
BRANCH   5   9
ATOM      9  O   UNL     1      -4.062   7.904  27.297  0.00  0.00    -0.444 OA
BRANCH   9  10
ATOM     10  C   UNL     1      -4.944   8.977  27.638  0.00  0.00    +0.292 C 
BRANCH  10  12
ATOM     11  N   UNL     1      -3.536   9.282  29.652  0.00  0.00    -0.131 NA
ATOM     12  C   UNL     1      -4.348   9.820  28.691  0.00  0.00    +0.121 A 
ATOM     13  C   UNL     1      -4.466  11.172  28.910  0.00  0.00    +0.149 A 
ATOM     14  N   UNL     1      -3.708  11.418  30.035  0.00  0.00    -0.155 N 
ATOM     15  C   UNL     1      -3.516  12.671  30.686  0.00  0.00    +0.416 C 
ATOM     16  N   UNL     1      -2.737  12.716  31.773  0.00  0.00    +0.041 NA
ATOM     17  C   UNL     1      -2.620  13.917  32.336  0.00  0.00    +0.339 C 
ATOM     18  C   UNL     1      -1.772  14.028  33.563  0.00  0.00    +0.149 C 
ATOM     19  N   UNL     1      -3.216  15.022  31.888  0.00  0.00    +0.007 NA
ATOM     20  C   UNL     1      -3.976  14.866  30.815  0.00  0.00    +0.386 C 
ATOM     21  N   UNL     1      -4.620  15.983  30.326  0.00  0.00    -0.296 N 
ATOM     22  H   UNL     1      -4.152  16.827  30.628  0.00  0.00    +0.148 HD
ATOM     23  H   UNL     1      -4.823  15.889  29.341  0.00  0.00    +0.148 HD
ATOM     24  N   UNL     1      -4.148  13.731  30.162  0.00  0.00    -0.290 NA
ATOM     25  N   UNL     1      -3.148  10.258  30.464  0.00  0.00    -0.055 NA
ENDBRANCH  10  12
ENDBRANCH   9  10
ENDBRANCH   5   9
ENDBRANCH   4   7
ENDBRANCH   1   4
BRANCH   1  26
ATOM     26  C   UNL     1      -5.538   9.372  22.439  0.00  0.00    +0.175 C 
BRANCH  26  27
ATOM     27  C   UNL     1      -4.665  10.548  22.899  0.00  0.00    +0.176 C 
ATOM     28  O   UNL     1      -5.125  10.958  24.216  0.00  0.00    -0.332 OA
ATOM     29  C   UNL     1      -4.335  12.009  24.865  0.00  0.00    +0.277 C 
ATOM     30  C   UNL     1      -4.221  13.247  23.943  0.00  0.00    +0.110 C 
ATOM     31  C   UNL     1      -3.765  12.858  22.521  0.00  0.00    +0.143 C 
ATOM     32  C   UNL     1      -4.653  11.755  21.943  0.00  0.00    +0.133 C 
BRANCH  32  33
ATOM     33  N   UNL     1      -4.157  11.332  20.624  0.00  0.00    -0.308 N 
ATOM     34  H   UNL     1      -3.240  10.911  20.578  0.00  0.00    +0.149 HD
ATOM     35  C   UNL     1      -4.838  11.470  19.483  0.00  0.00    +0.210 C 
ATOM     36  C   UNL     1      -6.222  12.140  19.583  0.00  0.00    +0.109 C 
ATOM     37  O   UNL     1      -4.403  11.093  18.395  0.00  0.00    -0.276 OA
ENDBRANCH  32  33
BRANCH  29  38
ATOM     38  C   UNL     1      -2.923  11.495  25.216  0.00  0.00    +0.414 C 
ATOM     39  O   UNL     1      -2.711  10.287  25.319  0.00  0.00    -0.240 OA
ATOM     40  O   UNL     1      -1.997  12.287  25.395  0.00  0.00    -0.240 OA
ENDBRANCH  29  38
BRANCH  29  41
ATOM     41  O   UNL     1      -5.026  12.404  26.079  0.00  0.00    -0.343 OA
ATOM     42  C   UNL     1      -5.960  13.502  25.921  0.00  0.00    +0.198 C 
ENDBRANCH  29  41
BRANCH  31  43
ATOM     43  O   UNL     1      -3.819  14.002  21.667  0.00  0.00    -0.390 OA
ATOM     44  H   UNL     1      -2.928  14.270  21.434  0.00  0.00    +0.210 HD
ENDBRANCH  31  43
ENDBRANCH  26  27
BRANCH  26  45
ATOM     45  O   UNL     1      -6.776   9.353  23.176  0.00  0.00    -0.387 OA
ATOM     46  H   UNL     1      -7.514   9.342  22.563  0.00  0.00    +0.210 HD
ENDBRANCH  26  45
ENDBRANCH   1  26
TORSDOF 13
