REMARK VINA RESULT:    -5.327      1.397      2.218
REMARK INTER + INTRA:         -12.087
REMARK INTER:                  -9.935
REMARK INTRA:                  -2.151
REMARK UNBOUND:                -2.867
REMARK  Name = lig_assembled_70.pdb
REMARK  16 active torsions:
REMARK  status: ('A' for Active; 'I' for Inactive)
REMARK    1  A    between atoms: _2  and  _10
REMARK    2  A    between atoms: _5  and  _22
REMARK    3  A    between atoms: _7  and  _8
REMARK    4  A    between atoms: _7  and  _22
REMARK    5  A    between atoms: _18  and  _38
REMARK    6  A    between atoms: _20  and  _26
REMARK    7  A    between atoms: _21  and  _25
REMARK    8  A    between atoms: _25  and  _26
REMARK    9  A    between atoms: _28  and  _29
REMARK   10  A    between atoms: _30  and  _31
REMARK   11  A    between atoms: _32  and  _34
REMARK   12  A    between atoms: _34  and  _35
REMARK   13  A    between atoms: _34  and  _36
REMARK   14  A    between atoms: _36  and  _37
REMARK   15  A    between atoms: _36  and  _38
REMARK   16  A    between atoms: _39  and  _41
REMARK                            x       y       z     vdW  Elec       q    Type
REMARK                         _______ _______ _______ _____ _____    ______ ____
ROOT
ATOM      1  C   UNL     1      -3.223  11.800  25.085  0.00  0.00    +0.163 C 
ENDROOT
BRANCH   1   2
ATOM      2  O   UNL     1      -2.040  10.986  25.035  0.00  0.00    -0.388 OA
ATOM      3  H   UNL     1      -1.978  10.460  25.837  0.00  0.00    +0.210 HD
ENDBRANCH   1   2
BRANCH   1   4
ATOM      4  C   UNL     1      -2.978  13.120  24.362  0.00  0.00    +0.141 C 
BRANCH   4   7
ATOM      5  C   UNL     1      -4.914  13.534  22.882  0.00  0.00    +0.401 C 
ATOM      6  O   UNL     1      -5.663  13.876  23.801  0.00  0.00    -0.226 OA
ATOM      7  N   UNL     1      -3.646  13.160  23.055  0.00  0.00    -0.279 N 
ATOM      8  H   UNL     1      -3.114  12.888  22.240  0.00  0.00    +0.152 HD
BRANCH   5   9
ATOM      9  O   UNL     1      -5.416  13.528  21.544  0.00  0.00    -0.444 OA
BRANCH   9  10
ATOM     10  C   UNL     1      -5.583  12.178  21.102  0.00  0.00    +0.292 C 
BRANCH  10  12
ATOM     11  N   UNL     1      -6.684  12.129  18.882  0.00  0.00    -0.131 NA
ATOM     12  C   UNL     1      -5.541  12.108  19.630  0.00  0.00    +0.121 A 
ATOM     13  C   UNL     1      -4.458  12.017  18.789  0.00  0.00    +0.143 A 
ATOM     14  N   UNL     1      -4.991  11.999  17.520  0.00  0.00    -0.218 N 
ATOM     15  N   UNL     1      -6.340  12.055  17.601  0.00  0.00    -0.060 NA
BRANCH  14  16
ATOM     16  C   UNL     1      -4.311  11.956  16.285  0.00  0.00    +0.086 A 
ATOM     17  C   UNL     1      -3.744  10.775  15.836  0.00  0.00    +0.139 A 
ATOM     18  N   UNL     1      -3.116  10.652  14.638  0.00  0.00    -0.253 NA
ATOM     19  C   UNL     1      -3.047  11.733  13.839  0.00  0.00    +0.071 A 
ATOM     20  C   UNL     1      -3.582  12.981  14.221  0.00  0.00    +0.002 A 
ATOM     21  C   UNL     1      -3.493  14.089  13.359  0.00  0.00    +0.010 A 
ATOM     22  C   UNL     1      -2.892  13.961  12.110  0.00  0.00    +0.001 A 
ATOM     23  C   UNL     1      -2.371  12.731  11.725  0.00  0.00    +0.002 A 
ATOM     24  C   UNL     1      -2.446  11.636  12.591  0.00  0.00    +0.028 A 
ATOM     25  C   UNL     1      -4.212  13.082  15.467  0.00  0.00    +0.039 A 
ENDBRANCH  14  16
ENDBRANCH  10  12
ENDBRANCH   9  10
ENDBRANCH   5   9
ENDBRANCH   4   7
ENDBRANCH   1   4
BRANCH   1  26
ATOM     26  C   UNL     1      -3.636  12.081  26.541  0.00  0.00    +0.175 C 
BRANCH  26  27
ATOM     27  C   UNL     1      -3.411  10.864  27.450  0.00  0.00    +0.176 C 
ATOM     28  O   UNL     1      -4.047   9.715  26.826  0.00  0.00    -0.332 OA
ATOM     29  C   UNL     1      -3.844   8.432  27.505  0.00  0.00    +0.277 C 
ATOM     30  C   UNL     1      -4.279   8.529  28.988  0.00  0.00    +0.110 C 
ATOM     31  C   UNL     1      -3.653   9.755  29.685  0.00  0.00    +0.143 C 
ATOM     32  C   UNL     1      -3.922  11.034  28.893  0.00  0.00    +0.133 C 
BRANCH  32  33
ATOM     33  N   UNL     1      -3.247  12.181  29.521  0.00  0.00    -0.308 N 
ATOM     34  H   UNL     1      -2.237  12.178  29.547  0.00  0.00    +0.149 HD
ATOM     35  C   UNL     1      -3.882  13.226  30.059  0.00  0.00    +0.210 C 
ATOM     36  C   UNL     1      -5.421  13.189  30.027  0.00  0.00    +0.109 C 
ATOM     37  O   UNL     1      -3.290  14.180  30.566  0.00  0.00    -0.276 OA
ENDBRANCH  32  33
BRANCH  29  38
ATOM     38  C   UNL     1      -2.365   8.000  27.429  0.00  0.00    +0.414 C 
ATOM     39  O   UNL     1      -1.854   7.372  28.355  0.00  0.00    -0.240 OA
ATOM     40  O   UNL     1      -1.683   8.280  26.442  0.00  0.00    -0.240 OA
ENDBRANCH  29  38
BRANCH  31  41
ATOM     41  O   UNL     1      -4.197   9.892  30.999  0.00  0.00    -0.390 OA
ATOM     42  H   UNL     1      -3.482   9.952  31.637  0.00  0.00    +0.210 HD
ENDBRANCH  31  41
BRANCH  29  43
ATOM     43  O   UNL     1      -4.676   7.440  26.848  0.00  0.00    -0.343 OA
ATOM     44  C   UNL     1      -5.203   7.841  25.558  0.00  0.00    +0.198 C 
ENDBRANCH  29  43
ENDBRANCH  26  27
BRANCH  26  45
ATOM     45  O   UNL     1      -5.017  12.492  26.594  0.00  0.00    -0.387 OA
ATOM     46  H   UNL     1      -5.066  13.413  26.860  0.00  0.00    +0.210 HD
ENDBRANCH  26  45
ENDBRANCH   1  26
TORSDOF 14
