REMARK VINA RESULT:    -4.289      4.054      9.242
REMARK INTER + INTRA:         -11.713
REMARK INTER:                  -9.712
REMARK INTRA:                  -2.001
REMARK UNBOUND:                -2.785
REMARK  Name = lig_assembled_54.pdb
REMARK  24 active torsions:
REMARK  status: ('A' for Active; 'I' for Inactive)
REMARK    1  A    between atoms: _2  and  _9
REMARK    2  A    between atoms: _4  and  _21
REMARK    3  A    between atoms: _5  and  _14
REMARK    4  A    between atoms: _6  and  _7
REMARK    5  A    between atoms: _6  and  _21
REMARK    6  A    between atoms: _9  and  _10
REMARK    7  A    between atoms: _10  and  _11
REMARK    8  A    between atoms: _11  and  _15
REMARK    9  A    between atoms: _11  and  _16
REMARK   10  A    between atoms: _12  and  _13
REMARK   11  A    between atoms: _12  and  _16
REMARK   12  A    between atoms: _14  and  _15
REMARK   13  A    between atoms: _17  and  _37
REMARK   14  A    between atoms: _19  and  _25
REMARK   15  A    between atoms: _20  and  _24
REMARK   16  A    between atoms: _24  and  _25
REMARK   17  A    between atoms: _27  and  _28
REMARK   18  A    between atoms: _29  and  _30
REMARK   19  A    between atoms: _31  and  _33
REMARK   20  A    between atoms: _33  and  _34
REMARK   21  A    between atoms: _33  and  _35
REMARK   22  A    between atoms: _35  and  _36
REMARK   23  A    between atoms: _35  and  _37
REMARK   24  A    between atoms: _38  and  _40
REMARK                            x       y       z     vdW  Elec       q    Type
REMARK                         _______ _______ _______ _____ _____    ______ ____
ROOT
ATOM      1  C   UNL     1      -3.401  11.933  25.318  0.00  0.00    +0.163 C 
ENDROOT
BRANCH   1   2
ATOM      2  O   UNL     1      -1.989  12.202  25.342  0.00  0.00    -0.388 OA
ATOM      3  H   UNL     1      -1.844  13.140  25.490  0.00  0.00    +0.210 HD
ENDBRANCH   1   2
BRANCH   1   4
ATOM      4  C   UNL     1      -3.998  12.001  26.734  0.00  0.00    +0.175 C 
BRANCH   4   5
ATOM      5  C   UNL     1      -3.539  10.827  27.612  0.00  0.00    +0.176 C 
ATOM      6  O   UNL     1      -4.128   9.611  27.076  0.00  0.00    -0.332 OA
ATOM      7  C   UNL     1      -3.713   8.365  27.728  0.00  0.00    +0.277 C 
ATOM      8  C   UNL     1      -3.968   8.442  29.253  0.00  0.00    +0.110 C 
ATOM      9  C   UNL     1      -3.387   9.735  29.863  0.00  0.00    +0.143 C 
ATOM     10  C   UNL     1      -3.881  10.968  29.107  0.00  0.00    +0.133 C 
BRANCH  10  11
ATOM     11  N   UNL     1      -3.253  12.187  29.642  0.00  0.00    -0.308 N 
ATOM     12  H   UNL     1      -2.248  12.268  29.575  0.00  0.00    +0.149 HD
ATOM     13  C   UNL     1      -3.924  13.192  30.210  0.00  0.00    +0.210 C 
ATOM     14  C   UNL     1      -5.452  13.026  30.321  0.00  0.00    +0.109 C 
ATOM     15  O   UNL     1      -3.373  14.208  30.636  0.00  0.00    -0.276 OA
ENDBRANCH  10  11
BRANCH   7  16
ATOM     16  C   UNL     1      -2.218   8.083  27.469  0.00  0.00    +0.414 C 
ATOM     17  O   UNL     1      -1.688   8.463  26.425  0.00  0.00    -0.240 OA
ATOM     18  O   UNL     1      -1.544   7.477  28.302  0.00  0.00    -0.240 OA
ENDBRANCH   7  16
BRANCH   9  19
ATOM     19  O   UNL     1      -3.774   9.837  31.234  0.00  0.00    -0.390 OA
ATOM     20  H   UNL     1      -4.666   9.498  31.342  0.00  0.00    +0.210 HD
ENDBRANCH   9  19
BRANCH   7  21
ATOM     21  O   UNL     1      -4.515   7.285  27.184  0.00  0.00    -0.343 OA
ATOM     22  C   UNL     1      -5.507   7.691  26.208  0.00  0.00    +0.198 C 
ENDBRANCH   7  21
ENDBRANCH   4   5
BRANCH   4  23
ATOM     23  O   UNL     1      -5.438  12.035  26.664  0.00  0.00    -0.387 OA
ATOM     24  H   UNL     1      -5.726  12.919  26.425  0.00  0.00    +0.210 HD
ENDBRANCH   4  23
ENDBRANCH   1   4
BRANCH   1  25
ATOM     25  C   UNL     1      -4.108  12.940  24.418  0.00  0.00    +0.141 C 
BRANCH  25  28
ATOM     26  C   UNL     1      -4.587  11.822  22.267  0.00  0.00    +0.401 C 
ATOM     27  O   UNL     1      -3.428  11.911  21.855  0.00  0.00    -0.226 OA
ATOM     28  N   UNL     1      -4.995  12.282  23.450  0.00  0.00    -0.279 N 
ATOM     29  H   UNL     1      -5.969  12.170  23.695  0.00  0.00    +0.152 HD
BRANCH  26  30
ATOM     30  O   UNL     1      -5.571  11.195  21.440  0.00  0.00    -0.444 OA
BRANCH  30  31
ATOM     31  C   UNL     1      -5.539  11.777  20.134  0.00  0.00    +0.292 C 
BRANCH  31  33
ATOM     32  N   UNL     1      -4.987   9.448  19.501  0.00  0.00    -0.131 NA
ATOM     33  C   UNL     1      -5.200  10.749  19.131  0.00  0.00    +0.120 A 
ATOM     34  C   UNL     1      -5.063  10.858  17.764  0.00  0.00    +0.137 A 
ATOM     35  N   UNL     1      -4.805   9.584  17.358  0.00  0.00    -0.251 N 
ATOM     36  N   UNL     1      -4.754   8.739  18.404  0.00  0.00    -0.065 NA
BRANCH  35  37
ATOM     37  C   UNL     1      -4.657   9.084  16.006  0.00  0.00    +0.150 C 
BRANCH  37  38
ATOM     38  C   UNL     1      -3.221   9.194  15.518  0.00  0.00    +0.084 C 
BRANCH  38  39
ATOM     39  C   UNL     1      -3.092   9.878  14.152  0.00  0.00    +0.252 C 
BRANCH  39  40
ATOM     40  O   UNL     1      -2.085   9.232  13.369  0.00  0.00    -0.352 OA
BRANCH  40  41
ATOM     41  C   UNL     1      -2.595   8.456  12.287  0.00  0.00    +0.159 C 
ATOM     42  C   UNL     1      -3.987   8.952  11.945  0.00  0.00    +0.034 C 
ENDBRANCH  40  41
ENDBRANCH  39  40
BRANCH  39  43
ATOM     43  O   UNL     1      -2.725  11.244  14.383  0.00  0.00    -0.352 OA
BRANCH  43  44
ATOM     44  C   UNL     1      -3.800  12.150  14.126  0.00  0.00    +0.159 C 
ATOM     45  C   UNL     1      -3.872  13.165  15.249  0.00  0.00    +0.034 C 
ENDBRANCH  43  44
ENDBRANCH  39  43
ENDBRANCH  38  39
ENDBRANCH  37  38
ENDBRANCH  35  37
ENDBRANCH  31  33
ENDBRANCH  30  31
ENDBRANCH  26  30
ENDBRANCH  25  28
ENDBRANCH   1  25
TORSDOF 20
