REMARK VINA RESULT:    -5.511      4.314      7.599
REMARK INTER + INTRA:         -12.571
REMARK INTER:                 -10.134
REMARK INTRA:                  -2.437
REMARK UNBOUND:                -2.389
REMARK  Name = lig_assembled_92.pdb
REMARK  18 active torsions:
REMARK  status: ('A' for Active; 'I' for Inactive)
REMARK    1  A    between atoms: _2  and  _11
REMARK    2  A    between atoms: _3  and  _46
REMARK    3  A    between atoms: _6  and  _25
REMARK    4  A    between atoms: _8  and  _9
REMARK    5  A    between atoms: _8  and  _25
REMARK    6  A    between atoms: _14  and  _46
REMARK    7  A    between atoms: _21  and  _41
REMARK    8  A    between atoms: _23  and  _29
REMARK    9  A    between atoms: _24  and  _28
REMARK   10  A    between atoms: _28  and  _29
REMARK   11  A    between atoms: _31  and  _32
REMARK   12  A    between atoms: _33  and  _34
REMARK   13  A    between atoms: _35  and  _37
REMARK   14  A    between atoms: _37  and  _38
REMARK   15  A    between atoms: _37  and  _39
REMARK   16  A    between atoms: _39  and  _40
REMARK   17  A    between atoms: _39  and  _41
REMARK   18  A    between atoms: _42  and  _44
REMARK                            x       y       z     vdW  Elec       q    Type
REMARK                         _______ _______ _______ _____ _____    ______ ____
ROOT
ATOM      1  C   UNL     1      -5.647  10.952  18.705  0.00  0.00    +0.401 C 
ATOM      2  O   UNL     1      -5.464  12.161  18.545  0.00  0.00    -0.226 OA
ATOM      3  N   UNL     1      -6.404  10.200  17.906  0.00  0.00    -0.279 N 
ATOM      4  H   UNL     1      -6.485   9.214  18.114  0.00  0.00    +0.152 HD
ENDROOT
BRANCH   3   5
ATOM      5  C   UNL     1      -7.125  10.722  16.739  0.00  0.00    +0.141 C 
BRANCH   5   6
ATOM      6  C   UNL     1      -6.275  10.671  15.474  0.00  0.00    +0.163 C 
BRANCH   6   7
ATOM      7  O   UNL     1      -5.513  11.882  15.345  0.00  0.00    -0.388 OA
ATOM      8  H   UNL     1      -4.606  11.667  15.112  0.00  0.00    +0.210 HD
ENDBRANCH   6   7
BRANCH   6   9
ATOM      9  C   UNL     1      -5.351   9.442  15.526  0.00  0.00    +0.175 C 
BRANCH   9  10
ATOM     10  C   UNL     1      -4.198   9.543  14.516  0.00  0.00    +0.176 C 
ATOM     11  O   UNL     1      -4.754   9.984  13.246  0.00  0.00    -0.332 OA
ATOM     12  C   UNL     1      -3.778  10.239  12.182  0.00  0.00    +0.277 C 
ATOM     13  C   UNL     1      -2.883   8.996  11.958  0.00  0.00    +0.110 C 
ATOM     14  C   UNL     1      -2.295   8.471  13.285  0.00  0.00    +0.143 C 
ATOM     15  C   UNL     1      -3.397   8.243  14.321  0.00  0.00    +0.133 C 
BRANCH  15  16
ATOM     16  N   UNL     1      -2.816   7.826  15.607  0.00  0.00    -0.308 N 
ATOM     17  H   UNL     1      -2.212   8.480  16.086  0.00  0.00    +0.149 HD
ATOM     18  C   UNL     1      -3.034   6.641  16.183  0.00  0.00    +0.210 C 
ATOM     19  C   UNL     1      -3.938   5.657  15.416  0.00  0.00    +0.109 C 
ATOM     20  O   UNL     1      -2.546   6.325  17.269  0.00  0.00    -0.276 OA
ENDBRANCH  15  16
BRANCH  12  21
ATOM     21  C   UNL     1      -2.894  11.455  12.531  0.00  0.00    +0.414 C 
ATOM     22  O   UNL     1      -1.730  11.509  12.136  0.00  0.00    -0.240 OA
ATOM     23  O   UNL     1      -3.344  12.380  13.207  0.00  0.00    -0.240 OA
ENDBRANCH  12  21
BRANCH  14  24
ATOM     24  O   UNL     1      -1.605   7.242  13.054  0.00  0.00    -0.390 OA
ATOM     25  H   UNL     1      -2.156   6.508  13.334  0.00  0.00    +0.210 HD
ENDBRANCH  14  24
BRANCH  12  26
ATOM     26  O   UNL     1      -4.509  10.503  10.957  0.00  0.00    -0.343 OA
ATOM     27  C   UNL     1      -5.275   9.382  10.448  0.00  0.00    +0.198 C 
ENDBRANCH  12  26
ENDBRANCH   9  10
BRANCH   9  28
ATOM     28  O   UNL     1      -6.111   8.239  15.294  0.00  0.00    -0.387 OA
ATOM     29  H   UNL     1      -7.048   8.449  15.282  0.00  0.00    +0.210 HD
ENDBRANCH   9  28
ENDBRANCH   6   9
ENDBRANCH   5   6
ENDBRANCH   3   5
BRANCH   1  30
ATOM     30  O   UNL     1      -5.016  10.295  19.807  0.00  0.00    -0.444 OA
BRANCH  30  31
ATOM     31  C   UNL     1      -4.033  11.161  20.381  0.00  0.00    +0.292 C 
BRANCH  31  33
ATOM     32  N   UNL     1      -3.319   9.688  22.243  0.00  0.00    -0.131 NA
ATOM     33  C   UNL     1      -3.862  10.866  21.816  0.00  0.00    +0.121 A 
ATOM     34  C   UNL     1      -4.172  11.639  22.909  0.00  0.00    +0.143 A 
ATOM     35  N   UNL     1      -3.769  10.898  23.997  0.00  0.00    -0.220 N 
ATOM     36  N   UNL     1      -3.272   9.712  23.570  0.00  0.00    -0.060 NA
BRANCH  35  37
ATOM     37  C   UNL     1      -3.799  11.259  25.367  0.00  0.00    +0.067 A 
ATOM     38  C   UNL     1      -2.836  10.753  26.255  0.00  0.00    +0.030 A 
ATOM     39  C   UNL     1      -2.904  11.062  27.613  0.00  0.00    +0.031 A 
ATOM     40  C   UNL     1      -3.925  11.887  28.088  0.00  0.00    +0.109 A 
ATOM     41  C   UNL     1      -4.885  12.407  27.215  0.00  0.00    +0.031 A 
ATOM     42  C   UNL     1      -4.815  12.100  25.851  0.00  0.00    +0.030 A 
BRANCH  40  43
ATOM     43  S   UNL     1      -4.068  12.133  29.838  0.00  0.00    +0.074 S 
ATOM     44  O   UNL     1      -5.335  12.793  30.085  0.00  0.00    -0.150 OA
ATOM     45  O   UNL     1      -3.755  10.892  30.506  0.00  0.00    -0.150 OA
BRANCH  43  46
ATOM     46  N   UNL     1      -2.894  13.302  30.169  0.00  0.00    -0.194 N 
ATOM     47  H   UNL     1      -3.071  14.071  29.527  0.00  0.00    +0.176 HD
ATOM     48  C   UNL     1      -2.896  13.689  31.525  0.00  0.00    +0.177 A 
ATOM     49  S   UNL     1      -3.695  15.093  32.083  0.00  0.00    -0.059 S 
ATOM     50  C   UNL     1      -3.062  14.800  33.651  0.00  0.00    +0.068 A 
ATOM     51  C   UNL     1      -2.229  13.702  33.613  0.00  0.00    +0.120 A 
ATOM     52  N   UNL     1      -2.161  13.046  32.398  0.00  0.00    -0.232 NA
ENDBRANCH  43  46
ENDBRANCH  40  43
ENDBRANCH  35  37
ENDBRANCH  31  33
ENDBRANCH  30  31
ENDBRANCH   1  30
TORSDOF 16
