REMARK VINA RESULT:    -4.535      4.384      9.027
REMARK INTER + INTRA:         -12.437
REMARK INTER:                  -9.294
REMARK INTRA:                  -3.143
REMARK UNBOUND:                -3.793
REMARK  Name = lig_assembled_21.pdb
REMARK  20 active torsions:
REMARK  status: ('A' for Active; 'I' for Inactive)
REMARK    1  A    between atoms: _2  and  _9
REMARK    2  A    between atoms: _4  and  _23
REMARK    3  A    between atoms: _6  and  _7
REMARK    4  A    between atoms: _6  and  _23
REMARK    5  A    between atoms: _9  and  _10
REMARK    6  A    between atoms: _11  and  _18
REMARK    7  A    between atoms: _12  and  _13
REMARK    8  A    between atoms: _12  and  _18
REMARK    9  A    between atoms: _19  and  _39
REMARK   10  A    between atoms: _21  and  _27
REMARK   11  A    between atoms: _22  and  _26
REMARK   12  A    between atoms: _26  and  _27
REMARK   13  A    between atoms: _29  and  _30
REMARK   14  A    between atoms: _31  and  _32
REMARK   15  A    between atoms: _33  and  _35
REMARK   16  A    between atoms: _35  and  _36
REMARK   17  A    between atoms: _35  and  _37
REMARK   18  A    between atoms: _37  and  _38
REMARK   19  A    between atoms: _37  and  _39
REMARK   20  A    between atoms: _40  and  _42
REMARK                            x       y       z     vdW  Elec       q    Type
REMARK                         _______ _______ _______ _____ _____    ______ ____
ROOT
ATOM      1  C   UNL     1      -3.407  12.621  23.973  0.00  0.00    +0.163 C 
ENDROOT
BRANCH   1   2
ATOM      2  O   UNL     1      -2.036  12.619  24.403  0.00  0.00    -0.388 OA
ATOM      3  H   UNL     1      -1.982  12.291  25.303  0.00  0.00    +0.210 HD
ENDBRANCH   1   2
BRANCH   1   4
ATOM      4  C   UNL     1      -4.361  12.651  25.179  0.00  0.00    +0.175 C 
BRANCH   4   5
ATOM      5  C   UNL     1      -4.040  11.547  26.198  0.00  0.00    +0.176 C 
ATOM      6  O   UNL     1      -3.821  10.311  25.464  0.00  0.00    -0.332 OA
ATOM      7  C   UNL     1      -3.397   9.162  26.269  0.00  0.00    +0.277 C 
ATOM      8  C   UNL     1      -4.395   8.914  27.426  0.00  0.00    +0.110 C 
ATOM      9  C   UNL     1      -4.684  10.207  28.217  0.00  0.00    +0.143 C 
ATOM     10  C   UNL     1      -5.115  11.338  27.281  0.00  0.00    +0.133 C 
BRANCH  10  11
ATOM     11  N   UNL     1      -5.303  12.587  28.035  0.00  0.00    -0.308 N 
ATOM     12  H   UNL     1      -4.485  13.022  28.439  0.00  0.00    +0.149 HD
ATOM     13  C   UNL     1      -6.484  13.184  28.221  0.00  0.00    +0.210 C 
ATOM     14  C   UNL     1      -7.714  12.482  27.615  0.00  0.00    +0.109 C 
ATOM     15  O   UNL     1      -6.609  14.238  28.844  0.00  0.00    -0.276 OA
ENDBRANCH  10  11
BRANCH   7  16
ATOM     16  C   UNL     1      -1.985   9.391  26.847  0.00  0.00    +0.414 C 
ATOM     17  O   UNL     1      -1.676   8.913  27.938  0.00  0.00    -0.240 OA
ATOM     18  O   UNL     1      -1.155  10.054  26.224  0.00  0.00    -0.240 OA
ENDBRANCH   7  16
BRANCH   9  19
ATOM     19  O   UNL     1      -5.719   9.967  29.172  0.00  0.00    -0.390 OA
ATOM     20  H   UNL     1      -6.521  10.416  28.895  0.00  0.00    +0.210 HD
ENDBRANCH   9  19
BRANCH   7  21
ATOM     21  O   UNL     1      -3.389   7.991  25.412  0.00  0.00    -0.343 OA
ATOM     22  C   UNL     1      -3.658   6.737  26.087  0.00  0.00    +0.198 C 
ENDBRANCH   7  21
ENDBRANCH   4   5
BRANCH   4  23
ATOM     23  O   UNL     1      -5.728  12.534  24.735  0.00  0.00    -0.387 OA
ATOM     24  H   UNL     1      -6.114  13.409  24.654  0.00  0.00    +0.210 HD
ENDBRANCH   4  23
ENDBRANCH   1   4
BRANCH   1  25
ATOM     25  C   UNL     1      -3.674  13.830  23.082  0.00  0.00    +0.141 C 
BRANCH  25  28
ATOM     26  C   UNL     1      -5.709  13.920  21.684  0.00  0.00    +0.401 C 
ATOM     27  O   UNL     1      -6.318  14.667  22.454  0.00  0.00    -0.226 OA
ATOM     28  N   UNL     1      -4.471  13.474  21.902  0.00  0.00    -0.279 N 
ATOM     29  H   UNL     1      -4.059  12.858  21.216  0.00  0.00    +0.152 HD
BRANCH  26  30
ATOM     30  O   UNL     1      -6.351  13.490  20.481  0.00  0.00    -0.444 OA
BRANCH  30  31
ATOM     31  C   UNL     1      -6.862  12.167  20.659  0.00  0.00    +0.292 C 
BRANCH  31  33
ATOM     32  N   UNL     1      -5.011  10.643  20.059  0.00  0.00    -0.131 NA
ATOM     33  C   UNL     1      -6.198  11.235  19.728  0.00  0.00    +0.120 A 
ATOM     34  C   UNL     1      -6.596  10.782  18.490  0.00  0.00    +0.137 A 
ATOM     35  N   UNL     1      -5.653   9.846  18.160  0.00  0.00    -0.247 N 
ATOM     36  N   UNL     1      -4.685   9.798  19.093  0.00  0.00    -0.065 NA
BRANCH  35  37
ATOM     37  C   UNL     1      -5.706   8.945  17.014  0.00  0.00    +0.184 C 
BRANCH  37  38
ATOM     38  C   UNL     1      -4.427   8.818  16.221  0.00  0.00    +0.016 A 
ATOM     39  C   UNL     1      -4.012   9.811  15.315  0.00  0.00    +0.137 A 
ATOM     40  C   UNL     1      -2.824   9.676  14.595  0.00  0.00    +0.047 A 
ATOM     41  C   UNL     1      -2.024   8.549  14.785  0.00  0.00    +0.004 A 
ATOM     42  C   UNL     1      -2.426   7.548  15.667  0.00  0.00    +0.001 A 
ATOM     43  C   UNL     1      -3.616   7.682  16.382  0.00  0.00    +0.009 A 
BRANCH  39  44
ATOM     44  O   UNL     1      -4.894  10.898  15.112  0.00  0.00    -0.426 OA
BRANCH  44  45
ATOM     45  C   UNL     1      -4.466  12.227  15.136  0.00  0.00    +0.309 C 
ATOM     46  O   UNL     1      -4.528  13.041  14.224  0.00  0.00    -0.251 OA
ATOM     47  C   UNL     1      -3.968  12.553  16.513  0.00  0.00    +0.136 C 
ENDBRANCH  44  45
ENDBRANCH  39  44
ENDBRANCH  37  38
ENDBRANCH  35  37
ENDBRANCH  31  33
ENDBRANCH  30  31
ENDBRANCH  26  30
ENDBRANCH  25  28
ENDBRANCH   1  25
TORSDOF 17
