REMARK VINA RESULT:    -4.748      5.279      9.697
REMARK INTER + INTRA:         -10.997
REMARK INTER:                  -8.675
REMARK INTRA:                  -2.323
REMARK UNBOUND:                -2.363
REMARK  Name = lig_assembled_59.pdb
REMARK  18 active torsions:
REMARK  status: ('A' for Active; 'I' for Inactive)
REMARK    1  A    between atoms: _2  and  _10
REMARK    2  A    between atoms: _5  and  _20
REMARK    3  A    between atoms: _7  and  _8
REMARK    4  A    between atoms: _7  and  _20
REMARK    5  A    between atoms: _13  and  _14
REMARK    6  A    between atoms: _14  and  _15
REMARK    7  A    between atoms: _16  and  _36
REMARK    8  A    between atoms: _18  and  _24
REMARK    9  A    between atoms: _19  and  _23
REMARK   10  A    between atoms: _23  and  _24
REMARK   11  A    between atoms: _26  and  _27
REMARK   12  A    between atoms: _28  and  _29
REMARK   13  A    between atoms: _30  and  _32
REMARK   14  A    between atoms: _32  and  _33
REMARK   15  A    between atoms: _32  and  _34
REMARK   16  A    between atoms: _34  and  _35
REMARK   17  A    between atoms: _34  and  _36
REMARK   18  A    between atoms: _37  and  _39
REMARK                            x       y       z     vdW  Elec       q    Type
REMARK                         _______ _______ _______ _____ _____    ______ ____
ROOT
ATOM      1  C   UNL     1      -5.291   7.410  23.832  0.00  0.00    +0.163 C 
ENDROOT
BRANCH   1   2
ATOM      2  O   UNL     1      -4.110   6.998  24.540  0.00  0.00    -0.388 OA
ATOM      3  H   UNL     1      -3.584   6.423  23.979  0.00  0.00    +0.210 HD
ENDBRANCH   1   2
BRANCH   1   4
ATOM      4  C   UNL     1      -5.174   8.874  23.375  0.00  0.00    +0.175 C 
BRANCH   4   5
ATOM      5  C   UNL     1      -4.061   9.626  24.119  0.00  0.00    +0.176 C 
ATOM      6  O   UNL     1      -4.386   9.617  25.536  0.00  0.00    -0.332 OA
ATOM      7  C   UNL     1      -3.375  10.202  26.422  0.00  0.00    +0.277 C 
ATOM      8  C   UNL     1      -3.031  11.644  25.972  0.00  0.00    +0.110 C 
ATOM      9  C   UNL     1      -2.709  11.708  24.464  0.00  0.00    +0.143 C 
ATOM     10  C   UNL     1      -3.825  11.069  23.637  0.00  0.00    +0.133 C 
BRANCH  10  11
ATOM     11  N   UNL     1      -3.467  11.059  22.210  0.00  0.00    -0.308 N 
ATOM     12  H   UNL     1      -2.674  10.500  21.926  0.00  0.00    +0.149 HD
ATOM     13  C   UNL     1      -4.121  11.740  21.265  0.00  0.00    +0.210 C 
ATOM     14  C   UNL     1      -5.308  12.602  21.733  0.00  0.00    +0.109 C 
ATOM     15  O   UNL     1      -3.808  11.700  20.075  0.00  0.00    -0.276 OA
ENDBRANCH  10  11
BRANCH   7  16
ATOM     16  C   UNL     1      -2.092   9.345  26.430  0.00  0.00    +0.414 C 
ATOM     17  O   UNL     1      -0.987   9.882  26.486  0.00  0.00    -0.240 OA
ATOM     18  O   UNL     1      -2.163   8.116  26.380  0.00  0.00    -0.240 OA
ENDBRANCH   7  16
BRANCH   7  19
ATOM     19  O   UNL     1      -3.931  10.262  27.761  0.00  0.00    -0.343 OA
ATOM     20  C   UNL     1      -4.051  11.596  28.315  0.00  0.00    +0.198 C 
ENDBRANCH   7  19
BRANCH   9  21
ATOM     21  O   UNL     1      -2.547  13.070  24.064  0.00  0.00    -0.390 OA
ATOM     22  H   UNL     1      -1.808  13.139  23.456  0.00  0.00    +0.210 HD
ENDBRANCH   9  21
ENDBRANCH   4   5
BRANCH   4  23
ATOM     23  O   UNL     1      -6.435   9.551  23.551  0.00  0.00    -0.387 OA
ATOM     24  H   UNL     1      -6.276  10.458  23.824  0.00  0.00    +0.210 HD
ENDBRANCH   4  23
ENDBRANCH   1   4
BRANCH   1  25
ATOM     25  C   UNL     1      -5.511   6.513  22.619  0.00  0.00    +0.141 C 
BRANCH  25  28
ATOM     26  C   UNL     1      -5.748   6.905  20.191  0.00  0.00    +0.401 C 
ATOM     27  O   UNL     1      -5.118   5.894  19.871  0.00  0.00    -0.226 OA
ATOM     28  N   UNL     1      -5.974   7.274  21.452  0.00  0.00    -0.279 N 
ATOM     29  H   UNL     1      -6.494   8.125  21.614  0.00  0.00    +0.152 HD
BRANCH  26  30
ATOM     30  O   UNL     1      -6.273   7.750  19.164  0.00  0.00    -0.444 OA
BRANCH  30  31
ATOM     31  C   UNL     1      -5.996   7.175  17.884  0.00  0.00    +0.292 C 
BRANCH  31  33
ATOM     32  N   UNL     1      -3.857   7.656  16.742  0.00  0.00    -0.131 NA
ATOM     33  C   UNL     1      -5.111   8.062  17.106  0.00  0.00    +0.121 A 
ATOM     34  C   UNL     1      -5.326   9.337  16.636  0.00  0.00    +0.145 A 
ATOM     35  N   UNL     1      -4.161   9.672  15.983  0.00  0.00    -0.202 N 
ATOM     36  N   UNL     1      -3.286   8.637  16.057  0.00  0.00    -0.059 NA
BRANCH  35  37
ATOM     37  C   UNL     1      -3.860  10.897  15.330  0.00  0.00    +0.156 A 
ATOM     38  C   UNL     1      -4.295  12.093  15.898  0.00  0.00    +0.048 A 
ATOM     39  C   UNL     1      -4.032  13.288  15.231  0.00  0.00    +0.011 A 
ATOM     40  C   UNL     1      -3.338  13.273  14.019  0.00  0.00    -0.004 A 
ATOM     41  C   UNL     1      -2.942  12.032  13.528  0.00  0.00    +0.119 A 
ATOM     42  N   UNL     1      -3.175  10.853  14.154  0.00  0.00    -0.236 NA
BRANCH  40  43
ATOM     43  C   UNL     1      -3.127  14.537  13.240  0.00  0.00    +0.192 C 
BRANCH  43  44
ATOM     44  O   UNL     1      -3.568  14.398  11.897  0.00  0.00    -0.390 OA
ATOM     45  H   UNL     1      -2.811  14.622  11.326  0.00  0.00    +0.210 HD
ENDBRANCH  43  44
ENDBRANCH  40  43
ENDBRANCH  35  37
ENDBRANCH  31  33
ENDBRANCH  30  31
ENDBRANCH  26  30
ENDBRANCH  25  28
ENDBRANCH   1  25
TORSDOF 16
