REMARK VINA RESULT:    -4.539      3.796      6.472
REMARK INTER + INTRA:         -11.910
REMARK INTER:                  -8.304
REMARK INTRA:                  -3.607
REMARK UNBOUND:                -3.657
REMARK  Name = lig_assembled_88.pdb
REMARK  18 active torsions:
REMARK  status: ('A' for Active; 'I' for Inactive)
REMARK    1  A    between atoms: _2  and  _9
REMARK    2  A    between atoms: _4  and  _20
REMARK    3  A    between atoms: _5  and  _15
REMARK    4  A    between atoms: _6  and  _7
REMARK    5  A    between atoms: _6  and  _20
REMARK    6  A    between atoms: _9  and  _10
REMARK    7  A    between atoms: _16  and  _36
REMARK    8  A    between atoms: _18  and  _24
REMARK    9  A    between atoms: _19  and  _23
REMARK   10  A    between atoms: _23  and  _24
REMARK   11  A    between atoms: _26  and  _27
REMARK   12  A    between atoms: _28  and  _29
REMARK   13  A    between atoms: _30  and  _32
REMARK   14  A    between atoms: _32  and  _33
REMARK   15  A    between atoms: _32  and  _34
REMARK   16  A    between atoms: _34  and  _35
REMARK   17  A    between atoms: _34  and  _36
REMARK   18  A    between atoms: _37  and  _39
REMARK                            x       y       z     vdW  Elec       q    Type
REMARK                         _______ _______ _______ _____ _____    ______ ____
ROOT
ATOM      1  C   UNL     1      -4.115   9.101  29.471  0.00  0.00    +0.163 C 
ENDROOT
BRANCH   1   2
ATOM      2  O   UNL     1      -4.775   8.911  30.733  0.00  0.00    -0.388 OA
ATOM      3  H   UNL     1      -5.499   8.290  30.626  0.00  0.00    +0.210 HD
ENDBRANCH   1   2
BRANCH   1   4
ATOM      4  C   UNL     1      -2.910  10.046  29.617  0.00  0.00    +0.175 C 
BRANCH   4   5
ATOM      5  C   UNL     1      -3.341  11.498  29.871  0.00  0.00    +0.176 C 
ATOM      6  O   UNL     1      -3.802  11.593  31.247  0.00  0.00    -0.332 OA
ATOM      7  C   UNL     1      -4.158  12.939  31.705  0.00  0.00    +0.277 C 
ATOM      8  C   UNL     1      -5.205  13.574  30.757  0.00  0.00    +0.110 C 
ATOM      9  C   UNL     1      -4.774  13.468  29.279  0.00  0.00    +0.143 C 
ATOM     10  C   UNL     1      -4.423  12.026  28.911  0.00  0.00    +0.133 C 
BRANCH  10  11
ATOM     11  N   UNL     1      -3.931  11.953  27.527  0.00  0.00    -0.308 N 
ATOM     12  H   UNL     1      -3.036  12.375  27.321  0.00  0.00    +0.149 HD
ATOM     13  C   UNL     1      -4.588  11.364  26.524  0.00  0.00    +0.210 C 
ATOM     14  C   UNL     1      -5.960  10.751  26.864  0.00  0.00    +0.109 C 
ATOM     15  O   UNL     1      -4.144  11.304  25.377  0.00  0.00    -0.276 OA
ENDBRANCH  10  11
BRANCH   7  16
ATOM     16  C   UNL     1      -2.909  13.842  31.772  0.00  0.00    +0.414 C 
ATOM     17  O   UNL     1      -2.955  14.997  31.349  0.00  0.00    -0.240 OA
ATOM     18  O   UNL     1      -1.856  13.416  32.248  0.00  0.00    -0.240 OA
ENDBRANCH   7  16
BRANCH   7  19
ATOM     19  O   UNL     1      -4.748  12.823  33.025  0.00  0.00    -0.343 OA
ATOM     20  C   UNL     1      -4.727  11.487  33.590  0.00  0.00    +0.198 C 
ENDBRANCH   7  19
BRANCH   9  21
ATOM     21  O   UNL     1      -5.830  13.926  28.434  0.00  0.00    -0.390 OA
ATOM     22  H   UNL     1      -6.230  14.711  28.817  0.00  0.00    +0.210 HD
ENDBRANCH   9  21
ENDBRANCH   4   5
BRANCH   4  23
ATOM     23  O   UNL     1      -2.077   9.974  28.442  0.00  0.00    -0.387 OA
ATOM     24  H   UNL     1      -2.140  10.798  27.954  0.00  0.00    +0.210 HD
ENDBRANCH   4  23
ENDBRANCH   1   4
BRANCH   1  25
ATOM     25  C   UNL     1      -3.646   7.758  28.920  0.00  0.00    +0.141 C 
BRANCH  25  28
ATOM     26  C   UNL     1      -2.644   7.203  26.731  0.00  0.00    +0.401 C 
ATOM     27  O   UNL     1      -1.646   6.667  27.218  0.00  0.00    -0.226 OA
ATOM     28  N   UNL     1      -3.626   7.745  27.452  0.00  0.00    -0.279 N 
ATOM     29  H   UNL     1      -4.400   8.171  26.962  0.00  0.00    +0.152 HD
BRANCH  26  30
ATOM     30  O   UNL     1      -2.776   7.263  25.308  0.00  0.00    -0.444 OA
BRANCH  30  31
ATOM     31  C   UNL     1      -4.150   7.094  24.948  0.00  0.00    +0.292 C 
BRANCH  31  33
ATOM     32  N   UNL     1      -3.618   8.234  22.816  0.00  0.00    -0.131 NA
ATOM     33  C   UNL     1      -4.505   7.989  23.830  0.00  0.00    +0.120 A 
ATOM     34  C   UNL     1      -5.660   8.703  23.602  0.00  0.00    +0.137 A 
ATOM     35  N   UNL     1      -5.383   9.420  22.474  0.00  0.00    -0.247 N 
ATOM     36  N   UNL     1      -4.175   9.096  21.976  0.00  0.00    -0.065 NA
BRANCH  35  37
ATOM     37  C   UNL     1      -6.180  10.470  21.859  0.00  0.00    +0.184 C 
BRANCH  37  38
ATOM     38  C   UNL     1      -5.983  11.826  22.507  0.00  0.00    +0.017 A 
ATOM     39  C   UNL     1      -6.808  12.293  23.548  0.00  0.00    +0.024 A 
ATOM     40  C   UNL     1      -6.598  13.550  24.121  0.00  0.00    +0.019 A 
ATOM     41 BR   UNL     1      -7.758  14.163  25.483  0.00  0.00    -0.050 Br
ATOM     42  C   UNL     1      -5.546  14.358  23.701  0.00  0.00    +0.034 A 
ATOM     43  C   UNL     1      -4.692  13.890  22.705  0.00  0.00    +0.061 A 
ATOM     44 BR   UNL     1      -3.239  14.978  22.161  0.00  0.00    -0.046 Br
ATOM     45  C   UNL     1      -4.906  12.635  22.118  0.00  0.00    +0.136 A 
BRANCH  45  46
ATOM     46  O   UNL     1      -4.063  12.159  21.148  0.00  0.00    -0.505 OA
ATOM     47  H   UNL     1      -4.581  12.071  20.325  0.00  0.00    +0.292 HD
ENDBRANCH  45  46
ENDBRANCH  37  38
ENDBRANCH  35  37
ENDBRANCH  31  33
ENDBRANCH  30  31
ENDBRANCH  26  30
ENDBRANCH  25  28
ENDBRANCH   1  25
TORSDOF 16
