REMARK VINA RESULT:    -4.064      2.748      8.327
REMARK INTER + INTRA:         -10.582
REMARK INTER:                  -7.747
REMARK INTRA:                  -2.835
REMARK UNBOUND:                -2.835
REMARK  Name = lig_assembled_13.pdb
REMARK  20 active torsions:
REMARK  status: ('A' for Active; 'I' for Inactive)
REMARK    1  A    between atoms: _2  and  _9
REMARK    2  A    between atoms: _4  and  _18
REMARK    3  A    between atoms: _5  and  _11
REMARK    4  A    between atoms: _6  and  _7
REMARK    5  A    between atoms: _6  and  _18
REMARK    6  A    between atoms: _9  and  _10
REMARK    7  A    between atoms: _10  and  _12
REMARK    8  A    between atoms: _11  and  _12
REMARK    9  A    between atoms: _14  and  _34
REMARK   10  A    between atoms: _16  and  _22
REMARK   11  A    between atoms: _17  and  _21
REMARK   12  A    between atoms: _21  and  _22
REMARK   13  A    between atoms: _24  and  _25
REMARK   14  A    between atoms: _26  and  _27
REMARK   15  A    between atoms: _28  and  _30
REMARK   16  A    between atoms: _30  and  _31
REMARK   17  A    between atoms: _30  and  _32
REMARK   18  A    between atoms: _32  and  _33
REMARK   19  A    between atoms: _32  and  _34
REMARK   20  A    between atoms: _35  and  _37
REMARK                            x       y       z     vdW  Elec       q    Type
REMARK                         _______ _______ _______ _____ _____    ______ ____
ROOT
ATOM      1  C   UNL     1      -4.079   9.111  29.085  0.00  0.00    +0.163 C 
ENDROOT
BRANCH   1   2
ATOM      2  O   UNL     1      -4.893   8.984  30.263  0.00  0.00    -0.388 OA
ATOM      3  H   UNL     1      -5.135   9.857  30.581  0.00  0.00    +0.210 HD
ENDBRANCH   1   2
BRANCH   1   4
ATOM      4  C   UNL     1      -2.862  10.013  29.352  0.00  0.00    +0.175 C 
BRANCH   4   5
ATOM      5  C   UNL     1      -3.275  11.418  29.817  0.00  0.00    +0.176 C 
ATOM      6  O   UNL     1      -3.707  11.321  31.202  0.00  0.00    -0.332 OA
ATOM      7  C   UNL     1      -4.041  12.592  31.852  0.00  0.00    +0.277 C 
ATOM      8  C   UNL     1      -5.102  13.360  31.025  0.00  0.00    +0.110 C 
ATOM      9  C   UNL     1      -4.701  13.460  29.538  0.00  0.00    +0.143 C 
ATOM     10  C   UNL     1      -4.372  12.082  28.965  0.00  0.00    +0.133 C 
BRANCH  10  11
ATOM     11  N   UNL     1      -3.909  12.200  27.573  0.00  0.00    -0.308 N 
ATOM     12  H   UNL     1      -3.003  12.617  27.411  0.00  0.00    +0.149 HD
ATOM     13  C   UNL     1      -4.607  11.793  26.510  0.00  0.00    +0.210 C 
ATOM     14  C   UNL     1      -5.996  11.187  26.788  0.00  0.00    +0.109 C 
ATOM     15  O   UNL     1      -4.188  11.892  25.356  0.00  0.00    -0.276 OA
ENDBRANCH  10  11
BRANCH   7  16
ATOM     16  C   UNL     1      -2.783  13.469  32.018  0.00  0.00    +0.414 C 
ATOM     17  O   UNL     1      -1.735  12.978  32.435  0.00  0.00    -0.240 OA
ATOM     18  O   UNL     1      -2.815  14.668  31.735  0.00  0.00    -0.240 OA
ENDBRANCH   7  16
BRANCH   7  19
ATOM     19  O   UNL     1      -4.604  12.296  33.156  0.00  0.00    -0.343 OA
ATOM     20  C   UNL     1      -5.310  13.396  33.783  0.00  0.00    +0.198 C 
ENDBRANCH   7  19
BRANCH   9  21
ATOM     21  O   UNL     1      -5.771  14.039  28.789  0.00  0.00    -0.390 OA
ATOM     22  H   UNL     1      -5.667  14.993  28.766  0.00  0.00    +0.210 HD
ENDBRANCH   9  21
ENDBRANCH   4   5
BRANCH   4  23
ATOM     23  O   UNL     1      -2.041  10.102  28.171  0.00  0.00    -0.387 OA
ATOM     24  H   UNL     1      -1.886   9.222  27.822  0.00  0.00    +0.210 HD
ENDBRANCH   4  23
ENDBRANCH   1   4
BRANCH   1  25
ATOM     25  C   UNL     1      -3.603   7.736  28.629  0.00  0.00    +0.141 C 
BRANCH  25  28
ATOM     26  C   UNL     1      -2.866   7.639  26.272  0.00  0.00    +0.401 C 
ATOM     27  O   UNL     1      -1.697   7.937  26.528  0.00  0.00    -0.226 OA
ATOM     28  N   UNL     1      -3.825   7.529  27.192  0.00  0.00    -0.279 N 
ATOM     29  H   UNL     1      -4.757   7.289  26.884  0.00  0.00    +0.152 HD
BRANCH  26  30
ATOM     30  O   UNL     1      -3.240   7.397  24.914  0.00  0.00    -0.444 OA
BRANCH  30  31
ATOM     31  C   UNL     1      -4.581   7.845  24.700  0.00  0.00    +0.292 C 
BRANCH  31  33
ATOM     32  N   UNL     1      -3.462   9.355  23.091  0.00  0.00    -0.131 NA
ATOM     33  C   UNL     1      -4.611   8.920  23.692  0.00  0.00    +0.120 A 
ATOM     34  C   UNL     1      -5.676   9.637  23.203  0.00  0.00    +0.137 A 
ATOM     35  N   UNL     1      -5.102  10.541  22.357  0.00  0.00    -0.241 N 
ATOM     36  N   UNL     1      -3.779  10.338  22.256  0.00  0.00    -0.065 NA
BRANCH  35  37
ATOM     37  C   UNL     1      -5.751  11.545  21.545  0.00  0.00    +0.265 C 
BRANCH  37  38
ATOM     38  C   UNL     1      -6.169  12.740  22.353  0.00  0.00    +0.329 C 
ATOM     39  O   UNL     1      -6.983  12.753  23.265  0.00  0.00    -0.249 OA
BRANCH  38  40
ATOM     40  O   UNL     1      -5.570  13.856  21.838  0.00  0.00    -0.464 OA
BRANCH  40  41
ATOM     41  C   UNL     1      -4.772  14.599  22.771  0.00  0.00    +0.229 C 
ATOM     42  C   UNL     1      -3.337  14.582  22.273  0.00  0.00    +0.048 C 
ENDBRANCH  40  41
ENDBRANCH  38  40
ENDBRANCH  37  38
ENDBRANCH  35  37
ENDBRANCH  31  33
ENDBRANCH  30  31
ENDBRANCH  26  30
ENDBRANCH  25  28
ENDBRANCH   1  25
TORSDOF 17
