REMARK VINA RESULT:    -4.559      2.506      7.663
REMARK INTER + INTRA:         -11.022
REMARK INTER:                  -7.147
REMARK INTRA:                  -3.875
REMARK UNBOUND:                -2.598
REMARK  Name = lig_assembled_67.pdb
REMARK  18 active torsions:
REMARK  status: ('A' for Active; 'I' for Inactive)
REMARK    1  A    between atoms: _2  and  _9
REMARK    2  A    between atoms: _4  and  _19
REMARK    3  A    between atoms: _6  and  _7
REMARK    4  A    between atoms: _6  and  _19
REMARK    5  A    between atoms: _9  and  _10
REMARK    6  A    between atoms: _10  and  _11
REMARK    7  A    between atoms: _15  and  _35
REMARK    8  A    between atoms: _17  and  _23
REMARK    9  A    between atoms: _18  and  _22
REMARK   10  A    between atoms: _22  and  _23
REMARK   11  A    between atoms: _25  and  _26
REMARK   12  A    between atoms: _27  and  _28
REMARK   13  A    between atoms: _29  and  _31
REMARK   14  A    between atoms: _31  and  _32
REMARK   15  A    between atoms: _31  and  _33
REMARK   16  A    between atoms: _33  and  _34
REMARK   17  A    between atoms: _33  and  _35
REMARK   18  A    between atoms: _36  and  _38
REMARK                            x       y       z     vdW  Elec       q    Type
REMARK                         _______ _______ _______ _____ _____    ______ ____
ROOT
ATOM      1  C   UNL     1      -5.378  12.111  26.330  0.00  0.00    +0.163 C 
ENDROOT
BRANCH   1   2
ATOM      2  O   UNL     1      -4.407  11.314  25.631  0.00  0.00    -0.388 OA
ATOM      3  H   UNL     1      -3.852  11.884  25.093  0.00  0.00    +0.210 HD
ENDBRANCH   1   2
BRANCH   1   4
ATOM      4  C   UNL     1      -4.853  12.531  27.713  0.00  0.00    +0.175 C 
BRANCH   4   5
ATOM      5  C   UNL     1      -3.962  11.451  28.345  0.00  0.00    +0.176 C 
ATOM      6  O   UNL     1      -4.581  10.159  28.096  0.00  0.00    -0.332 OA
ATOM      7  C   UNL     1      -3.812   8.992  28.539  0.00  0.00    +0.277 C 
ATOM      8  C   UNL     1      -3.452   9.119  30.039  0.00  0.00    +0.110 C 
ATOM      9  C   UNL     1      -2.819  10.490  30.359  0.00  0.00    +0.143 C 
ATOM     10  C   UNL     1      -3.700  11.632  29.852  0.00  0.00    +0.133 C 
BRANCH  10  11
ATOM     11  N   UNL     1      -3.046  12.929  30.085  0.00  0.00    -0.308 N 
ATOM     12  H   UNL     1      -2.209  13.136  29.559  0.00  0.00    +0.149 HD
ATOM     13  C   UNL     1      -3.487  13.851  30.945  0.00  0.00    +0.210 C 
ATOM     14  C   UNL     1      -4.751  13.494  31.750  0.00  0.00    +0.109 C 
ATOM     15  O   UNL     1      -2.927  14.935  31.109  0.00  0.00    -0.276 OA
ENDBRANCH  10  11
BRANCH   7  16
ATOM     16  C   UNL     1      -2.520   8.841  27.709  0.00  0.00    +0.414 C 
ATOM     17  O   UNL     1      -2.462   9.289  26.564  0.00  0.00    -0.240 OA
ATOM     18  O   UNL     1      -1.536   8.272  28.184  0.00  0.00    -0.240 OA
ENDBRANCH   7  16
BRANCH   9  19
ATOM     19  O   UNL     1      -2.643  10.622  31.770  0.00  0.00    -0.390 OA
ATOM     20  H   UNL     1      -3.148   9.941  32.221  0.00  0.00    +0.210 HD
ENDBRANCH   9  19
BRANCH   7  21
ATOM     21  O   UNL     1      -4.643   7.815  28.366  0.00  0.00    -0.343 OA
ATOM     22  C   UNL     1      -5.244   7.306  29.584  0.00  0.00    +0.198 C 
ENDBRANCH   7  21
ENDBRANCH   4   5
BRANCH   4  23
ATOM     23  O   UNL     1      -5.954  12.841  28.590  0.00  0.00    -0.387 OA
ATOM     24  H   UNL     1      -6.387  12.028  28.861  0.00  0.00    +0.210 HD
ENDBRANCH   4  23
ENDBRANCH   1   4
BRANCH   1  25
ATOM     25  C   UNL     1      -5.716  13.355  25.514  0.00  0.00    +0.141 C 
BRANCH  25  28
ATOM     26  C   UNL     1      -5.365  13.930  23.137  0.00  0.00    +0.401 C 
ATOM     27  O   UNL     1      -4.926  15.057  23.377  0.00  0.00    -0.226 OA
ATOM     28  N   UNL     1      -5.763  13.070  24.075  0.00  0.00    -0.279 N 
ATOM     29  H   UNL     1      -6.118  12.171  23.779  0.00  0.00    +0.152 HD
BRANCH  26  30
ATOM     30  O   UNL     1      -5.466  13.499  21.777  0.00  0.00    -0.444 OA
BRANCH  30  31
ATOM     31  C   UNL     1      -4.228  12.910  21.369  0.00  0.00    +0.292 C 
BRANCH  31  33
ATOM     32  N   UNL     1      -3.151  11.291  22.900  0.00  0.00    -0.131 NA
ATOM     33  C   UNL     1      -4.090  11.555  21.937  0.00  0.00    +0.120 A 
ATOM     34  C   UNL     1      -4.785  10.400  21.660  0.00  0.00    +0.137 A 
ATOM     35  N   UNL     1      -4.222   9.472  22.481  0.00  0.00    -0.251 N 
ATOM     36  N   UNL     1      -3.240  10.008  23.223  0.00  0.00    -0.065 NA
BRANCH  35  37
ATOM     37  C   UNL     1      -4.569   8.076  22.625  0.00  0.00    +0.150 C 
BRANCH  37  38
ATOM     38  C   UNL     1      -4.151   7.476  23.965  0.00  0.00    +0.084 C 
BRANCH  38  39
ATOM     39  C   UNL     1      -5.303   7.409  24.957  0.00  0.00    +0.252 C 
ATOM     40  O   UNL     1      -5.689   8.728  25.357  0.00  0.00    -0.349 OA
ATOM     41  C   UNL     1      -7.077   8.586  25.653  0.00  0.00    +0.191 C 
ATOM     42  C   UNL     1      -7.551   7.595  24.622  0.00  0.00    +0.191 C 
ATOM     43  O   UNL     1      -6.429   6.748  24.371  0.00  0.00    -0.349 OA
ENDBRANCH  38  39
ENDBRANCH  37  38
ENDBRANCH  35  37
ENDBRANCH  31  33
ENDBRANCH  30  31
ENDBRANCH  26  30
ENDBRANCH  25  28
ENDBRANCH   1  25
TORSDOF 16
