REMARK VINA RESULT:    -4.381      4.740      9.049
REMARK INTER + INTRA:         -10.580
REMARK INTER:                  -7.953
REMARK INTRA:                  -2.628
REMARK UNBOUND:                -2.997
REMARK  Name = lig_assembled_15.pdb
REMARK  16 active torsions:
REMARK  status: ('A' for Active; 'I' for Inactive)
REMARK    1  A    between atoms: _2  and  _9
REMARK    2  A    between atoms: _4  and  _18
REMARK    3  A    between atoms: _6  and  _7
REMARK    4  A    between atoms: _6  and  _18
REMARK    5  A    between atoms: _14  and  _34
REMARK    6  A    between atoms: _16  and  _22
REMARK    7  A    between atoms: _17  and  _21
REMARK    8  A    between atoms: _21  and  _22
REMARK    9  A    between atoms: _24  and  _25
REMARK   10  A    between atoms: _26  and  _27
REMARK   11  A    between atoms: _28  and  _30
REMARK   12  A    between atoms: _30  and  _31
REMARK   13  A    between atoms: _30  and  _32
REMARK   14  A    between atoms: _32  and  _33
REMARK   15  A    between atoms: _32  and  _34
REMARK   16  A    between atoms: _35  and  _37
REMARK                            x       y       z     vdW  Elec       q    Type
REMARK                         _______ _______ _______ _____ _____    ______ ____
ROOT
ATOM      1  C   UNL     1      -6.551   9.259  23.533  0.00  0.00    +0.163 C 
ENDROOT
BRANCH   1   2
ATOM      2  O   UNL     1      -7.209   9.403  24.802  0.00  0.00    -0.388 OA
ATOM      3  H   UNL     1      -7.963   8.810  24.841  0.00  0.00    +0.210 HD
ENDBRANCH   1   2
BRANCH   1   4
ATOM      4  C   UNL     1      -7.471   8.549  22.545  0.00  0.00    +0.141 C 
BRANCH   4   7
ATOM      5  C   UNL     1      -7.056   9.000  20.152  0.00  0.00    +0.401 C 
ATOM      6  O   UNL     1      -6.301   8.036  20.004  0.00  0.00    -0.226 OA
ATOM      7  N   UNL     1      -7.642   9.318  21.306  0.00  0.00    -0.279 N 
ATOM      8  H   UNL     1      -8.238  10.133  21.330  0.00  0.00    +0.152 HD
BRANCH   5   9
ATOM      9  O   UNL     1      -7.331   9.844  19.031  0.00  0.00    -0.444 OA
BRANCH   9  10
ATOM     10  C   UNL     1      -6.679   9.323  17.869  0.00  0.00    +0.292 C 
BRANCH  10  12
ATOM     11  N   UNL     1      -6.419  11.724  17.331  0.00  0.00    -0.131 NA
ATOM     12  C   UNL     1      -6.111  10.422  17.065  0.00  0.00    +0.121 A 
ATOM     13  C   UNL     1      -5.240  10.375  16.000  0.00  0.00    +0.143 A 
ATOM     14  N   UNL     1      -5.018  11.691  15.665  0.00  0.00    -0.220 N 
ATOM     15  N   UNL     1      -5.756  12.489  16.474  0.00  0.00    -0.060 NA
BRANCH  14  16
ATOM     16  C   UNL     1      -4.151  12.220  14.672  0.00  0.00    +0.067 A 
ATOM     17  C   UNL     1      -3.882  13.594  14.609  0.00  0.00    +0.029 A 
ATOM     18  C   UNL     1      -3.059  14.101  13.598  0.00  0.00    +0.017 A 
ATOM     19  C   UNL     1      -2.502  13.239  12.656  0.00  0.00    +0.018 A 
ATOM     20 BR   UNL     1      -1.412  13.936  11.277  0.00  0.00    -0.050 Br
ATOM     21  C   UNL     1      -2.751  11.869  12.718  0.00  0.00    +0.017 A 
ATOM     22  C   UNL     1      -3.572  11.358  13.726  0.00  0.00    +0.029 A 
ENDBRANCH  14  16
ENDBRANCH  10  12
ENDBRANCH   9  10
ENDBRANCH   5   9
ENDBRANCH   4   7
ENDBRANCH   1   4
BRANCH   1  23
ATOM     23  C   UNL     1      -5.242   8.464  23.678  0.00  0.00    +0.175 C 
BRANCH  23  24
ATOM     24  C   UNL     1      -4.104   9.325  24.247  0.00  0.00    +0.176 C 
ATOM     25  O   UNL     1      -4.350   9.509  25.668  0.00  0.00    -0.332 OA
ATOM     26  C   UNL     1      -3.303  10.222  26.406  0.00  0.00    +0.277 C 
ATOM     27  C   UNL     1      -3.012  11.591  25.743  0.00  0.00    +0.110 C 
ATOM     28  C   UNL     1      -2.775  11.450  24.225  0.00  0.00    +0.143 C 
ATOM     29  C   UNL     1      -3.922  10.690  23.559  0.00  0.00    +0.133 C 
BRANCH  29  30
ATOM     30  N   UNL     1      -3.644  10.487  22.129  0.00  0.00    -0.308 N 
ATOM     31  H   UNL     1      -2.929   9.818  21.878  0.00  0.00    +0.149 HD
ATOM     32  C   UNL     1      -4.274  11.127  21.140  0.00  0.00    +0.210 C 
ATOM     33  C   UNL     1      -5.340  12.158  21.556  0.00  0.00    +0.109 C 
ATOM     34  O   UNL     1      -4.030  10.926  19.950  0.00  0.00    -0.276 OA
ENDBRANCH  29  30
BRANCH  26  35
ATOM     35  C   UNL     1      -2.006   9.389  26.458  0.00  0.00    +0.414 C 
ATOM     36  O   UNL     1      -2.057   8.160  26.432  0.00  0.00    -0.240 OA
ATOM     37  O   UNL     1      -0.909   9.945  26.526  0.00  0.00    -0.240 OA
ENDBRANCH  26  35
BRANCH  28  38
ATOM     38  O   UNL     1      -2.662  12.745  23.633  0.00  0.00    -0.390 OA
ATOM     39  H   UNL     1      -1.753  12.895  23.361  0.00  0.00    +0.210 HD
ENDBRANCH  28  38
BRANCH  26  40
ATOM     40  O   UNL     1      -3.785  10.460  27.753  0.00  0.00    -0.343 OA
ATOM     41  C   UNL     1      -3.836  11.854  28.149  0.00  0.00    +0.198 C 
ENDBRANCH  26  40
ENDBRANCH  23  24
BRANCH  23  42
ATOM     42  O   UNL     1      -4.855   7.907  22.407  0.00  0.00    -0.387 OA
ATOM     43  H   UNL     1      -4.759   6.955  22.490  0.00  0.00    +0.210 HD
ENDBRANCH  23  42
ENDBRANCH   1  23
TORSDOF 14
