REMARK VINA RESULT:    -4.565      2.895      7.356
REMARK INTER + INTRA:         -10.402
REMARK INTER:                  -7.254
REMARK INTRA:                  -3.148
REMARK UNBOUND:                -2.233
REMARK  Name = lig_assembled_61.pdb
REMARK  17 active torsions:
REMARK  status: ('A' for Active; 'I' for Inactive)
REMARK    1  A    between atoms: _2  and  _9
REMARK    2  A    between atoms: _4  and  _17
REMARK    3  A    between atoms: _6  and  _7
REMARK    4  A    between atoms: _6  and  _17
REMARK    5  A    between atoms: _9  and  _10
REMARK    6  A    between atoms: _13  and  _33
REMARK    7  A    between atoms: _15  and  _21
REMARK    8  A    between atoms: _16  and  _20
REMARK    9  A    between atoms: _20  and  _21
REMARK   10  A    between atoms: _23  and  _24
REMARK   11  A    between atoms: _25  and  _26
REMARK   12  A    between atoms: _27  and  _29
REMARK   13  A    between atoms: _29  and  _30
REMARK   14  A    between atoms: _29  and  _31
REMARK   15  A    between atoms: _31  and  _32
REMARK   16  A    between atoms: _31  and  _33
REMARK   17  A    between atoms: _34  and  _36
REMARK                            x       y       z     vdW  Elec       q    Type
REMARK                         _______ _______ _______ _____ _____    ______ ____
ROOT
ATOM      1  C   UNL     1      -3.026  11.612  26.184  0.00  0.00    +0.163 C 
ENDROOT
BRANCH   1   2
ATOM      2  O   UNL     1      -1.981  12.241  25.423  0.00  0.00    -0.388 OA
ATOM      3  H   UNL     1      -2.368  12.844  24.785  0.00  0.00    +0.210 HD
ENDBRANCH   1   2
BRANCH   1   4
ATOM      4  C   UNL     1      -2.441  10.515  27.067  0.00  0.00    +0.141 C 
BRANCH   4   7
ATOM      5  C   UNL     1      -3.676   9.808  29.087  0.00  0.00    +0.401 C 
ATOM      6  O   UNL     1      -4.177   8.819  28.549  0.00  0.00    -0.226 OA
ATOM      7  N   UNL     1      -2.858  10.660  28.468  0.00  0.00    -0.279 N 
ATOM      8  H   UNL     1      -2.505  11.449  28.991  0.00  0.00    +0.152 HD
BRANCH   5   9
ATOM      9  O   UNL     1      -3.980  10.082  30.457  0.00  0.00    -0.444 OA
BRANCH   9  10
ATOM     10  C   UNL     1      -2.782  10.444  31.150  0.00  0.00    +0.292 C 
BRANCH  10  12
ATOM     11  N   UNL     1      -1.843  12.419  32.307  0.00  0.00    -0.131 NA
ATOM     12  C   UNL     1      -2.925  11.776  31.767  0.00  0.00    +0.120 A 
ATOM     13  C   UNL     1      -4.043  12.567  31.916  0.00  0.00    +0.137 A 
ATOM     14  N   UNL     1      -3.585  13.652  32.605  0.00  0.00    -0.247 N 
ATOM     15  N   UNL     1      -2.256  13.579  32.803  0.00  0.00    -0.065 NA
BRANCH  14  16
ATOM     16  C   UNL     1      -4.337  14.802  33.073  0.00  0.00    +0.180 C 
BRANCH  16  17
ATOM     17  C   UNL     1      -4.981  15.548  31.938  0.00  0.00    -0.019 A 
ATOM     18  C   UNL     1      -4.280  16.410  31.028  0.00  0.00    +0.013 A 
ATOM     19  C   UNL     1      -5.113  17.002  30.103  0.00  0.00    +0.045 A 
ATOM     20  S   UNL     1      -6.739  16.522  30.307  0.00  0.00    -0.105 S 
ATOM     21  C   UNL     1      -6.334  15.532  31.640  0.00  0.00    +0.050 A 
ENDBRANCH  16  17
ENDBRANCH  14  16
ENDBRANCH  10  12
ENDBRANCH   9  10
ENDBRANCH   5   9
ENDBRANCH   4   7
ENDBRANCH   1   4
BRANCH   1  22
ATOM     22  C   UNL     1      -4.095  11.009  25.256  0.00  0.00    +0.175 C 
BRANCH  22  23
ATOM     23  C   UNL     1      -5.040  12.079  24.691  0.00  0.00    +0.176 C 
ATOM     24  O   UNL     1      -4.290  12.878  23.735  0.00  0.00    -0.332 OA
ATOM     25  C   UNL     1      -5.064  13.891  23.010  0.00  0.00    +0.277 C 
ATOM     26  C   UNL     1      -5.803  14.821  24.004  0.00  0.00    +0.110 C 
ATOM     27  C   UNL     1      -6.589  14.016  25.060  0.00  0.00    +0.143 C 
ATOM     28  C   UNL     1      -5.689  12.990  25.750  0.00  0.00    +0.133 C 
BRANCH  28  29
ATOM     29  N   UNL     1      -6.469  12.171  26.691  0.00  0.00    -0.308 N 
ATOM     30  H   UNL     1      -7.139  11.520  26.307  0.00  0.00    +0.149 HD
ATOM     31  C   UNL     1      -6.348  12.231  28.020  0.00  0.00    +0.210 C 
ATOM     32  C   UNL     1      -5.337  13.252  28.575  0.00  0.00    +0.109 C 
ATOM     33  O   UNL     1      -7.004  11.522  28.784  0.00  0.00    -0.276 OA
ENDBRANCH  28  29
BRANCH  25  34
ATOM     34  C   UNL     1      -6.089  13.226  22.068  0.00  0.00    +0.414 C 
ATOM     35  O   UNL     1      -5.809  12.177  21.489  0.00  0.00    -0.240 OA
ATOM     36  O   UNL     1      -7.194  13.738  21.886  0.00  0.00    -0.240 OA
ENDBRANCH  25  34
BRANCH  25  37
ATOM     37  O   UNL     1      -4.137  14.694  22.235  0.00  0.00    -0.343 OA
ATOM     38  C   UNL     1      -4.440  16.112  22.196  0.00  0.00    +0.198 C 
ENDBRANCH  25  37
BRANCH  27  39
ATOM     39  O   UNL     1      -7.127  14.904  26.041  0.00  0.00    -0.390 OA
ATOM     40  H   UNL     1      -6.796  14.662  26.909  0.00  0.00    +0.210 HD
ENDBRANCH  27  39
ENDBRANCH  22  23
BRANCH  22  41
ATOM     41  O   UNL     1      -4.849  10.000  25.957  0.00  0.00    -0.387 OA
ATOM     42  H   UNL     1      -5.093  10.329  26.826  0.00  0.00    +0.210 HD
ENDBRANCH  22  41
ENDBRANCH   1  22
TORSDOF 15
