REMARK VINA RESULT:    -4.721      2.824      3.947
REMARK INTER + INTRA:         -12.750
REMARK INTER:                 -10.326
REMARK INTRA:                  -2.423
REMARK UNBOUND:                -3.062
REMARK  Name = lig_assembled_74.pdb
REMARK  24 active torsions:
REMARK  status: ('A' for Active; 'I' for Inactive)
REMARK    1  A    between atoms: _2  and  _9
REMARK    2  A    between atoms: _4  and  _22
REMARK    3  A    between atoms: _5  and  _14
REMARK    4  A    between atoms: _6  and  _7
REMARK    5  A    between atoms: _6  and  _22
REMARK    6  A    between atoms: _9  and  _10
REMARK    7  A    between atoms: _10  and  _11
REMARK    8  A    between atoms: _10  and  _13
REMARK    9  A    between atoms: _11  and  _12
REMARK   10  A    between atoms: _12  and  _16
REMARK   11  A    between atoms: _13  and  _14
REMARK   12  A    between atoms: _14  and  _15
REMARK   13  A    between atoms: _18  and  _38
REMARK   14  A    between atoms: _20  and  _26
REMARK   15  A    between atoms: _21  and  _25
REMARK   16  A    between atoms: _25  and  _26
REMARK   17  A    between atoms: _28  and  _29
REMARK   18  A    between atoms: _30  and  _31
REMARK   19  A    between atoms: _32  and  _34
REMARK   20  A    between atoms: _34  and  _35
REMARK   21  A    between atoms: _34  and  _36
REMARK   22  A    between atoms: _36  and  _37
REMARK   23  A    between atoms: _36  and  _38
REMARK   24  A    between atoms: _39  and  _41
REMARK                            x       y       z     vdW  Elec       q    Type
REMARK                         _______ _______ _______ _____ _____    ______ ____
ROOT
ATOM      1  C   UNL     1      -3.316  11.802  25.094  0.00  0.00    +0.163 C 
ENDROOT
BRANCH   1   2
ATOM      2  O   UNL     1      -2.168  10.945  24.990  0.00  0.00    -0.388 OA
ATOM      3  H   UNL     1      -2.137  10.556  24.112  0.00  0.00    +0.210 HD
ENDBRANCH   1   2
BRANCH   1   4
ATOM      4  C   UNL     1      -3.620  12.138  26.564  0.00  0.00    +0.175 C 
BRANCH   4   5
ATOM      5  C   UNL     1      -3.360  10.945  27.495  0.00  0.00    +0.176 C 
ATOM      6  O   UNL     1      -3.980   9.771  26.902  0.00  0.00    -0.332 OA
ATOM      7  C   UNL     1      -3.744   8.506  27.604  0.00  0.00    +0.277 C 
ATOM      8  C   UNL     1      -4.165   8.625  29.089  0.00  0.00    +0.110 C 
ATOM      9  C   UNL     1      -3.555   9.877  29.755  0.00  0.00    +0.143 C 
ATOM     10  C   UNL     1      -3.858  11.135  28.940  0.00  0.00    +0.133 C 
BRANCH  10  11
ATOM     11  N   UNL     1      -3.199  12.307  29.537  0.00  0.00    -0.308 N 
ATOM     12  H   UNL     1      -2.189  12.328  29.543  0.00  0.00    +0.149 HD
ATOM     13  C   UNL     1      -3.849  13.344  30.072  0.00  0.00    +0.210 C 
ATOM     14  C   UNL     1      -5.387  13.270  30.071  0.00  0.00    +0.109 C 
ATOM     15  O   UNL     1      -3.271  14.320  30.552  0.00  0.00    -0.276 OA
ENDBRANCH  10  11
BRANCH   7  16
ATOM     16  C   UNL     1      -2.258   8.103  27.519  0.00  0.00    +0.414 C 
ATOM     17  O   UNL     1      -1.605   8.350  26.506  0.00  0.00    -0.240 OA
ATOM     18  O   UNL     1      -1.711   7.531  28.464  0.00  0.00    -0.240 OA
ENDBRANCH   7  16
BRANCH   9  19
ATOM     19  O   UNL     1      -4.086  10.030  31.072  0.00  0.00    -0.390 OA
ATOM     20  H   UNL     1      -3.907  10.918  31.389  0.00  0.00    +0.210 HD
ENDBRANCH   9  19
BRANCH   7  21
ATOM     21  O   UNL     1      -4.564   7.486  26.977  0.00  0.00    -0.343 OA
ATOM     22  C   UNL     1      -4.870   6.345  27.818  0.00  0.00    +0.198 C 
ENDBRANCH   7  21
ENDBRANCH   4   5
BRANCH   4  23
ATOM     23  O   UNL     1      -4.984  12.586  26.699  0.00  0.00    -0.387 OA
ATOM     24  H   UNL     1      -5.520  11.876  27.059  0.00  0.00    +0.210 HD
ENDBRANCH   4  23
ENDBRANCH   1   4
BRANCH   1  25
ATOM     25  C   UNL     1      -3.077  13.092  24.315  0.00  0.00    +0.141 C 
BRANCH  25  28
ATOM     26  C   UNL     1      -4.075  12.832  22.070  0.00  0.00    +0.401 C 
ATOM     27  O   UNL     1      -3.151  12.141  21.636  0.00  0.00    -0.226 OA
ATOM     28  N   UNL     1      -4.120  13.325  23.308  0.00  0.00    -0.279 N 
ATOM     29  H   UNL     1      -4.916  13.890  23.569  0.00  0.00    +0.152 HD
BRANCH  26  30
ATOM     30  O   UNL     1      -5.175  13.141  21.209  0.00  0.00    -0.444 OA
BRANCH  30  31
ATOM     31  C   UNL     1      -5.974  11.971  21.016  0.00  0.00    +0.292 C 
BRANCH  31  33
ATOM     32  N   UNL     1      -7.200  12.525  18.929  0.00  0.00    -0.131 NA
ATOM     33  C   UNL     1      -6.264  11.768  19.583  0.00  0.00    +0.120 A 
ATOM     34  C   UNL     1      -5.654  10.928  18.677  0.00  0.00    +0.137 A 
ATOM     35  N   UNL     1      -6.134  11.354  17.470  0.00  0.00    -0.251 N 
ATOM     36  N   UNL     1      -7.130  12.244  17.635  0.00  0.00    -0.065 NA
BRANCH  35  37
ATOM     37  C   UNL     1      -5.492  11.212  16.179  0.00  0.00    +0.149 C 
BRANCH  37  38
ATOM     38  C   UNL     1      -4.024  11.686  16.108  0.00  0.00    +0.021 C 
BRANCH  38  39
ATOM     39  C   UNL     1      -3.844  13.015  15.346  0.00  0.00    +0.125 C 
BRANCH  39  40
ATOM     40  C   UNL     1      -3.523  12.863  13.873  0.00  0.00    +0.305 C 
ATOM     41  O   UNL     1      -4.342  12.623  13.000  0.00  0.00    -0.251 OA
BRANCH  40  42
ATOM     42  O   UNL     1      -2.227  13.089  13.592  0.00  0.00    -0.481 OA
ATOM     43  H   UNL     1      -2.042  13.902  13.088  0.00  0.00    +0.295 HD
ENDBRANCH  40  42
ENDBRANCH  39  40
ENDBRANCH  38  39
BRANCH  38  44
ATOM     44  C   UNL     1      -3.143  10.534  15.540  0.00  0.00    +0.009 C 
BRANCH  44  45
ATOM     45  C   UNL     1      -3.902   9.274  15.070  0.00  0.00    -0.017 C 
ATOM     46  C   UNL     1      -3.836   9.092  13.552  0.00  0.00    +0.007 C 
ATOM     47  C   UNL     1      -3.336   8.021  15.748  0.00  0.00    +0.007 C 
ENDBRANCH  44  45
ENDBRANCH  38  44
ENDBRANCH  37  38
ENDBRANCH  35  37
ENDBRANCH  31  33
ENDBRANCH  30  31
ENDBRANCH  26  30
ENDBRANCH  25  28
ENDBRANCH   1  25
TORSDOF 20
