REMARK VINA RESULT:    -3.956      4.586     10.273
REMARK INTER + INTRA:         -10.851
REMARK INTER:                  -8.254
REMARK INTRA:                  -2.597
REMARK UNBOUND:                -3.657
REMARK  Name = lig_assembled_88.pdb
REMARK  18 active torsions:
REMARK  status: ('A' for Active; 'I' for Inactive)
REMARK    1  A    between atoms: _2  and  _9
REMARK    2  A    between atoms: _4  and  _20
REMARK    3  A    between atoms: _5  and  _15
REMARK    4  A    between atoms: _6  and  _7
REMARK    5  A    between atoms: _6  and  _20
REMARK    6  A    between atoms: _9  and  _10
REMARK    7  A    between atoms: _16  and  _36
REMARK    8  A    between atoms: _18  and  _24
REMARK    9  A    between atoms: _19  and  _23
REMARK   10  A    between atoms: _23  and  _24
REMARK   11  A    between atoms: _26  and  _27
REMARK   12  A    between atoms: _28  and  _29
REMARK   13  A    between atoms: _30  and  _32
REMARK   14  A    between atoms: _32  and  _33
REMARK   15  A    between atoms: _32  and  _34
REMARK   16  A    between atoms: _34  and  _35
REMARK   17  A    between atoms: _34  and  _36
REMARK   18  A    between atoms: _37  and  _39
REMARK                            x       y       z     vdW  Elec       q    Type
REMARK                         _______ _______ _______ _____ _____    ______ ____
ROOT
ATOM      1  C   UNL     1      -4.201  12.353  21.536  0.00  0.00    +0.163 C 
ENDROOT
BRANCH   1   2
ATOM      2  O   UNL     1      -2.915  12.994  21.513  0.00  0.00    -0.388 OA
ATOM      3  H   UNL     1      -2.329  12.516  20.921  0.00  0.00    +0.210 HD
ENDBRANCH   1   2
BRANCH   1   4
ATOM      4  C   UNL     1      -4.107  10.914  21.001  0.00  0.00    +0.175 C 
BRANCH   4   5
ATOM      5  C   UNL     1      -5.368  10.096  21.320  0.00  0.00    +0.176 C 
ATOM      6  O   UNL     1      -4.965   8.944  22.111  0.00  0.00    -0.332 OA
ATOM      7  C   UNL     1      -6.057   8.098  22.600  0.00  0.00    +0.277 C 
ATOM      8  C   UNL     1      -6.954   7.638  21.425  0.00  0.00    +0.110 C 
ATOM      9  C   UNL     1      -7.382   8.825  20.537  0.00  0.00    +0.143 C 
ATOM     10  C   UNL     1      -6.168   9.639  20.086  0.00  0.00    +0.133 C 
BRANCH  10  11
ATOM     11  N   UNL     1      -6.595  10.816  19.313  0.00  0.00    -0.308 N 
ATOM     12  H   UNL     1      -7.242  11.457  19.749  0.00  0.00    +0.149 HD
ATOM     13  C   UNL     1      -6.182  11.092  18.073  0.00  0.00    +0.210 C 
ATOM     14  C   UNL     1      -5.215  10.082  17.427  0.00  0.00    +0.109 C 
ATOM     15  O   UNL     1      -6.545  12.094  17.455  0.00  0.00    -0.276 OA
ENDBRANCH  10  11
BRANCH   7  16
ATOM     16  C   UNL     1      -6.913   8.856  23.636  0.00  0.00    +0.414 C 
ATOM     17  O   UNL     1      -6.383   9.627  24.434  0.00  0.00    -0.240 OA
ATOM     18  O   UNL     1      -8.134   8.696  23.674  0.00  0.00    -0.240 OA
ENDBRANCH   7  16
BRANCH   7  19
ATOM     19  O   UNL     1      -5.473   6.922  23.217  0.00  0.00    -0.343 OA
ATOM     20  C   UNL     1      -4.036   6.979  23.405  0.00  0.00    +0.198 C 
ENDBRANCH   7  19
BRANCH   9  21
ATOM     21  O   UNL     1      -8.077   8.341  19.387  0.00  0.00    -0.390 OA
ATOM     22  H   UNL     1      -7.448   7.965  18.767  0.00  0.00    +0.210 HD
ENDBRANCH   9  21
ENDBRANCH   4   5
BRANCH   4  23
ATOM     23  O   UNL     1      -2.941  10.259  21.539  0.00  0.00    -0.387 OA
ATOM     24  H   UNL     1      -2.153  10.740  21.274  0.00  0.00    +0.210 HD
ENDBRANCH   4  23
ENDBRANCH   1   4
BRANCH   1  25
ATOM     25  C   UNL     1      -4.749  12.333  22.959  0.00  0.00    +0.141 C 
BRANCH  25  28
ATOM     26  C   UNL     1      -2.908  11.966  24.566  0.00  0.00    +0.401 C 
ATOM     27  O   UNL     1      -2.533  13.141  24.549  0.00  0.00    -0.226 OA
ATOM     28  N   UNL     1      -3.931  11.500  23.849  0.00  0.00    -0.279 N 
ATOM     29  H   UNL     1      -4.157  10.518  23.923  0.00  0.00    +0.152 HD
BRANCH  26  30
ATOM     30  O   UNL     1      -2.215  11.028  25.393  0.00  0.00    -0.444 OA
BRANCH  30  31
ATOM     31  C   UNL     1      -2.996   9.837  25.522  0.00  0.00    +0.292 C 
BRANCH  31  33
ATOM     32  N   UNL     1      -4.332   8.739  27.294  0.00  0.00    -0.131 NA
ATOM     33  C   UNL     1      -3.300   9.569  26.940  0.00  0.00    +0.120 A 
ATOM     34  C   UNL     1      -2.699  10.053  28.081  0.00  0.00    +0.137 A 
ATOM     35  N   UNL     1      -3.459   9.541  29.092  0.00  0.00    -0.247 N 
ATOM     36  N   UNL     1      -4.406   8.712  28.618  0.00  0.00    -0.065 NA
BRANCH  35  37
ATOM     37  C   UNL     1      -3.387   9.849  30.512  0.00  0.00    +0.184 C 
BRANCH  37  38
ATOM     38  C   UNL     1      -3.588  11.320  30.815  0.00  0.00    +0.017 A 
ATOM     39  C   UNL     1      -4.558  12.102  30.158  0.00  0.00    +0.024 A 
ATOM     40  C   UNL     1      -4.714  13.457  30.463  0.00  0.00    +0.019 A 
ATOM     41 BR   UNL     1      -5.994  14.485  29.524  0.00  0.00    -0.050 Br
ATOM     42  C   UNL     1      -3.938  14.060  31.447  0.00  0.00    +0.034 A 
ATOM     43  C   UNL     1      -3.007  13.289  32.138  0.00  0.00    +0.061 A 
ATOM     44 BR   UNL     1      -1.977  14.107  33.503  0.00  0.00    -0.046 Br
ATOM     45  C   UNL     1      -2.837  11.933  31.828  0.00  0.00    +0.136 A 
BRANCH  45  46
ATOM     46  O   UNL     1      -1.935  11.162  32.513  0.00  0.00    -0.505 OA
ATOM     47  H   UNL     1      -1.448  10.626  31.858  0.00  0.00    +0.292 HD
ENDBRANCH  45  46
ENDBRANCH  37  38
ENDBRANCH  35  37
ENDBRANCH  31  33
ENDBRANCH  30  31
ENDBRANCH  26  30
ENDBRANCH  25  28
ENDBRANCH   1  25
TORSDOF 16
