REMARK VINA RESULT:    -5.209      2.371      5.702
REMARK INTER + INTRA:         -12.369
REMARK INTER:                  -8.622
REMARK INTRA:                  -3.747
REMARK UNBOUND:                -3.049
REMARK  Name = lig_assembled_28.pdb
REMARK  17 active torsions:
REMARK  status: ('A' for Active; 'I' for Inactive)
REMARK    1  A    between atoms: _2  and  _9
REMARK    2  A    between atoms: _4  and  _22
REMARK    3  A    between atoms: _6  and  _7
REMARK    4  A    between atoms: _6  and  _22
REMARK    5  A    between atoms: _9  and  _10
REMARK    6  A    between atoms: _18  and  _38
REMARK    7  A    between atoms: _20  and  _26
REMARK    8  A    between atoms: _21  and  _25
REMARK    9  A    between atoms: _25  and  _26
REMARK   10  A    between atoms: _28  and  _29
REMARK   11  A    between atoms: _30  and  _31
REMARK   12  A    between atoms: _32  and  _34
REMARK   13  A    between atoms: _34  and  _35
REMARK   14  A    between atoms: _34  and  _36
REMARK   15  A    between atoms: _36  and  _37
REMARK   16  A    between atoms: _36  and  _38
REMARK   17  A    between atoms: _39  and  _41
REMARK                            x       y       z     vdW  Elec       q    Type
REMARK                         _______ _______ _______ _____ _____    ______ ____
ROOT
ATOM      1  C   UNL     1      -2.825  11.130  22.487  0.00  0.00    +0.163 C 
ENDROOT
BRANCH   1   2
ATOM      2  O   UNL     1      -2.757  12.124  21.452  0.00  0.00    -0.388 OA
ATOM      3  H   UNL     1      -1.876  12.131  21.071  0.00  0.00    +0.210 HD
ENDBRANCH   1   2
BRANCH   1   4
ATOM      4  C   UNL     1      -3.876  10.082  22.137  0.00  0.00    +0.141 C 
BRANCH   4   7
ATOM      5  C   UNL     1      -5.146   8.849  23.861  0.00  0.00    +0.401 C 
ATOM      6  O   UNL     1      -6.191   9.476  23.674  0.00  0.00    -0.226 OA
ATOM      7  N   UNL     1      -4.013   9.071  23.192  0.00  0.00    -0.279 N 
ATOM      8  H   UNL     1      -3.205   8.511  23.424  0.00  0.00    +0.152 HD
BRANCH   5   9
ATOM      9  O   UNL     1      -5.121   7.821  24.855  0.00  0.00    -0.444 OA
BRANCH   9  10
ATOM     10  C   UNL     1      -3.827   7.213  24.882  0.00  0.00    +0.292 C 
BRANCH  10  12
ATOM     11  N   UNL     1      -2.171   8.543  26.161  0.00  0.00    -0.131 NA
ATOM     12  C   UNL     1      -3.123   7.560  26.131  0.00  0.00    +0.120 A 
ATOM     13  C   UNL     1      -3.283   7.049  27.399  0.00  0.00    +0.137 A 
ATOM     14  N   UNL     1      -2.473   7.828  28.176  0.00  0.00    -0.247 N 
ATOM     15  N   UNL     1      -1.770   8.691  27.417  0.00  0.00    -0.065 NA
BRANCH  14  16
ATOM     16  C   UNL     1      -2.350   7.908  29.626  0.00  0.00    +0.180 C 
BRANCH  16  17
ATOM     17  C   UNL     1      -3.294   8.901  30.261  0.00  0.00    -0.022 A 
ATOM     18  C   UNL     1      -2.864  10.212  30.532  0.00  0.00    +0.055 A 
ATOM     19  C   UNL     1      -3.794  11.113  31.004  0.00  0.00    +0.167 A 
ATOM     20  O   UNL     1      -3.561  12.429  31.264  0.00  0.00    -0.453 OA
ATOM     21  C   UNL     1      -4.893  12.876  31.594  0.00  0.00    +0.466 C 
ATOM     22  O   UNL     1      -5.855  11.802  31.671  0.00  0.00    -0.453 OA
ATOM     23  C   UNL     1      -5.099  10.757  31.239  0.00  0.00    +0.166 A 
ATOM     24  C   UNL     1      -5.550   9.473  31.019  0.00  0.00    +0.050 A 
ATOM     25  C   UNL     1      -4.637   8.540  30.518  0.00  0.00    +0.009 A 
ENDBRANCH  16  17
ENDBRANCH  14  16
ENDBRANCH  10  12
ENDBRANCH   9  10
ENDBRANCH   5   9
ENDBRANCH   4   7
ENDBRANCH   1   4
BRANCH   1  26
ATOM     26  C   UNL     1      -3.169  11.770  23.843  0.00  0.00    +0.175 C 
BRANCH  26  27
ATOM     27  C   UNL     1      -4.432  12.640  23.768  0.00  0.00    +0.176 C 
ATOM     28  O   UNL     1      -4.080  13.883  23.101  0.00  0.00    -0.332 OA
ATOM     29  C   UNL     1      -5.193  14.802  22.843  0.00  0.00    +0.277 C 
ATOM     30  C   UNL     1      -5.956  15.110  24.155  0.00  0.00    +0.110 C 
ATOM     31  C   UNL     1      -6.324  13.819  24.915  0.00  0.00    +0.143 C 
ATOM     32  C   UNL     1      -5.093  12.936  25.127  0.00  0.00    +0.133 C 
BRANCH  32  33
ATOM     33  N   UNL     1      -5.472  11.670  25.775  0.00  0.00    -0.308 N 
ATOM     34  H   UNL     1      -6.227  11.138  25.365  0.00  0.00    +0.149 HD
ATOM     35  C   UNL     1      -4.884  11.180  26.869  0.00  0.00    +0.210 C 
ATOM     36  C   UNL     1      -3.755  12.028  27.484  0.00  0.00    +0.109 C 
ATOM     37  O   UNL     1      -5.213  10.109  27.382  0.00  0.00    -0.276 OA
ENDBRANCH  32  33
BRANCH  29  38
ATOM     38  C   UNL     1      -6.168  14.203  21.808  0.00  0.00    +0.414 C 
ATOM     39  O   UNL     1      -5.779  13.350  21.011  0.00  0.00    -0.240 OA
ATOM     40  O   UNL     1      -7.342  14.572  21.770  0.00  0.00    -0.240 OA
ENDBRANCH  29  38
BRANCH  29  41
ATOM     41  O   UNL     1      -4.641  16.043  22.332  0.00  0.00    -0.343 OA
ATOM     42  C   UNL     1      -3.243  15.981  21.953  0.00  0.00    +0.198 C 
ENDBRANCH  29  41
BRANCH  31  43
ATOM     43  O   UNL     1      -6.888  14.152  26.185  0.00  0.00    -0.390 OA
ATOM     44  H   UNL     1      -7.038  13.349  26.689  0.00  0.00    +0.210 HD
ENDBRANCH  31  43
ENDBRANCH  26  27
BRANCH  26  45
ATOM     45  O   UNL     1      -2.056  12.551  24.321  0.00  0.00    -0.387 OA
ATOM     46  H   UNL     1      -1.872  12.322  25.235  0.00  0.00    +0.210 HD
ENDBRANCH  26  45
ENDBRANCH   1  26
TORSDOF 15
