REMARK VINA RESULT:    -6.189      1.469      2.509
REMARK INTER + INTRA:         -15.013
REMARK INTER:                 -11.487
REMARK INTRA:                  -3.526
REMARK UNBOUND:                -3.396
REMARK  Name = lig_assembled_34.pdb
REMARK  19 active torsions:
REMARK  status: ('A' for Active; 'I' for Inactive)
REMARK    1  A    between atoms: _2  and  _9
REMARK    2  A    between atoms: _4  and  _37
REMARK    3  A    between atoms: _6  and  _7
REMARK    4  A    between atoms: _6  and  _37
REMARK    5  A    between atoms: _11  and  _12
REMARK    6  A    between atoms: _13  and  _14
REMARK    7  A    between atoms: _18  and  _31
REMARK    8  A    between atoms: _33  and  _53
REMARK    9  A    between atoms: _35  and  _41
REMARK   10  A    between atoms: _36  and  _40
REMARK   11  A    between atoms: _40  and  _41
REMARK   12  A    between atoms: _43  and  _44
REMARK   13  A    between atoms: _45  and  _46
REMARK   14  A    between atoms: _47  and  _49
REMARK   15  A    between atoms: _49  and  _50
REMARK   16  A    between atoms: _49  and  _51
REMARK   17  A    between atoms: _51  and  _52
REMARK   18  A    between atoms: _51  and  _53
REMARK   19  A    between atoms: _54  and  _56
REMARK                            x       y       z     vdW  Elec       q    Type
REMARK                         _______ _______ _______ _____ _____    ______ ____
ROOT
ATOM      1  N   UNL     1      -7.816  13.097  22.021  0.00  0.00    -0.131 NA
ATOM      2  C   UNL     1      -7.907  11.756  22.266  0.00  0.00    +0.121 A 
ATOM      3  C   UNL     1      -7.381  11.072  21.198  0.00  0.00    +0.143 A 
ATOM      4  N   UNL     1      -6.945  12.040  20.319  0.00  0.00    -0.220 N 
ATOM      5  N   UNL     1      -7.244  13.264  20.831  0.00  0.00    -0.060 NA
ENDROOT
BRANCH   4   6
ATOM      6  C   UNL     1      -6.249  11.858  19.094  0.00  0.00    +0.068 A 
ATOM      7  C   UNL     1      -6.940  11.403  17.966  0.00  0.00    +0.038 A 
ATOM      8  C   UNL     1      -6.289  11.079  16.751  0.00  0.00    +0.007 A 
ATOM      9  C   UNL     1      -4.900  11.295  16.652  0.00  0.00    -0.008 A 
ATOM     10  C   UNL     1      -4.215  11.803  17.783  0.00  0.00    +0.011 A 
ATOM     11  C   UNL     1      -4.873  12.067  18.997  0.00  0.00    +0.028 A 
BRANCH   9  12
ATOM     12  C   UNL     1      -4.066  10.950  15.455  0.00  0.00    +0.004 A 
ATOM     13  C   UNL     1      -3.785  11.856  14.476  0.00  0.00    +0.026 A 
ATOM     14  C   UNL     1      -4.324  13.221  14.479  0.00  0.00    +0.016 A 
ATOM     15  C   UNL     1      -4.191  14.031  13.419  0.00  0.00    +0.051 A 
ATOM     16  C   UNL     1      -3.457  13.580  12.211  0.00  0.00    +0.183 A 
ATOM     17  O   UNL     1      -3.384  14.287  11.209  0.00  0.00    -0.288 OA
ATOM     18  C   UNL     1      -2.757  12.283  12.286  0.00  0.00    +0.097 A 
ATOM     19  C   UNL     1      -2.886  11.497  13.362  0.00  0.00    +0.140 A 
ATOM     20  O   UNL     1      -2.100  10.358  13.443  0.00  0.00    -0.455 OA
ATOM     21  C   UNL     1      -2.398   9.424  14.399  0.00  0.00    +0.140 A 
ATOM     22  C   UNL     1      -1.637   8.255  14.379  0.00  0.00    +0.092 A 
ATOM     23  C   UNL     1      -1.923   7.242  15.281  0.00  0.00    +0.120 A 
ATOM     24  C   UNL     1      -3.008   7.352  16.144  0.00  0.00    +0.046 A 
ATOM     25  C   UNL     1      -3.754   8.535  16.161  0.00  0.00    +0.016 A 
ATOM     26  C   UNL     1      -3.417   9.613  15.329  0.00  0.00    +0.026 A 
BRANCH  23  27
ATOM     27  O   UNL     1      -1.110   6.148  15.304  0.00  0.00    -0.507 OA
ATOM     28  H   UNL     1      -0.574   6.198  16.112  0.00  0.00    +0.292 HD
ENDBRANCH  23  27
ENDBRANCH   9  12
BRANCH   8  29
ATOM     29  C   UNL     1      -7.147  10.445  15.673  0.00  0.00    +0.072 C 
ATOM     30  O   UNL     1      -7.591  11.233  14.776  0.00  0.00    -0.545 OA
ATOM     31  O   UNL     1      -7.426   9.214  15.773  0.00  0.00    -0.545 OA
ENDBRANCH   8  29
ENDBRANCH   4   6
BRANCH   2  32
ATOM     32  C   UNL     1      -8.492  11.216  23.509  0.00  0.00    +0.292 C 
BRANCH  32  33
ATOM     33  O   UNL     1      -7.512  10.491  24.257  0.00  0.00    -0.444 OA
BRANCH  33  34
ATOM     34  C   UNL     1      -6.693  11.409  24.986  0.00  0.00    +0.401 C 
ATOM     35  O   UNL     1      -7.154  11.956  25.991  0.00  0.00    -0.226 OA
ATOM     36  N   UNL     1      -5.458  11.614  24.525  0.00  0.00    -0.279 N 
ATOM     37  H   UNL     1      -5.168  11.111  23.699  0.00  0.00    +0.152 HD
BRANCH  36  38
ATOM     38  C   UNL     1      -4.497  12.530  25.152  0.00  0.00    +0.141 C 
BRANCH  38  39
ATOM     39  C   UNL     1      -3.322  11.783  25.774  0.00  0.00    +0.163 C 
BRANCH  39  40
ATOM     40  O   UNL     1      -2.083  12.361  25.332  0.00  0.00    -0.388 OA
ATOM     41  H   UNL     1      -1.424  11.670  25.232  0.00  0.00    +0.210 HD
ENDBRANCH  39  40
BRANCH  39  42
ATOM     42  C   UNL     1      -3.435  11.831  27.307  0.00  0.00    +0.175 C 
BRANCH  42  43
ATOM     43  C   UNL     1      -3.213  10.452  27.946  0.00  0.00    +0.176 C 
ATOM     44  O   UNL     1      -3.920   9.467  27.143  0.00  0.00    -0.332 OA
ATOM     45  C   UNL     1      -3.733   8.070  27.545  0.00  0.00    +0.277 C 
ATOM     46  C   UNL     1      -4.094   7.883  29.039  0.00  0.00    +0.110 C 
ATOM     47  C   UNL     1      -3.390   8.929  29.930  0.00  0.00    +0.143 C 
ATOM     48  C   UNL     1      -3.649  10.347  29.420  0.00  0.00    +0.133 C 
BRANCH  48  49
ATOM     49  N   UNL     1      -2.903  11.328  30.224  0.00  0.00    -0.308 N 
ATOM     50  H   UNL     1      -1.895  11.332  30.148  0.00  0.00    +0.149 HD
ATOM     51  C   UNL     1      -3.470  12.213  31.048  0.00  0.00    +0.210 C 
ATOM     52  C   UNL     1      -5.006  12.164  31.161  0.00  0.00    +0.109 C 
ATOM     53  O   UNL     1      -2.821  13.033  31.698  0.00  0.00    -0.276 OA
ENDBRANCH  48  49
BRANCH  45  54
ATOM     54  C   UNL     1      -2.276   7.622  27.307  0.00  0.00    +0.414 C 
ATOM     55  O   UNL     1      -1.723   7.857  26.233  0.00  0.00    -0.240 OA
ATOM     56  O   UNL     1      -1.654   7.028  28.188  0.00  0.00    -0.240 OA
ENDBRANCH  45  54
BRANCH  47  57
ATOM     57  O   UNL     1      -3.866   8.817  31.271  0.00  0.00    -0.390 OA
ATOM     58  H   UNL     1      -3.259   9.265  31.865  0.00  0.00    +0.210 HD
ENDBRANCH  47  57
BRANCH  45  59
ATOM     59  O   UNL     1      -4.631   7.251  26.752  0.00  0.00    -0.343 OA
ATOM     60  C   UNL     1      -5.312   7.951  25.680  0.00  0.00    +0.198 C 
ENDBRANCH  45  59
ENDBRANCH  42  43
BRANCH  42  61
ATOM     61  O   UNL     1      -4.721  12.356  27.694  0.00  0.00    -0.387 OA
ATOM     62  H   UNL     1      -4.744  12.479  28.646  0.00  0.00    +0.210 HD
ENDBRANCH  42  61
ENDBRANCH  39  42
ENDBRANCH  38  39
ENDBRANCH  36  38
ENDBRANCH  33  34
ENDBRANCH  32  33
ENDBRANCH   2  32
TORSDOF 17
