REMARK VINA RESULT:    -5.072      8.693     14.314
REMARK INTER + INTRA:         -11.663
REMARK INTER:                  -8.564
REMARK INTRA:                  -3.100
REMARK UNBOUND:                -2.589
REMARK  Name = lig_assembled_82.pdb
REMARK  19 active torsions:
REMARK  status: ('A' for Active; 'I' for Inactive)
REMARK    1  A    between atoms: _2  and  _9
REMARK    2  A    between atoms: _4  and  _22
REMARK    3  A    between atoms: _5  and  _16
REMARK    4  A    between atoms: _6  and  _7
REMARK    5  A    between atoms: _6  and  _22
REMARK    6  A    between atoms: _9  and  _10
REMARK    7  A    between atoms: _16  and  _17
REMARK    8  A    between atoms: _18  and  _38
REMARK    9  A    between atoms: _20  and  _26
REMARK   10  A    between atoms: _21  and  _25
REMARK   11  A    between atoms: _25  and  _26
REMARK   12  A    between atoms: _28  and  _29
REMARK   13  A    between atoms: _30  and  _31
REMARK   14  A    between atoms: _32  and  _34
REMARK   15  A    between atoms: _34  and  _35
REMARK   16  A    between atoms: _34  and  _36
REMARK   17  A    between atoms: _36  and  _37
REMARK   18  A    between atoms: _36  and  _38
REMARK   19  A    between atoms: _39  and  _41
REMARK                            x       y       z     vdW  Elec       q    Type
REMARK                         _______ _______ _______ _____ _____    ______ ____
ROOT
ATOM      1  C   UNL     1      -2.852  10.127  14.607  0.00  0.00    +0.163 C 
ENDROOT
BRANCH   1   2
ATOM      2  O   UNL     1      -2.098   9.853  13.414  0.00  0.00    -0.388 OA
ATOM      3  H   UNL     1      -2.329   8.982  13.082  0.00  0.00    +0.210 HD
ENDBRANCH   1   2
BRANCH   1   4
ATOM      4  C   UNL     1      -3.284   8.820  15.263  0.00  0.00    +0.141 C 
BRANCH   4   7
ATOM      5  C   UNL     1      -5.223   8.201  16.663  0.00  0.00    +0.401 C 
ATOM      6  O   UNL     1      -4.553   7.551  17.470  0.00  0.00    -0.226 OA
ATOM      7  N   UNL     1      -4.713   8.822  15.599  0.00  0.00    -0.279 N 
ATOM      8  H   UNL     1      -5.345   9.323  14.990  0.00  0.00    +0.152 HD
BRANCH   5   9
ATOM      9  O   UNL     1      -6.636   8.305  16.859  0.00  0.00    -0.444 OA
BRANCH   9  10
ATOM     10  C   UNL     1      -7.077   9.609  16.472  0.00  0.00    +0.292 C 
BRANCH  10  12
ATOM     11  N   UNL     1      -6.755  11.842  17.490  0.00  0.00    -0.131 NA
ATOM     12  C   UNL     1      -7.099  10.517  17.623  0.00  0.00    +0.120 A 
ATOM     13  C   UNL     1      -7.420  10.281  18.948  0.00  0.00    +0.137 A 
ATOM     14  N   UNL     1      -7.126  11.457  19.578  0.00  0.00    -0.247 N 
ATOM     15  N   UNL     1      -6.814  12.414  18.684  0.00  0.00    -0.065 NA
BRANCH  14  16
ATOM     16  C   UNL     1      -7.030  11.721  21.016  0.00  0.00    +0.176 C 
BRANCH  16  17
ATOM     17  C   UNL     1      -5.608  11.679  21.520  0.00  0.00    -0.049 C 
ATOM     18  C   UNL     1      -4.777  12.912  21.364  0.00  0.00    +0.023 C 
ATOM     19  C   UNL     1      -3.731  13.274  22.513  0.00  0.00    -0.025 C 
ATOM     20  C   UNL     1      -3.782  13.052  24.029  0.00  0.00    +0.012 C 
ATOM     21  C   UNL     1      -2.906  12.085  21.831  0.00  0.00    -0.000 C 
ATOM     22  C   UNL     1      -3.434  10.653  22.159  0.00  0.00    +0.031 C 
ATOM     23  C   UNL     1      -3.469  14.788  22.312  0.00  0.00    +0.012 C 
ATOM     24  C   UNL     1      -3.505  12.574  20.485  0.00  0.00    +0.012 C 
ATOM     25  C   UNL     1      -4.938  10.590  21.943  0.00  0.00    -0.025 C 
ENDBRANCH  16  17
ENDBRANCH  14  16
ENDBRANCH  10  12
ENDBRANCH   9  10
ENDBRANCH   5   9
ENDBRANCH   4   7
ENDBRANCH   1   4
BRANCH   1  26
ATOM     26  C   UNL     1      -4.094  10.978  14.289  0.00  0.00    +0.175 C 
BRANCH  26  27
ATOM     27  C   UNL     1      -3.831  11.987  13.162  0.00  0.00    +0.176 C 
ATOM     28  O   UNL     1      -2.514  12.565  13.378  0.00  0.00    -0.332 OA
ATOM     29  C   UNL     1      -2.045  13.480  12.333  0.00  0.00    +0.277 C 
ATOM     30  C   UNL     1      -3.079  14.608  12.097  0.00  0.00    +0.110 C 
ATOM     31  C   UNL     1      -4.501  14.043  11.894  0.00  0.00    +0.143 C 
ATOM     32  C   UNL     1      -4.886  13.102  13.036  0.00  0.00    +0.133 C 
BRANCH  32  33
ATOM     33  N   UNL     1      -6.206  12.502  12.787  0.00  0.00    -0.308 N 
ATOM     34  H   UNL     1      -6.283  11.820  12.045  0.00  0.00    +0.149 HD
ATOM     35  C   UNL     1      -7.311  12.802  13.476  0.00  0.00    +0.210 C 
ATOM     36  C   UNL     1      -7.167  13.864  14.582  0.00  0.00    +0.109 C 
ATOM     37  O   UNL     1      -8.401  12.273  13.255  0.00  0.00    -0.276 OA
ENDBRANCH  32  33
BRANCH  29  38
ATOM     38  C   UNL     1      -1.797  12.722  11.013  0.00  0.00    +0.414 C 
ATOM     39  O   UNL     1      -1.589  13.343   9.971  0.00  0.00    -0.240 OA
ATOM     40  O   UNL     1      -1.806  11.491  10.989  0.00  0.00    -0.240 OA
ENDBRANCH  29  38
BRANCH  29  41
ATOM     41  O   UNL     1      -0.807  14.084  12.789  0.00  0.00    -0.343 OA
ATOM     42  C   UNL     1      -0.820  15.533  12.856  0.00  0.00    +0.198 C 
ENDBRANCH  29  41
BRANCH  31  43
ATOM     43  O   UNL     1      -5.441  15.116  11.831  0.00  0.00    -0.390 OA
ATOM     44  H   UNL     1      -5.487  15.450  10.932  0.00  0.00    +0.210 HD
ENDBRANCH  31  43
ENDBRANCH  26  27
BRANCH  26  45
ATOM     45  O   UNL     1      -4.543  11.663  15.475  0.00  0.00    -0.387 OA
ATOM     46  H   UNL     1      -4.171  11.238  16.251  0.00  0.00    +0.210 HD
ENDBRANCH  26  45
ENDBRANCH   1  26
TORSDOF 15
