REMARK VINA RESULT:    -4.487      9.007     14.112
REMARK INTER + INTRA:         -10.808
REMARK INTER:                  -7.989
REMARK INTRA:                  -2.818
REMARK UNBOUND:                -2.779
REMARK  Name = lig_assembled_39.pdb
REMARK  17 active torsions:
REMARK  status: ('A' for Active; 'I' for Inactive)
REMARK    1  A    between atoms: _2  and  _9
REMARK    2  A    between atoms: _4  and  _19
REMARK    3  A    between atoms: _6  and  _7
REMARK    4  A    between atoms: _6  and  _19
REMARK    5  A    between atoms: _9  and  _10
REMARK    6  A    between atoms: _15  and  _35
REMARK    7  A    between atoms: _17  and  _23
REMARK    8  A    between atoms: _18  and  _22
REMARK    9  A    between atoms: _22  and  _23
REMARK   10  A    between atoms: _25  and  _26
REMARK   11  A    between atoms: _27  and  _28
REMARK   12  A    between atoms: _29  and  _31
REMARK   13  A    between atoms: _31  and  _32
REMARK   14  A    between atoms: _31  and  _33
REMARK   15  A    between atoms: _33  and  _34
REMARK   16  A    between atoms: _33  and  _35
REMARK   17  A    between atoms: _36  and  _38
REMARK                            x       y       z     vdW  Elec       q    Type
REMARK                         _______ _______ _______ _____ _____    ______ ____
ROOT
ATOM      1  C   UNL     1      -2.790  10.276  14.215  0.00  0.00    +0.163 C 
ENDROOT
BRANCH   1   2
ATOM      2  O   UNL     1      -1.943  10.252  13.055  0.00  0.00    -0.388 OA
ATOM      3  H   UNL     1      -1.045  10.478  13.308  0.00  0.00    +0.210 HD
ENDBRANCH   1   2
BRANCH   1   4
ATOM      4  C   UNL     1      -3.298   8.871  14.520  0.00  0.00    +0.141 C 
BRANCH   4   7
ATOM      5  C   UNL     1      -4.489   8.223  16.586  0.00  0.00    +0.401 C 
ATOM      6  O   UNL     1      -3.573   7.511  17.003  0.00  0.00    -0.226 OA
ATOM      7  N   UNL     1      -4.448   8.891  15.432  0.00  0.00    -0.279 N 
ATOM      8  H   UNL     1      -5.254   9.442  15.171  0.00  0.00    +0.152 HD
BRANCH   5   9
ATOM      9  O   UNL     1      -5.680   8.353  17.368  0.00  0.00    -0.444 OA
BRANCH   9  10
ATOM     10  C   UNL     1      -6.205   9.675  17.224  0.00  0.00    +0.292 C 
BRANCH  10  12
ATOM     11  N   UNL     1      -4.696  11.283  18.349  0.00  0.00    -0.131 NA
ATOM     12  C   UNL     1      -5.826  10.508  18.380  0.00  0.00    +0.120 A 
ATOM     13  C   UNL     1      -6.462  10.685  19.588  0.00  0.00    +0.137 A 
ATOM     14  N   UNL     1      -5.714  11.640  20.212  0.00  0.00    -0.247 N 
ATOM     15  N   UNL     1      -4.621  11.951  19.492  0.00  0.00    -0.065 NA
BRANCH  14  16
ATOM     16  C   UNL     1      -6.015  12.345  21.450  0.00  0.00    +0.181 C 
BRANCH  16  17
ATOM     17  C   UNL     1      -4.916  12.222  22.491  0.00  0.00    -0.012 A 
ATOM     18  C   UNL     1      -4.628  10.984  23.100  0.00  0.00    +0.006 A 
ATOM     19  C   UNL     1      -3.624  10.858  24.064  0.00  0.00    +0.000 A 
ATOM     20  C   UNL     1      -2.898  11.973  24.460  0.00  0.00    +0.001 A 
ATOM     21  C   UNL     1      -3.190  13.218  23.907  0.00  0.00    +0.015 A 
ATOM     22  C   UNL     1      -4.197  13.347  22.940  0.00  0.00    +0.023 A 
ATOM     23 BR   UNL     1      -4.546  15.104  22.301  0.00  0.00    -0.050 Br
ENDBRANCH  16  17
ENDBRANCH  14  16
ENDBRANCH  10  12
ENDBRANCH   9  10
ENDBRANCH   5   9
ENDBRANCH   4   7
ENDBRANCH   1   4
BRANCH   1  24
ATOM     24  C   UNL     1      -3.985  11.221  14.004  0.00  0.00    +0.175 C 
BRANCH  24  25
ATOM     25  C   UNL     1      -3.670  12.336  12.996  0.00  0.00    +0.176 C 
ATOM     26  O   UNL     1      -2.382  12.910  13.352  0.00  0.00    -0.332 OA
ATOM     27  C   UNL     1      -1.864  13.926  12.432  0.00  0.00    +0.277 C 
ATOM     28  C   UNL     1      -2.904  15.056  12.233  0.00  0.00    +0.110 C 
ATOM     29  C   UNL     1      -4.297  14.493  11.883  0.00  0.00    +0.143 C 
ATOM     30  C   UNL     1      -4.737  13.443  12.904  0.00  0.00    +0.133 C 
BRANCH  30  31
ATOM     31  N   UNL     1      -6.026  12.851  12.512  0.00  0.00    -0.308 N 
ATOM     32  H   UNL     1      -6.057  12.309  11.661  0.00  0.00    +0.149 HD
ATOM     33  C   UNL     1      -7.158  12.985  13.209  0.00  0.00    +0.210 C 
ATOM     34  C   UNL     1      -7.083  13.839  14.488  0.00  0.00    +0.109 C 
ATOM     35  O   UNL     1      -8.220  12.466  12.864  0.00  0.00    -0.276 OA
ENDBRANCH  30  31
BRANCH  27  36
ATOM     36  C   UNL     1      -1.516  13.300  11.065  0.00  0.00    +0.414 C 
ATOM     37  O   UNL     1      -0.945  12.212  11.009  0.00  0.00    -0.240 OA
ATOM     38  O   UNL     1      -1.806  13.883  10.019  0.00  0.00    -0.240 OA
ENDBRANCH  27  36
BRANCH  27  39
ATOM     39  O   UNL     1      -0.671  14.501  13.023  0.00  0.00    -0.343 OA
ATOM     40  C   UNL     1      -0.264  15.776  12.465  0.00  0.00    +0.198 C 
ENDBRANCH  27  39
BRANCH  29  41
ATOM     41  O   UNL     1      -5.253  15.554  11.859  0.00  0.00    -0.390 OA
ATOM     42  H   UNL     1      -5.385  15.846  10.954  0.00  0.00    +0.210 HD
ENDBRANCH  29  41
ENDBRANCH  24  25
BRANCH  24  43
ATOM     43  O   UNL     1      -4.397  11.791  15.262  0.00  0.00    -0.387 OA
ATOM     44  H   UNL     1      -4.463  11.097  15.922  0.00  0.00    +0.210 HD
ENDBRANCH  24  43
ENDBRANCH   1  24
TORSDOF 15
