REMARK VINA RESULT:    -4.932      4.144      6.972
REMARK INTER + INTRA:         -11.581
REMARK INTER:                  -8.546
REMARK INTRA:                  -3.035
REMARK UNBOUND:                -2.756
REMARK  Name = lig_assembled_41.pdb
REMARK  18 active torsions:
REMARK  status: ('A' for Active; 'I' for Inactive)
REMARK    1  A    between atoms: _2  and  _9
REMARK    2  A    between atoms: _4  and  _21
REMARK    3  A    between atoms: _6  and  _7
REMARK    4  A    between atoms: _6  and  _21
REMARK    5  A    between atoms: _10  and  _11
REMARK    6  A    between atoms: _11  and  _12
REMARK    7  A    between atoms: _17  and  _37
REMARK    8  A    between atoms: _19  and  _25
REMARK    9  A    between atoms: _20  and  _24
REMARK   10  A    between atoms: _24  and  _25
REMARK   11  A    between atoms: _27  and  _28
REMARK   12  A    between atoms: _29  and  _30
REMARK   13  A    between atoms: _31  and  _33
REMARK   14  A    between atoms: _33  and  _34
REMARK   15  A    between atoms: _33  and  _35
REMARK   16  A    between atoms: _35  and  _36
REMARK   17  A    between atoms: _35  and  _37
REMARK   18  A    between atoms: _38  and  _40
REMARK                            x       y       z     vdW  Elec       q    Type
REMARK                         _______ _______ _______ _____ _____    ______ ____
ROOT
ATOM      1  C   UNL     1      -2.310   9.729  26.924  0.00  0.00    +0.163 C 
ENDROOT
BRANCH   1   2
ATOM      2  O   UNL     1      -1.145   9.937  26.109  0.00  0.00    -0.388 OA
ATOM      3  H   UNL     1      -1.391  10.416  25.314  0.00  0.00    +0.210 HD
ENDBRANCH   1   2
BRANCH   1   4
ATOM      4  C   UNL     1      -1.902   9.176  28.285  0.00  0.00    +0.141 C 
BRANCH   4   7
ATOM      5  C   UNL     1      -3.400   9.448  30.232  0.00  0.00    +0.401 C 
ATOM      6  O   UNL     1      -3.844   8.299  30.169  0.00  0.00    -0.226 OA
ATOM      7  N   UNL     1      -2.494   9.944  29.388  0.00  0.00    -0.279 N 
ATOM      8  H   UNL     1      -2.198  10.902  29.514  0.00  0.00    +0.152 HD
BRANCH   5   9
ATOM      9  O   UNL     1      -3.874  10.321  31.260  0.00  0.00    -0.444 OA
BRANCH   9  10
ATOM     10  C   UNL     1      -2.801  11.150  31.715  0.00  0.00    +0.292 C 
BRANCH  10  12
ATOM     11  N   UNL     1      -4.121  12.642  33.169  0.00  0.00    -0.131 NA
ATOM     12  C   UNL     1      -3.305  12.483  32.090  0.00  0.00    +0.121 A 
ATOM     13  C   UNL     1      -3.074  13.715  31.517  0.00  0.00    +0.143 A 
ATOM     14  N   UNL     1      -3.864  14.593  32.222  0.00  0.00    -0.219 N 
ATOM     15  N   UNL     1      -4.413  13.929  33.277  0.00  0.00    -0.060 NA
BRANCH  14  16
ATOM     16  C   UNL     1      -4.063  15.995  32.068  0.00  0.00    +0.077 A 
ATOM     17  C   UNL     1      -5.001  16.583  31.193  0.00  0.00    +0.043 A 
ATOM     18  C   UNL     1      -5.057  17.990  31.104  0.00  0.00    +0.013 A 
ATOM     19  C   UNL     1      -4.202  18.800  31.855  0.00  0.00    +0.001 A 
ATOM     20  C   UNL     1      -3.297  18.222  32.734  0.00  0.00    +0.002 A 
ATOM     21  C   UNL     1      -3.236  16.835  32.849  0.00  0.00    +0.028 A 
BRANCH  17  22
ATOM     22  C   UNL     1      -6.087  15.823  30.504  0.00  0.00    +0.162 C 
ATOM     23  O   UNL     1      -6.921  15.221  31.177  0.00  0.00    -0.292 OA
ATOM     24  C   UNL     1      -6.161  15.799  28.996  0.00  0.00    +0.091 C 
ENDBRANCH  17  22
ENDBRANCH  14  16
ENDBRANCH  10  12
ENDBRANCH   9  10
ENDBRANCH   5   9
ENDBRANCH   4   7
ENDBRANCH   1   4
BRANCH   1  25
ATOM     25  C   UNL     1      -3.289   8.755  26.246  0.00  0.00    +0.175 C 
BRANCH  25  26
ATOM     26  C   UNL     1      -4.134   9.444  25.164  0.00  0.00    +0.176 C 
ATOM     27  O   UNL     1      -3.269   9.714  24.027  0.00  0.00    -0.332 OA
ATOM     28  C   UNL     1      -3.932  10.279  22.847  0.00  0.00    +0.277 C 
ATOM     29  C   UNL     1      -4.713  11.561  23.227  0.00  0.00    +0.110 C 
ATOM     30  C   UNL     1      -5.623  11.331  24.453  0.00  0.00    +0.143 C 
ATOM     31  C   UNL     1      -4.832  10.739  25.620  0.00  0.00    +0.133 C 
BRANCH  31  32
ATOM     32  N   UNL     1      -5.726  10.444  26.751  0.00  0.00    -0.308 N 
ATOM     33  H   UNL     1      -6.383   9.684  26.646  0.00  0.00    +0.149 HD
ATOM     34  C   UNL     1      -5.724  11.114  27.906  0.00  0.00    +0.210 C 
ATOM     35  C   UNL     1      -4.728  12.283  28.024  0.00  0.00    +0.109 C 
ATOM     36  O   UNL     1      -6.475  10.835  28.842  0.00  0.00    -0.276 OA
ENDBRANCH  31  32
BRANCH  28  37
ATOM     37  C   UNL     1      -4.898   9.254  22.219  0.00  0.00    +0.414 C 
ATOM     38  O   UNL     1      -4.601   8.060  22.187  0.00  0.00    -0.240 OA
ATOM     39  O   UNL     1      -5.975   9.619  21.745  0.00  0.00    -0.240 OA
ENDBRANCH  28  37
BRANCH  30  40
ATOM     40  O   UNL     1      -6.205  12.570  24.859  0.00  0.00    -0.390 OA
ATOM     41  H   UNL     1      -6.451  12.520  25.786  0.00  0.00    +0.210 HD
ENDBRANCH  30  40
BRANCH  28  42
ATOM     42  O   UNL     1      -2.907  10.637  21.885  0.00  0.00    -0.343 OA
ATOM     43  C   UNL     1      -3.180  11.835  21.116  0.00  0.00    +0.198 C 
ENDBRANCH  28  42
ENDBRANCH  25  26
BRANCH  25  44
ATOM     44  O   UNL     1      -4.146   8.146  27.232  0.00  0.00    -0.387 OA
ATOM     45  H   UNL     1      -4.448   7.293  26.911  0.00  0.00    +0.210 HD
ENDBRANCH  25  44
ENDBRANCH   1  25
TORSDOF 15
