REMARK VINA RESULT:    -4.666      4.189      8.695
REMARK INTER + INTRA:         -12.687
REMARK INTER:                  -9.336
REMARK INTRA:                  -3.351
REMARK UNBOUND:                -3.793
REMARK  Name = lig_assembled_21.pdb
REMARK  20 active torsions:
REMARK  status: ('A' for Active; 'I' for Inactive)
REMARK    1  A    between atoms: _2  and  _9
REMARK    2  A    between atoms: _4  and  _23
REMARK    3  A    between atoms: _6  and  _7
REMARK    4  A    between atoms: _6  and  _23
REMARK    5  A    between atoms: _9  and  _10
REMARK    6  A    between atoms: _11  and  _18
REMARK    7  A    between atoms: _12  and  _13
REMARK    8  A    between atoms: _12  and  _18
REMARK    9  A    between atoms: _19  and  _39
REMARK   10  A    between atoms: _21  and  _27
REMARK   11  A    between atoms: _22  and  _26
REMARK   12  A    between atoms: _26  and  _27
REMARK   13  A    between atoms: _29  and  _30
REMARK   14  A    between atoms: _31  and  _32
REMARK   15  A    between atoms: _33  and  _35
REMARK   16  A    between atoms: _35  and  _36
REMARK   17  A    between atoms: _35  and  _37
REMARK   18  A    between atoms: _37  and  _38
REMARK   19  A    between atoms: _37  and  _39
REMARK   20  A    between atoms: _40  and  _42
REMARK                            x       y       z     vdW  Elec       q    Type
REMARK                         _______ _______ _______ _____ _____    ______ ____
ROOT
ATOM      1  C   UNL     1      -2.968  11.725  23.293  0.00  0.00    +0.163 C 
ENDROOT
BRANCH   1   2
ATOM      2  O   UNL     1      -2.212  12.062  24.468  0.00  0.00    -0.388 OA
ATOM      3  H   UNL     1      -1.892  12.964  24.395  0.00  0.00    +0.210 HD
ENDBRANCH   1   2
BRANCH   1   4
ATOM      4  C   UNL     1      -3.945  10.572  23.579  0.00  0.00    +0.175 C 
BRANCH   4   5
ATOM      5  C   UNL     1      -3.881  10.110  25.042  0.00  0.00    +0.176 C 
ATOM      6  O   UNL     1      -2.978   8.972  25.112  0.00  0.00    -0.332 OA
ATOM      7  C   UNL     1      -2.708   8.458  26.458  0.00  0.00    +0.277 C 
ATOM      8  C   UNL     1      -4.034   8.119  27.183  0.00  0.00    +0.110 C 
ATOM      9  C   UNL     1      -5.039   9.288  27.108  0.00  0.00    +0.143 C 
ATOM     10  C   UNL     1      -5.242   9.745  25.663  0.00  0.00    +0.133 C 
BRANCH  10  11
ATOM     11  N   UNL     1      -6.134  10.914  25.613  0.00  0.00    -0.308 N 
ATOM     12  H   UNL     1      -5.843  11.751  26.099  0.00  0.00    +0.149 HD
ATOM     13  C   UNL     1      -7.303  10.942  24.967  0.00  0.00    +0.210 C 
ATOM     14  C   UNL     1      -7.730   9.644  24.257  0.00  0.00    +0.109 C 
ATOM     15  O   UNL     1      -8.022  11.941  24.929  0.00  0.00    -0.276 OA
ENDBRANCH  10  11
BRANCH   7  16
ATOM     16  C   UNL     1      -1.916   9.489  27.289  0.00  0.00    +0.414 C 
ATOM     17  O   UNL     1      -1.054  10.186  26.753  0.00  0.00    -0.240 OA
ATOM     18  O   UNL     1      -2.137   9.624  28.493  0.00  0.00    -0.240 OA
ENDBRANCH   7  16
BRANCH   9  19
ATOM     19  O   UNL     1      -6.294   8.880  27.653  0.00  0.00    -0.390 OA
ATOM     20  H   UNL     1      -6.322   7.922  27.713  0.00  0.00    +0.210 HD
ENDBRANCH   9  19
BRANCH   7  21
ATOM     21  O   UNL     1      -1.935   7.238  26.327  0.00  0.00    -0.343 OA
ATOM     22  C   UNL     1      -2.139   6.266  27.383  0.00  0.00    +0.198 C 
ENDBRANCH   7  21
ENDBRANCH   4   5
BRANCH   4  23
ATOM     23  O   UNL     1      -3.678   9.464  22.696  0.00  0.00    -0.387 OA
ATOM     24  H   UNL     1      -4.508   9.094  22.387  0.00  0.00    +0.210 HD
ENDBRANCH   4  23
ENDBRANCH   1   4
BRANCH   1  25
ATOM     25  C   UNL     1      -3.746  12.943  22.806  0.00  0.00    +0.141 C 
BRANCH  25  28
ATOM     26  C   UNL     1      -6.010  13.049  21.821  0.00  0.00    +0.401 C 
ATOM     27  O   UNL     1      -6.448  13.823  22.676  0.00  0.00    -0.226 OA
ATOM     28  N   UNL     1      -4.761  12.582  21.809  0.00  0.00    -0.279 N 
ATOM     29  H   UNL     1      -4.498  11.944  21.071  0.00  0.00    +0.152 HD
BRANCH  26  30
ATOM     30  O   UNL     1      -6.877  12.609  20.773  0.00  0.00    -0.444 OA
BRANCH  30  31
ATOM     31  C   UNL     1      -7.140  11.212  20.925  0.00  0.00    +0.292 C 
BRANCH  31  33
ATOM     32  N   UNL     1      -5.246   9.785  20.230  0.00  0.00    -0.131 NA
ATOM     33  C   UNL     1      -6.402  10.441  19.908  0.00  0.00    +0.120 A 
ATOM     34  C   UNL     1      -6.696  10.209  18.583  0.00  0.00    +0.137 A 
ATOM     35  N   UNL     1      -5.730   9.329  18.177  0.00  0.00    -0.247 N 
ATOM     36  N   UNL     1      -4.842   9.110  19.164  0.00  0.00    -0.065 NA
BRANCH  35  37
ATOM     37  C   UNL     1      -5.687   8.634  16.895  0.00  0.00    +0.184 C 
BRANCH  37  38
ATOM     38  C   UNL     1      -4.327   8.535  16.247  0.00  0.00    +0.016 A 
ATOM     39  C   UNL     1      -3.762   9.611  15.538  0.00  0.00    +0.137 A 
ATOM     40  C   UNL     1      -2.502   9.501  14.949  0.00  0.00    +0.047 A 
ATOM     41  C   UNL     1      -1.779   8.315  15.079  0.00  0.00    +0.004 A 
ATOM     42  C   UNL     1      -2.327   7.234  15.765  0.00  0.00    +0.001 A 
ATOM     43  C   UNL     1      -3.590   7.343  16.348  0.00  0.00    +0.009 A 
BRANCH  39  44
ATOM     44  O   UNL     1      -4.566  10.764  15.380  0.00  0.00    -0.426 OA
BRANCH  44  45
ATOM     45  C   UNL     1      -4.307  11.958  16.056  0.00  0.00    +0.309 C 
ATOM     46  O   UNL     1      -4.098  12.101  17.253  0.00  0.00    -0.251 OA
ATOM     47  C   UNL     1      -4.245  13.078  15.059  0.00  0.00    +0.136 C 
ENDBRANCH  44  45
ENDBRANCH  39  44
ENDBRANCH  37  38
ENDBRANCH  35  37
ENDBRANCH  31  33
ENDBRANCH  30  31
ENDBRANCH  26  30
ENDBRANCH  25  28
ENDBRANCH   1  25
TORSDOF 17
