REMARK VINA RESULT:    -4.575      2.982     10.257
REMARK INTER + INTRA:         -11.277
REMARK INTER:                  -8.683
REMARK INTRA:                  -2.595
REMARK UNBOUND:                -3.358
REMARK  Name = lig_assembled_42.pdb
REMARK  16 active torsions:
REMARK  status: ('A' for Active; 'I' for Inactive)
REMARK    1  A    between atoms: _2  and  _9
REMARK    2  A    between atoms: _4  and  _21
REMARK    3  A    between atoms: _6  and  _7
REMARK    4  A    between atoms: _6  and  _21
REMARK    5  A    between atoms: _17  and  _37
REMARK    6  A    between atoms: _19  and  _25
REMARK    7  A    between atoms: _20  and  _24
REMARK    8  A    between atoms: _24  and  _25
REMARK    9  A    between atoms: _27  and  _28
REMARK   10  A    between atoms: _29  and  _30
REMARK   11  A    between atoms: _31  and  _33
REMARK   12  A    between atoms: _33  and  _34
REMARK   13  A    between atoms: _33  and  _35
REMARK   14  A    between atoms: _35  and  _36
REMARK   15  A    between atoms: _35  and  _37
REMARK   16  A    between atoms: _38  and  _40
REMARK                            x       y       z     vdW  Elec       q    Type
REMARK                         _______ _______ _______ _____ _____    ______ ____
ROOT
ATOM      1  C   UNL     1      -6.590   9.451  23.706  0.00  0.00    +0.163 C 
ENDROOT
BRANCH   1   2
ATOM      2  O   UNL     1      -6.978   9.770  25.052  0.00  0.00    -0.388 OA
ATOM      3  H   UNL     1      -7.484  10.586  25.054  0.00  0.00    +0.210 HD
ENDBRANCH   1   2
BRANCH   1   4
ATOM      4  C   UNL     1      -7.690   8.647  23.021  0.00  0.00    +0.141 C 
BRANCH   4   7
ATOM      5  C   UNL     1      -8.181   8.498  20.604  0.00  0.00    +0.401 C 
ATOM      6  O   UNL     1      -7.991   7.281  20.545  0.00  0.00    -0.226 OA
ATOM      7  N   UNL     1      -8.057   9.219  21.720  0.00  0.00    -0.279 N 
ATOM      8  H   UNL     1      -8.225  10.214  21.666  0.00  0.00    +0.152 HD
BRANCH   5   9
ATOM      9  O   UNL     1      -8.554   9.202  19.417  0.00  0.00    -0.444 OA
BRANCH   9  10
ATOM     10  C   UNL     1      -8.132  10.565  19.516  0.00  0.00    +0.292 C 
BRANCH  10  12
ATOM     11  N   UNL     1      -6.733  12.138  18.204  0.00  0.00    -0.131 NA
ATOM     12  C   UNL     1      -7.091  10.859  18.513  0.00  0.00    +0.121 A 
ATOM     13  C   UNL     1      -6.342   9.990  17.758  0.00  0.00    +0.143 A 
ATOM     14  N   UNL     1      -5.528  10.789  16.991  0.00  0.00    -0.220 N 
ATOM     15  N   UNL     1      -5.782  12.090  17.278  0.00  0.00    -0.060 NA
BRANCH  14  16
ATOM     16  C   UNL     1      -4.560  10.395  16.034  0.00  0.00    +0.071 A 
ATOM     17  C   UNL     1      -3.921   9.151  16.151  0.00  0.00    +0.077 A 
ATOM     18  C   UNL     1      -2.988   8.814  15.195  0.00  0.00    +0.168 A 
ATOM     19  O   UNL     1      -2.287   7.651  15.162  0.00  0.00    -0.453 OA
ATOM     20  C   UNL     1      -1.496   7.847  13.972  0.00  0.00    +0.466 C 
ATOM     21  O   UNL     1      -1.735   9.118  13.329  0.00  0.00    -0.453 OA
ATOM     22  C   UNL     1      -2.676   9.651  14.151  0.00  0.00    +0.166 A 
ATOM     23  C   UNL     1      -3.281  10.880  14.005  0.00  0.00    +0.051 A 
ATOM     24  C   UNL     1      -4.237  11.258  14.959  0.00  0.00    +0.031 A 
ENDBRANCH  14  16
ENDBRANCH  10  12
ENDBRANCH   9  10
ENDBRANCH   5   9
ENDBRANCH   4   7
ENDBRANCH   1   4
BRANCH   1  25
ATOM     25  C   UNL     1      -5.279   8.646  23.688  0.00  0.00    +0.175 C 
BRANCH  25  26
ATOM     26  C   UNL     1      -4.106   9.437  24.286  0.00  0.00    +0.176 C 
ATOM     27  O   UNL     1      -4.360   9.606  25.708  0.00  0.00    -0.332 OA
ATOM     28  C   UNL     1      -3.287  10.253  26.470  0.00  0.00    +0.277 C 
ATOM     29  C   UNL     1      -2.921  11.618  25.838  0.00  0.00    +0.110 C 
ATOM     30  C   UNL     1      -2.674  11.494  24.320  0.00  0.00    +0.143 C 
ATOM     31  C   UNL     1      -3.849  10.805  23.626  0.00  0.00    +0.133 C 
BRANCH  31  32
ATOM     32  N   UNL     1      -3.564  10.615  22.195  0.00  0.00    -0.308 N 
ATOM     33  H   UNL     1      -2.851   9.946  21.941  0.00  0.00    +0.149 HD
ATOM     34  C   UNL     1      -4.187  11.269  21.211  0.00  0.00    +0.210 C 
ATOM     35  C   UNL     1      -5.250  12.301  21.632  0.00  0.00    +0.109 C 
ATOM     36  O   UNL     1      -3.937  11.079  20.020  0.00  0.00    -0.276 OA
ENDBRANCH  31  32
BRANCH  28  37
ATOM     37  C   UNL     1      -2.034   9.355  26.520  0.00  0.00    +0.414 C 
ATOM     38  O   UNL     1      -0.912   9.858  26.561  0.00  0.00    -0.240 OA
ATOM     39  O   UNL     1      -2.144   8.128  26.520  0.00  0.00    -0.240 OA
ENDBRANCH  28  37
BRANCH  30  40
ATOM     40  O   UNL     1      -2.490  12.793  23.755  0.00  0.00    -0.390 OA
ATOM     41  H   UNL     1      -2.756  13.460  24.391  0.00  0.00    +0.210 HD
ENDBRANCH  30  40
BRANCH  28  42
ATOM     42  O   UNL     1      -3.773  10.488  27.817  0.00  0.00    -0.343 OA
ATOM     43  C   UNL     1      -3.805  11.880  28.222  0.00  0.00    +0.198 C 
ENDBRANCH  28  42
ENDBRANCH  25  26
BRANCH  25  44
ATOM     44  O   UNL     1      -4.966   8.236  22.342  0.00  0.00    -0.387 OA
ATOM     45  H   UNL     1      -5.773   7.976  21.890  0.00  0.00    +0.210 HD
ENDBRANCH  25  44
ENDBRANCH   1  25
TORSDOF 14
