REMARK VINA RESULT:    -5.231      4.358     10.874
REMARK INTER + INTRA:         -12.054
REMARK INTER:                  -8.659
REMARK INTRA:                  -3.395
REMARK UNBOUND:                -2.541
REMARK  Name = lig_assembled_23.pdb
REMARK  18 active torsions:
REMARK  status: ('A' for Active; 'I' for Inactive)
REMARK    1  A    between atoms: _2  and  _10
REMARK    2  A    between atoms: _3  and  _41
REMARK    3  A    between atoms: _5  and  _21
REMARK    4  A    between atoms: _7  and  _8
REMARK    5  A    between atoms: _7  and  _21
REMARK    6  A    between atoms: _12  and  _41
REMARK    7  A    between atoms: _17  and  _37
REMARK    8  A    between atoms: _19  and  _25
REMARK    9  A    between atoms: _20  and  _24
REMARK   10  A    between atoms: _24  and  _25
REMARK   11  A    between atoms: _27  and  _28
REMARK   12  A    between atoms: _29  and  _30
REMARK   13  A    between atoms: _31  and  _33
REMARK   14  A    between atoms: _33  and  _34
REMARK   15  A    between atoms: _33  and  _35
REMARK   16  A    between atoms: _35  and  _36
REMARK   17  A    between atoms: _35  and  _37
REMARK   18  A    between atoms: _38  and  _40
REMARK                            x       y       z     vdW  Elec       q    Type
REMARK                         _______ _______ _______ _____ _____    ______ ____
ROOT
ATOM      1  C   UNL     1      -4.943   7.608  23.784  0.00  0.00    +0.141 C 
ENDROOT
BRANCH   1   4
ATOM      2  C   UNL     1      -3.124   6.869  25.284  0.00  0.00    +0.401 C 
ATOM      3  O   UNL     1      -3.330   5.668  25.096  0.00  0.00    -0.226 OA
ATOM      4  N   UNL     1      -3.834   7.845  24.716  0.00  0.00    -0.279 N 
ATOM      5  H   UNL     1      -3.595   8.801  24.940  0.00  0.00    +0.152 HD
BRANCH   2   6
ATOM      6  O   UNL     1      -2.068   7.264  26.163  0.00  0.00    -0.444 OA
BRANCH   6   7
ATOM      7  C   UNL     1      -2.497   7.120  27.520  0.00  0.00    +0.292 C 
BRANCH   7   9
ATOM      8  N   UNL     1      -4.673   8.261  27.794  0.00  0.00    -0.131 NA
ATOM      9  C   UNL     1      -3.314   8.279  27.924  0.00  0.00    +0.121 A 
ATOM     10  C   UNL     1      -2.930   9.488  28.457  0.00  0.00    +0.143 A 
ATOM     11  N   UNL     1      -4.102  10.181  28.649  0.00  0.00    -0.220 N 
ATOM     12  N   UNL     1      -5.144   9.420  28.234  0.00  0.00    -0.060 NA
BRANCH  11  13
ATOM     13  C   UNL     1      -4.292  11.485  29.177  0.00  0.00    +0.069 A 
ATOM     14  C   UNL     1      -3.549  11.890  30.295  0.00  0.00    +0.056 A 
ATOM     15  C   UNL     1      -3.759  13.163  30.839  0.00  0.00    +0.107 A 
ATOM     16  C   UNL     1      -4.678  14.044  30.268  0.00  0.00    +0.028 A 
ATOM     17  C   UNL     1      -5.405  13.645  29.147  0.00  0.00    +0.004 A 
ATOM     18  C   UNL     1      -5.218  12.368  28.603  0.00  0.00    +0.028 A 
BRANCH  15  19
ATOM     19  S   UNL     1      -2.857  13.636  32.283  0.00  0.00    +0.056 S 
ATOM     20  O   UNL     1      -1.759  12.717  32.468  0.00  0.00    -0.153 OA
ATOM     21  O   UNL     1      -2.684  15.070  32.288  0.00  0.00    -0.153 OA
BRANCH  19  22
ATOM     22  N   UNL     1      -3.963  13.317  33.505  0.00  0.00    -0.204 NA
ATOM     23  H   UNL     1      -4.274  12.348  33.450  0.00  0.00    +0.144 HD
ATOM     24  H   UNL     1      -4.722  13.999  33.477  0.00  0.00    +0.144 HD
ENDBRANCH  19  22
ENDBRANCH  15  19
ENDBRANCH  11  13
ENDBRANCH   7   9
ENDBRANCH   6   7
ENDBRANCH   2   6
ENDBRANCH   1   4
BRANCH   1  25
ATOM     25  C   UNL     1      -6.105   8.566  24.028  0.00  0.00    +0.163 C 
BRANCH  25  26
ATOM     26  O   UNL     1      -5.958   9.201  25.309  0.00  0.00    -0.388 OA
ATOM     27  H   UNL     1      -5.620   8.566  25.945  0.00  0.00    +0.210 HD
ENDBRANCH  25  26
BRANCH  25  28
ATOM     28  C   UNL     1      -6.157   9.610  22.899  0.00  0.00    +0.175 C 
BRANCH  28  29
ATOM     29  C   UNL     1      -5.001  10.616  22.990  0.00  0.00    +0.176 C 
ATOM     30  O   UNL     1      -5.319  11.570  24.040  0.00  0.00    -0.332 OA
ATOM     31  C   UNL     1      -4.274  12.552  24.343  0.00  0.00    +0.277 C 
ATOM     32  C   UNL     1      -3.853  13.308  23.059  0.00  0.00    +0.110 C 
ATOM     33  C   UNL     1      -3.535  12.336  21.904  0.00  0.00    +0.143 C 
ATOM     34  C   UNL     1      -4.688  11.358  21.677  0.00  0.00    +0.133 C 
BRANCH  34  35
ATOM     35  N   UNL     1      -4.338  10.382  20.633  0.00  0.00    -0.308 N 
ATOM     36  H   UNL     1      -3.539   9.784  20.794  0.00  0.00    +0.149 HD
ATOM     37  C   UNL     1      -5.006  10.235  19.485  0.00  0.00    +0.210 C 
ATOM     38  C   UNL     1      -6.201  11.179  19.257  0.00  0.00    +0.109 C 
ATOM     39  O   UNL     1      -4.698   9.399  18.635  0.00  0.00    -0.276 OA
ENDBRANCH  34  35
BRANCH  31  40
ATOM     40  C   UNL     1      -3.040  11.863  24.963  0.00  0.00    +0.414 C 
ATOM     41  O   UNL     1      -1.985  12.483  25.095  0.00  0.00    -0.240 OA
ATOM     42  O   UNL     1      -3.100  10.690  25.332  0.00  0.00    -0.240 OA
ENDBRANCH  31  40
BRANCH  33  43
ATOM     43  O   UNL     1      -3.301  13.074  20.704  0.00  0.00    -0.390 OA
ATOM     44  H   UNL     1      -3.193  14.004  20.916  0.00  0.00    +0.210 HD
ENDBRANCH  33  43
BRANCH  31  45
ATOM     45  O   UNL     1      -4.820  13.514  25.282  0.00  0.00    -0.343 OA
ATOM     46  C   UNL     1      -6.034  14.175  24.845  0.00  0.00    +0.198 C 
ENDBRANCH  31  45
ENDBRANCH  28  29
BRANCH  28  47
ATOM     47  O   UNL     1      -7.421  10.302  22.921  0.00  0.00    -0.387 OA
ATOM     48  H   UNL     1      -8.002   9.928  22.254  0.00  0.00    +0.210 HD
ENDBRANCH  28  47
ENDBRANCH  25  28
ENDBRANCH   1  25
TORSDOF 16
