REMARK VINA RESULT:    -4.201      2.568      4.274
REMARK INTER + INTRA:         -11.882
REMARK INTER:                  -7.054
REMARK INTRA:                  -4.829
REMARK UNBOUND:                -3.997
REMARK  Name = lig_assembled_68.pdb
REMARK  19 active torsions:
REMARK  status: ('A' for Active; 'I' for Inactive)
REMARK    1  A    between atoms: _2  and  _9
REMARK    2  A    between atoms: _4  and  _21
REMARK    3  A    between atoms: _6  and  _7
REMARK    4  A    between atoms: _6  and  _21
REMARK    5  A    between atoms: _9  and  _10
REMARK    6  A    between atoms: _10  and  _11
REMARK    7  A    between atoms: _10  and  _16
REMARK    8  A    between atoms: _17  and  _37
REMARK    9  A    between atoms: _19  and  _25
REMARK   10  A    between atoms: _20  and  _24
REMARK   11  A    between atoms: _24  and  _25
REMARK   12  A    between atoms: _27  and  _28
REMARK   13  A    between atoms: _29  and  _30
REMARK   14  A    between atoms: _31  and  _33
REMARK   15  A    between atoms: _33  and  _34
REMARK   16  A    between atoms: _33  and  _35
REMARK   17  A    between atoms: _35  and  _36
REMARK   18  A    between atoms: _35  and  _37
REMARK   19  A    between atoms: _38  and  _40
REMARK                            x       y       z     vdW  Elec       q    Type
REMARK                         _______ _______ _______ _____ _____    ______ ____
ROOT
ATOM      1  C   UNL     1      -4.083  11.968  29.482  0.00  0.00    +0.163 C 
ENDROOT
BRANCH   1   2
ATOM      2  O   UNL     1      -2.932  11.200  29.867  0.00  0.00    -0.388 OA
ATOM      3  H   UNL     1      -2.579  10.744  29.099  0.00  0.00    +0.210 HD
ENDBRANCH   1   2
BRANCH   1   4
ATOM      4  C   UNL     1      -5.200  11.055  28.947  0.00  0.00    +0.175 C 
BRANCH   4   5
ATOM      5  C   UNL     1      -4.662   9.988  27.983  0.00  0.00    +0.176 C 
ATOM      6  O   UNL     1      -3.713  10.632  27.088  0.00  0.00    -0.332 OA
ATOM      7  C   UNL     1      -3.013   9.741  26.159  0.00  0.00    +0.277 C 
ATOM      8  C   UNL     1      -4.029   8.912  25.335  0.00  0.00    +0.110 C 
ATOM      9  C   UNL     1      -5.078   8.234  26.241  0.00  0.00    +0.143 C 
ATOM     10  C   UNL     1      -5.742   9.252  27.169  0.00  0.00    +0.133 C 
BRANCH  10  11
ATOM     11  N   UNL     1      -6.676   8.580  28.086  0.00  0.00    -0.308 N 
ATOM     12  H   UNL     1      -6.288   7.966  28.788  0.00  0.00    +0.149 HD
ATOM     13  C   UNL     1      -8.003   8.730  28.052  0.00  0.00    +0.210 C 
ATOM     14  C   UNL     1      -8.565   9.653  26.954  0.00  0.00    +0.109 C 
ATOM     15  O   UNL     1      -8.760   8.166  28.843  0.00  0.00    -0.276 OA
ENDBRANCH  10  11
BRANCH   7  16
ATOM     16  C   UNL     1      -2.068   8.788  26.921  0.00  0.00    +0.414 C 
ATOM     17  O   UNL     1      -1.792   7.684  26.454  0.00  0.00    -0.240 OA
ATOM     18  O   UNL     1      -1.583   9.124  28.002  0.00  0.00    -0.240 OA
ENDBRANCH   7  16
BRANCH   7  19
ATOM     19  O   UNL     1      -2.244  10.562  25.243  0.00  0.00    -0.343 OA
ATOM     20  C   UNL     1      -2.171  11.967  25.594  0.00  0.00    +0.198 C 
ENDBRANCH   7  19
BRANCH   9  21
ATOM     21  O   UNL     1      -6.078   7.609  25.435  0.00  0.00    -0.390 OA
ATOM     22  H   UNL     1      -6.823   8.205  25.329  0.00  0.00    +0.210 HD
ENDBRANCH   9  21
ENDBRANCH   4   5
BRANCH   4  23
ATOM     23  O   UNL     1      -6.218  11.843  28.299  0.00  0.00    -0.387 OA
ATOM     24  H   UNL     1      -6.109  11.786  27.346  0.00  0.00    +0.210 HD
ENDBRANCH   4  23
ENDBRANCH   1   4
BRANCH   1  25
ATOM     25  C   UNL     1      -4.603  12.763  30.676  0.00  0.00    +0.141 C 
BRANCH  25  28
ATOM     26  C   UNL     1      -6.483  14.363  30.578  0.00  0.00    +0.401 C 
ATOM     27  O   UNL     1      -7.244  13.654  31.240  0.00  0.00    -0.226 OA
ATOM     28  N   UNL     1      -5.233  14.023  30.262  0.00  0.00    -0.279 N 
ATOM     29  H   UNL     1      -4.689  14.668  29.706  0.00  0.00    +0.152 HD
BRANCH  26  30
ATOM     30  O   UNL     1      -6.949  15.630  30.107  0.00  0.00    -0.444 OA
BRANCH  30  31
ATOM     31  C   UNL     1      -8.156  15.449  29.361  0.00  0.00    +0.292 C 
BRANCH  31  33
ATOM     32  N   UNL     1      -8.477  13.795  27.542  0.00  0.00    -0.131 NA
ATOM     33  C   UNL     1      -7.858  14.923  28.017  0.00  0.00    +0.120 A 
ATOM     34  C   UNL     1      -6.986  15.393  27.063  0.00  0.00    +0.137 A 
ATOM     35  N   UNL     1      -7.127  14.515  26.028  0.00  0.00    -0.249 N 
ATOM     36  N   UNL     1      -8.015  13.550  26.323  0.00  0.00    -0.065 NA
BRANCH  35  37
ATOM     37  C   UNL     1      -6.380  14.479  24.788  0.00  0.00    +0.181 C 
BRANCH  37  38
ATOM     38  C   UNL     1      -5.223  13.474  24.838  0.00  0.00    +0.166 C 
BRANCH  38  39
ATOM     39  C   UNL     1      -4.539  13.238  23.499  0.00  0.00    -0.017 A 
ATOM     40  C   UNL     1      -4.660  11.976  22.888  0.00  0.00    +0.006 A 
ATOM     41  C   UNL     1      -4.071  11.724  21.647  0.00  0.00    +0.000 A 
ATOM     42  C   UNL     1      -3.358  12.727  20.996  0.00  0.00    +0.000 A 
ATOM     43  C   UNL     1      -3.244  13.985  21.576  0.00  0.00    +0.000 A 
ATOM     44  C   UNL     1      -3.833  14.241  22.818  0.00  0.00    +0.006 A 
ENDBRANCH  38  39
BRANCH  38  45
ATOM     45  O   UNL     1      -5.719  12.215  25.308  0.00  0.00    -0.385 OA
ATOM     46  H   UNL     1      -5.019  11.787  25.827  0.00  0.00    +0.210 HD
ENDBRANCH  38  45
ENDBRANCH  37  38
ENDBRANCH  35  37
ENDBRANCH  31  33
ENDBRANCH  30  31
ENDBRANCH  26  30
ENDBRANCH  25  28
ENDBRANCH   1  25
TORSDOF 17
