REMARK VINA RESULT:    -4.999      4.536      7.543
REMARK INTER + INTRA:         -10.663
REMARK INTER:                  -8.670
REMARK INTRA:                  -1.993
REMARK UNBOUND:                -2.010
REMARK  Name = lig_assembled_49.pdb
REMARK  16 active torsions:
REMARK  status: ('A' for Active; 'I' for Inactive)
REMARK    1  A    between atoms: _2  and  _9
REMARK    2  A    between atoms: _4  and  _17
REMARK    3  A    between atoms: _6  and  _7
REMARK    4  A    between atoms: _6  and  _17
REMARK    5  A    between atoms: _13  and  _33
REMARK    6  A    between atoms: _15  and  _21
REMARK    7  A    between atoms: _16  and  _20
REMARK    8  A    between atoms: _20  and  _21
REMARK    9  A    between atoms: _23  and  _24
REMARK   10  A    between atoms: _25  and  _26
REMARK   11  A    between atoms: _27  and  _29
REMARK   12  A    between atoms: _29  and  _30
REMARK   13  A    between atoms: _29  and  _31
REMARK   14  A    between atoms: _31  and  _32
REMARK   15  A    between atoms: _31  and  _33
REMARK   16  A    between atoms: _34  and  _36
REMARK                            x       y       z     vdW  Elec       q    Type
REMARK                         _______ _______ _______ _____ _____    ______ ____
ROOT
ATOM      1  C   UNL     1      -3.771  10.851  23.594  0.00  0.00    +0.175 C 
ENDROOT
BRANCH   1   2
ATOM      2  C   UNL     1      -3.755  10.255  25.009  0.00  0.00    +0.176 C 
ATOM      3  O   UNL     1      -3.095   8.961  24.942  0.00  0.00    -0.332 OA
ATOM      4  C   UNL     1      -2.893   8.285  26.227  0.00  0.00    +0.277 C 
ATOM      5  C   UNL     1      -4.236   8.149  26.985  0.00  0.00    +0.110 C 
ATOM      6  C   UNL     1      -4.989   9.494  27.054  0.00  0.00    +0.143 C 
ATOM      7  C   UNL     1      -5.142  10.111  25.663  0.00  0.00    +0.133 C 
BRANCH   7   8
ATOM      8  N   UNL     1      -5.783  11.432  25.752  0.00  0.00    -0.308 N 
ATOM      9  H   UNL     1      -5.363  12.120  26.361  0.00  0.00    +0.149 HD
ATOM     10  C   UNL     1      -6.884  11.781  25.081  0.00  0.00    +0.210 C 
ATOM     11  C   UNL     1      -7.515  10.701  24.181  0.00  0.00    +0.109 C 
ATOM     12  O   UNL     1      -7.391  12.900  25.163  0.00  0.00    -0.276 OA
ENDBRANCH   7   8
BRANCH   4  13
ATOM     13  C   UNL     1      -1.885   9.062  27.100  0.00  0.00    +0.414 C 
ATOM     14  O   UNL     1      -1.829   8.858  28.313  0.00  0.00    -0.240 OA
ATOM     15  O   UNL     1      -1.128   9.890  26.593  0.00  0.00    -0.240 OA
ENDBRANCH   4  13
BRANCH   6  16
ATOM     16  O   UNL     1      -6.284   9.293  27.624  0.00  0.00    -0.390 OA
ATOM     17  H   UNL     1      -6.270   9.548  28.549  0.00  0.00    +0.210 HD
ENDBRANCH   6  16
BRANCH   4  18
ATOM     18  O   UNL     1      -2.382   6.954  25.959  0.00  0.00    -0.343 OA
ATOM     19  C   UNL     1      -3.084   5.881  26.636  0.00  0.00    +0.198 C 
ENDBRANCH   4  18
ENDBRANCH   1   2
BRANCH   1  20
ATOM     20  O   UNL     1      -3.344   9.864  22.634  0.00  0.00    -0.387 OA
ATOM     21  H   UNL     1      -3.185   9.029  23.082  0.00  0.00    +0.210 HD
ENDBRANCH   1  20
BRANCH   1  22
ATOM     22  C   UNL     1      -2.892  12.109  23.486  0.00  0.00    +0.163 C 
BRANCH  22  23
ATOM     23  O   UNL     1      -2.095  12.283  24.669  0.00  0.00    -0.388 OA
ATOM     24  H   UNL     1      -2.290  11.580  25.293  0.00  0.00    +0.210 HD
ENDBRANCH  22  23
BRANCH  22  25
ATOM     25  C   UNL     1      -3.778  13.332  23.269  0.00  0.00    +0.141 C 
BRANCH  25  28
ATOM     26  C   UNL     1      -5.898  13.884  22.126  0.00  0.00    +0.401 C 
ATOM     27  O   UNL     1      -6.040  14.962  22.708  0.00  0.00    -0.226 OA
ATOM     28  N   UNL     1      -4.873  13.056  22.331  0.00  0.00    -0.279 N 
ATOM     29  H   UNL     1      -4.849  12.189  21.813  0.00  0.00    +0.152 HD
BRANCH  26  30
ATOM     30  O   UNL     1      -6.881  13.475  21.171  0.00  0.00    -0.444 OA
BRANCH  30  31
ATOM     31  C   UNL     1      -6.629  12.124  20.776  0.00  0.00    +0.292 C 
BRANCH  31  33
ATOM     32  N   UNL     1      -7.073  12.177  18.343  0.00  0.00    -0.131 NA
ATOM     33  C   UNL     1      -6.177  12.074  19.373  0.00  0.00    +0.120 A 
ATOM     34  C   UNL     1      -4.911  11.924  18.854  0.00  0.00    +0.137 A 
ATOM     35  N   UNL     1      -5.104  11.936  17.504  0.00  0.00    -0.248 N 
ATOM     36  N   UNL     1      -6.405  12.092  17.202  0.00  0.00    -0.065 NA
BRANCH  35  37
ATOM     37  C   UNL     1      -4.111  11.785  16.468  0.00  0.00    +0.109 C 
ATOM     38  C   UNL     1      -4.289  10.525  15.618  0.00  0.00    +0.027 C 
ATOM     39  C   UNL     1      -3.448  10.825  14.389  0.00  0.00    +0.002 C 
ATOM     40  C   UNL     1      -3.707  12.299  14.108  0.00  0.00    +0.002 C 
ATOM     41  C   UNL     1      -4.070  12.934  15.453  0.00  0.00    +0.027 C 
ENDBRANCH  35  37
ENDBRANCH  31  33
ENDBRANCH  30  31
ENDBRANCH  26  30
ENDBRANCH  25  28
ENDBRANCH  22  25
ENDBRANCH   1  22
TORSDOF 14
