REMARK VINA RESULT:    -5.329      2.287      3.555
REMARK INTER + INTRA:         -11.220
REMARK INTER:                  -8.479
REMARK INTRA:                  -2.741
REMARK UNBOUND:                -1.997
REMARK  Name = lig_assembled_57.pdb
REMARK  17 active torsions:
REMARK  status: ('A' for Active; 'I' for Inactive)
REMARK    1  A    between atoms: _2  and  _10
REMARK    2  A    between atoms: _3  and  _13
REMARK    3  A    between atoms: _5  and  _19
REMARK    4  A    between atoms: _7  and  _8
REMARK    5  A    between atoms: _7  and  _19
REMARK    6  A    between atoms: _15  and  _35
REMARK    7  A    between atoms: _17  and  _23
REMARK    8  A    between atoms: _18  and  _22
REMARK    9  A    between atoms: _22  and  _23
REMARK   10  A    between atoms: _25  and  _26
REMARK   11  A    between atoms: _27  and  _28
REMARK   12  A    between atoms: _29  and  _31
REMARK   13  A    between atoms: _31  and  _32
REMARK   14  A    between atoms: _31  and  _33
REMARK   15  A    between atoms: _33  and  _34
REMARK   16  A    between atoms: _33  and  _35
REMARK   17  A    between atoms: _36  and  _38
REMARK                            x       y       z     vdW  Elec       q    Type
REMARK                         _______ _______ _______ _____ _____    ______ ____
ROOT
ATOM      1  C   UNL     1      -3.550   8.176  27.663  0.00  0.00    +0.163 C 
ENDROOT
BRANCH   1   2
ATOM      2  O   UNL     1      -4.192   7.176  28.471  0.00  0.00    -0.388 OA
ATOM      3  H   UNL     1      -4.158   7.439  29.394  0.00  0.00    +0.210 HD
ENDBRANCH   1   2
BRANCH   1   4
ATOM      4  C   UNL     1      -3.025   7.548  26.376  0.00  0.00    +0.141 C 
BRANCH   4   7
ATOM      5  C   UNL     1      -5.076   7.338  25.013  0.00  0.00    +0.401 C 
ATOM      6  O   UNL     1      -5.597   6.504  25.756  0.00  0.00    -0.226 OA
ATOM      7  N   UNL     1      -3.873   7.875  25.223  0.00  0.00    -0.279 N 
ATOM      8  H   UNL     1      -3.526   8.545  24.551  0.00  0.00    +0.152 HD
BRANCH   5   9
ATOM      9  O   UNL     1      -5.783   7.768  23.846  0.00  0.00    -0.444 OA
BRANCH   9  10
ATOM     10  C   UNL     1      -4.902   7.748  22.720  0.00  0.00    +0.292 C 
BRANCH  10  12
ATOM     11  N   UNL     1      -3.192   9.491  22.349  0.00  0.00    -0.131 NA
ATOM     12  C   UNL     1      -4.507   9.124  22.364  0.00  0.00    +0.120 A 
ATOM     13  C   UNL     1      -5.281  10.201  21.987  0.00  0.00    +0.137 A 
ATOM     14  N   UNL     1      -4.374  11.167  21.670  0.00  0.00    -0.248 N 
ATOM     15  N   UNL     1      -3.123  10.753  21.961  0.00  0.00    -0.065 NA
BRANCH  14  16
ATOM     16  C   UNL     1      -4.545  12.471  21.039  0.00  0.00    +0.111 C 
ATOM     17  C   UNL     1      -5.905  13.080  21.410  0.00  0.00    +0.042 C 
ATOM     18  C   UNL     1      -5.891  13.585  22.851  0.00  0.00    +0.086 C 
ATOM     19  N   UNL     1      -4.858  14.598  23.092  0.00  0.00    -0.305 NA
ATOM     20  C   UNL     1      -3.523  14.143  22.702  0.00  0.00    +0.086 C 
ATOM     21  C   UNL     1      -5.207  15.894  22.517  0.00  0.00    +0.104 C 
ATOM     22  C   UNL     1      -3.438  13.505  21.307  0.00  0.00    +0.042 C 
ENDBRANCH  14  16
ENDBRANCH  10  12
ENDBRANCH   9  10
ENDBRANCH   5   9
ENDBRANCH   4   7
ENDBRANCH   1   4
BRANCH   1  23
ATOM     23  C   UNL     1      -2.387   8.834  28.425  0.00  0.00    +0.175 C 
BRANCH  23  24
ATOM     24  C   UNL     1      -2.827  10.105  29.166  0.00  0.00    +0.176 C 
ATOM     25  O   UNL     1      -3.688   9.704  30.267  0.00  0.00    -0.332 OA
ATOM     26  C   UNL     1      -4.124  10.785  31.157  0.00  0.00    +0.277 C 
ATOM     27  C   UNL     1      -4.804  11.914  30.345  0.00  0.00    +0.110 C 
ATOM     28  C   UNL     1      -3.940  12.351  29.143  0.00  0.00    +0.143 C 
ATOM     29  C   UNL     1      -3.541  11.149  28.287  0.00  0.00    +0.133 C 
BRANCH  29  30
ATOM     30  N   UNL     1      -2.647  11.567  27.196  0.00  0.00    -0.308 N 
ATOM     31  H   UNL     1      -1.698  11.818  27.435  0.00  0.00    +0.149 HD
ATOM     32  C   UNL     1      -3.008  11.636  25.912  0.00  0.00    +0.210 C 
ATOM     33  C   UNL     1      -4.468  11.272  25.585  0.00  0.00    +0.109 C 
ATOM     34  O   UNL     1      -2.233  11.976  25.017  0.00  0.00    -0.276 OA
ENDBRANCH  29  30
BRANCH  26  35
ATOM     35  C   UNL     1      -2.927  11.364  31.941  0.00  0.00    +0.414 C 
ATOM     36  O   UNL     1      -2.867  12.569  32.180  0.00  0.00    -0.240 OA
ATOM     37  O   UNL     1      -2.023  10.626  32.335  0.00  0.00    -0.240 OA
ENDBRANCH  26  35
BRANCH  28  38
ATOM     38  O   UNL     1      -4.668  13.281  28.339  0.00  0.00    -0.390 OA
ATOM     39  H   UNL     1      -4.120  13.568  27.605  0.00  0.00    +0.210 HD
ENDBRANCH  28  38
BRANCH  26  40
ATOM     40  O   UNL     1      -5.097  10.238  32.084  0.00  0.00    -0.343 OA
ATOM     41  C   UNL     1      -6.173   9.486  31.470  0.00  0.00    +0.198 C 
ENDBRANCH  26  40
ENDBRANCH  23  24
BRANCH  23  42
ATOM     42  O   UNL     1      -1.308   9.137  27.518  0.00  0.00    -0.387 OA
ATOM     43  H   UNL     1      -0.535   9.408  28.019  0.00  0.00    +0.210 HD
ENDBRANCH  23  42
ENDBRANCH   1  23
TORSDOF 14
