REMARK VINA RESULT:    -4.974      2.425      4.876
REMARK INTER + INTRA:         -13.098
REMARK INTER:                  -9.918
REMARK INTRA:                  -3.181
REMARK UNBOUND:                -3.181
REMARK  Name = lig_assembled_76.pdb
REMARK  21 active torsions:
REMARK  status: ('A' for Active; 'I' for Inactive)
REMARK    1  A    between atoms: _2  and  _9
REMARK    2  A    between atoms: _4  and  _23
REMARK    3  A    between atoms: _6  and  _7
REMARK    4  A    between atoms: _6  and  _23
REMARK    5  A    between atoms: _9  and  _10
REMARK    6  A    between atoms: _10  and  _11
REMARK    7  A    between atoms: _10  and  _18
REMARK    8  A    between atoms: _11  and  _12
REMARK    9  A    between atoms: _12  and  _13
REMARK   10  A    between atoms: _19  and  _39
REMARK   11  A    between atoms: _21  and  _27
REMARK   12  A    between atoms: _22  and  _26
REMARK   13  A    between atoms: _26  and  _27
REMARK   14  A    between atoms: _29  and  _30
REMARK   15  A    between atoms: _31  and  _32
REMARK   16  A    between atoms: _33  and  _35
REMARK   17  A    between atoms: _35  and  _36
REMARK   18  A    between atoms: _35  and  _37
REMARK   19  A    between atoms: _37  and  _38
REMARK   20  A    between atoms: _37  and  _39
REMARK   21  A    between atoms: _40  and  _42
REMARK                            x       y       z     vdW  Elec       q    Type
REMARK                         _______ _______ _______ _____ _____    ______ ____
ROOT
ATOM      1  C   UNL     1      -4.340   8.095  25.147  0.00  0.00    +0.141 C 
ENDROOT
BRANCH   1   4
ATOM      2  C   UNL     1      -2.584   8.668  26.788  0.00  0.00    +0.401 C 
ATOM      3  O   UNL     1      -1.732   7.942  26.270  0.00  0.00    -0.226 OA
ATOM      4  N   UNL     1      -3.831   8.795  26.333  0.00  0.00    -0.279 N 
ATOM      5  H   UNL     1      -4.461   9.407  26.832  0.00  0.00    +0.152 HD
BRANCH   2   6
ATOM      6  O   UNL     1      -2.238   9.424  27.951  0.00  0.00    -0.444 OA
BRANCH   6   7
ATOM      7  C   UNL     1      -3.159   9.128  29.005  0.00  0.00    +0.292 C 
BRANCH   7   9
ATOM      8  N   UNL     1      -2.441  10.232  31.106  0.00  0.00    -0.131 NA
ATOM      9  C   UNL     1      -3.210  10.238  29.970  0.00  0.00    +0.120 A 
ATOM     10  C   UNL     1      -3.969  11.387  29.946  0.00  0.00    +0.137 A 
ATOM     11  N   UNL     1      -3.613  12.036  31.088  0.00  0.00    -0.249 N 
ATOM     12  N   UNL     1      -2.704  11.339  31.789  0.00  0.00    -0.065 NA
BRANCH  11  13
ATOM     13  C   UNL     1      -4.189  13.243  31.635  0.00  0.00    +0.176 C 
BRANCH  13  14
ATOM     14  C   UNL     1      -3.200  14.413  31.671  0.00  0.00    +0.136 C 
BRANCH  14  15
ATOM     15  O   UNL     1      -1.986  14.056  30.995  0.00  0.00    -0.390 OA
ATOM     16  H   UNL     1      -1.765  13.132  31.204  0.00  0.00    +0.210 HD
ENDBRANCH  14  15
BRANCH  14  17
ATOM     17  C   UNL     1      -3.754  15.673  30.987  0.00  0.00    +0.038 C 
BRANCH  17  18
ATOM     18  C   UNL     1      -5.277  15.784  31.057  0.00  0.00    +0.038 C 
BRANCH  18  19
ATOM     19  C   UNL     1      -5.895  15.978  29.697  0.00  0.00    -0.047 A 
ATOM     20  C   UNL     1      -6.051  17.268  29.169  0.00  0.00    +0.003 A 
ATOM     21  C   UNL     1      -6.606  17.451  27.902  0.00  0.00    +0.000 A 
ATOM     22  C   UNL     1      -7.016  16.348  27.155  0.00  0.00    +0.000 A 
ATOM     23  C   UNL     1      -6.875  15.063  27.677  0.00  0.00    +0.000 A 
ATOM     24  C   UNL     1      -6.321  14.878  28.945  0.00  0.00    +0.003 A 
ENDBRANCH  18  19
ENDBRANCH  17  18
ENDBRANCH  14  17
ENDBRANCH  13  14
ENDBRANCH  11  13
ENDBRANCH   7   9
ENDBRANCH   6   7
ENDBRANCH   2   6
ENDBRANCH   1   4
BRANCH   1  25
ATOM     25  C   UNL     1      -4.278   8.971  23.900  0.00  0.00    +0.163 C 
BRANCH  25  26
ATOM     26  O   UNL     1      -3.824   8.196  22.778  0.00  0.00    -0.388 OA
ATOM     27  H   UNL     1      -3.708   7.281  23.046  0.00  0.00    +0.210 HD
ENDBRANCH  25  26
BRANCH  25  28
ATOM     28  C   UNL     1      -5.665   9.576  23.625  0.00  0.00    +0.175 C 
BRANCH  28  29
ATOM     29  C   UNL     1      -5.582  10.851  22.774  0.00  0.00    +0.176 C 
ATOM     30  O   UNL     1      -5.240  10.461  21.416  0.00  0.00    -0.332 OA
ATOM     31  C   UNL     1      -5.220  11.546  20.431  0.00  0.00    +0.277 C 
ATOM     32  C   UNL     1      -4.281  12.685  20.899  0.00  0.00    +0.110 C 
ATOM     33  C   UNL     1      -4.586  13.112  22.351  0.00  0.00    +0.143 C 
ATOM     34  C   UNL     1      -4.585  11.906  23.290  0.00  0.00    +0.133 C 
BRANCH  34  35
ATOM     35  N   UNL     1      -4.961  12.313  24.653  0.00  0.00    -0.308 N 
ATOM     36  H   UNL     1      -5.930  12.543  24.825  0.00  0.00    +0.149 HD
ATOM     37  C   UNL     1      -4.107  12.399  25.676  0.00  0.00    +0.210 C 
ATOM     38  C   UNL     1      -2.634  12.067  25.373  0.00  0.00    +0.109 C 
ATOM     39  O   UNL     1      -4.453  12.729  26.810  0.00  0.00    -0.276 OA
ENDBRANCH  34  35
BRANCH  31  40
ATOM     40  C   UNL     1      -6.639  12.107  20.205  0.00  0.00    +0.414 C 
ATOM     41  O   UNL     1      -6.800  13.296  19.931  0.00  0.00    -0.240 OA
ATOM     42  O   UNL     1      -7.623  11.372  20.299  0.00  0.00    -0.240 OA
ENDBRANCH  31  40
BRANCH  33  43
ATOM     43  O   UNL     1      -3.605  14.053  22.792  0.00  0.00    -0.390 OA
ATOM     44  H   UNL     1      -3.385  14.648  22.071  0.00  0.00    +0.210 HD
ENDBRANCH  33  43
BRANCH  31  45
ATOM     45  O   UNL     1      -4.703  11.011  19.185  0.00  0.00    -0.343 OA
ATOM     46  C   UNL     1      -5.093   9.645  18.896  0.00  0.00    +0.198 C 
ENDBRANCH  31  45
ENDBRANCH  28  29
BRANCH  28  47
ATOM     47  O   UNL     1      -6.341   9.851  24.869  0.00  0.00    -0.387 OA
ATOM     48  H   UNL     1      -6.252   9.097  25.456  0.00  0.00    +0.210 HD
ENDBRANCH  28  47
ENDBRANCH  25  28
ENDBRANCH   1  25
TORSDOF 19
