REMARK VINA RESULT:    -3.892      6.261     11.040
REMARK INTER + INTRA:         -12.510
REMARK INTER:                  -9.295
REMARK INTRA:                  -3.215
REMARK UNBOUND:                -4.638
REMARK  Name = lig_assembled_11.pdb
REMARK  22 active torsions:
REMARK  status: ('A' for Active; 'I' for Inactive)
REMARK    1  A    between atoms: _2  and  _9
REMARK    2  A    between atoms: _4  and  _21
REMARK    3  A    between atoms: _5  and  _9
REMARK    4  A    between atoms: _5  and  _13
REMARK    5  A    between atoms: _6  and  _7
REMARK    6  A    between atoms: _6  and  _21
REMARK    7  A    between atoms: _9  and  _10
REMARK    8  A    between atoms: _10  and  _11
REMARK    9  A    between atoms: _11  and  _12
REMARK   10  A    between atoms: _12  and  _15
REMARK   11  A    between atoms: _17  and  _37
REMARK   12  A    between atoms: _19  and  _25
REMARK   13  A    between atoms: _20  and  _24
REMARK   14  A    between atoms: _24  and  _25
REMARK   15  A    between atoms: _27  and  _28
REMARK   16  A    between atoms: _29  and  _30
REMARK   17  A    between atoms: _31  and  _33
REMARK   18  A    between atoms: _33  and  _34
REMARK   19  A    between atoms: _33  and  _35
REMARK   20  A    between atoms: _35  and  _36
REMARK   21  A    between atoms: _35  and  _37
REMARK   22  A    between atoms: _38  and  _40
REMARK                            x       y       z     vdW  Elec       q    Type
REMARK                         _______ _______ _______ _____ _____    ______ ____
ROOT
ATOM      1  C   UNL     1      -6.580   9.636  23.233  0.00  0.00    +0.163 C 
ENDROOT
BRANCH   1   2
ATOM      2  O   UNL     1      -7.316   9.481  24.458  0.00  0.00    -0.388 OA
ATOM      3  H   UNL     1      -8.079   8.919  24.304  0.00  0.00    +0.210 HD
ENDBRANCH   1   2
BRANCH   1   4
ATOM      4  C   UNL     1      -5.264   8.839  23.277  0.00  0.00    +0.175 C 
BRANCH   4   5
ATOM      5  C   UNL     1      -4.150   9.603  24.007  0.00  0.00    +0.176 C 
ATOM      6  O   UNL     1      -4.472   9.617  25.425  0.00  0.00    -0.332 OA
ATOM      7  C   UNL     1      -3.460  10.217  26.299  0.00  0.00    +0.277 C 
ATOM      8  C   UNL     1      -3.118  11.651  25.827  0.00  0.00    +0.110 C 
ATOM      9  C   UNL     1      -2.800  11.693  24.317  0.00  0.00    +0.143 C 
ATOM     10  C   UNL     1      -3.917  11.040  23.503  0.00  0.00    +0.133 C 
BRANCH  10  11
ATOM     11  N   UNL     1      -3.562  11.007  22.075  0.00  0.00    -0.308 N 
ATOM     12  H   UNL     1      -2.845  10.358  21.782  0.00  0.00    +0.149 HD
ATOM     13  C   UNL     1      -4.125  11.779  21.142  0.00  0.00    +0.210 C 
ATOM     14  C   UNL     1      -5.196  12.776  21.625  0.00  0.00    +0.109 C 
ATOM     15  O   UNL     1      -3.819  11.720  19.951  0.00  0.00    -0.276 OA
ENDBRANCH  10  11
BRANCH   7  16
ATOM     16  C   UNL     1      -2.176   9.361  26.318  0.00  0.00    +0.414 C 
ATOM     17  O   UNL     1      -1.072   9.900  26.366  0.00  0.00    -0.240 OA
ATOM     18  O   UNL     1      -2.245   8.132  26.285  0.00  0.00    -0.240 OA
ENDBRANCH   7  16
BRANCH   7  19
ATOM     19  O   UNL     1      -4.013  10.296  27.638  0.00  0.00    -0.343 OA
ATOM     20  C   UNL     1      -3.993  11.619  28.232  0.00  0.00    +0.198 C 
ENDBRANCH   7  19
BRANCH   9  21
ATOM     21  O   UNL     1      -2.640  13.048  23.896  0.00  0.00    -0.390 OA
ATOM     22  H   UNL     1      -3.330  13.271  23.267  0.00  0.00    +0.210 HD
ENDBRANCH   9  21
ENDBRANCH   4   5
BRANCH   4  23
ATOM     23  O   UNL     1      -4.843   8.502  21.941  0.00  0.00    -0.387 OA
ATOM     24  H   UNL     1      -4.005   8.034  21.977  0.00  0.00    +0.210 HD
ENDBRANCH   4  23
ENDBRANCH   1   4
BRANCH   1  25
ATOM     25  C   UNL     1      -7.423   9.161  22.054  0.00  0.00    +0.141 C 
BRANCH  25  28
ATOM     26  C   UNL     1      -7.015  10.072  19.794  0.00  0.00    +0.401 C 
ATOM     27  O   UNL     1      -6.370   9.092  19.413  0.00  0.00    -0.226 OA
ATOM     28  N   UNL     1      -7.539  10.191  21.014  0.00  0.00    -0.279 N 
ATOM     29  H   UNL     1      -8.044  11.038  21.236  0.00  0.00    +0.152 HD
BRANCH  26  30
ATOM     30  O   UNL     1      -7.223  11.160  18.890  0.00  0.00    -0.444 OA
BRANCH  30  31
ATOM     31  C   UNL     1      -7.346  10.657  17.557  0.00  0.00    +0.292 C 
BRANCH  31  33
ATOM     32  N   UNL     1      -5.433  12.173  17.141  0.00  0.00    -0.131 NA
ATOM     33  C   UNL     1      -6.242  11.155  16.715  0.00  0.00    +0.120 A 
ATOM     34  C   UNL     1      -5.827  10.746  15.468  0.00  0.00    +0.138 A 
ATOM     35  N   UNL     1      -4.790  11.580  15.167  0.00  0.00    -0.238 N 
ATOM     36  N   UNL     1      -4.539  12.417  16.192  0.00  0.00    -0.065 NA
BRANCH  35  37
ATOM     37  C   UNL     1      -3.885  11.588  14.022  0.00  0.00    +0.217 C 
BRANCH  37  38
ATOM     38  C   UNL     1      -2.747  10.585  14.132  0.00  0.00    +0.330 C 
ATOM     39  O   UNL     1      -2.085  10.149  13.203  0.00  0.00    -0.249 OA
BRANCH  38  40
ATOM     40  O   UNL     1      -2.498  10.170  15.400  0.00  0.00    -0.479 OA
ATOM     41  H   UNL     1      -2.035   9.316  15.507  0.00  0.00    +0.295 HD
ENDBRANCH  38  40
ENDBRANCH  37  38
BRANCH  37  42
ATOM     42  C   UNL     1      -3.393  13.008  13.690  0.00  0.00    +0.049 C 
BRANCH  42  43
ATOM     43  C   UNL     1      -3.221  13.299  12.193  0.00  0.00    +0.123 C 
BRANCH  43  44
ATOM     44  C   UNL     1      -1.774  13.582  11.859  0.00  0.00    +0.305 C 
ATOM     45  O   UNL     1      -1.305  14.695  11.685  0.00  0.00    -0.251 OA
BRANCH  44  46
ATOM     46  O   UNL     1      -1.036  12.456  11.747  0.00  0.00    -0.481 OA
ATOM     47  H   UNL     1      -1.458  11.657  12.116  0.00  0.00    +0.295 HD
ENDBRANCH  44  46
ENDBRANCH  43  44
ENDBRANCH  42  43
ENDBRANCH  37  42
ENDBRANCH  35  37
ENDBRANCH  31  33
ENDBRANCH  30  31
ENDBRANCH  26  30
ENDBRANCH  25  28
ENDBRANCH   1  25
TORSDOF 20
