REMARK VINA RESULT:    -4.832      2.590      7.729
REMARK INTER + INTRA:         -11.352
REMARK INTER:                  -7.580
REMARK INTRA:                  -3.772
REMARK UNBOUND:                -2.989
REMARK  Name = lig_assembled_51.pdb
REMARK  16 active torsions:
REMARK  status: ('A' for Active; 'I' for Inactive)
REMARK    1  A    between atoms: _2  and  _9
REMARK    2  A    between atoms: _4  and  _22
REMARK    3  A    between atoms: _6  and  _7
REMARK    4  A    between atoms: _6  and  _22
REMARK    5  A    between atoms: _18  and  _38
REMARK    6  A    between atoms: _20  and  _26
REMARK    7  A    between atoms: _21  and  _25
REMARK    8  A    between atoms: _25  and  _26
REMARK    9  A    between atoms: _28  and  _29
REMARK   10  A    between atoms: _30  and  _31
REMARK   11  A    between atoms: _32  and  _34
REMARK   12  A    between atoms: _34  and  _35
REMARK   13  A    between atoms: _34  and  _36
REMARK   14  A    between atoms: _36  and  _37
REMARK   15  A    between atoms: _36  and  _38
REMARK   16  A    between atoms: _39  and  _41
REMARK                            x       y       z     vdW  Elec       q    Type
REMARK                         _______ _______ _______ _____ _____    ______ ____
ROOT
ATOM      1  C   UNL     1      -2.959  10.308  29.560  0.00  0.00    +0.163 C 
ENDROOT
BRANCH   1   2
ATOM      2  O   UNL     1      -2.860  10.649  28.167  0.00  0.00    -0.388 OA
ATOM      3  H   UNL     1      -3.740  10.690  27.784  0.00  0.00    +0.210 HD
ENDBRANCH   1   2
BRANCH   1   4
ATOM      4  C   UNL     1      -3.600   8.933  29.716  0.00  0.00    +0.141 C 
BRANCH   4   7
ATOM      5  C   UNL     1      -3.925   7.308  27.882  0.00  0.00    +0.401 C 
ATOM      6  O   UNL     1      -3.100   6.504  28.322  0.00  0.00    -0.226 OA
ATOM      7  N   UNL     1      -4.217   8.471  28.466  0.00  0.00    -0.279 N 
ATOM      8  H   UNL     1      -4.901   9.069  28.023  0.00  0.00    +0.152 HD
BRANCH   5   9
ATOM      9  O   UNL     1      -4.619   6.998  26.671  0.00  0.00    -0.444 OA
BRANCH   9  10
ATOM     10  C   UNL     1      -3.710   7.062  25.569  0.00  0.00    +0.292 C 
BRANCH  10  12
ATOM     11  N   UNL     1      -2.602   9.273  25.688  0.00  0.00    -0.131 NA
ATOM     12  C   UNL     1      -3.542   8.457  25.122  0.00  0.00    +0.120 A 
ATOM     13  C   UNL     1      -4.218   9.159  24.149  0.00  0.00    +0.137 A 
ATOM     14  N   UNL     1      -3.649  10.402  24.173  0.00  0.00    -0.245 N 
ATOM     15  N   UNL     1      -2.676  10.459  25.101  0.00  0.00    -0.065 NA
BRANCH  14  16
ATOM     16  C   UNL     1      -3.995  11.562  23.348  0.00  0.00    +0.066 C 
ATOM     17  C   UNL     1      -3.195  12.808  23.817  0.00  0.00    +0.034 C 
ATOM     18  C   UNL     1      -3.510  14.027  22.933  0.00  0.00    -0.008 C 
ATOM     19  C   UNL     1      -3.144  13.703  21.475  0.00  0.00    +0.007 C 
ATOM     20  C   UNL     1      -3.962  12.499  20.980  0.00  0.00    -0.008 C 
ATOM     21  C   UNL     1      -5.460  12.826  21.080  0.00  0.00    +0.007 C 
ATOM     22  C   UNL     1      -5.831  13.140  22.538  0.00  0.00    -0.008 C 
ATOM     23  C   UNL     1      -5.009  14.345  23.022  0.00  0.00    +0.007 C 
ATOM     24  C   UNL     1      -3.648  11.277  21.860  0.00  0.00    +0.034 C 
ATOM     25  C   UNL     1      -5.510  11.920  23.418  0.00  0.00    +0.034 C 
ENDBRANCH  14  16
ENDBRANCH  10  12
ENDBRANCH   9  10
ENDBRANCH   5   9
ENDBRANCH   4   7
ENDBRANCH   1   4
BRANCH   1  26
ATOM     26  C   UNL     1      -3.790  11.352  30.325  0.00  0.00    +0.175 C 
BRANCH  26  27
ATOM     27  C   UNL     1      -5.141  11.624  29.647  0.00  0.00    +0.176 C 
ATOM     28  O   UNL     1      -4.890  12.408  28.448  0.00  0.00    -0.332 OA
ATOM     29  C   UNL     1      -6.062  12.676  27.609  0.00  0.00    +0.277 C 
ATOM     30  C   UNL     1      -7.185  13.341  28.444  0.00  0.00    +0.110 C 
ATOM     31  C   UNL     1      -7.465  12.560  29.745  0.00  0.00    +0.143 C 
ATOM     32  C   UNL     1      -6.177  12.335  30.538  0.00  0.00    +0.133 C 
BRANCH  32  33
ATOM     33  N   UNL     1      -6.444  11.515  31.731  0.00  0.00    -0.308 N 
ATOM     34  H   UNL     1      -6.864  10.607  31.595  0.00  0.00    +0.149 HD
ATOM     35  C   UNL     1      -6.166  11.894  32.982  0.00  0.00    +0.210 C 
ATOM     36  C   UNL     1      -5.549  13.294  33.157  0.00  0.00    +0.109 C 
ATOM     37  O   UNL     1      -6.386  11.180  33.961  0.00  0.00    -0.276 OA
ENDBRANCH  32  33
BRANCH  29  38
ATOM     38  C   UNL     1      -6.593  11.372  26.978  0.00  0.00    +0.414 C 
ATOM     39  O   UNL     1      -5.860  10.389  26.878  0.00  0.00    -0.240 OA
ATOM     40  O   UNL     1      -7.753  11.303  26.569  0.00  0.00    -0.240 OA
ENDBRANCH  29  38
BRANCH  31  41
ATOM     41  O   UNL     1      -8.394  13.286  30.552  0.00  0.00    -0.390 OA
ATOM     42  H   UNL     1      -8.448  14.193  30.241  0.00  0.00    +0.210 HD
ENDBRANCH  31  41
BRANCH  29  43
ATOM     43  O   UNL     1      -5.663  13.599  26.563  0.00  0.00    -0.343 OA
ATOM     44  C   UNL     1      -6.634  14.631  26.254  0.00  0.00    +0.198 C 
ENDBRANCH  29  43
ENDBRANCH  26  27
BRANCH  26  45
ATOM     45  O   UNL     1      -3.045  12.579  30.458  0.00  0.00    -0.387 OA
ATOM     46  H   UNL     1      -3.048  12.857  31.377  0.00  0.00    +0.210 HD
ENDBRANCH  26  45
ENDBRANCH   1  26
TORSDOF 14
