REMARK VINA RESULT:    -4.552      1.995      2.941
REMARK INTER + INTRA:         -11.122
REMARK INTER:                  -8.480
REMARK INTRA:                  -2.641
REMARK UNBOUND:                -2.711
REMARK  Name = lig_assembled_36.pdb
REMARK  18 active torsions:
REMARK  status: ('A' for Active; 'I' for Inactive)
REMARK    1  A    between atoms: _2  and  _10
REMARK    2  A    between atoms: _5  and  _21
REMARK    3  A    between atoms: _7  and  _8
REMARK    4  A    between atoms: _7  and  _21
REMARK    5  A    between atoms: _10  and  _11
REMARK    6  A    between atoms: _14  and  _15
REMARK    7  A    between atoms: _17  and  _37
REMARK    8  A    between atoms: _19  and  _25
REMARK    9  A    between atoms: _20  and  _24
REMARK   10  A    between atoms: _24  and  _25
REMARK   11  A    between atoms: _27  and  _28
REMARK   12  A    between atoms: _29  and  _30
REMARK   13  A    between atoms: _31  and  _33
REMARK   14  A    between atoms: _33  and  _34
REMARK   15  A    between atoms: _33  and  _35
REMARK   16  A    between atoms: _35  and  _36
REMARK   17  A    between atoms: _35  and  _37
REMARK   18  A    between atoms: _38  and  _40
REMARK                            x       y       z     vdW  Elec       q    Type
REMARK                         _______ _______ _______ _____ _____    ______ ____
ROOT
ATOM      1  C   UNL     1      -5.357   8.883  25.530  0.00  0.00    +0.163 C 
ENDROOT
BRANCH   1   2
ATOM      2  O   UNL     1      -6.594   8.340  26.019  0.00  0.00    -0.388 OA
ATOM      3  H   UNL     1      -7.325   8.884  25.716  0.00  0.00    +0.210 HD
ENDBRANCH   1   2
BRANCH   1   4
ATOM      4  C   UNL     1      -4.157   8.077  26.056  0.00  0.00    +0.175 C 
BRANCH   4   5
ATOM      5  C   UNL     1      -3.772   8.479  27.487  0.00  0.00    +0.176 C 
ATOM      6  O   UNL     1      -4.744   7.889  28.394  0.00  0.00    -0.332 OA
ATOM      7  C   UNL     1      -4.476   8.080  29.822  0.00  0.00    +0.277 C 
ATOM      8  C   UNL     1      -4.307   9.585  30.144  0.00  0.00    +0.110 C 
ATOM      9  C   UNL     1      -3.306  10.263  29.185  0.00  0.00    +0.143 C 
ATOM     10  C   UNL     1      -3.678   9.997  27.726  0.00  0.00    +0.133 C 
BRANCH  10  11
ATOM     11  N   UNL     1      -2.669  10.575  26.824  0.00  0.00    -0.308 N 
ATOM     12  H   UNL     1      -1.766  10.124  26.776  0.00  0.00    +0.149 HD
ATOM     13  C   UNL     1      -2.869  11.655  26.065  0.00  0.00    +0.210 C 
ATOM     14  C   UNL     1      -4.247  12.334  26.180  0.00  0.00    +0.109 C 
ATOM     15  O   UNL     1      -2.010  12.108  25.307  0.00  0.00    -0.276 OA
ENDBRANCH  10  11
BRANCH   7  16
ATOM     16  C   UNL     1      -3.206   7.315  30.247  0.00  0.00    +0.414 C 
ATOM     17  O   UNL     1      -2.733   7.475  31.372  0.00  0.00    -0.240 OA
ATOM     18  O   UNL     1      -2.654   6.539  29.467  0.00  0.00    -0.240 OA
ENDBRANCH   7  16
BRANCH   7  19
ATOM     19  O   UNL     1      -5.618   7.579  30.564  0.00  0.00    -0.343 OA
ATOM     20  C   UNL     1      -6.152   6.318  30.089  0.00  0.00    +0.198 C 
ENDBRANCH   7  19
BRANCH   9  21
ATOM     21  O   UNL     1      -3.294  11.672  29.419  0.00  0.00    -0.390 OA
ATOM     22  H   UNL     1      -2.607  11.886  30.055  0.00  0.00    +0.210 HD
ENDBRANCH   9  21
ENDBRANCH   4   5
BRANCH   4  23
ATOM     23  O   UNL     1      -3.027   8.237  25.175  0.00  0.00    -0.387 OA
ATOM     24  H   UNL     1      -3.171   8.994  24.603  0.00  0.00    +0.210 HD
ENDBRANCH   4  23
ENDBRANCH   1   4
BRANCH   1  25
ATOM     25  C   UNL     1      -5.349   8.873  24.005  0.00  0.00    +0.141 C 
BRANCH  25  28
ATOM     26  C   UNL     1      -3.746  10.215  22.690  0.00  0.00    +0.401 C 
ATOM     27  O   UNL     1      -3.047   9.248  22.379  0.00  0.00    -0.226 OA
ATOM     28  N   UNL     1      -4.837  10.132  23.452  0.00  0.00    -0.279 N 
ATOM     29  H   UNL     1      -5.339  10.984  23.661  0.00  0.00    +0.152 HD
BRANCH  26  30
ATOM     30  O   UNL     1      -3.381  11.516  22.220  0.00  0.00    -0.444 OA
BRANCH  30  31
ATOM     31  C   UNL     1      -4.560  12.299  22.017  0.00  0.00    +0.292 C 
BRANCH  31  33
ATOM     32  N   UNL     1      -6.514  11.489  20.727  0.00  0.00    -0.131 NA
ATOM     33  C   UNL     1      -5.214  11.920  20.750  0.00  0.00    +0.120 A 
ATOM     34  C   UNL     1      -4.723  11.942  19.464  0.00  0.00    +0.137 A 
ATOM     35  N   UNL     1      -5.801  11.605  18.700  0.00  0.00    -0.247 N 
ATOM     36  N   UNL     1      -6.859  11.280  19.464  0.00  0.00    -0.065 NA
BRANCH  35  37
ATOM     37  C   UNL     1      -5.900  11.589  17.254  0.00  0.00    +0.180 C 
BRANCH  37  38
ATOM     38  C   UNL     1      -4.927  10.603  16.649  0.00  0.00    -0.026 A 
ATOM     39  C   UNL     1      -5.102   9.222  16.818  0.00  0.00    +0.007 A 
ATOM     40  C   UNL     1      -4.199   8.316  16.251  0.00  0.00    +0.019 A 
ATOM     41  C   UNL     1      -3.107   8.780  15.511  0.00  0.00    +0.052 A 
ATOM     42  C   UNL     1      -2.912  10.155  15.358  0.00  0.00    +0.019 A 
ATOM     43  C   UNL     1      -3.813  11.060  15.927  0.00  0.00    +0.007 A 
BRANCH  41  44
ATOM     44  C   UNL     1      -2.194   7.849  14.912  0.00  0.00    +0.099 C 
ATOM     45  N   UNL     1      -1.464   7.094  14.420  0.00  0.00    -0.191 NA
ENDBRANCH  41  44
ENDBRANCH  37  38
ENDBRANCH  35  37
ENDBRANCH  31  33
ENDBRANCH  30  31
ENDBRANCH  26  30
ENDBRANCH  25  28
ENDBRANCH   1  25
TORSDOF 16
