REMARK VINA RESULT:    -4.947      5.434     11.621
REMARK INTER + INTRA:         -11.429
REMARK INTER:                  -8.199
REMARK INTRA:                  -3.230
REMARK UNBOUND:                -2.867
REMARK  Name = lig_assembled_70.pdb
REMARK  16 active torsions:
REMARK  status: ('A' for Active; 'I' for Inactive)
REMARK    1  A    between atoms: _2  and  _10
REMARK    2  A    between atoms: _5  and  _22
REMARK    3  A    between atoms: _7  and  _8
REMARK    4  A    between atoms: _7  and  _22
REMARK    5  A    between atoms: _18  and  _38
REMARK    6  A    between atoms: _20  and  _26
REMARK    7  A    between atoms: _21  and  _25
REMARK    8  A    between atoms: _25  and  _26
REMARK    9  A    between atoms: _28  and  _29
REMARK   10  A    between atoms: _30  and  _31
REMARK   11  A    between atoms: _32  and  _34
REMARK   12  A    between atoms: _34  and  _35
REMARK   13  A    between atoms: _34  and  _36
REMARK   14  A    between atoms: _36  and  _37
REMARK   15  A    between atoms: _36  and  _38
REMARK   16  A    between atoms: _39  and  _41
REMARK                            x       y       z     vdW  Elec       q    Type
REMARK                         _______ _______ _______ _____ _____    ______ ____
ROOT
ATOM      1  C   UNL     1      -2.791  10.817  25.655  0.00  0.00    +0.163 C 
ENDROOT
BRANCH   1   2
ATOM      2  O   UNL     1      -3.122  10.228  24.388  0.00  0.00    -0.388 OA
ATOM      3  H   UNL     1      -2.336   9.832  24.003  0.00  0.00    +0.210 HD
ENDBRANCH   1   2
BRANCH   1   4
ATOM      4  C   UNL     1      -2.065   9.800  26.530  0.00  0.00    +0.141 C 
BRANCH   4   7
ATOM      5  C   UNL     1      -2.584   8.381  28.486  0.00  0.00    +0.401 C 
ATOM      6  O   UNL     1      -1.653   7.599  28.284  0.00  0.00    -0.226 OA
ATOM      7  N   UNL     1      -2.855   9.434  27.713  0.00  0.00    -0.279 N 
ATOM      8  H   UNL     1      -3.647  10.012  27.955  0.00  0.00    +0.152 HD
BRANCH   5   9
ATOM      9  O   UNL     1      -3.443   8.163  29.608  0.00  0.00    -0.444 OA
BRANCH   9  10
ATOM     10  C   UNL     1      -2.823   8.677  30.790  0.00  0.00    +0.292 C 
BRANCH  10  12
ATOM     11  N   UNL     1      -4.176  10.688  30.272  0.00  0.00    -0.131 NA
ATOM     12  C   UNL     1      -3.165  10.099  30.976  0.00  0.00    +0.121 A 
ATOM     13  C   UNL     1      -2.599  11.033  31.812  0.00  0.00    +0.143 A 
ATOM     14  N   UNL     1      -3.312  12.188  31.592  0.00  0.00    -0.218 N 
ATOM     15  N   UNL     1      -4.254  11.960  30.647  0.00  0.00    -0.060 NA
BRANCH  14  16
ATOM     16  C   UNL     1      -3.167  13.441  32.224  0.00  0.00    +0.086 A 
ATOM     17  C   UNL     1      -2.404  13.564  33.373  0.00  0.00    +0.139 A 
ATOM     18  N   UNL     1      -2.185  14.745  34.006  0.00  0.00    -0.253 NA
ATOM     19  C   UNL     1      -2.731  15.860  33.484  0.00  0.00    +0.071 A 
ATOM     20  C   UNL     1      -3.535  15.828  32.326  0.00  0.00    +0.002 A 
ATOM     21  C   UNL     1      -4.088  17.013  31.809  0.00  0.00    +0.010 A 
ATOM     22  C   UNL     1      -3.831  18.235  32.424  0.00  0.00    +0.001 A 
ATOM     23  C   UNL     1      -3.032  18.274  33.561  0.00  0.00    +0.002 A 
ATOM     24  C   UNL     1      -2.498  17.091  34.082  0.00  0.00    +0.028 A 
ATOM     25  C   UNL     1      -3.755  14.594  31.703  0.00  0.00    +0.039 A 
ENDBRANCH  14  16
ENDBRANCH  10  12
ENDBRANCH   9  10
ENDBRANCH   5   9
ENDBRANCH   4   7
ENDBRANCH   1   4
BRANCH   1  26
ATOM     26  C   UNL     1      -4.055  11.310  26.380  0.00  0.00    +0.175 C 
BRANCH  26  27
ATOM     27  C   UNL     1      -5.021  12.032  25.430  0.00  0.00    +0.176 C 
ATOM     28  O   UNL     1      -4.230  12.684  24.399  0.00  0.00    -0.332 OA
ATOM     29  C   UNL     1      -4.995  13.341  23.334  0.00  0.00    +0.277 C 
ATOM     30  C   UNL     1      -6.004  14.350  23.936  0.00  0.00    +0.110 C 
ATOM     31  C   UNL     1      -6.847  13.711  25.060  0.00  0.00    +0.143 C 
ATOM     32  C   UNL     1      -5.951  13.054  26.111  0.00  0.00    +0.133 C 
BRANCH  32  33
ATOM     33  N   UNL     1      -6.767  12.374  27.130  0.00  0.00    -0.308 N 
ATOM     34  H   UNL     1      -7.241  11.523  26.863  0.00  0.00    +0.149 HD
ATOM     35  C   UNL     1      -6.920  12.808  28.383  0.00  0.00    +0.210 C 
ATOM     36  C   UNL     1      -6.205  14.122  28.751  0.00  0.00    +0.109 C 
ATOM     37  O   UNL     1      -7.598  12.209  29.220  0.00  0.00    -0.276 OA
ENDBRANCH  32  33
BRANCH  29  38
ATOM     38  C   UNL     1      -5.751  12.301  22.482  0.00  0.00    +0.414 C 
ATOM     39  O   UNL     1      -6.790  12.613  21.901  0.00  0.00    -0.240 OA
ATOM     40  O   UNL     1      -5.323  11.151  22.376  0.00  0.00    -0.240 OA
ENDBRANCH  29  38
BRANCH  31  41
ATOM     41  O   UNL     1      -7.652  14.710  25.686  0.00  0.00    -0.390 OA
ATOM     42  H   UNL     1      -7.246  14.977  26.514  0.00  0.00    +0.210 HD
ENDBRANCH  31  41
BRANCH  29  43
ATOM     43  O   UNL     1      -4.062  14.072  22.497  0.00  0.00    -0.343 OA
ATOM     44  C   UNL     1      -4.437  15.444  22.215  0.00  0.00    +0.198 C 
ENDBRANCH  29  43
ENDBRANCH  26  27
BRANCH  26  45
ATOM     45  O   UNL     1      -3.695  12.176  27.475  0.00  0.00    -0.387 OA
ATOM     46  H   UNL     1      -4.414  12.788  27.650  0.00  0.00    +0.210 HD
ENDBRANCH  26  45
ENDBRANCH   1  26
TORSDOF 14
