REMARK VINA RESULT:    -4.962      9.236     13.630
REMARK INTER + INTRA:         -10.425
REMARK INTER:                  -6.910
REMARK INTRA:                  -3.515
REMARK UNBOUND:                -1.837
REMARK  Name = lig_assembled_2.pdb
REMARK  16 active torsions:
REMARK  status: ('A' for Active; 'I' for Inactive)
REMARK    1  A    between atoms: _2  and  _9
REMARK    2  A    between atoms: _4  and  _18
REMARK    3  A    between atoms: _6  and  _7
REMARK    4  A    between atoms: _6  and  _18
REMARK    5  A    between atoms: _14  and  _34
REMARK    6  A    between atoms: _16  and  _22
REMARK    7  A    between atoms: _17  and  _21
REMARK    8  A    between atoms: _21  and  _22
REMARK    9  A    between atoms: _24  and  _25
REMARK   10  A    between atoms: _26  and  _27
REMARK   11  A    between atoms: _28  and  _30
REMARK   12  A    between atoms: _30  and  _31
REMARK   13  A    between atoms: _30  and  _32
REMARK   14  A    between atoms: _32  and  _33
REMARK   15  A    between atoms: _32  and  _34
REMARK   16  A    between atoms: _35  and  _37
REMARK                            x       y       z     vdW  Elec       q    Type
REMARK                         _______ _______ _______ _____ _____    ______ ____
ROOT
ATOM      1  C   UNL     1      -2.887  11.384  31.206  0.00  0.00    +0.163 C 
ENDROOT
BRANCH   1   2
ATOM      2  O   UNL     1      -2.053  11.082  32.337  0.00  0.00    -0.388 OA
ATOM      3  H   UNL     1      -1.528  11.854  32.563  0.00  0.00    +0.210 HD
ENDBRANCH   1   2
BRANCH   1   4
ATOM      4  C   UNL     1      -3.713  12.635  31.486  0.00  0.00    +0.141 C 
BRANCH   4   7
ATOM      5  C   UNL     1      -5.473  13.527  29.999  0.00  0.00    +0.401 C 
ATOM      6  O   UNL     1      -6.394  13.262  30.775  0.00  0.00    -0.226 OA
ATOM      7  N   UNL     1      -4.190  13.263  30.248  0.00  0.00    -0.279 N 
ATOM      8  H   UNL     1      -3.507  13.510  29.545  0.00  0.00    +0.152 HD
BRANCH   5   9
ATOM      9  O   UNL     1      -5.776  14.152  28.749  0.00  0.00    -0.444 OA
BRANCH   9  10
ATOM     10  C   UNL     1      -7.042  13.685  28.276  0.00  0.00    +0.292 C 
BRANCH  10  12
ATOM     11  N   UNL     1      -7.628  11.935  26.626  0.00  0.00    -0.131 NA
ATOM     12  C   UNL     1      -6.888  13.032  26.961  0.00  0.00    +0.121 A 
ATOM     13  C   UNL     1      -6.067  13.361  25.907  0.00  0.00    +0.143 A 
ATOM     14  N   UNL     1      -6.364  12.441  24.927  0.00  0.00    -0.220 N 
ATOM     15  N   UNL     1      -7.298  11.578  25.392  0.00  0.00    -0.060 NA
BRANCH  14  16
ATOM     16  C   UNL     1      -5.850  12.355  23.606  0.00  0.00    +0.067 A 
ATOM     17  C   UNL     1      -5.435  13.503  22.917  0.00  0.00    +0.029 A 
ATOM     18  C   UNL     1      -4.966  13.400  21.603  0.00  0.00    +0.022 A 
ATOM     19  C   UNL     1      -4.909  12.156  20.977  0.00  0.00    +0.041 A 
ATOM     20 CL   UNL     1      -4.354  12.043  19.354  0.00  0.00    -0.084 Cl
ATOM     21  C   UNL     1      -5.305  11.008  21.658  0.00  0.00    +0.022 A 
ATOM     22  C   UNL     1      -5.773  11.103  22.972  0.00  0.00    +0.029 A 
ENDBRANCH  14  16
ENDBRANCH  10  12
ENDBRANCH   9  10
ENDBRANCH   5   9
ENDBRANCH   4   7
ENDBRANCH   1   4
BRANCH   1  23
ATOM     23  C   UNL     1      -3.826  10.208  30.887  0.00  0.00    +0.175 C 
BRANCH  23  24
ATOM     24  C   UNL     1      -3.773   9.812  29.404  0.00  0.00    +0.176 C 
ATOM     25  O   UNL     1      -3.048  10.850  28.690  0.00  0.00    -0.332 OA
ATOM     26  C   UNL     1      -2.804  10.590  27.268  0.00  0.00    +0.277 C 
ATOM     27  C   UNL     1      -4.135  10.285  26.538  0.00  0.00    +0.110 C 
ATOM     28  C   UNL     1      -4.957   9.209  27.278  0.00  0.00    +0.143 C 
ATOM     29  C   UNL     1      -5.147   9.579  28.750  0.00  0.00    +0.133 C 
BRANCH  29  30
ATOM     30  N   UNL     1      -5.856   8.506  29.464  0.00  0.00    -0.308 N 
ATOM     31  H   UNL     1      -5.343   7.661  29.676  0.00  0.00    +0.149 HD
ATOM     32  C   UNL     1      -7.133   8.574  29.850  0.00  0.00    +0.210 C 
ATOM     33  C   UNL     1      -7.895   9.863  29.489  0.00  0.00    +0.109 C 
ATOM     34  O   UNL     1      -7.697   7.664  30.460  0.00  0.00    -0.276 OA
ENDBRANCH  29  30
BRANCH  26  35
ATOM     35  C   UNL     1      -1.834   9.404  27.087  0.00  0.00    +0.414 C 
ATOM     36  O   UNL     1      -0.878   9.263  27.849  0.00  0.00    -0.240 OA
ATOM     37  O   UNL     1      -2.007   8.588  26.181  0.00  0.00    -0.240 OA
ENDBRANCH  26  35
BRANCH  28  38
ATOM     38  O   UNL     1      -6.236   9.069  26.659  0.00  0.00    -0.390 OA
ATOM     39  H   UNL     1      -6.162   9.263  25.722  0.00  0.00    +0.210 HD
ENDBRANCH  28  38
BRANCH  26  40
ATOM     40  O   UNL     1      -2.227  11.786  26.685  0.00  0.00    -0.343 OA
ATOM     41  C   UNL     1      -2.677  12.091  25.341  0.00  0.00    +0.198 C 
ENDBRANCH  26  40
ENDBRANCH  23  24
BRANCH  23  42
ATOM     42  O   UNL     1      -5.178  10.536  31.265  0.00  0.00    -0.387 OA
ATOM     43  H   UNL     1      -5.285  11.490  31.276  0.00  0.00    +0.210 HD
ENDBRANCH  23  42
ENDBRANCH   1  23
TORSDOF 14
