REMARK VINA RESULT:    -4.685      6.244      8.563
REMARK INTER + INTRA:         -10.883
REMARK INTER:                  -8.923
REMARK INTRA:                  -1.960
REMARK UNBOUND:                -2.363
REMARK  Name = lig_assembled_59.pdb
REMARK  18 active torsions:
REMARK  status: ('A' for Active; 'I' for Inactive)
REMARK    1  A    between atoms: _2  and  _10
REMARK    2  A    between atoms: _5  and  _20
REMARK    3  A    between atoms: _7  and  _8
REMARK    4  A    between atoms: _7  and  _20
REMARK    5  A    between atoms: _13  and  _14
REMARK    6  A    between atoms: _14  and  _15
REMARK    7  A    between atoms: _16  and  _36
REMARK    8  A    between atoms: _18  and  _24
REMARK    9  A    between atoms: _19  and  _23
REMARK   10  A    between atoms: _23  and  _24
REMARK   11  A    between atoms: _26  and  _27
REMARK   12  A    between atoms: _28  and  _29
REMARK   13  A    between atoms: _30  and  _32
REMARK   14  A    between atoms: _32  and  _33
REMARK   15  A    between atoms: _32  and  _34
REMARK   16  A    between atoms: _34  and  _35
REMARK   17  A    between atoms: _34  and  _36
REMARK   18  A    between atoms: _37  and  _39
REMARK                            x       y       z     vdW  Elec       q    Type
REMARK                         _______ _______ _______ _____ _____    ______ ____
ROOT
ATOM      1  C   UNL     1      -5.619  10.856  17.179  0.00  0.00    +0.163 C 
ENDROOT
BRANCH   1   2
ATOM      2  O   UNL     1      -4.842  11.983  16.743  0.00  0.00    -0.388 OA
ATOM      3  H   UNL     1      -5.371  12.529  16.156  0.00  0.00    +0.210 HD
ENDBRANCH   1   2
BRANCH   1   4
ATOM      4  C   UNL     1      -4.814   9.551  17.053  0.00  0.00    +0.175 C 
BRANCH   4   5
ATOM      5  C   UNL     1      -4.055   9.467  15.721  0.00  0.00    +0.176 C 
ATOM      6  O   UNL     1      -4.835  10.171  14.716  0.00  0.00    -0.332 OA
ATOM      7  C   UNL     1      -4.211  10.286  13.394  0.00  0.00    +0.277 C 
ATOM      8  C   UNL     1      -3.810   8.889  12.861  0.00  0.00    +0.110 C 
ATOM      9  C   UNL     1      -3.005   8.090  13.908  0.00  0.00    +0.143 C 
ATOM     10  C   UNL     1      -3.745   8.035  15.245  0.00  0.00    +0.133 C 
BRANCH  10  11
ATOM     11  N   UNL     1      -2.929   7.346  16.257  0.00  0.00    -0.308 N 
ATOM     12  H   UNL     1      -2.124   7.833  16.625  0.00  0.00    +0.149 HD
ATOM     13  C   UNL     1      -3.184   6.120  16.722  0.00  0.00    +0.210 C 
ATOM     14  C   UNL     1      -4.404   5.395  16.123  0.00  0.00    +0.109 C 
ATOM     15  O   UNL     1      -2.492   5.574  17.582  0.00  0.00    -0.276 OA
ENDBRANCH  10  11
BRANCH   7  16
ATOM     16  C   UNL     1      -2.963  11.192  13.456  0.00  0.00    +0.414 C 
ATOM     17  O   UNL     1      -2.873  12.065  14.318  0.00  0.00    -0.240 OA
ATOM     18  O   UNL     1      -2.048  11.049  12.645  0.00  0.00    -0.240 OA
ENDBRANCH   7  16
BRANCH   7  19
ATOM     19  O   UNL     1      -5.186  10.860  12.486  0.00  0.00    -0.343 OA
ATOM     20  C   UNL     1      -6.541  10.370  12.653  0.00  0.00    +0.198 C 
ENDBRANCH   7  19
BRANCH   9  21
ATOM     21  O   UNL     1      -2.788   6.759  13.435  0.00  0.00    -0.390 OA
ATOM     22  H   UNL     1      -2.242   6.281  14.064  0.00  0.00    +0.210 HD
ENDBRANCH   9  21
ENDBRANCH   4   5
BRANCH   4  23
ATOM     23  O   UNL     1      -5.687   8.413  17.199  0.00  0.00    -0.387 OA
ATOM     24  H   UNL     1      -5.375   7.695  16.643  0.00  0.00    +0.210 HD
ENDBRANCH   4  23
ENDBRANCH   1   4
BRANCH   1  25
ATOM     25  C   UNL     1      -6.051  11.050  18.629  0.00  0.00    +0.141 C 
BRANCH  25  28
ATOM     26  C   UNL     1      -4.732  11.417  20.685  0.00  0.00    +0.401 C 
ATOM     27  O   UNL     1      -5.382  12.403  21.039  0.00  0.00    -0.226 OA
ATOM     28  N   UNL     1      -4.972  10.727  19.570  0.00  0.00    -0.279 N 
ATOM     29  H   UNL     1      -4.377   9.937  19.360  0.00  0.00    +0.152 HD
BRANCH  26  30
ATOM     30  O   UNL     1      -3.648  10.970  21.504  0.00  0.00    -0.444 OA
BRANCH  30  31
ATOM     31  C   UNL     1      -3.341  11.970  22.478  0.00  0.00    +0.292 C 
BRANCH  31  33
ATOM     32  N   UNL     1      -3.088  10.027  23.985  0.00  0.00    -0.131 NA
ATOM     33  C   UNL     1      -3.282  11.371  23.825  0.00  0.00    +0.121 A 
ATOM     34  C   UNL     1      -3.399  11.959  25.063  0.00  0.00    +0.145 A 
ATOM     35  N   UNL     1      -3.267  10.923  25.959  0.00  0.00    -0.202 N 
ATOM     36  N   UNL     1      -3.075   9.761  25.284  0.00  0.00    -0.059 NA
BRANCH  35  37
ATOM     37  C   UNL     1      -3.328  10.996  27.377  0.00  0.00    +0.156 A 
ATOM     38  C   UNL     1      -3.837  12.147  27.976  0.00  0.00    +0.048 A 
ATOM     39  C   UNL     1      -3.856  12.227  29.367  0.00  0.00    +0.011 A 
ATOM     40  C   UNL     1      -3.375  11.164  30.134  0.00  0.00    -0.004 A 
ATOM     41  C   UNL     1      -2.886  10.055  29.449  0.00  0.00    +0.119 A 
ATOM     42  N   UNL     1      -2.860   9.941  28.100  0.00  0.00    -0.236 NA
BRANCH  40  43
ATOM     43  C   UNL     1      -3.300  11.269  31.629  0.00  0.00    +0.192 C 
BRANCH  43  44
ATOM     44  O   UNL     1      -1.966  11.120  32.092  0.00  0.00    -0.390 OA
ATOM     45  H   UNL     1      -1.514  10.526  31.466  0.00  0.00    +0.210 HD
ENDBRANCH  43  44
ENDBRANCH  40  43
ENDBRANCH  35  37
ENDBRANCH  31  33
ENDBRANCH  30  31
ENDBRANCH  26  30
ENDBRANCH  25  28
ENDBRANCH   1  25
TORSDOF 16
