REMARK VINA RESULT:    -4.527      2.076      4.385
REMARK INTER + INTRA:         -10.342
REMARK INTER:                  -7.880
REMARK INTRA:                  -2.462
REMARK UNBOUND:                -2.508
REMARK  Name = lig_assembled_48.pdb
REMARK  16 active torsions:
REMARK  status: ('A' for Active; 'I' for Inactive)
REMARK    1  A    between atoms: _2  and  _9
REMARK    2  A    between atoms: _4  and  _18
REMARK    3  A    between atoms: _6  and  _7
REMARK    4  A    between atoms: _6  and  _18
REMARK    5  A    between atoms: _14  and  _34
REMARK    6  A    between atoms: _16  and  _22
REMARK    7  A    between atoms: _17  and  _21
REMARK    8  A    between atoms: _21  and  _22
REMARK    9  A    between atoms: _24  and  _25
REMARK   10  A    between atoms: _26  and  _27
REMARK   11  A    between atoms: _28  and  _30
REMARK   12  A    between atoms: _30  and  _31
REMARK   13  A    between atoms: _30  and  _32
REMARK   14  A    between atoms: _32  and  _33
REMARK   15  A    between atoms: _32  and  _34
REMARK   16  A    between atoms: _35  and  _37
REMARK                            x       y       z     vdW  Elec       q    Type
REMARK                         _______ _______ _______ _____ _____    ______ ____
ROOT
ATOM      1  C   UNL     1      -7.285  12.149  29.649  0.00  0.00    +0.163 C 
ENDROOT
BRANCH   1   2
ATOM      2  O   UNL     1      -7.618  10.774  29.397  0.00  0.00    -0.388 OA
ATOM      3  H   UNL     1      -7.873  10.350  30.220  0.00  0.00    +0.210 HD
ENDBRANCH   1   2
BRANCH   1   4
ATOM      4  C   UNL     1      -6.511  12.723  28.467  0.00  0.00    +0.141 C 
BRANCH   4   7
ATOM      5  C   UNL     1      -4.664  11.473  27.403  0.00  0.00    +0.401 C 
ATOM      6  O   UNL     1      -3.778  12.165  27.910  0.00  0.00    -0.226 OA
ATOM      7  N   UNL     1      -5.968  11.667  27.603  0.00  0.00    -0.279 N 
ATOM      8  H   UNL     1      -6.619  11.053  27.135  0.00  0.00    +0.152 HD
BRANCH   5   9
ATOM      9  O   UNL     1      -4.294  10.395  26.540  0.00  0.00    -0.444 OA
BRANCH   9  10
ATOM     10  C   UNL     1      -2.971  10.613  26.042  0.00  0.00    +0.292 C 
BRANCH  10  12
ATOM     11  N   UNL     1      -3.245  10.005  23.663  0.00  0.00    -0.131 NA
ATOM     12  C   UNL     1      -3.019  10.963  24.611  0.00  0.00    +0.120 A 
ATOM     13  C   UNL     1      -2.891  12.187  23.993  0.00  0.00    +0.137 A 
ATOM     14  N   UNL     1      -3.142  11.926  22.678  0.00  0.00    -0.248 N 
ATOM     15  N   UNL     1      -3.280  10.598  22.479  0.00  0.00    -0.065 NA
BRANCH  14  16
ATOM     16  C   UNL     1      -3.327  12.828  21.547  0.00  0.00    +0.109 C 
ATOM     17  C   UNL     1      -4.476  12.348  20.639  0.00  0.00    +0.027 C 
ATOM     18  C   UNL     1      -5.836  12.563  21.298  0.00  0.00    +0.002 C 
ATOM     19  C   UNL     1      -6.063  14.037  21.607  0.00  0.00    +0.000 C 
ATOM     20  C   UNL     1      -4.937  14.640  22.443  0.00  0.00    +0.002 C 
ATOM     21  C   UNL     1      -3.540  14.313  21.902  0.00  0.00    +0.027 C 
ENDBRANCH  14  16
ENDBRANCH  10  12
ENDBRANCH   9  10
ENDBRANCH   5   9
ENDBRANCH   4   7
ENDBRANCH   1   4
BRANCH   1  22
ATOM     22  C   UNL     1      -6.444  12.286  30.929  0.00  0.00    +0.175 C 
BRANCH  22  23
ATOM     23  C   UNL     1      -5.248  11.323  30.941  0.00  0.00    +0.176 C 
ATOM     24  O   UNL     1      -5.670  10.093  31.593  0.00  0.00    -0.332 OA
ATOM     25  C   UNL     1      -4.682   9.010  31.602  0.00  0.00    +0.277 C 
ATOM     26  C   UNL     1      -3.349   9.498  32.219  0.00  0.00    +0.110 C 
ATOM     27  C   UNL     1      -2.876  10.820  31.578  0.00  0.00    +0.143 C 
ATOM     28  C   UNL     1      -3.981  11.876  31.620  0.00  0.00    +0.133 C 
BRANCH  28  29
ATOM     29  N   UNL     1      -3.549  13.101  30.930  0.00  0.00    -0.308 N 
ATOM     30  H   UNL     1      -3.324  13.035  29.947  0.00  0.00    +0.149 HD
ATOM     31  C   UNL     1      -3.434  14.296  31.517  0.00  0.00    +0.210 C 
ATOM     32  C   UNL     1      -3.759  14.358  33.022  0.00  0.00    +0.109 C 
ATOM     33  O   UNL     1      -3.084  15.308  30.911  0.00  0.00    -0.276 OA
ENDBRANCH  28  29
BRANCH  25  34
ATOM     34  C   UNL     1      -4.429   8.488  30.173  0.00  0.00    +0.414 C 
ATOM     35  O   UNL     1      -3.326   8.042  29.862  0.00  0.00    -0.240 OA
ATOM     36  O   UNL     1      -5.328   8.513  29.331  0.00  0.00    -0.240 OA
ENDBRANCH  25  34
BRANCH  27  37
ATOM     37  O   UNL     1      -1.730  11.311  32.276  0.00  0.00    -0.390 OA
ATOM     38  H   UNL     1      -2.009  11.745  33.085  0.00  0.00    +0.210 HD
ENDBRANCH  27  37
BRANCH  25  39
ATOM     39  O   UNL     1      -5.202   7.936  32.429  0.00  0.00    -0.343 OA
ATOM     40  C   UNL     1      -4.225   7.298  33.289  0.00  0.00    +0.198 C 
ENDBRANCH  25  39
ENDBRANCH  22  23
BRANCH  22  41
ATOM     41  O   UNL     1      -7.269  12.067  32.091  0.00  0.00    -0.387 OA
ATOM     42  H   UNL     1      -7.048  11.220  32.486  0.00  0.00    +0.210 HD
ENDBRANCH  22  41
ENDBRANCH   1  22
TORSDOF 14
