REMARK VINA RESULT:    -4.732      3.610      5.599
REMARK INTER + INTRA:         -10.571
REMARK INTER:                  -7.165
REMARK INTRA:                  -3.407
REMARK UNBOUND:                -2.381
REMARK  Name = lig_assembled_7.pdb
REMARK  19 active torsions:
REMARK  status: ('A' for Active; 'I' for Inactive)
REMARK    1  A    between atoms: _2  and  _9
REMARK    2  A    between atoms: _4  and  _21
REMARK    3  A    between atoms: _5  and  _16
REMARK    4  A    between atoms: _6  and  _7
REMARK    5  A    between atoms: _6  and  _21
REMARK    6  A    between atoms: _10  and  _11
REMARK    7  A    between atoms: _13  and  _14
REMARK    8  A    between atoms: _17  and  _37
REMARK    9  A    between atoms: _19  and  _25
REMARK   10  A    between atoms: _20  and  _24
REMARK   11  A    between atoms: _24  and  _25
REMARK   12  A    between atoms: _27  and  _28
REMARK   13  A    between atoms: _29  and  _30
REMARK   14  A    between atoms: _31  and  _33
REMARK   15  A    between atoms: _33  and  _34
REMARK   16  A    between atoms: _33  and  _35
REMARK   17  A    between atoms: _35  and  _36
REMARK   18  A    between atoms: _35  and  _37
REMARK   19  A    between atoms: _38  and  _40
REMARK                            x       y       z     vdW  Elec       q    Type
REMARK                         _______ _______ _______ _____ _____    ______ ____
ROOT
ATOM      1  C   UNL     1      -5.577  12.275  29.482  0.00  0.00    +0.163 C 
ENDROOT
BRANCH   1   2
ATOM      2  O   UNL     1      -6.528  12.102  28.418  0.00  0.00    -0.388 OA
ATOM      3  H   UNL     1      -6.757  12.959  28.050  0.00  0.00    +0.210 HD
ENDBRANCH   1   2
BRANCH   1   4
ATOM      4  C   UNL     1      -5.840  13.590  30.208  0.00  0.00    +0.141 C 
BRANCH   4   7
ATOM      5  C   UNL     1      -6.969  15.592  29.301  0.00  0.00    +0.401 C 
ATOM      6  O   UNL     1      -7.904  15.544  30.104  0.00  0.00    -0.226 OA
ATOM      7  N   UNL     1      -5.965  14.716  29.274  0.00  0.00    -0.279 N 
ATOM      8  H   UNL     1      -5.248  14.833  28.571  0.00  0.00    +0.152 HD
BRANCH   5   9
ATOM      9  O   UNL     1      -6.942  16.640  28.329  0.00  0.00    -0.444 OA
BRANCH   9  10
ATOM     10  C   UNL     1      -7.948  16.401  27.340  0.00  0.00    +0.292 C 
BRANCH  10  12
ATOM     11  N   UNL     1      -7.889  14.062  26.562  0.00  0.00    -0.131 NA
ATOM     12  C   UNL     1      -7.502  15.356  26.400  0.00  0.00    +0.121 A 
ATOM     13  C   UNL     1      -6.700  15.443  25.279  0.00  0.00    +0.143 A 
ATOM     14  N   UNL     1      -6.585  14.151  24.809  0.00  0.00    -0.219 N 
ATOM     15  N   UNL     1      -7.356  13.348  25.584  0.00  0.00    -0.060 NA
BRANCH  14  16
ATOM     16  C   UNL     1      -5.826  13.645  23.705  0.00  0.00    +0.073 A 
ATOM     17  C   UNL     1      -6.428  13.585  22.411  0.00  0.00    -0.024 A 
ATOM     18  C   UNL     1      -5.688  13.088  21.317  0.00  0.00    +0.008 A 
ATOM     19  C   UNL     1      -4.371  12.660  21.462  0.00  0.00    -0.050 A 
ATOM     20  C   UNL     1      -3.612  12.140  20.278  0.00  0.00    +0.044 C 
ATOM     21  C   UNL     1      -3.787  12.722  22.725  0.00  0.00    +0.008 A 
ATOM     22  C   UNL     1      -7.825  14.071  22.091  0.00  0.00    +0.046 C 
ATOM     23  C   UNL     1      -4.492  13.186  23.860  0.00  0.00    -0.024 A 
ATOM     24  C   UNL     1      -3.720  13.053  25.148  0.00  0.00    +0.046 C 
ENDBRANCH  14  16
ENDBRANCH  10  12
ENDBRANCH   9  10
ENDBRANCH   5   9
ENDBRANCH   4   7
ENDBRANCH   1   4
BRANCH   1  25
ATOM     25  C   UNL     1      -4.137  12.266  28.940  0.00  0.00    +0.175 C 
BRANCH  25  26
ATOM     26  C   UNL     1      -3.654  10.847  28.608  0.00  0.00    +0.176 C 
ATOM     27  O   UNL     1      -4.305  10.429  27.378  0.00  0.00    -0.332 OA
ATOM     28  C   UNL     1      -3.882   9.130  26.846  0.00  0.00    +0.277 C 
ATOM     29  C   UNL     1      -4.039   8.027  27.922  0.00  0.00    +0.110 C 
ATOM     30  C   UNL     1      -3.389   8.440  29.259  0.00  0.00    +0.143 C 
ATOM     31  C   UNL     1      -3.898   9.807  29.718  0.00  0.00    +0.133 C 
BRANCH  31  32
ATOM     32  N   UNL     1      -3.208  10.228  30.947  0.00  0.00    -0.308 N 
ATOM     33  H   UNL     1      -2.227  10.464  30.880  0.00  0.00    +0.149 HD
ATOM     34  C   UNL     1      -3.792  10.319  32.145  0.00  0.00    +0.210 C 
ATOM     35  C   UNL     1      -5.280   9.929  32.218  0.00  0.00    +0.109 C 
ATOM     36  O   UNL     1      -3.192  10.689  33.155  0.00  0.00    -0.276 OA
ENDBRANCH  31  32
BRANCH  28  37
ATOM     37  C   UNL     1      -2.414   9.184  26.374  0.00  0.00    +0.414 C 
ATOM     38  O   UNL     1      -1.659   8.236  26.584  0.00  0.00    -0.240 OA
ATOM     39  O   UNL     1      -1.985  10.176  25.783  0.00  0.00    -0.240 OA
ENDBRANCH  28  37
BRANCH  30  40
ATOM     40  O   UNL     1      -3.687   7.466  30.260  0.00  0.00    -0.390 OA
ATOM     41  H   UNL     1      -4.579   7.135  30.130  0.00  0.00    +0.210 HD
ENDBRANCH  30  40
BRANCH  28  42
ATOM     42  O   UNL     1      -4.743   8.801  25.725  0.00  0.00    -0.343 OA
ATOM     43  C   UNL     1      -5.559   9.896  25.239  0.00  0.00    +0.198 C 
ENDBRANCH  28  42
ENDBRANCH  25  26
BRANCH  25  44
ATOM     44  O   UNL     1      -3.246  12.886  29.889  0.00  0.00    -0.387 OA
ATOM     45  H   UNL     1      -3.749  13.199  30.644  0.00  0.00    +0.210 HD
ENDBRANCH  25  44
ENDBRANCH   1  25
TORSDOF 14
