REMARK VINA RESULT:    -4.992      2.602      4.770
REMARK INTER + INTRA:         -11.134
REMARK INTER:                  -8.289
REMARK INTRA:                  -2.845
REMARK UNBOUND:                -2.494
REMARK  Name = lig_assembled_56.pdb
REMARK  16 active torsions:
REMARK  status: ('A' for Active; 'I' for Inactive)
REMARK    1  A    between atoms: _2  and  _10
REMARK    2  A    between atoms: _5  and  _18
REMARK    3  A    between atoms: _7  and  _8
REMARK    4  A    between atoms: _7  and  _18
REMARK    5  A    between atoms: _14  and  _34
REMARK    6  A    between atoms: _16  and  _22
REMARK    7  A    between atoms: _17  and  _21
REMARK    8  A    between atoms: _21  and  _22
REMARK    9  A    between atoms: _24  and  _25
REMARK   10  A    between atoms: _26  and  _27
REMARK   11  A    between atoms: _28  and  _30
REMARK   12  A    between atoms: _30  and  _31
REMARK   13  A    between atoms: _30  and  _32
REMARK   14  A    between atoms: _32  and  _33
REMARK   15  A    between atoms: _32  and  _34
REMARK   16  A    between atoms: _35  and  _37
REMARK                            x       y       z     vdW  Elec       q    Type
REMARK                         _______ _______ _______ _____ _____    ______ ____
ROOT
ATOM      1  C   UNL     1      -4.926   7.305  23.799  0.00  0.00    +0.163 C 
ENDROOT
BRANCH   1   2
ATOM      2  O   UNL     1      -3.641   6.901  24.299  0.00  0.00    -0.388 OA
ATOM      3  H   UNL     1      -3.052   7.659  24.318  0.00  0.00    +0.210 HD
ENDBRANCH   1   2
BRANCH   1   4
ATOM      4  C   UNL     1      -5.234   6.571  22.498  0.00  0.00    +0.141 C 
BRANCH   4   7
ATOM      5  C   UNL     1      -7.130   7.213  21.050  0.00  0.00    +0.401 C 
ATOM      6  O   UNL     1      -7.824   6.245  21.370  0.00  0.00    -0.226 OA
ATOM      7  N   UNL     1      -5.904   7.440  21.524  0.00  0.00    -0.279 N 
ATOM      8  H   UNL     1      -5.409   8.257  21.194  0.00  0.00    +0.152 HD
BRANCH   5   9
ATOM      9  O   UNL     1      -7.649   8.160  20.113  0.00  0.00    -0.444 OA
BRANCH   9  10
ATOM     10  C   UNL     1      -7.345   9.486  20.555  0.00  0.00    +0.292 C 
BRANCH  10  12
ATOM     11  N   UNL     1      -6.962  11.581  19.296  0.00  0.00    -0.131 NA
ATOM     12  C   UNL     1      -6.701  10.253  19.473  0.00  0.00    +0.121 A 
ATOM     13  C   UNL     1      -5.799   9.842  18.518  0.00  0.00    +0.143 A 
ATOM     14  N   UNL     1      -5.520  10.972  17.783  0.00  0.00    -0.220 N 
ATOM     15  N   UNL     1      -6.244  12.010  18.268  0.00  0.00    -0.060 NA
BRANCH  14  16
ATOM     16  C   UNL     1      -4.629  11.124  16.693  0.00  0.00    +0.070 A 
ATOM     17  C   UNL     1      -4.361  12.385  16.153  0.00  0.00    +0.047 A 
ATOM     18  C   UNL     1      -3.492  12.460  15.076  0.00  0.00    +0.113 A 
ATOM     19  N   UNL     1      -2.889  11.389  14.520  0.00  0.00    -0.263 NA
ATOM     20  C   UNL     1      -3.162  10.183  15.062  0.00  0.00    +0.113 A 
ATOM     21  C   UNL     1      -4.014   9.998  16.137  0.00  0.00    +0.047 A 
ENDBRANCH  14  16
ENDBRANCH  10  12
ENDBRANCH   9  10
ENDBRANCH   5   9
ENDBRANCH   4   7
ENDBRANCH   1   4
BRANCH   1  22
ATOM     22  C   UNL     1      -4.969   8.823  23.555  0.00  0.00    +0.175 C 
BRANCH  22  23
ATOM     23  C   UNL     1      -3.890   9.568  24.354  0.00  0.00    +0.176 C 
ATOM     24  O   UNL     1      -4.258   9.514  25.760  0.00  0.00    -0.332 OA
ATOM     25  C   UNL     1      -3.283  10.087  26.693  0.00  0.00    +0.277 C 
ATOM     26  C   UNL     1      -2.946  11.545  26.296  0.00  0.00    +0.110 C 
ATOM     27  C   UNL     1      -2.580  11.658  24.801  0.00  0.00    +0.143 C 
ATOM     28  C   UNL     1      -3.660  11.028  23.922  0.00  0.00    +0.133 C 
BRANCH  28  29
ATOM     29  N   UNL     1      -3.259  11.064  22.507  0.00  0.00    -0.308 N 
ATOM     30  H   UNL     1      -2.456  10.518  22.230  0.00  0.00    +0.149 HD
ATOM     31  C   UNL     1      -3.888  11.772  21.564  0.00  0.00    +0.210 C 
ATOM     32  C   UNL     1      -5.093  12.614  22.023  0.00  0.00    +0.109 C 
ATOM     33  O   UNL     1      -3.538  11.771  20.383  0.00  0.00    -0.276 OA
ENDBRANCH  28  29
BRANCH  25  34
ATOM     34  C   UNL     1      -1.989   9.247  26.716  0.00  0.00    +0.414 C 
ATOM     35  O   UNL     1      -0.899   9.791  26.891  0.00  0.00    -0.240 OA
ATOM     36  O   UNL     1      -2.034   8.026  26.560  0.00  0.00    -0.240 OA
ENDBRANCH  25  34
BRANCH  27  37
ATOM     37  O   UNL     1      -2.426  13.033  24.446  0.00  0.00    -0.390 OA
ATOM     38  H   UNL     1      -2.580  13.583  25.217  0.00  0.00    +0.210 HD
ENDBRANCH  27  37
BRANCH  25  39
ATOM     39  O   UNL     1      -3.880  10.099  28.015  0.00  0.00    -0.343 OA
ATOM     40  C   UNL     1      -3.778  11.361  28.722  0.00  0.00    +0.198 C 
ENDBRANCH  25  39
ENDBRANCH  22  23
BRANCH  22  41
ATOM     41  O   UNL     1      -6.275   9.341  23.880  0.00  0.00    -0.387 OA
ATOM     42  H   UNL     1      -6.942   8.864  23.381  0.00  0.00    +0.210 HD
ENDBRANCH  22  41
ENDBRANCH   1  22
TORSDOF 14
