REMARK VINA RESULT:    -4.655      8.810     11.562
REMARK INTER + INTRA:         -11.173
REMARK INTER:                  -7.199
REMARK INTRA:                  -3.974
REMARK UNBOUND:                -2.844
REMARK  Name = lig_assembled_44.pdb
REMARK  17 active torsions:
REMARK  status: ('A' for Active; 'I' for Inactive)
REMARK    1  A    between atoms: _2  and  _9
REMARK    2  A    between atoms: _4  and  _19
REMARK    3  A    between atoms: _6  and  _7
REMARK    4  A    between atoms: _6  and  _19
REMARK    5  A    between atoms: _9  and  _10
REMARK    6  A    between atoms: _15  and  _35
REMARK    7  A    between atoms: _17  and  _23
REMARK    8  A    between atoms: _18  and  _22
REMARK    9  A    between atoms: _22  and  _23
REMARK   10  A    between atoms: _25  and  _26
REMARK   11  A    between atoms: _27  and  _28
REMARK   12  A    between atoms: _29  and  _31
REMARK   13  A    between atoms: _31  and  _32
REMARK   14  A    between atoms: _31  and  _33
REMARK   15  A    between atoms: _33  and  _34
REMARK   16  A    between atoms: _33  and  _35
REMARK   17  A    between atoms: _36  and  _38
REMARK                            x       y       z     vdW  Elec       q    Type
REMARK                         _______ _______ _______ _____ _____    ______ ____
ROOT
ATOM      1  C   UNL     1      -3.033  11.471  31.114  0.00  0.00    +0.163 C 
ENDROOT
BRANCH   1   2
ATOM      2  O   UNL     1      -2.099  10.390  30.963  0.00  0.00    -0.388 OA
ATOM      3  H   UNL     1      -2.337   9.865  30.195  0.00  0.00    +0.210 HD
ENDBRANCH   1   2
BRANCH   1   4
ATOM      4  C   UNL     1      -3.267  11.756  32.594  0.00  0.00    +0.141 C 
BRANCH   4   7
ATOM      5  C   UNL     1      -3.070  14.216  32.719  0.00  0.00    +0.401 C 
ATOM      6  O   UNL     1      -1.867  14.228  32.449  0.00  0.00    -0.226 OA
ATOM      7  N   UNL     1      -3.802  13.105  32.814  0.00  0.00    -0.279 N 
ATOM      8  H   UNL     1      -4.780  13.197  33.050  0.00  0.00    +0.152 HD
BRANCH   5   9
ATOM      9  O   UNL     1      -3.741  15.457  32.954  0.00  0.00    -0.444 OA
BRANCH   9  10
ATOM     10  C   UNL     1      -3.848  16.182  31.726  0.00  0.00    +0.292 C 
BRANCH  10  12
ATOM     11  N   UNL     1      -5.964  14.904  31.545  0.00  0.00    -0.131 NA
ATOM     12  C   UNL     1      -5.074  15.794  31.003  0.00  0.00    +0.120 A 
ATOM     13  C   UNL     1      -5.542  16.210  29.778  0.00  0.00    +0.137 A 
ATOM     14  N   UNL     1      -6.757  15.599  29.667  0.00  0.00    -0.247 N 
ATOM     15  N   UNL     1      -6.989  14.784  30.711  0.00  0.00    -0.065 NA
BRANCH  14  16
ATOM     16  C   UNL     1      -7.739  15.742  28.610  0.00  0.00    +0.180 C 
BRANCH  16  17
ATOM     17  C   UNL     1      -7.185  15.302  27.276  0.00  0.00    -0.026 A 
ATOM     18  C   UNL     1      -6.594  14.037  27.128  0.00  0.00    +0.006 A 
ATOM     19  C   UNL     1      -6.068  13.639  25.898  0.00  0.00    +0.015 A 
ATOM     20  C   UNL     1      -6.129  14.504  24.807  0.00  0.00    +0.018 A 
ATOM     21 BR   UNL     1      -5.431  13.956  23.138  0.00  0.00    -0.050 Br
ATOM     22  C   UNL     1      -6.699  15.768  24.938  0.00  0.00    +0.015 A 
ATOM     23  C   UNL     1      -7.221  16.168  26.172  0.00  0.00    +0.006 A 
ENDBRANCH  16  17
ENDBRANCH  14  16
ENDBRANCH  10  12
ENDBRANCH   9  10
ENDBRANCH   5   9
ENDBRANCH   4   7
ENDBRANCH   1   4
BRANCH   1  24
ATOM     24  C   UNL     1      -4.374  11.139  30.437  0.00  0.00    +0.175 C 
BRANCH  24  25
ATOM     25  C   UNL     1      -4.179  10.450  29.078  0.00  0.00    +0.176 C 
ATOM     26  O   UNL     1      -3.231  11.238  28.308  0.00  0.00    -0.332 OA
ATOM     27  C   UNL     1      -2.840  10.673  27.013  0.00  0.00    +0.277 C 
ATOM     28  C   UNL     1      -4.092  10.374  26.153  0.00  0.00    +0.110 C 
ATOM     29  C   UNL     1      -5.143   9.563  26.940  0.00  0.00    +0.143 C 
ATOM     30  C   UNL     1      -5.474  10.240  28.271  0.00  0.00    +0.133 C 
BRANCH  30  31
ATOM     31  N   UNL     1      -6.411   9.415  29.050  0.00  0.00    -0.308 N 
ATOM     32  H   UNL     1      -6.081   8.523  29.392  0.00  0.00    +0.149 HD
ATOM     33  C   UNL     1      -7.667   9.767  29.333  0.00  0.00    +0.210 C 
ATOM     34  C   UNL     1      -8.147  11.120  28.774  0.00  0.00    +0.109 C 
ATOM     35  O   UNL     1      -8.425   9.062  30.000  0.00  0.00    -0.276 OA
ENDBRANCH  30  31
BRANCH  27  36
ATOM     36  C   UNL     1      -2.025   9.377  27.206  0.00  0.00    +0.414 C 
ATOM     37  O   UNL     1      -1.970   8.539  26.307  0.00  0.00    -0.240 OA
ATOM     38  O   UNL     1      -1.422   9.170  28.260  0.00  0.00    -0.240 OA
ENDBRANCH  27  36
BRANCH  27  39
ATOM     39  O   UNL     1      -2.032  11.658  26.319  0.00  0.00    -0.343 OA
ATOM     40  C   UNL     1      -2.727  12.399  25.283  0.00  0.00    +0.198 C 
ENDBRANCH  27  39
BRANCH  29  41
ATOM     41  O   UNL     1      -6.336   9.441  26.165  0.00  0.00    -0.390 OA
ATOM     42  H   UNL     1      -6.988   8.936  26.657  0.00  0.00    +0.210 HD
ENDBRANCH  29  41
ENDBRANCH  24  25
BRANCH  24  43
ATOM     43  O   UNL     1      -5.161  12.336  30.278  0.00  0.00    -0.387 OA
ATOM     44  H   UNL     1      -5.192  12.811  31.112  0.00  0.00    +0.210 HD
ENDBRANCH  24  43
ENDBRANCH   1  24
TORSDOF 15
