REMARK VINA RESULT:    -4.057      2.220      5.399
REMARK INTER + INTRA:         -10.883
REMARK INTER:                  -6.607
REMARK INTRA:                  -4.276
REMARK UNBOUND:                -3.505
REMARK  Name = lig_assembled_22.pdb
REMARK  20 active torsions:
REMARK  status: ('A' for Active; 'I' for Inactive)
REMARK    1  A    between atoms: _2  and  _9
REMARK    2  A    between atoms: _4  and  _18
REMARK    3  A    between atoms: _5  and  _9
REMARK    4  A    between atoms: _5  and  _12
REMARK    5  A    between atoms: _6  and  _7
REMARK    6  A    between atoms: _6  and  _18
REMARK    7  A    between atoms: _9  and  _10
REMARK    8  A    between atoms: _9  and  _11
REMARK    9  A    between atoms: _14  and  _34
REMARK   10  A    between atoms: _16  and  _22
REMARK   11  A    between atoms: _17  and  _21
REMARK   12  A    between atoms: _21  and  _22
REMARK   13  A    between atoms: _24  and  _25
REMARK   14  A    between atoms: _26  and  _27
REMARK   15  A    between atoms: _28  and  _30
REMARK   16  A    between atoms: _30  and  _31
REMARK   17  A    between atoms: _30  and  _32
REMARK   18  A    between atoms: _32  and  _33
REMARK   19  A    between atoms: _32  and  _34
REMARK   20  A    between atoms: _35  and  _37
REMARK                            x       y       z     vdW  Elec       q    Type
REMARK                         _______ _______ _______ _____ _____    ______ ____
ROOT
ATOM      1  C   UNL     1      -4.540   7.723  23.164  0.00  0.00    +0.163 C 
ENDROOT
BRANCH   1   2
ATOM      2  O   UNL     1      -3.698   8.815  22.760  0.00  0.00    -0.388 OA
ATOM      3  H   UNL     1      -4.031   9.190  21.940  0.00  0.00    +0.210 HD
ENDBRANCH   1   2
BRANCH   1   4
ATOM      4  C   UNL     1      -5.692   7.559  22.177  0.00  0.00    +0.141 C 
BRANCH   4   7
ATOM      5  C   UNL     1      -5.855   8.683  19.982  0.00  0.00    +0.401 C 
ATOM      6  O   UNL     1      -5.724   7.642  19.334  0.00  0.00    -0.226 OA
ATOM      7  N   UNL     1      -5.846   8.737  21.315  0.00  0.00    -0.279 N 
ATOM      8  H   UNL     1      -5.951   9.640  21.756  0.00  0.00    +0.152 HD
BRANCH   5   9
ATOM      9  O   UNL     1      -6.023   9.919  19.284  0.00  0.00    -0.444 OA
BRANCH   9  10
ATOM     10  C   UNL     1      -4.802  10.662  19.326  0.00  0.00    +0.292 C 
BRANCH  10  12
ATOM     11  N   UNL     1      -4.240  11.495  21.581  0.00  0.00    -0.131 NA
ATOM     12  C   UNL     1      -4.865  11.689  20.382  0.00  0.00    +0.120 A 
ATOM     13  C   UNL     1      -5.489  12.918  20.395  0.00  0.00    +0.138 A 
ATOM     14  N   UNL     1      -5.207  13.425  21.633  0.00  0.00    -0.235 N 
ATOM     15  N   UNL     1      -4.457  12.557  22.339  0.00  0.00    -0.064 NA
BRANCH  14  16
ATOM     16  C   UNL     1      -5.618  14.696  22.232  0.00  0.00    +0.155 C 
ATOM     17  C   UNL     1      -6.685  15.422  21.384  0.00  0.00    +0.048 C 
ATOM     18  C   UNL     1      -4.384  15.610  22.347  0.00  0.00    +0.048 C 
BRANCH  16  19
ATOM     19  C   UNL     1      -6.215  14.461  23.622  0.00  0.00    +0.332 C 
ATOM     20  O   UNL     1      -5.873  15.068  24.630  0.00  0.00    -0.248 OA
BRANCH  19  21
ATOM     21  O   UNL     1      -7.180  13.511  23.685  0.00  0.00    -0.479 OA
ATOM     22  H   UNL     1      -6.881  12.599  23.868  0.00  0.00    +0.295 HD
ENDBRANCH  19  21
ENDBRANCH  16  19
ENDBRANCH  14  16
ENDBRANCH  10  12
ENDBRANCH   9  10
ENDBRANCH   5   9
ENDBRANCH   4   7
ENDBRANCH   1   4
BRANCH   1  23
ATOM     23  C   UNL     1      -5.103   7.956  24.577  0.00  0.00    +0.175 C 
BRANCH  23  24
ATOM     24  C   UNL     1      -4.545   9.235  25.217  0.00  0.00    +0.176 C 
ATOM     25  O   UNL     1      -4.025   8.888  26.530  0.00  0.00    -0.332 OA
ATOM     26  C   UNL     1      -3.352   9.972  27.252  0.00  0.00    +0.277 C 
ATOM     27  C   UNL     1      -4.283  11.204  27.367  0.00  0.00    +0.110 C 
ATOM     28  C   UNL     1      -4.885  11.592  26.001  0.00  0.00    +0.143 C 
ATOM     29  C   UNL     1      -5.557  10.390  25.336  0.00  0.00    +0.133 C 
BRANCH  29  30
ATOM     30  N   UNL     1      -6.051  10.751  23.998  0.00  0.00    -0.308 N 
ATOM     31  H   UNL     1      -5.386  11.120  23.333  0.00  0.00    +0.149 HD
ATOM     32  C   UNL     1      -7.321  10.621  23.604  0.00  0.00    +0.210 C 
ATOM     33  C   UNL     1      -8.315  10.080  24.648  0.00  0.00    +0.109 C 
ATOM     34  O   UNL     1      -7.703  10.918  22.471  0.00  0.00    -0.276 OA
ENDBRANCH  29  30
BRANCH  26  35
ATOM     35  C   UNL     1      -2.046  10.377  26.538  0.00  0.00    +0.414 C 
ATOM     36  O   UNL     1      -1.080   9.614  26.533  0.00  0.00    -0.240 OA
ATOM     37  O   UNL     1      -1.958  11.465  25.968  0.00  0.00    -0.240 OA
ENDBRANCH  26  35
BRANCH  26  38
ATOM     38  O   UNL     1      -3.051   9.500  28.591  0.00  0.00    -0.343 OA
ATOM     39  C   UNL     1      -3.737  10.204  29.657  0.00  0.00    +0.198 C 
ENDBRANCH  26  38
BRANCH  28  40
ATOM     40  O   UNL     1      -5.849  12.632  26.177  0.00  0.00    -0.390 OA
ATOM     41  H   UNL     1      -6.690  12.356  25.804  0.00  0.00    +0.210 HD
ENDBRANCH  28  40
ENDBRANCH  23  24
BRANCH  23  42
ATOM     42  O   UNL     1      -4.824   6.818  25.416  0.00  0.00    -0.387 OA
ATOM     43  H   UNL     1      -4.350   7.106  26.200  0.00  0.00    +0.210 HD
ENDBRANCH  23  42
ENDBRANCH   1  23
TORSDOF 16
