REMARK VINA RESULT:    -5.092      1.826      3.128
REMARK INTER + INTRA:         -11.115
REMARK INTER:                  -8.655
REMARK INTRA:                  -2.460
REMARK UNBOUND:                -2.004
REMARK  Name = lig_assembled_6.pdb
REMARK  17 active torsions:
REMARK  status: ('A' for Active; 'I' for Inactive)
REMARK    1  A    between atoms: _2  and  _10
REMARK    2  A    between atoms: _3  and  _13
REMARK    3  A    between atoms: _5  and  _21
REMARK    4  A    between atoms: _7  and  _8
REMARK    5  A    between atoms: _7  and  _21
REMARK    6  A    between atoms: _17  and  _37
REMARK    7  A    between atoms: _19  and  _25
REMARK    8  A    between atoms: _20  and  _24
REMARK    9  A    between atoms: _24  and  _25
REMARK   10  A    between atoms: _27  and  _28
REMARK   11  A    between atoms: _29  and  _30
REMARK   12  A    between atoms: _31  and  _33
REMARK   13  A    between atoms: _33  and  _34
REMARK   14  A    between atoms: _33  and  _35
REMARK   15  A    between atoms: _35  and  _36
REMARK   16  A    between atoms: _35  and  _37
REMARK   17  A    between atoms: _38  and  _40
REMARK                            x       y       z     vdW  Elec       q    Type
REMARK                         _______ _______ _______ _____ _____    ______ ____
ROOT
ATOM      1  C   UNL     1      -5.386   8.674  25.608  0.00  0.00    +0.163 C 
ENDROOT
BRANCH   1   2
ATOM      2  O   UNL     1      -6.587   8.041  26.081  0.00  0.00    -0.388 OA
ATOM      3  H   UNL     1      -7.349   8.446  25.661  0.00  0.00    +0.210 HD
ENDBRANCH   1   2
BRANCH   1   4
ATOM      4  C   UNL     1      -5.361   8.672  24.083  0.00  0.00    +0.141 C 
BRANCH   4   7
ATOM      5  C   UNL     1      -4.027  10.414  22.947  0.00  0.00    +0.401 C 
ATOM      6  O   UNL     1      -3.034   9.695  22.807  0.00  0.00    -0.226 OA
ATOM      7  N   UNL     1      -5.156  10.019  23.537  0.00  0.00    -0.279 N 
ATOM      8  H   UNL     1      -5.912  10.685  23.613  0.00  0.00    +0.152 HD
BRANCH   5   9
ATOM      9  O   UNL     1      -3.986  11.757  22.458  0.00  0.00    -0.444 OA
BRANCH   9  10
ATOM     10  C   UNL     1      -5.296  12.154  22.044  0.00  0.00    +0.292 C 
BRANCH  10  12
ATOM     11  N   UNL     1      -6.487  12.587  19.917  0.00  0.00    -0.131 NA
ATOM     12  C   UNL     1      -5.430  12.035  20.580  0.00  0.00    +0.121 A 
ATOM     13  C   UNL     1      -4.601  11.420  19.670  0.00  0.00    +0.143 A 
ATOM     14  N   UNL     1      -5.184  11.652  18.445  0.00  0.00    -0.220 N 
ATOM     15  N   UNL     1      -6.335  12.343  18.622  0.00  0.00    -0.060 NA
BRANCH  14  16
ATOM     16  C   UNL     1      -4.707  11.301  17.153  0.00  0.00    +0.067 A 
ATOM     17  C   UNL     1      -4.830   9.986  16.679  0.00  0.00    +0.034 A 
ATOM     18  C   UNL     1      -4.302   9.638  15.431  0.00  0.00    +0.086 A 
ATOM     19  C   UNL     1      -3.653  10.606  14.655  0.00  0.00    +0.273 A 
ATOM     20  C   UNL     1      -3.549  11.926  15.108  0.00  0.00    +0.086 A 
ATOM     21  C   UNL     1      -4.079  12.271  16.356  0.00  0.00    +0.034 A 
BRANCH  19  22
ATOM     22  N   UNL     1      -3.063  10.224  13.365  0.00  0.00    +0.080 N 
ATOM     23  O   UNL     1      -1.840  10.026  13.329  0.00  0.00    +0.041 OA
ATOM     24  O   UNL     1      -3.820  10.129  12.390  0.00  0.00    -0.576 OA
ENDBRANCH  19  22
ENDBRANCH  14  16
ENDBRANCH  10  12
ENDBRANCH   9  10
ENDBRANCH   5   9
ENDBRANCH   4   7
ENDBRANCH   1   4
BRANCH   1  25
ATOM     25  C   UNL     1      -4.137   7.953  26.143  0.00  0.00    +0.175 C 
BRANCH  25  26
ATOM     26  C   UNL     1      -3.805   8.365  27.585  0.00  0.00    +0.176 C 
ATOM     27  O   UNL     1      -4.798   7.764  28.461  0.00  0.00    -0.332 OA
ATOM     28  C   UNL     1      -4.580   7.963  29.897  0.00  0.00    +0.277 C 
ATOM     29  C   UNL     1      -4.441   9.471  30.219  0.00  0.00    +0.110 C 
ATOM     30  C   UNL     1      -3.418  10.160  29.291  0.00  0.00    +0.143 C 
ATOM     31  C   UNL     1      -3.739   9.885  27.822  0.00  0.00    +0.133 C 
BRANCH  31  32
ATOM     32  N   UNL     1      -2.709  10.473  26.951  0.00  0.00    -0.308 N 
ATOM     33  H   UNL     1      -1.797  10.038  26.938  0.00  0.00    +0.149 HD
ATOM     34  C   UNL     1      -2.900  11.544  26.176  0.00  0.00    +0.210 C 
ATOM     35  C   UNL     1      -4.293  12.200  26.238  0.00  0.00    +0.109 C 
ATOM     36  O   UNL     1      -2.023  12.007  25.446  0.00  0.00    -0.276 OA
ENDBRANCH  31  32
BRANCH  28  37
ATOM     37  C   UNL     1      -3.314   7.217  30.366  0.00  0.00    +0.414 C 
ATOM     38  O   UNL     1      -2.834   7.446  31.476  0.00  0.00    -0.240 OA
ATOM     39  O   UNL     1      -2.772   6.386  29.636  0.00  0.00    -0.240 OA
ENDBRANCH  28  37
BRANCH  30  40
ATOM     40  O   UNL     1      -3.433  11.570  29.520  0.00  0.00    -0.390 OA
ATOM     41  H   UNL     1      -4.330  11.900  29.430  0.00  0.00    +0.210 HD
ENDBRANCH  30  40
BRANCH  28  42
ATOM     42  O   UNL     1      -5.739   7.450  30.603  0.00  0.00    -0.343 OA
ATOM     43  C   UNL     1      -6.567   6.537  29.838  0.00  0.00    +0.198 C 
ENDBRANCH  28  42
ENDBRANCH  25  26
BRANCH  25  44
ATOM     44  O   UNL     1      -3.009   8.208  25.282  0.00  0.00    -0.387 OA
ATOM     45  H   UNL     1      -2.291   7.613  25.511  0.00  0.00    +0.210 HD
ENDBRANCH  25  44
ENDBRANCH   1  25
TORSDOF 15
