REMARK VINA RESULT:    -5.328      0.000      0.000
REMARK INTER + INTRA:         -12.312
REMARK INTER:                  -9.186
REMARK INTRA:                  -3.126
REMARK UNBOUND:                -2.779
REMARK  Name = lig_assembled_39.pdb
REMARK  17 active torsions:
REMARK  status: ('A' for Active; 'I' for Inactive)
REMARK    1  A    between atoms: _2  and  _9
REMARK    2  A    between atoms: _4  and  _19
REMARK    3  A    between atoms: _6  and  _7
REMARK    4  A    between atoms: _6  and  _19
REMARK    5  A    between atoms: _9  and  _10
REMARK    6  A    between atoms: _15  and  _35
REMARK    7  A    between atoms: _17  and  _23
REMARK    8  A    between atoms: _18  and  _22
REMARK    9  A    between atoms: _22  and  _23
REMARK   10  A    between atoms: _25  and  _26
REMARK   11  A    between atoms: _27  and  _28
REMARK   12  A    between atoms: _29  and  _31
REMARK   13  A    between atoms: _31  and  _32
REMARK   14  A    between atoms: _31  and  _33
REMARK   15  A    between atoms: _33  and  _34
REMARK   16  A    between atoms: _33  and  _35
REMARK   17  A    between atoms: _36  and  _38
REMARK                            x       y       z     vdW  Elec       q    Type
REMARK                         _______ _______ _______ _____ _____    ______ ____
ROOT
ATOM      1  C   UNL     1      -3.182  10.284  30.959  0.00  0.00    +0.163 C 
ENDROOT
BRANCH   1   2
ATOM      2  O   UNL     1      -2.125  11.121  31.456  0.00  0.00    -0.388 OA
ATOM      3  H   UNL     1      -1.848  11.731  30.767  0.00  0.00    +0.210 HD
ENDBRANCH   1   2
BRANCH   1   4
ATOM      4  C   UNL     1      -2.598   9.014  30.349  0.00  0.00    +0.141 C 
BRANCH   4   7
ATOM      5  C   UNL     1      -1.961   8.172  28.115  0.00  0.00    +0.401 C 
ATOM      6  O   UNL     1      -1.327   7.210  28.554  0.00  0.00    -0.226 OA
ATOM      7  N   UNL     1      -2.582   9.069  28.882  0.00  0.00    -0.279 N 
ATOM      8  H   UNL     1      -3.068   9.830  28.428  0.00  0.00    +0.152 HD
BRANCH   5   9
ATOM      9  O   UNL     1      -2.045   8.360  26.700  0.00  0.00    -0.444 OA
BRANCH   9  10
ATOM     10  C   UNL     1      -3.301   8.961  26.371  0.00  0.00    +0.292 C 
BRANCH  10  12
ATOM     11  N   UNL     1      -2.331  11.202  25.967  0.00  0.00    -0.131 NA
ATOM     12  C   UNL     1      -3.096  10.153  25.528  0.00  0.00    +0.120 A 
ATOM     13  C   UNL     1      -3.554  10.428  24.259  0.00  0.00    +0.137 A 
ATOM     14  N   UNL     1      -2.966  11.619  23.952  0.00  0.00    -0.247 N 
ATOM     15  N   UNL     1      -2.283  12.111  25.002  0.00  0.00    -0.065 NA
BRANCH  14  16
ATOM     16  C   UNL     1      -2.954  12.308  22.669  0.00  0.00    +0.181 C 
BRANCH  16  17
ATOM     17  C   UNL     1      -4.236  13.071  22.387  0.00  0.00    -0.012 A 
ATOM     18  C   UNL     1      -4.552  14.247  23.096  0.00  0.00    +0.006 A 
ATOM     19  C   UNL     1      -5.731  14.956  22.850  0.00  0.00    +0.000 A 
ATOM     20  C   UNL     1      -6.636  14.492  21.904  0.00  0.00    +0.001 A 
ATOM     21  C   UNL     1      -6.371  13.309  21.219  0.00  0.00    +0.015 A 
ATOM     22  C   UNL     1      -5.188  12.596  21.464  0.00  0.00    +0.023 A 
ATOM     23 BR   UNL     1      -4.963  10.966  20.512  0.00  0.00    -0.050 Br
ENDBRANCH  16  17
ENDBRANCH  14  16
ENDBRANCH  10  12
ENDBRANCH   9  10
ENDBRANCH   5   9
ENDBRANCH   4   7
ENDBRANCH   1   4
BRANCH   1  24
ATOM     24  C   UNL     1      -4.019  11.025  29.902  0.00  0.00    +0.175 C 
BRANCH  24  25
ATOM     25  C   UNL     1      -4.204  12.510  30.247  0.00  0.00    +0.176 C 
ATOM     26  O   UNL     1      -4.391  12.614  31.685  0.00  0.00    -0.332 OA
ATOM     27  C   UNL     1      -4.479  13.978  32.216  0.00  0.00    +0.277 C 
ATOM     28  C   UNL     1      -5.589  14.772  31.484  0.00  0.00    +0.110 C 
ATOM     29  C   UNL     1      -5.451  14.664  29.951  0.00  0.00    +0.143 C 
ATOM     30  C   UNL     1      -5.364  13.203  29.510  0.00  0.00    +0.133 C 
BRANCH  30  31
ATOM     31  N   UNL     1      -5.146  13.116  28.057  0.00  0.00    -0.308 N 
ATOM     32  H   UNL     1      -4.251  13.415  27.696  0.00  0.00    +0.149 HD
ATOM     33  C   UNL     1      -6.053  12.668  27.185  0.00  0.00    +0.210 C 
ATOM     34  C   UNL     1      -7.416  12.244  27.764  0.00  0.00    +0.109 C 
ATOM     35  O   UNL     1      -5.836  12.592  25.975  0.00  0.00    -0.276 OA
ENDBRANCH  30  31
BRANCH  27  36
ATOM     36  C   UNL     1      -3.132  14.713  32.060  0.00  0.00    +0.414 C 
ATOM     37  O   UNL     1      -3.102  15.940  31.966  0.00  0.00    -0.240 OA
ATOM     38  O   UNL     1      -2.075  14.081  32.030  0.00  0.00    -0.240 OA
ENDBRANCH  27  36
BRANCH  27  39
ATOM     39  O   UNL     1      -4.829  13.892  33.621  0.00  0.00    -0.343 OA
ATOM     40  C   UNL     1      -5.517  12.675  34.007  0.00  0.00    +0.198 C 
ENDBRANCH  27  39
BRANCH  29  41
ATOM     41  O   UNL     1      -6.575  15.281  29.322  0.00  0.00    -0.390 OA
ATOM     42  H   UNL     1      -6.406  16.219  29.211  0.00  0.00    +0.210 HD
ENDBRANCH  29  41
ENDBRANCH  24  25
BRANCH  24  43
ATOM     43  O   UNL     1      -5.303  10.387  29.749  0.00  0.00    -0.387 OA
ATOM     44  H   UNL     1      -5.992  10.973  30.069  0.00  0.00    +0.210 HD
ENDBRANCH  24  43
ENDBRANCH   1  24
TORSDOF 15
