REMARK VINA RESULT:    -4.924      2.184      4.517
REMARK INTER + INTRA:         -10.809
REMARK INTER:                  -8.327
REMARK INTRA:                  -2.482
REMARK UNBOUND:                -2.287
REMARK  Name = lig_assembled_52.pdb
REMARK  16 active torsions:
REMARK  status: ('A' for Active; 'I' for Inactive)
REMARK    1  A    between atoms: _2  and  _10
REMARK    2  A    between atoms: _5  and  _18
REMARK    3  A    between atoms: _7  and  _8
REMARK    4  A    between atoms: _7  and  _18
REMARK    5  A    between atoms: _14  and  _34
REMARK    6  A    between atoms: _16  and  _22
REMARK    7  A    between atoms: _17  and  _21
REMARK    8  A    between atoms: _21  and  _22
REMARK    9  A    between atoms: _24  and  _25
REMARK   10  A    between atoms: _26  and  _27
REMARK   11  A    between atoms: _28  and  _30
REMARK   12  A    between atoms: _30  and  _31
REMARK   13  A    between atoms: _30  and  _32
REMARK   14  A    between atoms: _32  and  _33
REMARK   15  A    between atoms: _32  and  _34
REMARK   16  A    between atoms: _35  and  _37
REMARK                            x       y       z     vdW  Elec       q    Type
REMARK                         _______ _______ _______ _____ _____    ______ ____
ROOT
ATOM      1  C   UNL     1      -5.540   8.284  24.861  0.00  0.00    +0.163 C 
ENDROOT
BRANCH   1   2
ATOM      2  O   UNL     1      -6.126   8.769  26.079  0.00  0.00    -0.388 OA
ATOM      3  H   UNL     1      -7.079   8.652  26.046  0.00  0.00    +0.210 HD
ENDBRANCH   1   2
BRANCH   1   4
ATOM      4  C   UNL     1      -4.034   8.115  25.037  0.00  0.00    +0.141 C 
BRANCH   4   7
ATOM      5  C   UNL     1      -2.499   7.917  26.963  0.00  0.00    +0.401 C 
ATOM      6  O   UNL     1      -1.721   7.154  26.385  0.00  0.00    -0.226 OA
ATOM      7  N   UNL     1      -3.608   8.411  26.411  0.00  0.00    -0.279 N 
ATOM      8  H   UNL     1      -4.187   9.022  26.969  0.00  0.00    +0.152 HD
BRANCH   5   9
ATOM      9  O   UNL     1      -2.216   8.308  28.309  0.00  0.00    -0.444 OA
BRANCH   9  10
ATOM     10  C   UNL     1      -3.443   8.473  29.026  0.00  0.00    +0.292 C 
BRANCH  10  12
ATOM     11  N   UNL     1      -2.807   9.866  30.968  0.00  0.00    -0.131 NA
ATOM     12  C   UNL     1      -3.437   9.751  29.763  0.00  0.00    +0.121 A 
ATOM     13  C   UNL     1      -3.995  10.964  29.431  0.00  0.00    +0.143 A 
ATOM     14  N   UNL     1      -3.660  11.806  30.465  0.00  0.00    -0.218 N 
ATOM     15  N   UNL     1      -2.950  11.116  31.391  0.00  0.00    -0.060 NA
BRANCH  14  16
ATOM     16  C   UNL     1      -3.949  13.179  30.615  0.00  0.00    +0.085 A 
ATOM     17  C   UNL     1      -5.150  13.735  30.167  0.00  0.00    +0.031 A 
ATOM     18  C   UNL     1      -5.367  15.103  30.325  0.00  0.00    +0.022 A 
ATOM     19  C   UNL     1      -4.379  15.864  30.926  0.00  0.00    +0.111 A 
ATOM     20  N   UNL     1      -3.212  15.354  31.376  0.00  0.00    -0.261 NA
ATOM     21  C   UNL     1      -3.019  14.023  31.212  0.00  0.00    +0.138 A 
ENDBRANCH  14  16
ENDBRANCH  10  12
ENDBRANCH   9  10
ENDBRANCH   5   9
ENDBRANCH   4   7
ENDBRANCH   1   4
BRANCH   1  22
ATOM     22  C   UNL     1      -5.816   9.249  23.695  0.00  0.00    +0.175 C 
BRANCH  22  23
ATOM     23  C   UNL     1      -4.865  10.455  23.705  0.00  0.00    +0.176 C 
ATOM     24  O   UNL     1      -5.257  11.324  24.803  0.00  0.00    -0.332 OA
ATOM     25  C   UNL     1      -4.390  12.483  25.034  0.00  0.00    +0.277 C 
ATOM     26  C   UNL     1      -4.239  13.314  23.737  0.00  0.00    +0.110 C 
ATOM     27  C   UNL     1      -3.853  12.427  22.534  0.00  0.00    +0.143 C 
ATOM     28  C   UNL     1      -4.819  11.251  22.388  0.00  0.00    +0.133 C 
BRANCH  28  29
ATOM     29  N   UNL     1      -4.391  10.366  21.293  0.00  0.00    -0.308 N 
ATOM     30  H   UNL     1      -3.491   9.913  21.377  0.00  0.00    +0.149 HD
ATOM     31  C   UNL     1      -5.113  10.121  20.196  0.00  0.00    +0.210 C 
ATOM     32  C   UNL     1      -6.467  10.846  20.087  0.00  0.00    +0.109 C 
ATOM     33  O   UNL     1      -4.735   9.363  19.302  0.00  0.00    -0.276 OA
ENDBRANCH  28  29
BRANCH  25  34
ATOM     34  C   UNL     1      -2.998  12.036  25.525  0.00  0.00    +0.414 C 
ATOM     35  O   UNL     1      -2.894  11.267  26.480  0.00  0.00    -0.240 OA
ATOM     36  O   UNL     1      -1.979  12.442  24.966  0.00  0.00    -0.240 OA
ENDBRANCH  25  34
BRANCH  27  37
ATOM     37  O   UNL     1      -3.873  13.204  21.336  0.00  0.00    -0.390 OA
ATOM     38  H   UNL     1      -3.565  14.094  21.526  0.00  0.00    +0.210 HD
ENDBRANCH  27  37
BRANCH  25  39
ATOM     39  O   UNL     1      -5.017  13.319  26.042  0.00  0.00    -0.343 OA
ATOM     40  C   UNL     1      -6.135  12.707  26.735  0.00  0.00    +0.198 C 
ENDBRANCH  25  39
ENDBRANCH  22  23
BRANCH  22  41
ATOM     41  O   UNL     1      -7.186   9.696  23.734  0.00  0.00    -0.387 OA
ATOM     42  H   UNL     1      -7.655   9.231  24.431  0.00  0.00    +0.210 HD
ENDBRANCH  22  41
ENDBRANCH   1  22
TORSDOF 14
