REMARK VINA RESULT:    -4.770      2.517      9.388
REMARK INTER + INTRA:         -12.852
REMARK INTER:                  -8.749
REMARK INTRA:                  -4.102
REMARK UNBOUND:                -3.062
REMARK  Name = lig_assembled_74.pdb
REMARK  24 active torsions:
REMARK  status: ('A' for Active; 'I' for Inactive)
REMARK    1  A    between atoms: _2  and  _9
REMARK    2  A    between atoms: _4  and  _22
REMARK    3  A    between atoms: _5  and  _14
REMARK    4  A    between atoms: _6  and  _7
REMARK    5  A    between atoms: _6  and  _22
REMARK    6  A    between atoms: _9  and  _10
REMARK    7  A    between atoms: _10  and  _11
REMARK    8  A    between atoms: _10  and  _13
REMARK    9  A    between atoms: _11  and  _12
REMARK   10  A    between atoms: _12  and  _16
REMARK   11  A    between atoms: _13  and  _14
REMARK   12  A    between atoms: _14  and  _15
REMARK   13  A    between atoms: _18  and  _38
REMARK   14  A    between atoms: _20  and  _26
REMARK   15  A    between atoms: _21  and  _25
REMARK   16  A    between atoms: _25  and  _26
REMARK   17  A    between atoms: _28  and  _29
REMARK   18  A    between atoms: _30  and  _31
REMARK   19  A    between atoms: _32  and  _34
REMARK   20  A    between atoms: _34  and  _35
REMARK   21  A    between atoms: _34  and  _36
REMARK   22  A    between atoms: _36  and  _37
REMARK   23  A    between atoms: _36  and  _38
REMARK   24  A    between atoms: _39  and  _41
REMARK                            x       y       z     vdW  Elec       q    Type
REMARK                         _______ _______ _______ _____ _____    ______ ____
ROOT
ATOM      1  C   UNL     1      -6.037  11.281  26.416  0.00  0.00    +0.163 C 
ENDROOT
BRANCH   1   2
ATOM      2  O   UNL     1      -7.253  11.488  25.679  0.00  0.00    -0.388 OA
ATOM      3  H   UNL     1      -7.128  12.201  25.048  0.00  0.00    +0.210 HD
ENDBRANCH   1   2
BRANCH   1   4
ATOM      4  C   UNL     1      -4.979  12.332  26.038  0.00  0.00    +0.175 C 
BRANCH   4   5
ATOM      5  C   UNL     1      -4.478  12.155  24.597  0.00  0.00    +0.176 C 
ATOM      6  O   UNL     1      -5.555  12.539  23.699  0.00  0.00    -0.332 OA
ATOM      7  C   UNL     1      -5.222  12.535  22.272  0.00  0.00    +0.277 C 
ATOM      8  C   UNL     1      -4.656  11.156  21.852  0.00  0.00    +0.110 C 
ATOM      9  C   UNL     1      -3.529  10.691  22.797  0.00  0.00    +0.143 C 
ATOM     10  C   UNL     1      -3.982  10.737  24.256  0.00  0.00    +0.133 C 
BRANCH  10  11
ATOM     11  N   UNL     1      -2.873  10.376  25.153  0.00  0.00    -0.308 N 
ATOM     12  H   UNL     1      -2.097  11.019  25.226  0.00  0.00    +0.149 HD
ATOM     13  C   UNL     1      -2.824   9.253  25.875  0.00  0.00    +0.210 C 
ATOM     14  C   UNL     1      -4.009   8.282  25.721  0.00  0.00    +0.109 C 
ATOM     15  O   UNL     1      -1.888   8.983  26.629  0.00  0.00    -0.276 OA
ENDBRANCH  10  11
BRANCH   7  16
ATOM     16  C   UNL     1      -4.190  13.636  21.948  0.00  0.00    +0.414 C 
ATOM     17  O   UNL     1      -4.347  14.778  22.378  0.00  0.00    -0.240 OA
ATOM     18  O   UNL     1      -3.203  13.382  21.257  0.00  0.00    -0.240 OA
ENDBRANCH   7  16
BRANCH   9  19
ATOM     19  O   UNL     1      -3.142   9.357  22.466  0.00  0.00    -0.390 OA
ATOM     20  H   UNL     1      -2.192   9.321  22.338  0.00  0.00    +0.210 HD
ENDBRANCH   9  19
BRANCH   7  21
ATOM     21  O   UNL     1      -6.443  12.775  21.525  0.00  0.00    -0.343 OA
ATOM     22  C   UNL     1      -6.472  12.195  20.197  0.00  0.00    +0.198 C 
ENDBRANCH   7  21
ENDBRANCH   4   5
BRANCH   4  23
ATOM     23  O   UNL     1      -3.871  12.275  26.960  0.00  0.00    -0.387 OA
ATOM     24  H   UNL     1      -4.146  11.828  27.764  0.00  0.00    +0.210 HD
ENDBRANCH   4  23
ENDBRANCH   1   4
BRANCH   1  25
ATOM     25  C   UNL     1      -6.316  11.354  27.914  0.00  0.00    +0.141 C 
BRANCH  25  28
ATOM     26  C   UNL     1      -5.618  10.034  29.882  0.00  0.00    +0.401 C 
ATOM     27  O   UNL     1      -6.698  10.155  30.465  0.00  0.00    -0.226 OA
ATOM     28  N   UNL     1      -5.350  10.566  28.690  0.00  0.00    -0.279 N 
ATOM     29  H   UNL     1      -4.430  10.419  28.297  0.00  0.00    +0.152 HD
BRANCH  26  30
ATOM     30  O   UNL     1      -4.572   9.284  30.507  0.00  0.00    -0.444 OA
BRANCH  30  31
ATOM     31  C   UNL     1      -4.622   9.484  31.923  0.00  0.00    +0.292 C 
BRANCH  31  33
ATOM     32  N   UNL     1      -2.458  10.687  31.739  0.00  0.00    -0.131 NA
ATOM     33  C   UNL     1      -3.684  10.547  32.333  0.00  0.00    +0.120 A 
ATOM     34  C   UNL     1      -3.864  11.570  33.240  0.00  0.00    +0.137 A 
ATOM     35  N   UNL     1      -2.795  12.391  33.012  0.00  0.00    -0.251 N 
ATOM     36  N   UNL     1      -1.909  11.809  32.183  0.00  0.00    -0.065 NA
BRANCH  35  37
ATOM     37  C   UNL     1      -2.719  13.814  33.277  0.00  0.00    +0.149 C 
BRANCH  37  38
ATOM     38  C   UNL     1      -3.771  14.683  32.555  0.00  0.00    +0.021 C 
BRANCH  38  39
ATOM     39  C   UNL     1      -3.482  14.876  31.052  0.00  0.00    +0.125 C 
BRANCH  39  40
ATOM     40  C   UNL     1      -4.194  13.899  30.139  0.00  0.00    +0.305 C 
ATOM     41  O   UNL     1      -5.345  14.015  29.751  0.00  0.00    -0.251 OA
BRANCH  40  42
ATOM     42  O   UNL     1      -3.401  12.893  29.726  0.00  0.00    -0.481 OA
ATOM     43  H   UNL     1      -2.459  13.117  29.620  0.00  0.00    +0.295 HD
ENDBRANCH  40  42
ENDBRANCH  39  40
ENDBRANCH  38  39
BRANCH  38  44
ATOM     44  C   UNL     1      -3.933  16.029  33.321  0.00  0.00    +0.009 C 
BRANCH  44  45
ATOM     45  C   UNL     1      -3.946  17.303  32.451  0.00  0.00    -0.017 C 
ATOM     46  C   UNL     1      -5.348  17.902  32.321  0.00  0.00    +0.007 C 
ATOM     47  C   UNL     1      -3.003  18.363  33.032  0.00  0.00    +0.007 C 
ENDBRANCH  44  45
ENDBRANCH  38  44
ENDBRANCH  37  38
ENDBRANCH  35  37
ENDBRANCH  31  33
ENDBRANCH  30  31
ENDBRANCH  26  30
ENDBRANCH  25  28
ENDBRANCH   1  25
TORSDOF 20
