REMARK VINA RESULT:    -3.756      2.944      5.099
REMARK INTER + INTRA:          -9.871
REMARK INTER:                  -6.523
REMARK INTRA:                  -3.347
REMARK UNBOUND:                -3.040
REMARK  Name = lig_assembled_1.pdb
REMARK  18 active torsions:
REMARK  status: ('A' for Active; 'I' for Inactive)
REMARK    1  A    between atoms: _2  and  _9
REMARK    2  A    between atoms: _4  and  _15
REMARK    3  A    between atoms: _5  and  _9
REMARK    4  A    between atoms: _5  and  _10
REMARK    5  A    between atoms: _6  and  _7
REMARK    6  A    between atoms: _6  and  _15
REMARK    7  A    between atoms: _11  and  _31
REMARK    8  A    between atoms: _13  and  _19
REMARK    9  A    between atoms: _14  and  _18
REMARK   10  A    between atoms: _18  and  _19
REMARK   11  A    between atoms: _21  and  _22
REMARK   12  A    between atoms: _23  and  _24
REMARK   13  A    between atoms: _25  and  _27
REMARK   14  A    between atoms: _27  and  _28
REMARK   15  A    between atoms: _27  and  _29
REMARK   16  A    between atoms: _29  and  _30
REMARK   17  A    between atoms: _29  and  _31
REMARK   18  A    between atoms: _32  and  _34
REMARK                            x       y       z     vdW  Elec       q    Type
REMARK                         _______ _______ _______ _____ _____    ______ ____
ROOT
ATOM      1  C   UNL     1      -3.754  10.774  24.015  0.00  0.00    +0.175 C 
ENDROOT
BRANCH   1   2
ATOM      2  C   UNL     1      -4.113   9.605  24.943  0.00  0.00    +0.176 C 
ATOM      3  O   UNL     1      -2.874   8.963  25.352  0.00  0.00    -0.332 OA
ATOM      4  C   UNL     1      -3.014   7.881  26.332  0.00  0.00    +0.277 C 
ATOM      5  C   UNL     1      -4.013   6.814  25.821  0.00  0.00    +0.110 C 
ATOM      6  C   UNL     1      -5.334   7.453  25.345  0.00  0.00    +0.143 C 
ATOM      7  C   UNL     1      -5.072   8.567  24.331  0.00  0.00    +0.133 C 
BRANCH   7   8
ATOM      8  N   UNL     1      -6.331   9.225  23.951  0.00  0.00    -0.308 N 
ATOM      9  H   UNL     1      -6.847   9.710  24.672  0.00  0.00    +0.149 HD
ATOM     10  C   UNL     1      -6.838   9.225  22.715  0.00  0.00    +0.210 C 
ATOM     11  C   UNL     1      -6.042   8.456  21.644  0.00  0.00    +0.109 C 
ATOM     12  O   UNL     1      -7.888   9.797  22.423  0.00  0.00    -0.276 OA
ENDBRANCH   7   8
BRANCH   4  13
ATOM     13  C   UNL     1      -3.497   8.432  27.689  0.00  0.00    +0.414 C 
ATOM     14  O   UNL     1      -3.172   9.562  28.051  0.00  0.00    -0.240 OA
ATOM     15  O   UNL     1      -4.213   7.748  28.422  0.00  0.00    -0.240 OA
ENDBRANCH   4  13
BRANCH   4  16
ATOM     16  O   UNL     1      -1.716   7.253  26.495  0.00  0.00    -0.343 OA
ATOM     17  C   UNL     1      -1.741   5.804  26.557  0.00  0.00    +0.198 C 
ENDBRANCH   4  16
BRANCH   6  18
ATOM     18  O   UNL     1      -6.162   6.456  24.745  0.00  0.00    -0.390 OA
ATOM     19  H   UNL     1      -6.426   5.816  25.410  0.00  0.00    +0.210 HD
ENDBRANCH   6  18
ENDBRANCH   1   2
BRANCH   1  20
ATOM     20  O   UNL     1      -3.170  10.278  22.794  0.00  0.00    -0.387 OA
ATOM     21  H   UNL     1      -3.449   9.371  22.650  0.00  0.00    +0.210 HD
ENDBRANCH   1  20
BRANCH   1  22
ATOM     22  C   UNL     1      -2.803  11.778  24.688  0.00  0.00    +0.163 C 
BRANCH  22  23
ATOM     23  O   UNL     1      -2.971  11.767  26.115  0.00  0.00    -0.388 OA
ATOM     24  H   UNL     1      -3.371  10.937  26.385  0.00  0.00    +0.210 HD
ENDBRANCH  22  23
BRANCH  22  25
ATOM     25  C   UNL     1      -3.068  13.177  24.142  0.00  0.00    +0.141 C 
BRANCH  25  28
ATOM     26  C   UNL     1      -4.506  14.216  22.423  0.00  0.00    +0.401 C 
ATOM     27  O   UNL     1      -3.824  15.240  22.336  0.00  0.00    -0.226 OA
ATOM     28  N   UNL     1      -4.230  13.204  23.245  0.00  0.00    -0.279 N 
ATOM     29  H   UNL     1      -4.855  12.410  23.252  0.00  0.00    +0.152 HD
BRANCH  26  30
ATOM     30  O   UNL     1      -5.672  14.087  21.604  0.00  0.00    -0.444 OA
BRANCH  30  31
ATOM     31  C   UNL     1      -6.146  12.739  21.658  0.00  0.00    +0.292 C 
BRANCH  31  33
ATOM     32  N   UNL     1      -4.434  11.501  20.365  0.00  0.00    -0.131 NA
ATOM     33  C   UNL     1      -5.709  11.991  20.464  0.00  0.00    +0.120 A 
ATOM     34  C   UNL     1      -6.408  11.664  19.322  0.00  0.00    +0.137 A 
ATOM     35  N   UNL     1      -5.500  10.982  18.568  0.00  0.00    -0.249 N 
ATOM     36  N   UNL     1      -4.315  10.889  19.194  0.00  0.00    -0.065 NA
BRANCH  35  37
ATOM     37  C   UNL     1      -5.693  10.391  17.263  0.00  0.00    +0.173 C 
BRANCH  37  38
ATOM     38  C   UNL     1      -4.934   9.081  17.094  0.00  0.00    +0.179 C 
BRANCH  38  39
ATOM     39  O   UNL     1      -4.960   8.311  18.295  0.00  0.00    -0.393 OA
ATOM     40  H   UNL     1      -4.101   8.448  18.738  0.00  0.00    +0.209 HD
ENDBRANCH  38  39
ENDBRANCH  37  38
ENDBRANCH  35  37
ENDBRANCH  31  33
ENDBRANCH  30  31
ENDBRANCH  26  30
ENDBRANCH  25  28
ENDBRANCH  22  25
ENDBRANCH   1  22
TORSDOF 16
