REMARK VINA RESULT:    -5.527      2.966      7.916
REMARK INTER + INTRA:         -12.707
REMARK INTER:                  -9.208
REMARK INTRA:                  -3.499
REMARK UNBOUND:                -3.141
REMARK  Name = lig_assembled_91.pdb
REMARK  16 active torsions:
REMARK  status: ('A' for Active; 'I' for Inactive)
REMARK    1  A    between atoms: _2  and  _10
REMARK    2  A    between atoms: _5  and  _26
REMARK    3  A    between atoms: _7  and  _8
REMARK    4  A    between atoms: _7  and  _26
REMARK    5  A    between atoms: _22  and  _42
REMARK    6  A    between atoms: _24  and  _30
REMARK    7  A    between atoms: _25  and  _29
REMARK    8  A    between atoms: _29  and  _30
REMARK    9  A    between atoms: _32  and  _33
REMARK   10  A    between atoms: _34  and  _35
REMARK   11  A    between atoms: _36  and  _38
REMARK   12  A    between atoms: _38  and  _39
REMARK   13  A    between atoms: _38  and  _40
REMARK   14  A    between atoms: _40  and  _41
REMARK   15  A    between atoms: _40  and  _42
REMARK   16  A    between atoms: _43  and  _45
REMARK                            x       y       z     vdW  Elec       q    Type
REMARK                         _______ _______ _______ _____ _____    ______ ____
ROOT
ATOM      1  C   UNL     1      -5.705   8.695  22.890  0.00  0.00    +0.401 C 
ATOM      2  O   UNL     1      -5.658   8.247  21.742  0.00  0.00    -0.226 OA
ATOM      3  N   UNL     1      -6.752   9.353  23.391  0.00  0.00    -0.279 N 
ATOM      4  H   UNL     1      -6.700   9.674  24.347  0.00  0.00    +0.152 HD
ENDROOT
BRANCH   3   5
ATOM      5  C   UNL     1      -7.974   9.638  22.630  0.00  0.00    +0.141 C 
BRANCH   5   6
ATOM      6  C   UNL     1      -8.256  11.135  22.546  0.00  0.00    +0.163 C 
BRANCH   6   7
ATOM      7  O   UNL     1      -8.041  11.748  23.828  0.00  0.00    -0.388 OA
ATOM      8  H   UNL     1      -8.037  12.703  23.730  0.00  0.00    +0.210 HD
ENDBRANCH   6   7
BRANCH   6   9
ATOM      9  C   UNL     1      -7.352  11.769  21.474  0.00  0.00    +0.175 C 
BRANCH   9  10
ATOM     10  C   UNL     1      -6.027  12.276  22.062  0.00  0.00    +0.176 C 
ATOM     11  O   UNL     1      -6.267  13.588  22.641  0.00  0.00    -0.332 OA
ATOM     12  C   UNL     1      -5.131  14.187  23.347  0.00  0.00    +0.277 C 
ATOM     13  C   UNL     1      -3.888  14.241  22.425  0.00  0.00    +0.110 C 
ATOM     14  C   UNL     1      -3.612  12.876  21.761  0.00  0.00    +0.143 C 
ATOM     15  C   UNL     1      -4.861  12.344  21.058  0.00  0.00    +0.133 C 
BRANCH  15  16
ATOM     16  N   UNL     1      -4.610  11.004  20.504  0.00  0.00    -0.308 N 
ATOM     17  H   UNL     1      -4.324  10.276  21.143  0.00  0.00    +0.149 HD
ATOM     18  C   UNL     1      -4.735  10.688  19.212  0.00  0.00    +0.210 C 
ATOM     19  C   UNL     1      -5.146  11.827  18.260  0.00  0.00    +0.109 C 
ATOM     20  O   UNL     1      -4.532   9.554  18.779  0.00  0.00    -0.276 OA
ENDBRANCH  15  16
BRANCH  12  21
ATOM     21  C   UNL     1      -4.792  13.383  24.620  0.00  0.00    +0.414 C 
ATOM     22  O   UNL     1      -5.674  12.766  25.216  0.00  0.00    -0.240 OA
ATOM     23  O   UNL     1      -3.639  13.352  25.051  0.00  0.00    -0.240 OA
ENDBRANCH  12  21
BRANCH  14  24
ATOM     24  O   UNL     1      -2.556  13.009  20.807  0.00  0.00    -0.390 OA
ATOM     25  H   UNL     1      -1.924  12.297  20.928  0.00  0.00    +0.210 HD
ENDBRANCH  14  24
BRANCH  12  26
ATOM     26  O   UNL     1      -5.492  15.545  23.709  0.00  0.00    -0.343 OA
ATOM     27  C   UNL     1      -6.908  15.762  23.933  0.00  0.00    +0.198 C 
ENDBRANCH  12  26
ENDBRANCH   9  10
BRANCH   9  28
ATOM     28  O   UNL     1      -8.046  12.846  20.813  0.00  0.00    -0.387 OA
ATOM     29  H   UNL     1      -8.990  12.667  20.815  0.00  0.00    +0.210 HD
ENDBRANCH   9  28
ENDBRANCH   6   9
ENDBRANCH   5   6
ENDBRANCH   3   5
BRANCH   1  30
ATOM     30  O   UNL     1      -4.584   8.505  23.757  0.00  0.00    -0.444 OA
BRANCH  30  31
ATOM     31  C   UNL     1      -3.844   9.725  23.854  0.00  0.00    +0.292 C 
BRANCH  31  33
ATOM     32  N   UNL     1      -2.120  10.386  25.493  0.00  0.00    -0.131 NA
ATOM     33  C   UNL     1      -3.380   9.941  25.239  0.00  0.00    +0.121 A 
ATOM     34  C   UNL     1      -4.045   9.779  26.434  0.00  0.00    +0.143 A 
ATOM     35  N   UNL     1      -3.126  10.098  27.414  0.00  0.00    -0.218 N 
ATOM     36  N   UNL     1      -1.974  10.482  26.807  0.00  0.00    -0.060 NA
BRANCH  35  37
ATOM     37  C   UNL     1      -3.260  10.056  28.836  0.00  0.00    +0.085 A 
ATOM     38  C   UNL     1      -3.634  11.242  29.564  0.00  0.00    +0.026 A 
ATOM     39  C   UNL     1      -3.713  11.098  30.963  0.00  0.00    +0.074 A 
ATOM     40  C   UNL     1      -4.062  12.170  31.770  0.00  0.00    +0.028 A 
ATOM     41  C   UNL     1      -4.355  13.426  31.250  0.00  0.00    +0.002 A 
ATOM     42  C   UNL     1      -4.325  13.605  29.881  0.00  0.00    +0.001 A 
ATOM     43  N   UNL     1      -3.490   9.953  31.604  0.00  0.00    -0.247 NA
ATOM     44  C   UNL     1      -3.172   8.852  30.925  0.00  0.00    +0.074 A 
ATOM     45  C   UNL     1      -2.958   7.713  31.695  0.00  0.00    +0.028 A 
ATOM     46  C   UNL     1      -2.585   6.496  31.134  0.00  0.00    +0.002 A 
ATOM     47  C   UNL     1      -2.407   6.416  29.768  0.00  0.00    +0.001 A 
ATOM     48  C   UNL     1      -2.613   7.554  28.980  0.00  0.00    +0.012 A 
ATOM     49  C   UNL     1      -3.992  12.529  29.051  0.00  0.00    +0.012 A 
ATOM     50  C   UNL     1      -3.024   8.811  29.530  0.00  0.00    +0.026 A 
ENDBRANCH  35  37
ENDBRANCH  31  33
ENDBRANCH  30  31
ENDBRANCH   1  30
TORSDOF 14
