REMARK VINA RESULT:    -4.305      9.048     12.217
REMARK INTER + INTRA:          -9.945
REMARK INTER:                  -7.424
REMARK INTRA:                  -2.522
REMARK UNBOUND:                -2.494
REMARK  Name = lig_assembled_56.pdb
REMARK  16 active torsions:
REMARK  status: ('A' for Active; 'I' for Inactive)
REMARK    1  A    between atoms: _2  and  _10
REMARK    2  A    between atoms: _5  and  _18
REMARK    3  A    between atoms: _7  and  _8
REMARK    4  A    between atoms: _7  and  _18
REMARK    5  A    between atoms: _14  and  _34
REMARK    6  A    between atoms: _16  and  _22
REMARK    7  A    between atoms: _17  and  _21
REMARK    8  A    between atoms: _21  and  _22
REMARK    9  A    between atoms: _24  and  _25
REMARK   10  A    between atoms: _26  and  _27
REMARK   11  A    between atoms: _28  and  _30
REMARK   12  A    between atoms: _30  and  _31
REMARK   13  A    between atoms: _30  and  _32
REMARK   14  A    between atoms: _32  and  _33
REMARK   15  A    between atoms: _32  and  _34
REMARK   16  A    between atoms: _35  and  _37
REMARK                            x       y       z     vdW  Elec       q    Type
REMARK                         _______ _______ _______ _____ _____    ______ ____
ROOT
ATOM      1  C   UNL     1      -4.392  11.070  16.338  0.00  0.00    +0.163 C 
ENDROOT
BRANCH   1   2
ATOM      2  O   UNL     1      -5.115  11.497  17.504  0.00  0.00    -0.388 OA
ATOM      3  H   UNL     1      -4.775  11.039  18.277  0.00  0.00    +0.210 HD
ENDBRANCH   1   2
BRANCH   1   4
ATOM      4  C   UNL     1      -3.974  12.282  15.511  0.00  0.00    +0.141 C 
BRANCH   4   7
ATOM      5  C   UNL     1      -2.990  12.160  13.248  0.00  0.00    +0.401 C 
ATOM      6  O   UNL     1      -3.981  12.636  12.689  0.00  0.00    -0.226 OA
ATOM      7  N   UNL     1      -2.903  11.954  14.562  0.00  0.00    -0.279 N 
ATOM      8  H   UNL     1      -2.051  11.550  14.926  0.00  0.00    +0.152 HD
BRANCH   5   9
ATOM      9  O   UNL     1      -1.856  11.796  12.457  0.00  0.00    -0.444 OA
BRANCH   9  10
ATOM     10  C   UNL     1      -1.891  12.504  11.215  0.00  0.00    +0.292 C 
BRANCH  10  12
ATOM     11  N   UNL     1       0.393  13.231  10.605  0.00  0.00    -0.131 NA
ATOM     12  C   UNL     1      -0.817  13.513  11.169  0.00  0.00    +0.121 A 
ATOM     13  C   UNL     1      -0.807  14.810  11.629  0.00  0.00    +0.143 A 
ATOM     14  N   UNL     1       0.440  15.293  11.303  0.00  0.00    -0.220 N 
ATOM     15  N   UNL     1       1.152  14.315  10.692  0.00  0.00    -0.060 NA
BRANCH  14  16
ATOM     16  C   UNL     1       0.976  16.586  11.518  0.00  0.00    +0.070 A 
ATOM     17  C   UNL     1       2.348  16.776  11.700  0.00  0.00    +0.047 A 
ATOM     18  C   UNL     1       2.802  18.066  11.922  0.00  0.00    +0.113 A 
ATOM     19  N   UNL     1       1.999  19.149  11.971  0.00  0.00    -0.263 NA
ATOM     20  C   UNL     1       0.677  18.939  11.790  0.00  0.00    +0.113 A 
ATOM     21  C   UNL     1       0.121  17.692  11.561  0.00  0.00    +0.047 A 
ENDBRANCH  14  16
ENDBRANCH  10  12
ENDBRANCH   9  10
ENDBRANCH   5   9
ENDBRANCH   4   7
ENDBRANCH   1   4
BRANCH   1  22
ATOM     22  C   UNL     1      -5.249  10.129  15.473  0.00  0.00    +0.175 C 
BRANCH  22  23
ATOM     23  C   UNL     1      -4.437   8.943  14.932  0.00  0.00    +0.176 C 
ATOM     24  O   UNL     1      -4.123   9.215  13.538  0.00  0.00    -0.332 OA
ATOM     25  C   UNL     1      -3.256   8.233  12.880  0.00  0.00    +0.277 C 
ATOM     26  C   UNL     1      -3.852   6.810  13.015  0.00  0.00    +0.110 C 
ATOM     27  C   UNL     1      -4.231   6.487  14.475  0.00  0.00    +0.143 C 
ATOM     28  C   UNL     1      -5.131   7.574  15.062  0.00  0.00    +0.133 C 
BRANCH  28  29
ATOM     29  N   UNL     1      -5.415   7.300  16.479  0.00  0.00    -0.308 N 
ATOM     30  H   UNL     1      -4.631   7.244  17.115  0.00  0.00    +0.149 HD
ATOM     31  C   UNL     1      -6.639   7.119  16.981  0.00  0.00    +0.210 C 
ATOM     32  C   UNL     1      -7.810   7.185  15.982  0.00  0.00    +0.109 C 
ATOM     33  O   UNL     1      -6.848   6.905  18.175  0.00  0.00    -0.276 OA
ENDBRANCH  28  29
BRANCH  25  34
ATOM     34  C   UNL     1      -1.839   8.258  13.491  0.00  0.00    +0.414 C 
ATOM     35  O   UNL     1      -1.016   7.397  13.183  0.00  0.00    -0.240 OA
ATOM     36  O   UNL     1      -1.520   9.139  14.290  0.00  0.00    -0.240 OA
ENDBRANCH  25  34
BRANCH  27  37
ATOM     37  O   UNL     1      -4.912   5.232  14.530  0.00  0.00    -0.390 OA
ATOM     38  H   UNL     1      -4.341   4.542  14.184  0.00  0.00    +0.210 HD
ENDBRANCH  27  37
BRANCH  25  39
ATOM     39  O   UNL     1      -3.187   8.568  11.471  0.00  0.00    -0.343 OA
ATOM     40  C   UNL     1      -4.208   9.488  11.009  0.00  0.00    +0.198 C 
ENDBRANCH  25  39
ENDBRANCH  22  23
BRANCH  22  41
ATOM     41  O   UNL     1      -5.845  10.861  14.384  0.00  0.00    -0.387 OA
ATOM     42  H   UNL     1      -6.524  11.448  14.726  0.00  0.00    +0.210 HD
ENDBRANCH  22  41
ENDBRANCH   1  22
TORSDOF 14
