REMARK VINA RESULT:    -4.590      2.675      5.341
REMARK INTER + INTRA:         -10.913
REMARK INTER:                  -8.046
REMARK INTRA:                  -2.867
REMARK UNBOUND:                -2.299
REMARK  Name = lig_assembled_32.pdb
REMARK  19 active torsions:
REMARK  status: ('A' for Active; 'I' for Inactive)
REMARK    1  A    between atoms: _2  and  _9
REMARK    2  A    between atoms: _4  and  _17
REMARK    3  A    between atoms: _5  and  _10
REMARK    4  A    between atoms: _5  and  _11
REMARK    5  A    between atoms: _6  and  _7
REMARK    6  A    between atoms: _6  and  _17
REMARK    7  A    between atoms: _9  and  _10
REMARK    8  A    between atoms: _13  and  _33
REMARK    9  A    between atoms: _15  and  _21
REMARK   10  A    between atoms: _16  and  _20
REMARK   11  A    between atoms: _20  and  _21
REMARK   12  A    between atoms: _23  and  _24
REMARK   13  A    between atoms: _25  and  _26
REMARK   14  A    between atoms: _27  and  _29
REMARK   15  A    between atoms: _29  and  _30
REMARK   16  A    between atoms: _29  and  _31
REMARK   17  A    between atoms: _31  and  _32
REMARK   18  A    between atoms: _31  and  _33
REMARK   19  A    between atoms: _34  and  _36
REMARK                            x       y       z     vdW  Elec       q    Type
REMARK                         _______ _______ _______ _____ _____    ______ ____
ROOT
ATOM      1  C   UNL     1      -1.890   8.921  27.524  0.00  0.00    +0.163 C 
ENDROOT
BRANCH   1   2
ATOM      2  O   UNL     1      -1.723   8.017  26.419  0.00  0.00    -0.388 OA
ATOM      3  H   UNL     1      -0.828   7.670  26.421  0.00  0.00    +0.210 HD
ENDBRANCH   1   2
BRANCH   1   4
ATOM      4  C   UNL     1      -2.727  10.144  27.112  0.00  0.00    +0.175 C 
BRANCH   4   5
ATOM      5  C   UNL     1      -3.770   9.797  26.039  0.00  0.00    +0.176 C 
ATOM      6  O   UNL     1      -3.102   9.803  24.748  0.00  0.00    -0.332 OA
ATOM      7  C   UNL     1      -3.923   9.387  23.607  0.00  0.00    +0.277 C 
ATOM      8  C   UNL     1      -5.215  10.238  23.532  0.00  0.00    +0.110 C 
ATOM      9  C   UNL     1      -5.944  10.287  24.892  0.00  0.00    +0.143 C 
ATOM     10  C   UNL     1      -4.996  10.728  26.007  0.00  0.00    +0.133 C 
BRANCH  10  11
ATOM     11  N   UNL     1      -5.678  10.687  27.310  0.00  0.00    -0.308 N 
ATOM     12  H   UNL     1      -5.974   9.786  27.660  0.00  0.00    +0.149 HD
ATOM     13  C   UNL     1      -5.933  11.762  28.061  0.00  0.00    +0.210 C 
ATOM     14  C   UNL     1      -5.493  13.123  27.488  0.00  0.00    +0.109 C 
ATOM     15  O   UNL     1      -6.493  11.696  29.155  0.00  0.00    -0.276 OA
ENDBRANCH  10  11
BRANCH   7  16
ATOM     16  C   UNL     1      -4.295   7.894  23.716  0.00  0.00    +0.414 C 
ATOM     17  O   UNL     1      -3.525   7.102  24.259  0.00  0.00    -0.240 OA
ATOM     18  O   UNL     1      -5.363   7.481  23.262  0.00  0.00    -0.240 OA
ENDBRANCH   7  16
BRANCH   7  19
ATOM     19  O   UNL     1      -3.157   9.613  22.396  0.00  0.00    -0.343 OA
ATOM     20  C   UNL     1      -3.467  10.844  21.695  0.00  0.00    +0.198 C 
ENDBRANCH   7  19
BRANCH   9  21
ATOM     21  O   UNL     1      -7.040  11.199  24.818  0.00  0.00    -0.390 OA
ATOM     22  H   UNL     1      -7.216  11.416  23.899  0.00  0.00    +0.210 HD
ENDBRANCH   9  21
ENDBRANCH   4   5
BRANCH   4  23
ATOM     23  O   UNL     1      -1.865  11.200  26.644  0.00  0.00    -0.387 OA
ATOM     24  H   UNL     1      -1.202  10.835  26.053  0.00  0.00    +0.210 HD
ENDBRANCH   4  23
ENDBRANCH   1   4
BRANCH   1  25
ATOM     25  C   UNL     1      -2.571   8.204  28.685  0.00  0.00    +0.141 C 
BRANCH  25  28
ATOM     26  C   UNL     1      -4.018   9.344  30.331  0.00  0.00    +0.401 C 
ATOM     27  O   UNL     1      -5.061   8.844  29.902  0.00  0.00    -0.226 OA
ATOM     28  N   UNL     1      -2.811   9.106  29.819  0.00  0.00    -0.279 N 
ATOM     29  H   UNL     1      -2.016   9.571  30.234  0.00  0.00    +0.152 HD
BRANCH  26  30
ATOM     30  O   UNL     1      -4.085  10.241  31.443  0.00  0.00    -0.444 OA
BRANCH  30  31
ATOM     31  C   UNL     1      -2.782  10.764  31.714  0.00  0.00    +0.292 C 
BRANCH  31  33
ATOM     32  N   UNL     1      -1.816  12.938  32.398  0.00  0.00    -0.131 NA
ATOM     33  C   UNL     1      -2.825  12.236  31.791  0.00  0.00    +0.120 A 
ATOM     34  C   UNL     1      -3.774  13.121  31.329  0.00  0.00    +0.137 A 
ATOM     35  N   UNL     1      -3.291  14.339  31.698  0.00  0.00    -0.251 N 
ATOM     36  N   UNL     1      -2.115  14.228  32.338  0.00  0.00    -0.065 NA
BRANCH  35  37
ATOM     37  C   UNL     1      -3.879  15.640  31.476  0.00  0.00    +0.156 C 
BRANCH  37  38
ATOM     38  C   UNL     1      -4.841  15.638  30.295  0.00  0.00    +0.143 C 
BRANCH  38  39
ATOM     39  C   UNL     1      -6.250  15.831  30.775  0.00  0.00    +0.306 C 
ATOM     40  O   UNL     1      -6.603  16.680  31.578  0.00  0.00    -0.251 OA
BRANCH  39  41
ATOM     41  O   UNL     1      -7.114  14.945  30.230  0.00  0.00    -0.481 OA
ATOM     42  H   UNL     1      -7.159  14.089  30.698  0.00  0.00    +0.295 HD
ENDBRANCH  39  41
ENDBRANCH  38  39
ENDBRANCH  37  38
ENDBRANCH  35  37
ENDBRANCH  31  33
ENDBRANCH  30  31
ENDBRANCH  26  30
ENDBRANCH  25  28
ENDBRANCH   1  25
TORSDOF 17
