REMARK VINA RESULT:    -3.672      2.380      2.970
REMARK INTER + INTRA:         -10.786
REMARK INTER:                  -7.207
REMARK INTRA:                  -3.579
REMARK UNBOUND:                -4.108
REMARK  Name = lig_assembled_53.pdb
REMARK  18 active torsions:
REMARK  status: ('A' for Active; 'I' for Inactive)
REMARK    1  A    between atoms: _2  and  _9
REMARK    2  A    between atoms: _4  and  _16
REMARK    3  A    between atoms: _5  and  _9
REMARK    4  A    between atoms: _5  and  _10
REMARK    5  A    between atoms: _6  and  _7
REMARK    6  A    between atoms: _6  and  _16
REMARK    7  A    between atoms: _12  and  _32
REMARK    8  A    between atoms: _14  and  _20
REMARK    9  A    between atoms: _15  and  _19
REMARK   10  A    between atoms: _19  and  _20
REMARK   11  A    between atoms: _22  and  _23
REMARK   12  A    between atoms: _24  and  _25
REMARK   13  A    between atoms: _26  and  _28
REMARK   14  A    between atoms: _28  and  _29
REMARK   15  A    between atoms: _28  and  _30
REMARK   16  A    between atoms: _30  and  _31
REMARK   17  A    between atoms: _30  and  _32
REMARK   18  A    between atoms: _33  and  _35
REMARK                            x       y       z     vdW  Elec       q    Type
REMARK                         _______ _______ _______ _____ _____    ______ ____
ROOT
ATOM      1  C   UNL     1      -3.848  10.759  24.054  0.00  0.00    +0.175 C 
ENDROOT
BRANCH   1   2
ATOM      2  C   UNL     1      -3.773  10.065  25.422  0.00  0.00    +0.176 C 
ATOM      3  O   UNL     1      -2.875   8.928  25.298  0.00  0.00    -0.332 OA
ATOM      4  C   UNL     1      -2.597   8.201  26.541  0.00  0.00    +0.277 C 
ATOM      5  C   UNL     1      -3.918   7.754  27.214  0.00  0.00    +0.110 C 
ATOM      6  C   UNL     1      -4.917   8.923  27.339  0.00  0.00    +0.143 C 
ATOM      7  C   UNL     1      -5.131   9.610  25.989  0.00  0.00    +0.133 C 
BRANCH   7   8
ATOM      8  N   UNL     1      -6.017  10.775  26.138  0.00  0.00    -0.308 N 
ATOM      9  H   UNL     1      -5.707  11.530  26.733  0.00  0.00    +0.149 HD
ATOM     10  C   UNL     1      -7.204  10.899  25.538  0.00  0.00    +0.210 C 
ATOM     11  C   UNL     1      -7.659   9.719  24.658  0.00  0.00    +0.109 C 
ATOM     12  O   UNL     1      -7.919  11.893  25.669  0.00  0.00    -0.276 OA
ENDBRANCH   7   8
BRANCH   4  13
ATOM     13  C   UNL     1      -1.792   9.081  27.519  0.00  0.00    +0.414 C 
ATOM     14  O   UNL     1      -1.880   8.899  28.733  0.00  0.00    -0.240 OA
ATOM     15  O   UNL     1      -1.053   9.971  27.096  0.00  0.00    -0.240 OA
ENDBRANCH   4  13
BRANCH   4  16
ATOM     16  O   UNL     1      -1.831   7.016  26.205  0.00  0.00    -0.343 OA
ATOM     17  C   UNL     1      -2.258   5.802  26.872  0.00  0.00    +0.198 C 
ENDBRANCH   4  16
BRANCH   6  18
ATOM     18  O   UNL     1      -6.170   8.437  27.822  0.00  0.00    -0.390 OA
ATOM     19  H   UNL     1      -6.885   8.929  27.413  0.00  0.00    +0.210 HD
ENDBRANCH   6  18
ENDBRANCH   1   2
BRANCH   1  20
ATOM     20  O   UNL     1      -3.656   9.797  22.998  0.00  0.00    -0.387 OA
ATOM     21  H   UNL     1      -3.678  10.245  22.149  0.00  0.00    +0.210 HD
ENDBRANCH   1  20
BRANCH   1  22
ATOM     22  C   UNL     1      -2.823  11.899  23.926  0.00  0.00    +0.163 C 
BRANCH  22  23
ATOM     23  O   UNL     1      -2.153  12.130  25.176  0.00  0.00    -0.388 OA
ATOM     24  H   UNL     1      -1.248  12.405  25.009  0.00  0.00    +0.210 HD
ENDBRANCH  22  23
BRANCH  22  25
ATOM     25  C   UNL     1      -3.530  13.171  23.471  0.00  0.00    +0.141 C 
BRANCH  25  28
ATOM     26  C   UNL     1      -5.479  13.201  21.953  0.00  0.00    +0.401 C 
ATOM     27  O   UNL     1      -6.276  13.541  22.830  0.00  0.00    -0.226 OA
ATOM     28  N   UNL     1      -4.178  12.999  22.165  0.00  0.00    -0.279 N 
ATOM     29  H   UNL     1      -3.606  12.712  21.383  0.00  0.00    +0.152 HD
BRANCH  26  30
ATOM     30  O   UNL     1      -5.958  13.001  20.620  0.00  0.00    -0.444 OA
BRANCH  30  31
ATOM     31  C   UNL     1      -6.999  12.021  20.628  0.00  0.00    +0.292 C 
BRANCH  31  33
ATOM     32  N   UNL     1      -5.131  10.433  20.273  0.00  0.00    -0.131 NA
ATOM     33  C   UNL     1      -6.429  10.661  20.644  0.00  0.00    +0.120 A 
ATOM     34  C   UNL     1      -7.013   9.465  20.995  0.00  0.00    +0.137 A 
ATOM     35  N   UNL     1      -6.043   8.538  20.755  0.00  0.00    -0.241 N 
ATOM     36  N   UNL     1      -4.898   9.132  20.365  0.00  0.00    -0.065 NA
BRANCH  35  37
ATOM     37  C   UNL     1      -6.029   7.111  21.003  0.00  0.00    +0.265 C 
BRANCH  37  38
ATOM     38  C   UNL     1      -5.334   6.684  22.268  0.00  0.00    +0.326 C 
ATOM     39  O   UNL     1      -5.819   6.041  23.187  0.00  0.00    -0.249 OA
BRANCH  38  40
ATOM     40  O   UNL     1      -4.044   7.108  22.321  0.00  0.00    -0.479 OA
ATOM     41  H   UNL     1      -3.363   6.413  22.235  0.00  0.00    +0.295 HD
ENDBRANCH  38  40
ENDBRANCH  37  38
ENDBRANCH  35  37
ENDBRANCH  31  33
ENDBRANCH  30  31
ENDBRANCH  26  30
ENDBRANCH  25  28
ENDBRANCH  22  25
ENDBRANCH   1  22
TORSDOF 16
