REMARK VINA RESULT:    -4.462      3.777     11.073
REMARK INTER + INTRA:         -10.104
REMARK INTER:                  -7.820
REMARK INTRA:                  -2.284
REMARK UNBOUND:                -2.381
REMARK  Name = lig_assembled_7.pdb
REMARK  19 active torsions:
REMARK  status: ('A' for Active; 'I' for Inactive)
REMARK    1  A    between atoms: _2  and  _9
REMARK    2  A    between atoms: _4  and  _21
REMARK    3  A    between atoms: _5  and  _16
REMARK    4  A    between atoms: _6  and  _7
REMARK    5  A    between atoms: _6  and  _21
REMARK    6  A    between atoms: _10  and  _11
REMARK    7  A    between atoms: _13  and  _14
REMARK    8  A    between atoms: _17  and  _37
REMARK    9  A    between atoms: _19  and  _25
REMARK   10  A    between atoms: _20  and  _24
REMARK   11  A    between atoms: _24  and  _25
REMARK   12  A    between atoms: _27  and  _28
REMARK   13  A    between atoms: _29  and  _30
REMARK   14  A    between atoms: _31  and  _33
REMARK   15  A    between atoms: _33  and  _34
REMARK   16  A    between atoms: _33  and  _35
REMARK   17  A    between atoms: _35  and  _36
REMARK   18  A    between atoms: _35  and  _37
REMARK   19  A    between atoms: _38  and  _40
REMARK                            x       y       z     vdW  Elec       q    Type
REMARK                         _______ _______ _______ _____ _____    ______ ____
ROOT
ATOM      1  C   UNL     1      -2.923  10.998  26.066  0.00  0.00    +0.163 C 
ENDROOT
BRANCH   1   2
ATOM      2  O   UNL     1      -2.000  11.857  25.376  0.00  0.00    -0.388 OA
ATOM      3  H   UNL     1      -2.330  12.039  24.493  0.00  0.00    +0.210 HD
ENDBRANCH   1   2
BRANCH   1   4
ATOM      4  C   UNL     1      -2.193  10.211  27.149  0.00  0.00    +0.141 C 
BRANCH   4   7
ATOM      5  C   UNL     1      -2.959   9.055  29.194  0.00  0.00    +0.401 C 
ATOM      6  O   UNL     1      -2.280   8.046  28.992  0.00  0.00    -0.226 OA
ATOM      7  N   UNL     1      -2.984  10.112  28.381  0.00  0.00    -0.279 N 
ATOM      8  H   UNL     1      -3.581  10.890  28.628  0.00  0.00    +0.152 HD
BRANCH   5   9
ATOM      9  O   UNL     1      -3.782   9.116  30.362  0.00  0.00    -0.444 OA
BRANCH   9  10
ATOM     10  C   UNL     1      -3.000   9.562  31.474  0.00  0.00    +0.292 C 
BRANCH  10  12
ATOM     11  N   UNL     1      -4.566  10.963  32.763  0.00  0.00    -0.131 NA
ATOM     12  C   UNL     1      -3.483  10.873  31.946  0.00  0.00    +0.121 A 
ATOM     13  C   UNL     1      -3.002  12.145  31.704  0.00  0.00    +0.143 A 
ATOM     14  N   UNL     1      -3.864  12.994  32.365  0.00  0.00    -0.219 N 
ATOM     15  N   UNL     1      -4.773  12.241  33.034  0.00  0.00    -0.060 NA
BRANCH  14  16
ATOM     16  C   UNL     1      -3.878  14.426  32.413  0.00  0.00    +0.073 A 
ATOM     17  C   UNL     1      -4.669  15.150  31.470  0.00  0.00    -0.024 A 
ATOM     18  C   UNL     1      -4.690  16.561  31.510  0.00  0.00    +0.008 A 
ATOM     19  C   UNL     1      -3.961  17.274  32.459  0.00  0.00    -0.050 A 
ATOM     20  C   UNL     1      -4.008  18.772  32.475  0.00  0.00    +0.044 C 
ATOM     21  C   UNL     1      -3.193  16.564  33.378  0.00  0.00    +0.008 A 
ATOM     22  C   UNL     1      -5.558  14.511  30.425  0.00  0.00    +0.046 C 
ATOM     23  C   UNL     1      -3.116  15.151  33.365  0.00  0.00    -0.024 A 
ATOM     24  C   UNL     1      -2.132  14.590  34.360  0.00  0.00    +0.046 C 
ENDBRANCH  14  16
ENDBRANCH  10  12
ENDBRANCH   9  10
ENDBRANCH   5   9
ENDBRANCH   4   7
ENDBRANCH   1   4
BRANCH   1  25
ATOM     25  C   UNL     1      -3.599  10.021  25.088  0.00  0.00    +0.175 C 
BRANCH  25  26
ATOM     26  C   UNL     1      -4.406  10.752  24.006  0.00  0.00    +0.176 C 
ATOM     27  O   UNL     1      -3.464  11.377  23.091  0.00  0.00    -0.332 OA
ATOM     28  C   UNL     1      -4.057  12.038  21.924  0.00  0.00    +0.277 C 
ATOM     29  C   UNL     1      -5.118  13.073  22.370  0.00  0.00    +0.110 C 
ATOM     30  C   UNL     1      -6.124  12.464  23.369  0.00  0.00    +0.143 C 
ATOM     31  C   UNL     1      -5.400  11.800  24.541  0.00  0.00    +0.133 C 
BRANCH  31  32
ATOM     32  N   UNL     1      -6.365  11.148  25.440  0.00  0.00    -0.308 N 
ATOM     33  H   UNL     1      -6.837  10.321  25.105  0.00  0.00    +0.149 HD
ATOM     34  C   UNL     1      -6.657  11.579  26.670  0.00  0.00    +0.210 C 
ATOM     35  C   UNL     1      -5.940  12.858  27.142  0.00  0.00    +0.109 C 
ATOM     36  O   UNL     1      -7.459  11.004  27.407  0.00  0.00    -0.276 OA
ENDBRANCH  31  32
BRANCH  28  37
ATOM     37  C   UNL     1      -4.709  11.004  20.983  0.00  0.00    +0.414 C 
ATOM     38  O   UNL     1      -5.923  11.025  20.785  0.00  0.00    -0.240 OA
ATOM     39  O   UNL     1      -4.021  10.150  20.421  0.00  0.00    -0.240 OA
ENDBRANCH  28  37
BRANCH  30  40
ATOM     40  O   UNL     1      -6.987  13.487  23.868  0.00  0.00    -0.390 OA
ATOM     41  H   UNL     1      -7.902  13.234  23.721  0.00  0.00    +0.210 HD
ENDBRANCH  30  40
BRANCH  28  42
ATOM     42  O   UNL     1      -2.999  12.740  21.221  0.00  0.00    -0.343 OA
ATOM     43  C   UNL     1      -3.011  14.181  21.379  0.00  0.00    +0.198 C 
ENDBRANCH  28  42
ENDBRANCH  25  26
BRANCH  25  44
ATOM     44  O   UNL     1      -4.449   9.106  25.809  0.00  0.00    -0.387 OA
ATOM     45  H   UNL     1      -5.348   9.176  25.478  0.00  0.00    +0.210 HD
ENDBRANCH  25  44
ENDBRANCH   1  25
TORSDOF 14
