REMARK VINA RESULT:    -4.970      2.446      3.230
REMARK INTER + INTRA:         -11.096
REMARK INTER:                  -8.537
REMARK INTRA:                  -2.559
REMARK UNBOUND:                -2.494
REMARK  Name = lig_assembled_56.pdb
REMARK  16 active torsions:
REMARK  status: ('A' for Active; 'I' for Inactive)
REMARK    1  A    between atoms: _2  and  _10
REMARK    2  A    between atoms: _5  and  _18
REMARK    3  A    between atoms: _7  and  _8
REMARK    4  A    between atoms: _7  and  _18
REMARK    5  A    between atoms: _14  and  _34
REMARK    6  A    between atoms: _16  and  _22
REMARK    7  A    between atoms: _17  and  _21
REMARK    8  A    between atoms: _21  and  _22
REMARK    9  A    between atoms: _24  and  _25
REMARK   10  A    between atoms: _26  and  _27
REMARK   11  A    between atoms: _28  and  _30
REMARK   12  A    between atoms: _30  and  _31
REMARK   13  A    between atoms: _30  and  _32
REMARK   14  A    between atoms: _32  and  _33
REMARK   15  A    between atoms: _32  and  _34
REMARK   16  A    between atoms: _35  and  _37
REMARK                            x       y       z     vdW  Elec       q    Type
REMARK                         _______ _______ _______ _____ _____    ______ ____
ROOT
ATOM      1  C   UNL     1      -2.969  11.938  24.117  0.00  0.00    +0.163 C 
ENDROOT
BRANCH   1   2
ATOM      2  O   UNL     1      -2.031  11.871  25.203  0.00  0.00    -0.388 OA
ATOM      3  H   UNL     1      -2.502  11.705  26.024  0.00  0.00    +0.210 HD
ENDBRANCH   1   2
BRANCH   1   4
ATOM      4  C   UNL     1      -3.884  13.146  24.292  0.00  0.00    +0.141 C 
BRANCH   4   7
ATOM      5  C   UNL     1      -5.301  13.980  22.447  0.00  0.00    +0.401 C 
ATOM      6  O   UNL     1      -4.589  14.961  22.219  0.00  0.00    -0.226 OA
ATOM      7  N   UNL     1      -5.050  13.083  23.401  0.00  0.00    -0.279 N 
ATOM      8  H   UNL     1      -5.698  12.316  23.518  0.00  0.00    +0.152 HD
BRANCH   5   9
ATOM      9  O   UNL     1      -6.474  13.773  21.656  0.00  0.00    -0.444 OA
BRANCH   9  10
ATOM     10  C   UNL     1      -6.774  12.376  21.602  0.00  0.00    +0.292 C 
BRANCH  10  12
ATOM     11  N   UNL     1      -5.105  10.692  20.897  0.00  0.00    -0.131 NA
ATOM     12  C   UNL     1      -5.950  11.713  20.575  0.00  0.00    +0.121 A 
ATOM     13  C   UNL     1      -5.869  11.953  19.221  0.00  0.00    +0.143 A 
ATOM     14  N   UNL     1      -4.964  11.029  18.751  0.00  0.00    -0.220 N 
ATOM     15  N   UNL     1      -4.507  10.283  19.787  0.00  0.00    -0.060 NA
BRANCH  14  16
ATOM     16  C   UNL     1      -4.527  10.811  17.421  0.00  0.00    +0.070 A 
ATOM     17  C   UNL     1      -4.383   9.517  16.915  0.00  0.00    +0.047 A 
ATOM     18  C   UNL     1      -3.936   9.375  15.610  0.00  0.00    +0.113 A 
ATOM     19  N   UNL     1      -3.635  10.412  14.802  0.00  0.00    -0.263 NA
ATOM     20  C   UNL     1      -3.785  11.652  15.315  0.00  0.00    +0.113 A 
ATOM     21  C   UNL     1      -4.225  11.903  16.603  0.00  0.00    +0.047 A 
ENDBRANCH  14  16
ENDBRANCH  10  12
ENDBRANCH   9  10
ENDBRANCH   5   9
ENDBRANCH   4   7
ENDBRANCH   1   4
BRANCH   1  22
ATOM     22  C   UNL     1      -3.817  10.657  24.042  0.00  0.00    +0.175 C 
BRANCH  22  23
ATOM     23  C   UNL     1      -3.850   9.906  25.381  0.00  0.00    +0.176 C 
ATOM     24  O   UNL     1      -2.878   8.827  25.313  0.00  0.00    -0.332 OA
ATOM     25  C   UNL     1      -2.694   8.060  26.549  0.00  0.00    +0.277 C 
ATOM     26  C   UNL     1      -4.051   7.512  27.053  0.00  0.00    +0.110 C 
ATOM     27  C   UNL     1      -5.125   8.618  27.113  0.00  0.00    +0.143 C 
ATOM     28  C   UNL     1      -5.232   9.353  25.776  0.00  0.00    +0.133 C 
BRANCH  28  29
ATOM     29  N   UNL     1      -6.196  10.460  25.871  0.00  0.00    -0.308 N 
ATOM     30  H   UNL     1      -6.061  11.141  26.605  0.00  0.00    +0.149 HD
ATOM     31  C   UNL     1      -7.238  10.623  25.052  0.00  0.00    +0.210 C 
ATOM     32  C   UNL     1      -7.432   9.554  23.961  0.00  0.00    +0.109 C 
ATOM     33  O   UNL     1      -8.021  11.569  25.147  0.00  0.00    -0.276 OA
ENDBRANCH  28  29
BRANCH  25  34
ATOM     34  C   UNL     1      -2.052   8.937  27.645  0.00  0.00    +0.414 C 
ATOM     35  O   UNL     1      -2.440   8.855  28.810  0.00  0.00    -0.240 OA
ATOM     36  O   UNL     1      -1.148   9.724  27.364  0.00  0.00    -0.240 OA
ENDBRANCH  25  34
BRANCH  27  37
ATOM     37  O   UNL     1      -6.392   8.042  27.435  0.00  0.00    -0.390 OA
ATOM     38  H   UNL     1      -6.492   7.207  26.973  0.00  0.00    +0.210 HD
ENDBRANCH  27  37
BRANCH  25  39
ATOM     39  O   UNL     1      -1.827   6.935  26.254  0.00  0.00    -0.343 OA
ATOM     40  C   UNL     1      -1.959   5.807  27.156  0.00  0.00    +0.198 C 
ENDBRANCH  25  39
ENDBRANCH  22  23
BRANCH  22  41
ATOM     41  O   UNL     1      -3.321   9.793  23.000  0.00  0.00    -0.387 OA
ATOM     42  H   UNL     1      -3.896   9.852  22.234  0.00  0.00    +0.210 HD
ENDBRANCH  22  41
ENDBRANCH   1  22
TORSDOF 14
