REMARK VINA RESULT:    -4.956      3.012      6.940
REMARK INTER + INTRA:         -12.007
REMARK INTER:                  -8.238
REMARK INTRA:                  -3.769
REMARK UNBOUND:                -2.560
REMARK  Name = lig_assembled_18.pdb
REMARK  19 active torsions:
REMARK  status: ('A' for Active; 'I' for Inactive)
REMARK    1  A    between atoms: _2  and  _10
REMARK    2  A    between atoms: _3  and  _12
REMARK    3  A    between atoms: _5  and  _21
REMARK    4  A    between atoms: _7  and  _8
REMARK    5  A    between atoms: _7  and  _21
REMARK    6  A    between atoms: _10  and  _11
REMARK    7  A    between atoms: _12  and  _13
REMARK    8  A    between atoms: _17  and  _37
REMARK    9  A    between atoms: _19  and  _25
REMARK   10  A    between atoms: _20  and  _24
REMARK   11  A    between atoms: _24  and  _25
REMARK   12  A    between atoms: _27  and  _28
REMARK   13  A    between atoms: _29  and  _30
REMARK   14  A    between atoms: _31  and  _33
REMARK   15  A    between atoms: _33  and  _34
REMARK   16  A    between atoms: _33  and  _35
REMARK   17  A    between atoms: _35  and  _36
REMARK   18  A    between atoms: _35  and  _37
REMARK   19  A    between atoms: _38  and  _40
REMARK                            x       y       z     vdW  Elec       q    Type
REMARK                         _______ _______ _______ _____ _____    ______ ____
ROOT
ATOM      1  C   UNL     1      -3.599  12.272  25.925  0.00  0.00    +0.163 C 
ENDROOT
BRANCH   1   2
ATOM      2  O   UNL     1      -4.312  13.284  25.195  0.00  0.00    -0.388 OA
ATOM      3  H   UNL     1      -3.811  14.104  25.212  0.00  0.00    +0.210 HD
ENDBRANCH   1   2
BRANCH   1   4
ATOM      4  C   UNL     1      -4.573  11.346  26.673  0.00  0.00    +0.175 C 
BRANCH   4   5
ATOM      5  C   UNL     1      -3.837  10.277  27.495  0.00  0.00    +0.176 C 
ATOM      6  O   UNL     1      -4.406   8.982  27.156  0.00  0.00    -0.332 OA
ATOM      7  C   UNL     1      -3.752   7.823  27.771  0.00  0.00    +0.277 C 
ATOM      8  C   UNL     1      -3.699   7.984  29.310  0.00  0.00    +0.110 C 
ATOM      9  C   UNL     1      -3.131   9.359  29.719  0.00  0.00    +0.143 C 
ATOM     10  C   UNL     1      -3.882  10.493  29.019  0.00  0.00    +0.133 C 
BRANCH  10  11
ATOM     11  N   UNL     1      -3.276  11.793  29.349  0.00  0.00    -0.308 N 
ATOM     12  H   UNL     1      -2.316  11.949  29.075  0.00  0.00    +0.149 HD
ATOM     13  C   UNL     1      -3.911  12.780  29.987  0.00  0.00    +0.210 C 
ATOM     14  C   UNL     1      -5.365  12.501  30.414  0.00  0.00    +0.109 C 
ATOM     15  O   UNL     1      -3.383  13.863  30.237  0.00  0.00    -0.276 OA
ENDBRANCH  10  11
BRANCH   7  16
ATOM     16  C   UNL     1      -2.322   7.646  27.221  0.00  0.00    +0.414 C 
ATOM     17  O   UNL     1      -1.563   6.816  27.721  0.00  0.00    -0.240 OA
ATOM     18  O   UNL     1      -1.926   8.333  26.279  0.00  0.00    -0.240 OA
ENDBRANCH   7  16
BRANCH   7  19
ATOM     19  O   UNL     1      -4.543   6.646  27.461  0.00  0.00    -0.343 OA
ATOM     20  C   UNL     1      -4.912   6.506  26.066  0.00  0.00    +0.198 C 
ENDBRANCH   7  19
BRANCH   9  21
ATOM     21  O   UNL     1      -3.241   9.525  31.133  0.00  0.00    -0.390 OA
ATOM     22  H   UNL     1      -4.168   9.552  31.382  0.00  0.00    +0.210 HD
ENDBRANCH   9  21
ENDBRANCH   4   5
BRANCH   4  23
ATOM     23  O   UNL     1      -5.478  10.720  25.742  0.00  0.00    -0.387 OA
ATOM     24  H   UNL     1      -6.339  10.615  26.153  0.00  0.00    +0.210 HD
ENDBRANCH   4  23
ENDBRANCH   1   4
BRANCH   1  25
ATOM     25  C   UNL     1      -2.742  11.447  24.971  0.00  0.00    +0.141 C 
BRANCH  25  28
ATOM     26  C   UNL     1      -3.021  11.278  22.521  0.00  0.00    +0.401 C 
ATOM     27  O   UNL     1      -3.281  10.073  22.539  0.00  0.00    -0.226 OA
ATOM     28  N   UNL     1      -2.750  11.999  23.610  0.00  0.00    -0.279 N 
ATOM     29  H   UNL     1      -2.539  12.980  23.493  0.00  0.00    +0.152 HD
BRANCH  26  30
ATOM     30  O   UNL     1      -2.998  11.965  21.267  0.00  0.00    -0.444 OA
BRANCH  30  31
ATOM     31  C   UNL     1      -4.319  12.007  20.721  0.00  0.00    +0.292 C 
BRANCH  31  33
ATOM     32  N   UNL     1      -4.875  13.933  22.181  0.00  0.00    -0.131 NA
ATOM     33  C   UNL     1      -5.229  12.728  21.632  0.00  0.00    +0.120 A 
ATOM     34  C   UNL     1      -6.485  12.385  22.076  0.00  0.00    +0.137 A 
ATOM     35  N   UNL     1      -6.855  13.432  22.868  0.00  0.00    -0.242 N 
ATOM     36  N   UNL     1      -5.874  14.351  22.946  0.00  0.00    -0.065 NA
BRANCH  35  37
ATOM     37  C   UNL     1      -8.047  13.580  23.668  0.00  0.00    +0.240 C 
BRANCH  37  38
ATOM     38  C   UNL     1      -7.803  13.263  25.125  0.00  0.00    +0.235 C 
ATOM     39  O   UNL     1      -7.976  12.137  25.587  0.00  0.00    -0.274 OA
ATOM     40  N   UNL     1      -7.317  14.311  25.880  0.00  0.00    -0.309 N 
ATOM     41  H   UNL     1      -7.343  15.253  25.518  0.00  0.00    +0.149 HD
BRANCH  40  42
ATOM     42  C   UNL     1      -7.020  14.153  27.289  0.00  0.00    +0.146 C 
BRANCH  42  43
ATOM     43  C   UNL     1      -6.756  15.491  27.900  0.00  0.00    +0.007 A 
ATOM     44  S   UNL     1      -7.135  16.930  27.051  0.00  0.00    -0.100 S 
ATOM     45  C   UNL     1      -6.515  17.911  28.307  0.00  0.00    +0.045 A 
ATOM     46  C   UNL     1      -6.041  17.164  29.362  0.00  0.00    +0.008 A 
ATOM     47  C   UNL     1      -6.189  15.766  29.130  0.00  0.00    +0.013 A 
ENDBRANCH  42  43
ENDBRANCH  40  42
ENDBRANCH  37  38
ENDBRANCH  35  37
ENDBRANCH  31  33
ENDBRANCH  30  31
ENDBRANCH  26  30
ENDBRANCH  25  28
ENDBRANCH   1  25
TORSDOF 17
