REMARK VINA RESULT:    -4.342      2.194      5.583
REMARK INTER + INTRA:         -11.425
REMARK INTER:                  -8.406
REMARK INTRA:                  -3.019
REMARK UNBOUND:                -2.894
REMARK  Name = lig_assembled_17.pdb
REMARK  22 active torsions:
REMARK  status: ('A' for Active; 'I' for Inactive)
REMARK    1  A    between atoms: _2  and  _10
REMARK    2  A    between atoms: _3  and  _11
REMARK    3  A    between atoms: _3  and  _12
REMARK    4  A    between atoms: _3  and  _14
REMARK    5  A    between atoms: _5  and  _19
REMARK    6  A    between atoms: _6  and  _14
REMARK    7  A    between atoms: _7  and  _8
REMARK    8  A    between atoms: _7  and  _19
REMARK    9  A    between atoms: _10  and  _11
REMARK   10  A    between atoms: _12  and  _13
REMARK   11  A    between atoms: _15  and  _35
REMARK   12  A    between atoms: _17  and  _23
REMARK   13  A    between atoms: _18  and  _22
REMARK   14  A    between atoms: _22  and  _23
REMARK   15  A    between atoms: _25  and  _26
REMARK   16  A    between atoms: _27  and  _28
REMARK   17  A    between atoms: _29  and  _31
REMARK   18  A    between atoms: _31  and  _32
REMARK   19  A    between atoms: _31  and  _33
REMARK   20  A    between atoms: _33  and  _34
REMARK   21  A    between atoms: _33  and  _35
REMARK   22  A    between atoms: _36  and  _38
REMARK                            x       y       z     vdW  Elec       q    Type
REMARK                         _______ _______ _______ _____ _____    ______ ____
ROOT
ATOM      1  C   UNL     1      -2.322   8.924  27.495  0.00  0.00    +0.163 C 
ENDROOT
BRANCH   1   2
ATOM      2  O   UNL     1      -1.877   8.130  26.383  0.00  0.00    -0.388 OA
ATOM      3  H   UNL     1      -0.947   7.916  26.494  0.00  0.00    +0.210 HD
ENDBRANCH   1   2
BRANCH   1   4
ATOM      4  C   UNL     1      -2.976  10.230  27.013  0.00  0.00    +0.175 C 
BRANCH   4   5
ATOM      5  C   UNL     1      -3.907  10.000  25.813  0.00  0.00    +0.176 C 
ATOM      6  O   UNL     1      -3.103  10.077  24.603  0.00  0.00    -0.332 OA
ATOM      7  C   UNL     1      -3.809   9.777  23.353  0.00  0.00    +0.277 C 
ATOM      8  C   UNL     1      -5.060  10.677  23.209  0.00  0.00    +0.110 C 
ATOM      9  C   UNL     1      -5.930  10.652  24.483  0.00  0.00    +0.143 C 
ATOM     10  C   UNL     1      -5.095  10.976  25.723  0.00  0.00    +0.133 C 
BRANCH  10  11
ATOM     11  N   UNL     1      -5.915  10.864  26.940  0.00  0.00    -0.308 N 
ATOM     12  H   UNL     1      -6.242   9.945  27.206  0.00  0.00    +0.149 HD
ATOM     13  C   UNL     1      -6.256  11.897  27.715  0.00  0.00    +0.210 C 
ATOM     14  C   UNL     1      -5.765  13.286  27.268  0.00  0.00    +0.109 C 
ATOM     15  O   UNL     1      -6.932  11.771  28.737  0.00  0.00    -0.276 OA
ENDBRANCH  10  11
BRANCH   7  16
ATOM     16  C   UNL     1      -4.232   8.294  23.307  0.00  0.00    +0.414 C 
ATOM     17  O   UNL     1      -5.166   7.938  22.591  0.00  0.00    -0.240 OA
ATOM     18  O   UNL     1      -3.639   7.454  23.985  0.00  0.00    -0.240 OA
ENDBRANCH   7  16
BRANCH   9  19
ATOM     19  O   UNL     1      -6.986  11.607  24.365  0.00  0.00    -0.390 OA
ATOM     20  H   UNL     1      -6.620  12.494  24.395  0.00  0.00    +0.210 HD
ENDBRANCH   9  19
BRANCH   7  21
ATOM     21  O   UNL     1      -2.910  10.063  22.251  0.00  0.00    -0.343 OA
ATOM     22  C   UNL     1      -3.461  10.918  21.217  0.00  0.00    +0.198 C 
ENDBRANCH   7  21
ENDBRANCH   4   5
BRANCH   4  23
ATOM     23  O   UNL     1      -1.963  11.199  26.678  0.00  0.00    -0.387 OA
ATOM     24  H   UNL     1      -1.843  11.221  25.726  0.00  0.00    +0.210 HD
ENDBRANCH   4  23
ENDBRANCH   1   4
BRANCH   1  25
ATOM     25  C   UNL     1      -3.320   8.133  28.334  0.00  0.00    +0.141 C 
BRANCH  25  28
ATOM     26  C   UNL     1      -5.040   9.044  29.857  0.00  0.00    +0.401 C 
ATOM     27  O   UNL     1      -5.987   8.586  29.213  0.00  0.00    -0.226 OA
ATOM     28  N   UNL     1      -3.761   8.886  29.515  0.00  0.00    -0.279 N 
ATOM     29  H   UNL     1      -3.055   9.308  30.102  0.00  0.00    +0.152 HD
BRANCH  26  30
ATOM     30  O   UNL     1      -5.306   9.798  31.042  0.00  0.00    -0.444 OA
BRANCH  30  31
ATOM     31  C   UNL     1      -4.321   9.493  32.033  0.00  0.00    +0.292 C 
BRANCH  31  33
ATOM     32  N   UNL     1      -2.362  10.975  31.756  0.00  0.00    -0.131 NA
ATOM     33  C   UNL     1      -3.553  10.703  32.377  0.00  0.00    +0.120 A 
ATOM     34  C   UNL     1      -3.835  11.709  33.275  0.00  0.00    +0.137 A 
ATOM     35  N   UNL     1      -2.787  12.569  33.137  0.00  0.00    -0.250 N 
ATOM     36  N   UNL     1      -1.899  12.121  32.233  0.00  0.00    -0.065 NA
BRANCH  35  37
ATOM     37  C   UNL     1      -2.578  13.847  33.786  0.00  0.00    +0.160 C 
BRANCH  37  38
ATOM     38  C   UNL     1      -3.730  14.810  33.466  0.00  0.00    +0.107 C 
BRANCH  38  39
ATOM     39  N   UNL     1      -3.448  15.842  32.438  0.00  0.00    -0.301 NA
BRANCH  39  40
ATOM     40  C   UNL     1      -3.628  15.357  31.058  0.00  0.00    +0.081 C 
ATOM     41  C   UNL     1      -5.019  15.527  30.453  0.00  0.00    +0.020 C 
ENDBRANCH  39  40
BRANCH  39  42
ATOM     42  C   UNL     1      -4.246  17.048  32.743  0.00  0.00    +0.081 C 
ATOM     43  C   UNL     1      -3.515  18.371  32.535  0.00  0.00    +0.020 C 
ENDBRANCH  39  42
ENDBRANCH  38  39
ENDBRANCH  37  38
ENDBRANCH  35  37
ENDBRANCH  31  33
ENDBRANCH  30  31
ENDBRANCH  26  30
ENDBRANCH  25  28
ENDBRANCH   1  25
TORSDOF 18
