REMARK VINA RESULT:    -4.920      4.541      8.869
REMARK INTER + INTRA:         -11.309
REMARK INTER:                  -8.477
REMARK INTRA:                  -2.832
REMARK UNBOUND:                -2.363
REMARK  Name = lig_assembled_59.pdb
REMARK  18 active torsions:
REMARK  status: ('A' for Active; 'I' for Inactive)
REMARK    1  A    between atoms: _2  and  _10
REMARK    2  A    between atoms: _5  and  _20
REMARK    3  A    between atoms: _7  and  _8
REMARK    4  A    between atoms: _7  and  _20
REMARK    5  A    between atoms: _13  and  _14
REMARK    6  A    between atoms: _14  and  _15
REMARK    7  A    between atoms: _16  and  _36
REMARK    8  A    between atoms: _18  and  _24
REMARK    9  A    between atoms: _19  and  _23
REMARK   10  A    between atoms: _23  and  _24
REMARK   11  A    between atoms: _26  and  _27
REMARK   12  A    between atoms: _28  and  _29
REMARK   13  A    between atoms: _30  and  _32
REMARK   14  A    between atoms: _32  and  _33
REMARK   15  A    between atoms: _32  and  _34
REMARK   16  A    between atoms: _34  and  _35
REMARK   17  A    between atoms: _34  and  _36
REMARK   18  A    between atoms: _37  and  _39
REMARK                            x       y       z     vdW  Elec       q    Type
REMARK                         _______ _______ _______ _____ _____    ______ ____
ROOT
ATOM      1  C   UNL     1      -5.034   7.236  23.717  0.00  0.00    +0.163 C 
ENDROOT
BRANCH   1   2
ATOM      2  O   UNL     1      -3.756   6.812  24.218  0.00  0.00    -0.388 OA
ATOM      3  H   UNL     1      -3.385   7.502  24.775  0.00  0.00    +0.210 HD
ENDBRANCH   1   2
BRANCH   1   4
ATOM      4  C   UNL     1      -4.995   8.714  23.292  0.00  0.00    +0.175 C 
BRANCH   4   5
ATOM      5  C   UNL     1      -3.958   9.518  24.089  0.00  0.00    +0.176 C 
ATOM      6  O   UNL     1      -4.321   9.447  25.495  0.00  0.00    -0.332 OA
ATOM      7  C   UNL     1      -3.378  10.074  26.426  0.00  0.00    +0.277 C 
ATOM      8  C   UNL     1      -3.121  11.548  26.026  0.00  0.00    +0.110 C 
ATOM      9  C   UNL     1      -2.762  11.677  24.530  0.00  0.00    +0.143 C 
ATOM     10  C   UNL     1      -3.808  10.988  23.653  0.00  0.00    +0.133 C 
BRANCH  10  11
ATOM     11  N   UNL     1      -3.410  11.042  22.238  0.00  0.00    -0.308 N 
ATOM     12  H   UNL     1      -2.568  10.554  21.965  0.00  0.00    +0.149 HD
ATOM     13  C   UNL     1      -4.088  11.695  21.290  0.00  0.00    +0.210 C 
ATOM     14  C   UNL     1      -5.352  12.450  21.742  0.00  0.00    +0.109 C 
ATOM     15  O   UNL     1      -3.739  11.711  20.109  0.00  0.00    -0.276 OA
ENDBRANCH  10  11
BRANCH   7  16
ATOM     16  C   UNL     1      -2.041   9.306  26.450  0.00  0.00    +0.414 C 
ATOM     17  O   UNL     1      -0.974   9.918  26.476  0.00  0.00    -0.240 OA
ATOM     18  O   UNL     1      -2.028   8.074  26.443  0.00  0.00    -0.240 OA
ENDBRANCH   7  16
BRANCH   7  19
ATOM     19  O   UNL     1      -3.975  10.057  27.749  0.00  0.00    -0.343 OA
ATOM     20  C   UNL     1      -3.480  11.074  28.656  0.00  0.00    +0.198 C 
ENDBRANCH   7  19
BRANCH   9  21
ATOM     21  O   UNL     1      -2.683  13.057  24.171  0.00  0.00    -0.390 OA
ATOM     22  H   UNL     1      -2.276  13.552  24.887  0.00  0.00    +0.210 HD
ENDBRANCH   9  21
ENDBRANCH   4   5
BRANCH   4  23
ATOM     23  O   UNL     1      -6.301   9.307  23.437  0.00  0.00    -0.387 OA
ATOM     24  H   UNL     1      -6.433   9.966  22.751  0.00  0.00    +0.210 HD
ENDBRANCH   4  23
ENDBRANCH   1   4
BRANCH   1  25
ATOM     25  C   UNL     1      -5.440   6.374  22.526  0.00  0.00    +0.141 C 
BRANCH  25  28
ATOM     26  C   UNL     1      -6.577   6.652  20.351  0.00  0.00    +0.401 C 
ATOM     27  O   UNL     1      -6.666   5.441  20.136  0.00  0.00    -0.226 OA
ATOM     28  N   UNL     1      -6.014   7.177  21.439  0.00  0.00    -0.279 N 
ATOM     29  H   UNL     1      -5.980   8.183  21.521  0.00  0.00    +0.152 HD
BRANCH  26  30
ATOM     30  O   UNL     1      -7.100   7.569  19.385  0.00  0.00    -0.444 OA
BRANCH  30  31
ATOM     31  C   UNL     1      -7.425   8.804  20.027  0.00  0.00    +0.292 C 
BRANCH  31  33
ATOM     32  N   UNL     1      -7.663  11.161  19.318  0.00  0.00    -0.131 NA
ATOM     33  C   UNL     1      -7.064   9.942  19.160  0.00  0.00    +0.121 A 
ATOM     34  C   UNL     1      -6.159  10.016  18.127  0.00  0.00    +0.145 A 
ATOM     35  N   UNL     1      -6.241  11.315  17.680  0.00  0.00    -0.202 N 
ATOM     36  N   UNL     1      -7.156  11.992  18.419  0.00  0.00    -0.059 NA
BRANCH  35  37
ATOM     37  C   UNL     1      -5.518  11.906  16.609  0.00  0.00    +0.156 A 
ATOM     38  C   UNL     1      -4.141  11.706  16.529  0.00  0.00    +0.048 A 
ATOM     39  C   UNL     1      -3.432  12.323  15.499  0.00  0.00    +0.011 A 
ATOM     40  C   UNL     1      -4.103  13.119  14.569  0.00  0.00    -0.004 A 
ATOM     41  C   UNL     1      -5.479  13.261  14.728  0.00  0.00    +0.119 A 
ATOM     42  N   UNL     1      -6.199  12.671  15.712  0.00  0.00    -0.236 NA
BRANCH  40  43
ATOM     43  C   UNL     1      -3.347  13.867  13.510  0.00  0.00    +0.192 C 
BRANCH  43  44
ATOM     44  O   UNL     1      -2.002  13.423  13.424  0.00  0.00    -0.390 OA
ATOM     45  H   UNL     1      -1.927  12.635  13.991  0.00  0.00    +0.210 HD
ENDBRANCH  43  44
ENDBRANCH  40  43
ENDBRANCH  35  37
ENDBRANCH  31  33
ENDBRANCH  30  31
ENDBRANCH  26  30
ENDBRANCH  25  28
ENDBRANCH   1  25
TORSDOF 16
