REMARK VINA RESULT:    -4.838      2.924      8.417
REMARK INTER + INTRA:         -11.447
REMARK INTER:                  -8.543
REMARK INTRA:                  -2.904
REMARK UNBOUND:                -2.792
REMARK  Name = lig_assembled_5.pdb
REMARK  18 active torsions:
REMARK  status: ('A' for Active; 'I' for Inactive)
REMARK    1  A    between atoms: _2  and  _9
REMARK    2  A    between atoms: _4  and  _20
REMARK    3  A    between atoms: _6  and  _7
REMARK    4  A    between atoms: _6  and  _20
REMARK    5  A    between atoms: _12  and  _15
REMARK    6  A    between atoms: _13  and  _15
REMARK    7  A    between atoms: _16  and  _36
REMARK    8  A    between atoms: _18  and  _24
REMARK    9  A    between atoms: _19  and  _23
REMARK   10  A    between atoms: _23  and  _24
REMARK   11  A    between atoms: _26  and  _27
REMARK   12  A    between atoms: _28  and  _29
REMARK   13  A    between atoms: _30  and  _32
REMARK   14  A    between atoms: _32  and  _33
REMARK   15  A    between atoms: _32  and  _34
REMARK   16  A    between atoms: _34  and  _35
REMARK   17  A    between atoms: _34  and  _36
REMARK   18  A    between atoms: _37  and  _39
REMARK                            x       y       z     vdW  Elec       q    Type
REMARK                         _______ _______ _______ _____ _____    ______ ____
ROOT
ATOM      1  C   UNL     1      -5.519   7.551  24.243  0.00  0.00    +0.163 C 
ENDROOT
BRANCH   1   2
ATOM      2  O   UNL     1      -4.370   7.044  24.940  0.00  0.00    -0.388 OA
ATOM      3  H   UNL     1      -3.620   7.625  24.787  0.00  0.00    +0.210 HD
ENDBRANCH   1   2
BRANCH   1   4
ATOM      4  C   UNL     1      -5.984   6.540  23.200  0.00  0.00    +0.141 C 
BRANCH   4   7
ATOM      5  C   UNL     1      -5.996   6.960  20.765  0.00  0.00    +0.401 C 
ATOM      6  O   UNL     1      -5.073   6.176  20.530  0.00  0.00    -0.226 OA
ATOM      7  N   UNL     1      -6.481   7.196  21.984  0.00  0.00    -0.279 N 
ATOM      8  H   UNL     1      -7.233   7.864  22.077  0.00  0.00    +0.152 HD
BRANCH   5   9
ATOM      9  O   UNL     1      -6.594   7.673  19.680  0.00  0.00    -0.444 OA
BRANCH   9  10
ATOM     10  C   UNL     1      -7.264   8.832  20.182  0.00  0.00    +0.292 C 
BRANCH  10  12
ATOM     11  N   UNL     1      -7.589  11.203  19.550  0.00  0.00    -0.131 NA
ATOM     12  C   UNL     1      -7.022   9.988  19.297  0.00  0.00    +0.121 A 
ATOM     13  C   UNL     1      -6.253  10.079  18.160  0.00  0.00    +0.143 A 
ATOM     14  N   UNL     1      -6.358  11.392  17.762  0.00  0.00    -0.220 N 
ATOM     15  N   UNL     1      -7.188  12.049  18.610  0.00  0.00    -0.060 NA
BRANCH  14  16
ATOM     16  C   UNL     1      -5.716  12.047  16.679  0.00  0.00    +0.067 A 
ATOM     17  C   UNL     1      -6.433  12.407  15.532  0.00  0.00    +0.031 A 
ATOM     18  C   UNL     1      -5.771  12.995  14.452  0.00  0.00    +0.048 A 
ATOM     19  C   UNL     1      -4.399  13.250  14.506  0.00  0.00    +0.120 A 
ATOM     20  C   UNL     1      -3.685  12.908  15.652  0.00  0.00    +0.048 A 
ATOM     21  C   UNL     1      -4.338  12.307  16.737  0.00  0.00    +0.031 A 
BRANCH  19  22
ATOM     22  O   UNL     1      -3.866  13.771  13.359  0.00  0.00    -0.495 OA
ATOM     23  C   UNL     1      -2.787  13.050  12.781  0.00  0.00    +0.277 C 
ENDBRANCH  19  22
ENDBRANCH  14  16
ENDBRANCH  10  12
ENDBRANCH   9  10
ENDBRANCH   5   9
ENDBRANCH   4   7
ENDBRANCH   1   4
BRANCH   1  24
ATOM     24  C   UNL     1      -5.200   8.889  23.554  0.00  0.00    +0.175 C 
BRANCH  24  25
ATOM     25  C   UNL     1      -4.061   9.643  24.257  0.00  0.00    +0.176 C 
ATOM     26  O   UNL     1      -4.348   9.657  25.683  0.00  0.00    -0.332 OA
ATOM     27  C   UNL     1      -3.309  10.248  26.532  0.00  0.00    +0.277 C 
ATOM     28  C   UNL     1      -2.967  11.680  26.052  0.00  0.00    +0.110 C 
ATOM     29  C   UNL     1      -2.685  11.720  24.535  0.00  0.00    +0.143 C 
ATOM     30  C   UNL     1      -3.828  11.078  23.748  0.00  0.00    +0.133 C 
BRANCH  30  31
ATOM     31  N   UNL     1      -3.509  11.044  22.312  0.00  0.00    -0.308 N 
ATOM     32  H   UNL     1      -2.752  10.447  22.011  0.00  0.00    +0.149 HD
ATOM     33  C   UNL     1      -4.155  11.751  21.381  0.00  0.00    +0.210 C 
ATOM     34  C   UNL     1      -5.287  12.671  21.875  0.00  0.00    +0.109 C 
ATOM     35  O   UNL     1      -3.876  11.692  20.183  0.00  0.00    -0.276 OA
ENDBRANCH  30  31
BRANCH  27  36
ATOM     36  C   UNL     1      -2.033   9.381  26.518  0.00  0.00    +0.414 C 
ATOM     37  O   UNL     1      -2.116   8.157  26.423  0.00  0.00    -0.240 OA
ATOM     38  O   UNL     1      -0.921   9.905  26.601  0.00  0.00    -0.240 OA
ENDBRANCH  27  36
BRANCH  27  39
ATOM     39  O   UNL     1      -3.828  10.330  27.884  0.00  0.00    -0.343 OA
ATOM     40  C   UNL     1      -3.770  11.650  28.483  0.00  0.00    +0.198 C 
ENDBRANCH  27  39
BRANCH  29  41
ATOM     41  O   UNL     1      -2.525  13.074  24.111  0.00  0.00    -0.390 OA
ATOM     42  H   UNL     1      -2.958  13.198  23.263  0.00  0.00    +0.210 HD
ENDBRANCH  29  41
ENDBRANCH  24  25
BRANCH  24  43
ATOM     43  O   UNL     1      -6.381   9.713  23.499  0.00  0.00    -0.387 OA
ATOM     44  H   UNL     1      -6.184  10.524  23.023  0.00  0.00    +0.210 HD
ENDBRANCH  24  43
ENDBRANCH   1  24
TORSDOF 15
