REMARK VINA RESULT:    -3.875      3.734      6.280
REMARK INTER + INTRA:          -9.704
REMARK INTER:                  -7.147
REMARK INTRA:                  -2.557
REMARK UNBOUND:                -2.997
REMARK  Name = lig_assembled_15.pdb
REMARK  16 active torsions:
REMARK  status: ('A' for Active; 'I' for Inactive)
REMARK    1  A    between atoms: _2  and  _9
REMARK    2  A    between atoms: _4  and  _18
REMARK    3  A    between atoms: _6  and  _7
REMARK    4  A    between atoms: _6  and  _18
REMARK    5  A    between atoms: _14  and  _34
REMARK    6  A    between atoms: _16  and  _22
REMARK    7  A    between atoms: _17  and  _21
REMARK    8  A    between atoms: _21  and  _22
REMARK    9  A    between atoms: _24  and  _25
REMARK   10  A    between atoms: _26  and  _27
REMARK   11  A    between atoms: _28  and  _30
REMARK   12  A    between atoms: _30  and  _31
REMARK   13  A    between atoms: _30  and  _32
REMARK   14  A    between atoms: _32  and  _33
REMARK   15  A    between atoms: _32  and  _34
REMARK   16  A    between atoms: _35  and  _37
REMARK                            x       y       z     vdW  Elec       q    Type
REMARK                         _______ _______ _______ _____ _____    ______ ____
ROOT
ATOM      1  C   UNL     1      -2.248   9.719  26.397  0.00  0.00    +0.163 C 
ENDROOT
BRANCH   1   2
ATOM      2  O   UNL     1      -3.005   8.758  25.642  0.00  0.00    -0.388 OA
ATOM      3  H   UNL     1      -2.409   8.103  25.269  0.00  0.00    +0.210 HD
ENDBRANCH   1   2
BRANCH   1   4
ATOM      4  C   UNL     1      -2.046   9.220  27.824  0.00  0.00    +0.141 C 
BRANCH   4   7
ATOM      5  C   UNL     1      -3.183   9.575  29.989  0.00  0.00    +0.401 C 
ATOM      6  O   UNL     1      -2.972   8.430  30.394  0.00  0.00    -0.226 OA
ATOM      7  N   UNL     1      -2.791  10.028  28.797  0.00  0.00    -0.279 N 
ATOM      8  H   UNL     1      -3.019  10.980  28.550  0.00  0.00    +0.152 HD
BRANCH   5   9
ATOM      9  O   UNL     1      -3.892  10.489  30.828  0.00  0.00    -0.444 OA
BRANCH   9  10
ATOM     10  C   UNL     1      -2.960  11.315  31.530  0.00  0.00    +0.292 C 
BRANCH  10  12
ATOM     11  N   UNL     1      -2.405  13.723  31.660  0.00  0.00    -0.131 NA
ATOM     12  C   UNL     1      -3.296  12.740  31.343  0.00  0.00    +0.121 A 
ATOM     13  C   UNL     1      -4.446  13.317  30.855  0.00  0.00    +0.143 A 
ATOM     14  N   UNL     1      -4.196  14.670  30.865  0.00  0.00    -0.220 N 
ATOM     15  N   UNL     1      -2.960  14.892  31.373  0.00  0.00    -0.060 NA
BRANCH  14  16
ATOM     16  C   UNL     1      -5.025  15.729  30.407  0.00  0.00    +0.067 A 
ATOM     17  C   UNL     1      -4.919  17.015  30.955  0.00  0.00    +0.029 A 
ATOM     18  C   UNL     1      -5.772  18.034  30.520  0.00  0.00    +0.017 A 
ATOM     19  C   UNL     1      -6.724  17.773  29.538  0.00  0.00    +0.018 A 
ATOM     20 BR   UNL     1      -7.891  19.150  28.975  0.00  0.00    -0.050 Br
ATOM     21  C   UNL     1      -6.828  16.503  28.975  0.00  0.00    +0.017 A 
ATOM     22  C   UNL     1      -5.978  15.480  29.406  0.00  0.00    +0.029 A 
ENDBRANCH  14  16
ENDBRANCH  10  12
ENDBRANCH   9  10
ENDBRANCH   5   9
ENDBRANCH   4   7
ENDBRANCH   1   4
BRANCH   1  23
ATOM     23  C   UNL     1      -2.962  11.081  26.425  0.00  0.00    +0.175 C 
BRANCH  23  24
ATOM     24  C   UNL     1      -3.943  11.244  25.255  0.00  0.00    +0.176 C 
ATOM     25  O   UNL     1      -3.567  12.440  24.519  0.00  0.00    -0.332 OA
ATOM     26  C   UNL     1      -4.334  12.700  23.297  0.00  0.00    +0.277 C 
ATOM     27  C   UNL     1      -5.851  12.731  23.606  0.00  0.00    +0.110 C 
ATOM     28  C   UNL     1      -6.292  11.493  24.415  0.00  0.00    +0.143 C 
ATOM     29  C   UNL     1      -5.427  11.316  25.663  0.00  0.00    +0.133 C 
BRANCH  29  30
ATOM     30  N   UNL     1      -5.800  10.086  26.379  0.00  0.00    -0.308 N 
ATOM     31  H   UNL     1      -5.690   9.206  25.894  0.00  0.00    +0.149 HD
ATOM     32  C   UNL     1      -6.275  10.056  27.627  0.00  0.00    +0.210 C 
ATOM     33  C   UNL     1      -6.455  11.415  28.329  0.00  0.00    +0.109 C 
ATOM     34  O   UNL     1      -6.565   9.009  28.207  0.00  0.00    -0.276 OA
ENDBRANCH  29  30
BRANCH  26  35
ATOM     35  C   UNL     1      -4.046  11.622  22.232  0.00  0.00    +0.414 C 
ATOM     36  O   UNL     1      -3.019  10.948  22.293  0.00  0.00    -0.240 OA
ATOM     37  O   UNL     1      -4.841  11.426  21.312  0.00  0.00    -0.240 OA
ENDBRANCH  26  35
BRANCH  28  38
ATOM     38  O   UNL     1      -7.658  11.636  24.806  0.00  0.00    -0.390 OA
ATOM     39  H   UNL     1      -8.150  10.854  24.544  0.00  0.00    +0.210 HD
ENDBRANCH  28  38
BRANCH  26  40
ATOM     40  O   UNL     1      -3.944  14.003  22.791  0.00  0.00    -0.343 OA
ATOM     41  C   UNL     1      -5.044  14.864  22.405  0.00  0.00    +0.198 C 
ENDBRANCH  26  40
ENDBRANCH  23  24
BRANCH  23  42
ATOM     42  O   UNL     1      -1.995  12.149  26.414  0.00  0.00    -0.387 OA
ATOM     43  H   UNL     1      -1.777  12.376  25.507  0.00  0.00    +0.210 HD
ENDBRANCH  23  42
ENDBRANCH   1  23
TORSDOF 14
