REMARK VINA RESULT:    -4.815      2.508      5.917
REMARK INTER + INTRA:         -11.463
REMARK INTER:                  -8.921
REMARK INTRA:                  -2.542
REMARK UNBOUND:                -2.848
REMARK  Name = lig_assembled_63.pdb
REMARK  17 active torsions:
REMARK  status: ('A' for Active; 'I' for Inactive)
REMARK    1  A    between atoms: _2  and  _11
REMARK    2  A    between atoms: _6  and  _20
REMARK    3  A    between atoms: _7  and  _15
REMARK    4  A    between atoms: _8  and  _9
REMARK    5  A    between atoms: _8  and  _20
REMARK    6  A    between atoms: _16  and  _36
REMARK    7  A    between atoms: _18  and  _24
REMARK    8  A    between atoms: _19  and  _23
REMARK    9  A    between atoms: _23  and  _24
REMARK   10  A    between atoms: _26  and  _27
REMARK   11  A    between atoms: _28  and  _29
REMARK   12  A    between atoms: _30  and  _32
REMARK   13  A    between atoms: _32  and  _33
REMARK   14  A    between atoms: _32  and  _34
REMARK   15  A    between atoms: _34  and  _35
REMARK   16  A    between atoms: _34  and  _36
REMARK   17  A    between atoms: _37  and  _39
REMARK                            x       y       z     vdW  Elec       q    Type
REMARK                         _______ _______ _______ _____ _____    ______ ____
ROOT
ATOM      1  C   UNL     1      -4.370   8.939  23.790  0.00  0.00    +0.163 C 
ENDROOT
BRANCH   1   2
ATOM      2  O   UNL     1      -3.870   8.183  22.675  0.00  0.00    -0.388 OA
ATOM      3  H   UNL     1      -3.073   7.716  22.936  0.00  0.00    +0.210 HD
ENDBRANCH   1   2
BRANCH   1   4
ATOM      4  C   UNL     1      -4.476   8.045  25.021  0.00  0.00    +0.141 C 
BRANCH   4   7
ATOM      5  C   UNL     1      -2.785   8.636  26.723  0.00  0.00    +0.401 C 
ATOM      6  O   UNL     1      -1.895   7.953  26.212  0.00  0.00    -0.226 OA
ATOM      7  N   UNL     1      -4.023   8.732  26.237  0.00  0.00    -0.279 N 
ATOM      8  H   UNL     1      -4.687   9.310  26.733  0.00  0.00    +0.152 HD
BRANCH   5   9
ATOM      9  O   UNL     1      -2.497   9.374  27.913  0.00  0.00    -0.444 OA
BRANCH   9  10
ATOM     10  C   UNL     1      -3.459   9.052  28.921  0.00  0.00    +0.292 C 
BRANCH  10  12
ATOM     11  N   UNL     1      -4.668  10.200  30.745  0.00  0.00    -0.131 NA
ATOM     12  C   UNL     1      -3.910  10.274  29.612  0.00  0.00    +0.121 A 
ATOM     13  C   UNL     1      -3.708  11.596  29.297  0.00  0.00    +0.145 A 
ATOM     14  N   UNL     1      -4.401  12.303  30.259  0.00  0.00    -0.200 N 
ATOM     15  N   UNL     1      -4.954  11.435  31.134  0.00  0.00    -0.059 NA
BRANCH  14  16
ATOM     16  C   UNL     1      -4.576  13.718  30.310  0.00  0.00    +0.173 A 
ATOM     17  C   UNL     1      -3.715  14.553  31.025  0.00  0.00    +0.096 A 
ATOM     18  C   UNL     1      -4.036  15.920  31.089  0.00  0.00    +0.024 A 
ATOM     19  C   UNL     1      -5.162  16.413  30.434  0.00  0.00    +0.021 A 
ATOM     20  C   UNL     1      -5.936  15.524  29.718  0.00  0.00    +0.113 A 
ATOM     21  N   UNL     1      -5.674  14.202  29.645  0.00  0.00    -0.235 NA
BRANCH  17  22
ATOM     22  C   UNL     1      -2.514  14.139  31.689  0.00  0.00    +0.103 C 
ATOM     23  N   UNL     1      -1.499  13.786  32.129  0.00  0.00    -0.191 NA
ENDBRANCH  17  22
ENDBRANCH  14  16
ENDBRANCH  10  12
ENDBRANCH   9  10
ENDBRANCH   5   9
ENDBRANCH   4   7
ENDBRANCH   1   4
BRANCH   1  24
ATOM     24  C   UNL     1      -5.749   9.542  23.472  0.00  0.00    +0.175 C 
BRANCH  24  25
ATOM     25  C   UNL     1      -5.650  10.742  22.519  0.00  0.00    +0.176 C 
ATOM     26  O   UNL     1      -5.260  10.243  21.210  0.00  0.00    -0.332 OA
ATOM     27  C   UNL     1      -5.217  11.242  20.138  0.00  0.00    +0.277 C 
ATOM     28  C   UNL     1      -4.305  12.427  20.538  0.00  0.00    +0.110 C 
ATOM     29  C   UNL     1      -4.661  12.972  21.938  0.00  0.00    +0.143 C 
ATOM     30  C   UNL     1      -4.680  11.848  22.975  0.00  0.00    +0.133 C 
BRANCH  30  31
ATOM     31  N   UNL     1      -5.105  12.365  24.286  0.00  0.00    -0.308 N 
ATOM     32  H   UNL     1      -6.071  12.638  24.394  0.00  0.00    +0.149 HD
ATOM     33  C   UNL     1      -4.296  12.495  25.341  0.00  0.00    +0.210 C 
ATOM     34  C   UNL     1      -2.824  12.094  25.136  0.00  0.00    +0.109 C 
ATOM     35  O   UNL     1      -4.683  12.917  26.432  0.00  0.00    -0.276 OA
ENDBRANCH  30  31
BRANCH  27  36
ATOM     36  C   UNL     1      -6.633  11.765  19.820  0.00  0.00    +0.414 C 
ATOM     37  O   UNL     1      -7.558  10.976  19.633  0.00  0.00    -0.240 OA
ATOM     38  O   UNL     1      -6.850  12.975  19.752  0.00  0.00    -0.240 OA
ENDBRANCH  27  36
BRANCH  27  39
ATOM     39  O   UNL     1      -4.654  10.610  18.959  0.00  0.00    -0.343 OA
ATOM     40  C   UNL     1      -4.552  11.468  17.794  0.00  0.00    +0.198 C 
ENDBRANCH  27  39
BRANCH  29  41
ATOM     41  O   UNL     1      -3.704  13.957  22.329  0.00  0.00    -0.390 OA
ATOM     42  H   UNL     1      -4.050  14.466  23.065  0.00  0.00    +0.210 HD
ENDBRANCH  29  41
ENDBRANCH  24  25
BRANCH  24  43
ATOM     43  O   UNL     1      -6.415   9.929  24.690  0.00  0.00    -0.387 OA
ATOM     44  H   UNL     1      -6.696  10.845  24.625  0.00  0.00    +0.210 HD
ENDBRANCH  24  43
ENDBRANCH   1  24
TORSDOF 15
