REMARK VINA RESULT:    -4.414      5.291      8.392
REMARK INTER + INTRA:         -11.786
REMARK INTER:                  -9.337
REMARK INTRA:                  -2.450
REMARK UNBOUND:                -3.114
REMARK  Name = lig_assembled_10.pdb
REMARK  21 active torsions:
REMARK  status: ('A' for Active; 'I' for Inactive)
REMARK    1  A    between atoms: _2  and  _9
REMARK    2  A    between atoms: _4  and  _20
REMARK    3  A    between atoms: _5  and  _9
REMARK    4  A    between atoms: _5  and  _12
REMARK    5  A    between atoms: _6  and  _7
REMARK    6  A    between atoms: _6  and  _20
REMARK    7  A    between atoms: _9  and  _10
REMARK    8  A    between atoms: _10  and  _11
REMARK    9  A    between atoms: _11  and  _14
REMARK   10  A    between atoms: _16  and  _36
REMARK   11  A    between atoms: _18  and  _24
REMARK   12  A    between atoms: _19  and  _23
REMARK   13  A    between atoms: _23  and  _24
REMARK   14  A    between atoms: _26  and  _27
REMARK   15  A    between atoms: _28  and  _29
REMARK   16  A    between atoms: _30  and  _32
REMARK   17  A    between atoms: _32  and  _33
REMARK   18  A    between atoms: _32  and  _34
REMARK   19  A    between atoms: _34  and  _35
REMARK   20  A    between atoms: _34  and  _36
REMARK   21  A    between atoms: _37  and  _39
REMARK                            x       y       z     vdW  Elec       q    Type
REMARK                         _______ _______ _______ _____ _____    ______ ____
ROOT
ATOM      1  C   UNL     1      -3.039  11.835  22.295  0.00  0.00    +0.163 C 
ENDROOT
BRANCH   1   2
ATOM      2  O   UNL     1      -2.729  13.027  21.555  0.00  0.00    -0.388 OA
ATOM      3  H   UNL     1      -2.056  12.831  20.899  0.00  0.00    +0.210 HD
ENDBRANCH   1   2
BRANCH   1   4
ATOM      4  C   UNL     1      -3.406  12.171  23.751  0.00  0.00    +0.175 C 
BRANCH   4   5
ATOM      5  C   UNL     1      -4.749  12.909  23.852  0.00  0.00    +0.176 C 
ATOM      6  O   UNL     1      -4.599  14.203  23.205  0.00  0.00    -0.332 OA
ATOM      7  C   UNL     1      -5.818  15.011  23.111  0.00  0.00    +0.277 C 
ATOM      8  C   UNL     1      -6.454  15.196  24.511  0.00  0.00    +0.110 C 
ATOM      9  C   UNL     1      -6.605  13.850  25.251  0.00  0.00    +0.143 C 
ATOM     10  C   UNL     1      -5.278  13.092  25.287  0.00  0.00    +0.133 C 
BRANCH  10  11
ATOM     11  N   UNL     1      -5.454  11.774  25.917  0.00  0.00    -0.308 N 
ATOM     12  H   UNL     1      -6.053  11.105  25.452  0.00  0.00    +0.149 HD
ATOM     13  C   UNL     1      -4.876  11.404  27.063  0.00  0.00    +0.210 C 
ATOM     14  C   UNL     1      -3.992  12.455  27.760  0.00  0.00    +0.109 C 
ATOM     15  O   UNL     1      -5.031  10.288  27.560  0.00  0.00    -0.276 OA
ENDBRANCH  10  11
BRANCH   7  16
ATOM     16  C   UNL     1      -6.841  14.349  22.164  0.00  0.00    +0.414 C 
ATOM     17  O   UNL     1      -8.035  14.323  22.461  0.00  0.00    -0.240 OA
ATOM     18  O   UNL     1      -6.473  13.841  21.105  0.00  0.00    -0.240 OA
ENDBRANCH   7  16
BRANCH   7  19
ATOM     19  O   UNL     1      -5.453  16.318  22.598  0.00  0.00    -0.343 OA
ATOM     20  C   UNL     1      -4.125  16.399  22.020  0.00  0.00    +0.198 C 
ENDBRANCH   7  19
BRANCH   9  21
ATOM     21  O   UNL     1      -7.051  14.083  26.587  0.00  0.00    -0.390 OA
ATOM     22  H   UNL     1      -8.000  14.226  26.588  0.00  0.00    +0.210 HD
ENDBRANCH   9  21
ENDBRANCH   4   5
BRANCH   4  23
ATOM     23  O   UNL     1      -2.361  12.956  24.358  0.00  0.00    -0.387 OA
ATOM     24  H   UNL     1      -2.724  13.462  25.089  0.00  0.00    +0.210 HD
ENDBRANCH   4  23
ENDBRANCH   1   4
BRANCH   1  25
ATOM     25  C   UNL     1      -4.198  11.098  21.634  0.00  0.00    +0.141 C 
BRANCH  25  28
ATOM     26  C   UNL     1      -4.876  10.951  19.262  0.00  0.00    +0.401 C 
ATOM     27  O   UNL     1      -4.916   9.719  19.252  0.00  0.00    -0.226 OA
ATOM     28  N   UNL     1      -4.544  11.678  20.330  0.00  0.00    -0.279 N 
ATOM     29  H   UNL     1      -4.530  12.684  20.238  0.00  0.00    +0.152 HD
BRANCH  26  30
ATOM     30  O   UNL     1      -5.195  11.666  18.066  0.00  0.00    -0.444 OA
BRANCH  30  31
ATOM     31  C   UNL     1      -5.590  10.743  17.048  0.00  0.00    +0.292 C 
BRANCH  31  33
ATOM     32  N   UNL     1      -3.469  11.497  16.015  0.00  0.00    -0.131 NA
ATOM     33  C   UNL     1      -4.553  10.661  16.003  0.00  0.00    +0.120 A 
ATOM     34  C   UNL     1      -4.457   9.815  14.921  0.00  0.00    +0.138 A 
ATOM     35  N   UNL     1      -3.276  10.153  14.335  0.00  0.00    -0.237 N 
ATOM     36  N   UNL     1      -2.698  11.184  14.985  0.00  0.00    -0.065 NA
BRANCH  35  37
ATOM     37  C   UNL     1      -2.590   9.595  13.181  0.00  0.00    +0.227 C 
BRANCH  37  38
ATOM     38  C   UNL     1      -2.476  10.536  12.001  0.00  0.00    +0.330 C 
ATOM     39  O   UNL     1      -2.849  10.211  10.879  0.00  0.00    -0.249 OA
BRANCH  38  40
ATOM     40  O   UNL     1      -1.987  11.772  12.236  0.00  0.00    -0.479 OA
ATOM     41  H   UNL     1      -1.214  11.834  12.855  0.00  0.00    +0.295 HD
ENDBRANCH  38  40
ENDBRANCH  37  38
BRANCH  37  42
ATOM     42  C   UNL     1      -3.080   8.200  12.770  0.00  0.00    +0.158 C 
BRANCH  42  43
ATOM     43  C   UNL     1      -2.031   7.145  12.984  0.00  0.00    +0.307 C 
ATOM     44  O   UNL     1      -1.020   7.045  12.301  0.00  0.00    -0.251 OA
BRANCH  43  45
ATOM     45  O   UNL     1      -2.264   6.363  14.055  0.00  0.00    -0.481 OA
ATOM     46  H   UNL     1      -2.850   6.749  14.734  0.00  0.00    +0.295 HD
ENDBRANCH  43  45
ENDBRANCH  42  43
ENDBRANCH  37  42
ENDBRANCH  35  37
ENDBRANCH  31  33
ENDBRANCH  30  31
ENDBRANCH  26  30
ENDBRANCH  25  28
ENDBRANCH   1  25
TORSDOF 19
