REMARK VINA RESULT:    -5.270      5.719     10.041
REMARK INTER + INTRA:         -13.689
REMARK INTER:                 -10.251
REMARK INTRA:                  -3.437
REMARK UNBOUND:                -3.181
REMARK  Name = lig_assembled_76.pdb
REMARK  21 active torsions:
REMARK  status: ('A' for Active; 'I' for Inactive)
REMARK    1  A    between atoms: _2  and  _9
REMARK    2  A    between atoms: _4  and  _23
REMARK    3  A    between atoms: _6  and  _7
REMARK    4  A    between atoms: _6  and  _23
REMARK    5  A    between atoms: _9  and  _10
REMARK    6  A    between atoms: _10  and  _11
REMARK    7  A    between atoms: _10  and  _18
REMARK    8  A    between atoms: _11  and  _12
REMARK    9  A    between atoms: _12  and  _13
REMARK   10  A    between atoms: _19  and  _39
REMARK   11  A    between atoms: _21  and  _27
REMARK   12  A    between atoms: _22  and  _26
REMARK   13  A    between atoms: _26  and  _27
REMARK   14  A    between atoms: _29  and  _30
REMARK   15  A    between atoms: _31  and  _32
REMARK   16  A    between atoms: _33  and  _35
REMARK   17  A    between atoms: _35  and  _36
REMARK   18  A    between atoms: _35  and  _37
REMARK   19  A    between atoms: _37  and  _38
REMARK   20  A    between atoms: _37  and  _39
REMARK   21  A    between atoms: _40  and  _42
REMARK                            x       y       z     vdW  Elec       q    Type
REMARK                         _______ _______ _______ _____ _____    ______ ____
ROOT
ATOM      1  C   UNL     1      -1.414   7.641  14.750  0.00  0.00    +0.141 C 
ENDROOT
BRANCH   1   4
ATOM      2  C   UNL     1      -2.710   6.277  16.352  0.00  0.00    +0.401 C 
ATOM      3  O   UNL     1      -1.718   5.909  16.985  0.00  0.00    -0.226 OA
ATOM      4  N   UNL     1      -2.660   7.082  15.290  0.00  0.00    -0.279 N 
ATOM      5  H   UNL     1      -3.527   7.320  14.830  0.00  0.00    +0.152 HD
BRANCH   2   6
ATOM      6  O   UNL     1      -4.003   5.823  16.760  0.00  0.00    -0.444 OA
BRANCH   6   7
ATOM      7  C   UNL     1      -5.001   6.725  16.275  0.00  0.00    +0.292 C 
BRANCH   7   9
ATOM      8  N   UNL     1      -4.472   8.778  17.560  0.00  0.00    -0.131 NA
ATOM      9  C   UNL     1      -5.323   7.735  17.296  0.00  0.00    +0.120 A 
ATOM     10  C   UNL     1      -6.420   7.828  18.124  0.00  0.00    +0.137 A 
ATOM     11  N   UNL     1      -6.179   8.947  18.859  0.00  0.00    -0.249 N 
ATOM     12  N   UNL     1      -5.006   9.511  18.528  0.00  0.00    -0.065 NA
BRANCH  11  13
ATOM     13  C   UNL     1      -6.948   9.456  19.972  0.00  0.00    +0.176 C 
BRANCH  13  14
ATOM     14  C   UNL     1      -6.199   9.365  21.306  0.00  0.00    +0.136 C 
BRANCH  14  15
ATOM     15  O   UNL     1      -5.006   8.582  21.151  0.00  0.00    -0.390 OA
ATOM     16  H   UNL     1      -4.855   8.416  20.204  0.00  0.00    +0.210 HD
ENDBRANCH  14  15
BRANCH  14  17
ATOM     17  C   UNL     1      -5.778  10.744  21.838  0.00  0.00    +0.038 C 
BRANCH  17  18
ATOM     18  C   UNL     1      -4.266  10.967  21.820  0.00  0.00    +0.038 C 
BRANCH  18  19
ATOM     19  C   UNL     1      -3.706  11.173  23.204  0.00  0.00    -0.047 A 
ATOM     20  C   UNL     1      -3.182  12.420  23.576  0.00  0.00    +0.003 A 
ATOM     21  C   UNL     1      -2.679  12.619  24.863  0.00  0.00    +0.000 A 
ATOM     22  C   UNL     1      -2.690  11.575  25.784  0.00  0.00    +0.000 A 
ATOM     23  C   UNL     1      -3.198  10.329  25.419  0.00  0.00    +0.000 A 
ATOM     24  C   UNL     1      -3.700  10.127  24.133  0.00  0.00    +0.003 A 
ENDBRANCH  18  19
ENDBRANCH  17  18
ENDBRANCH  14  17
ENDBRANCH  13  14
ENDBRANCH  11  13
ENDBRANCH   7   9
ENDBRANCH   6   7
ENDBRANCH   2   6
ENDBRANCH   1   4
BRANCH   1  25
ATOM     25  C   UNL     1      -1.680   8.711  13.697  0.00  0.00    +0.163 C 
BRANCH  25  26
ATOM     26  O   UNL     1      -1.949   8.095  12.427  0.00  0.00    -0.388 OA
ATOM     27  H   UNL     1      -1.407   7.308  12.331  0.00  0.00    +0.210 HD
ENDBRANCH  25  26
BRANCH  25  28
ATOM     28  C   UNL     1      -2.863   9.589  14.144  0.00  0.00    +0.175 C 
BRANCH  28  29
ATOM     29  C   UNL     1      -3.176  10.697  13.128  0.00  0.00    +0.176 C 
ATOM     30  O   UNL     1      -1.916  11.160  12.569  0.00  0.00    -0.332 OA
ATOM     31  C   UNL     1      -2.025  12.153  11.496  0.00  0.00    +0.277 C 
ATOM     32  C   UNL     1      -2.866  13.366  11.965  0.00  0.00    +0.110 C 
ATOM     33  C   UNL     1      -4.203  12.921  12.596  0.00  0.00    +0.143 C 
ATOM     34  C   UNL     1      -3.972  11.886  13.697  0.00  0.00    +0.133 C 
BRANCH  34  35
ATOM     35  N   UNL     1      -5.257  11.407  14.231  0.00  0.00    -0.308 N 
ATOM     36  H   UNL     1      -5.845  10.857  13.621  0.00  0.00    +0.149 HD
ATOM     37  C   UNL     1      -5.696  11.651  15.469  0.00  0.00    +0.210 C 
ATOM     38  C   UNL     1      -4.788  12.513  16.365  0.00  0.00    +0.109 C 
ATOM     39  O   UNL     1      -6.770  11.223  15.893  0.00  0.00    -0.276 OA
ENDBRANCH  34  35
BRANCH  31  40
ATOM     40  C   UNL     1      -2.670  11.532  10.240  0.00  0.00    +0.414 C 
ATOM     41  O   UNL     1      -3.176  12.254   9.381  0.00  0.00    -0.240 OA
ATOM     42  O   UNL     1      -2.685  10.311  10.085  0.00  0.00    -0.240 OA
ENDBRANCH  31  40
BRANCH  33  43
ATOM     43  O   UNL     1      -4.875  14.054  13.148  0.00  0.00    -0.390 OA
ATOM     44  H   UNL     1      -5.165  14.632  12.438  0.00  0.00    +0.210 HD
ENDBRANCH  33  43
BRANCH  31  45
ATOM     45  O   UNL     1      -0.688  12.620  11.179  0.00  0.00    -0.343 OA
ATOM     46  C   UNL     1      -0.392  13.971  11.612  0.00  0.00    +0.198 C 
ENDBRANCH  31  45
ENDBRANCH  28  29
BRANCH  28  47
ATOM     47  O   UNL     1      -2.594  10.162  15.438  0.00  0.00    -0.387 OA
ATOM     48  H   UNL     1      -3.294  10.778  15.667  0.00  0.00    +0.210 HD
ENDBRANCH  28  47
ENDBRANCH  25  28
ENDBRANCH   1  25
TORSDOF 19
