REMARK VINA RESULT:    -4.731      2.369      4.991
REMARK INTER + INTRA:         -12.613
REMARK INTER:                  -9.389
REMARK INTRA:                  -3.224
REMARK UNBOUND:                -3.181
REMARK  Name = lig_assembled_76.pdb
REMARK  21 active torsions:
REMARK  status: ('A' for Active; 'I' for Inactive)
REMARK    1  A    between atoms: _2  and  _9
REMARK    2  A    between atoms: _4  and  _23
REMARK    3  A    between atoms: _6  and  _7
REMARK    4  A    between atoms: _6  and  _23
REMARK    5  A    between atoms: _9  and  _10
REMARK    6  A    between atoms: _10  and  _11
REMARK    7  A    between atoms: _10  and  _18
REMARK    8  A    between atoms: _11  and  _12
REMARK    9  A    between atoms: _12  and  _13
REMARK   10  A    between atoms: _19  and  _39
REMARK   11  A    between atoms: _21  and  _27
REMARK   12  A    between atoms: _22  and  _26
REMARK   13  A    between atoms: _26  and  _27
REMARK   14  A    between atoms: _29  and  _30
REMARK   15  A    between atoms: _31  and  _32
REMARK   16  A    between atoms: _33  and  _35
REMARK   17  A    between atoms: _35  and  _36
REMARK   18  A    between atoms: _35  and  _37
REMARK   19  A    between atoms: _37  and  _38
REMARK   20  A    between atoms: _37  and  _39
REMARK   21  A    between atoms: _40  and  _42
REMARK                            x       y       z     vdW  Elec       q    Type
REMARK                         _______ _______ _______ _____ _____    ______ ____
ROOT
ATOM      1  C   UNL     1      -1.965  11.024  25.804  0.00  0.00    +0.141 C 
ENDROOT
BRANCH   1   4
ATOM      2  C   UNL     1      -2.118   9.162  27.421  0.00  0.00    +0.401 C 
ATOM      3  O   UNL     1      -2.079   8.284  26.557  0.00  0.00    -0.226 OA
ATOM      4  N   UNL     1      -2.076  10.469  27.158  0.00  0.00    -0.279 N 
ATOM      5  H   UNL     1      -2.124  11.114  27.935  0.00  0.00    +0.152 HD
BRANCH   2   6
ATOM      6  O   UNL     1      -2.218   8.781  28.796  0.00  0.00    -0.444 OA
BRANCH   6   7
ATOM      7  C   UNL     1      -3.514   9.124  29.294  0.00  0.00    +0.292 C 
BRANCH   7   9
ATOM      8  N   UNL     1      -2.706   9.801  31.538  0.00  0.00    -0.131 NA
ATOM      9  C   UNL     1      -3.401  10.096  30.394  0.00  0.00    +0.120 A 
ATOM     10  C   UNL     1      -3.927  11.365  30.499  0.00  0.00    +0.137 A 
ATOM     11  N   UNL     1      -3.512  11.787  31.724  0.00  0.00    -0.249 N 
ATOM     12  N   UNL     1      -2.788  10.846  32.351  0.00  0.00    -0.065 NA
BRANCH  11  13
ATOM     13  C   UNL     1      -3.874  13.008  32.408  0.00  0.00    +0.176 C 
BRANCH  13  14
ATOM     14  C   UNL     1      -2.866  14.140  32.184  0.00  0.00    +0.136 C 
BRANCH  14  15
ATOM     15  O   UNL     1      -1.613  13.605  31.737  0.00  0.00    -0.390 OA
ATOM     16  H   UNL     1      -1.668  13.420  30.783  0.00  0.00    +0.210 HD
ENDBRANCH  14  15
BRANCH  14  17
ATOM     17  C   UNL     1      -3.341  15.148  31.125  0.00  0.00    +0.038 C 
BRANCH  17  18
ATOM     18  C   UNL     1      -4.839  15.063  30.832  0.00  0.00    +0.038 C 
BRANCH  18  19
ATOM     19  C   UNL     1      -5.313  16.204  29.969  0.00  0.00    -0.047 A 
ATOM     20  C   UNL     1      -6.378  16.018  29.075  0.00  0.00    +0.003 A 
ATOM     21  C   UNL     1      -6.832  17.076  28.287  0.00  0.00    +0.000 A 
ATOM     22  C   UNL     1      -6.224  18.326  28.381  0.00  0.00    +0.000 A 
ATOM     23  C   UNL     1      -5.157  18.516  29.259  0.00  0.00    +0.000 A 
ATOM     24  C   UNL     1      -4.701  17.459  30.047  0.00  0.00    +0.003 A 
ENDBRANCH  18  19
ENDBRANCH  17  18
ENDBRANCH  14  17
ENDBRANCH  13  14
ENDBRANCH  11  13
ENDBRANCH   7   9
ENDBRANCH   6   7
ENDBRANCH   2   6
ENDBRANCH   1   4
BRANCH   1  25
ATOM     25  C   UNL     1      -2.956  12.160  25.571  0.00  0.00    +0.163 C 
BRANCH  25  26
ATOM     26  O   UNL     1      -2.629  12.856  24.357  0.00  0.00    -0.388 OA
ATOM     27  H   UNL     1      -3.424  13.250  23.990  0.00  0.00    +0.210 HD
ENDBRANCH  25  26
BRANCH  25  28
ATOM     28  C   UNL     1      -4.384  11.591  25.512  0.00  0.00    +0.175 C 
BRANCH  28  29
ATOM     29  C   UNL     1      -4.670  10.884  24.179  0.00  0.00    +0.176 C 
ATOM     30  O   UNL     1      -5.185  11.875  23.248  0.00  0.00    -0.332 OA
ATOM     31  C   UNL     1      -5.417  11.400  21.881  0.00  0.00    +0.277 C 
ATOM     32  C   UNL     1      -6.343  10.160  21.889  0.00  0.00    +0.110 C 
ATOM     33  C   UNL     1      -5.854   9.090  22.888  0.00  0.00    +0.143 C 
ATOM     34  C   UNL     1      -5.642   9.693  24.277  0.00  0.00    +0.133 C 
BRANCH  34  35
ATOM     35  N   UNL     1      -5.093   8.685  25.198  0.00  0.00    -0.308 N 
ATOM     36  H   UNL     1      -4.168   8.326  25.007  0.00  0.00    +0.149 HD
ATOM     37  C   UNL     1      -5.737   8.215  26.270  0.00  0.00    +0.210 C 
ATOM     38  C   UNL     1      -7.155   8.763  26.518  0.00  0.00    +0.109 C 
ATOM     39  O   UNL     1      -5.247   7.381  27.032  0.00  0.00    -0.276 OA
ENDBRANCH  34  35
BRANCH  31  40
ATOM     40  C   UNL     1      -4.084  11.044  21.192  0.00  0.00    +0.414 C 
ATOM     41  O   UNL     1      -3.043  11.610  21.524  0.00  0.00    -0.240 OA
ATOM     42  O   UNL     1      -4.048  10.191  20.304  0.00  0.00    -0.240 OA
ENDBRANCH  31  40
BRANCH  33  43
ATOM     43  O   UNL     1      -6.814   8.036  22.974  0.00  0.00    -0.390 OA
ATOM     44  H   UNL     1      -6.789   7.651  23.853  0.00  0.00    +0.210 HD
ENDBRANCH  33  43
BRANCH  31  45
ATOM     45  O   UNL     1      -6.079  12.461  21.144  0.00  0.00    -0.343 OA
ATOM     46  C   UNL     1      -7.109  12.016  20.225  0.00  0.00    +0.198 C 
ENDBRANCH  31  45
ENDBRANCH  28  29
BRANCH  28  47
ATOM     47  O   UNL     1      -5.346  12.642  25.733  0.00  0.00    -0.387 OA
ATOM     48  H   UNL     1      -5.533  13.085  24.903  0.00  0.00    +0.210 HD
ENDBRANCH  28  47
ENDBRANCH  25  28
ENDBRANCH   1  25
TORSDOF 19
