REMARK VINA RESULT:    -5.848      4.578      6.952
REMARK INTER + INTRA:         -13.264
REMARK INTER:                 -11.262
REMARK INTRA:                  -2.001
REMARK UNBOUND:                -3.141
REMARK  Name = lig_assembled_91.pdb
REMARK  16 active torsions:
REMARK  status: ('A' for Active; 'I' for Inactive)
REMARK    1  A    between atoms: _2  and  _10
REMARK    2  A    between atoms: _5  and  _26
REMARK    3  A    between atoms: _7  and  _8
REMARK    4  A    between atoms: _7  and  _26
REMARK    5  A    between atoms: _22  and  _42
REMARK    6  A    between atoms: _24  and  _30
REMARK    7  A    between atoms: _25  and  _29
REMARK    8  A    between atoms: _29  and  _30
REMARK    9  A    between atoms: _32  and  _33
REMARK   10  A    between atoms: _34  and  _35
REMARK   11  A    between atoms: _36  and  _38
REMARK   12  A    between atoms: _38  and  _39
REMARK   13  A    between atoms: _38  and  _40
REMARK   14  A    between atoms: _40  and  _41
REMARK   15  A    between atoms: _40  and  _42
REMARK   16  A    between atoms: _43  and  _45
REMARK                            x       y       z     vdW  Elec       q    Type
REMARK                         _______ _______ _______ _____ _____    ______ ____
ROOT
ATOM      1  C   UNL     1      -4.099  12.958  22.014  0.00  0.00    +0.401 C 
ATOM      2  O   UNL     1      -3.160  12.297  21.564  0.00  0.00    -0.226 OA
ATOM      3  N   UNL     1      -4.172  13.388  23.274  0.00  0.00    -0.279 N 
ATOM      4  H   UNL     1      -4.978  13.932  23.546  0.00  0.00    +0.152 HD
ENDROOT
BRANCH   3   5
ATOM      5  C   UNL     1      -3.146  13.115  24.288  0.00  0.00    +0.141 C 
BRANCH   5   6
ATOM      6  C   UNL     1      -3.421  11.817  25.040  0.00  0.00    +0.163 C 
BRANCH   6   7
ATOM      7  O   UNL     1      -2.306  10.922  24.900  0.00  0.00    -0.388 OA
ATOM      8  H   UNL     1      -2.447  10.351  24.141  0.00  0.00    +0.210 HD
ENDBRANCH   6   7
BRANCH   6   9
ATOM      9  C   UNL     1      -3.693  12.130  26.522  0.00  0.00    +0.175 C 
BRANCH   9  10
ATOM     10  C   UNL     1      -3.394  10.928  27.430  0.00  0.00    +0.176 C 
ATOM     11  O   UNL     1      -4.016   9.755  26.839  0.00  0.00    -0.332 OA
ATOM     12  C   UNL     1      -3.747   8.484  27.519  0.00  0.00    +0.277 C 
ATOM     13  C   UNL     1      -4.127   8.580  29.016  0.00  0.00    +0.110 C 
ATOM     14  C   UNL     1      -3.514   9.830  29.681  0.00  0.00    +0.143 C 
ATOM     15  C   UNL     1      -3.854  11.094  28.891  0.00  0.00    +0.133 C 
BRANCH  15  16
ATOM     16  N   UNL     1      -3.192  12.267  29.484  0.00  0.00    -0.308 N 
ATOM     17  H   UNL     1      -2.184  12.314  29.436  0.00  0.00    +0.149 HD
ATOM     18  C   UNL     1      -3.837  13.272  30.083  0.00  0.00    +0.210 C 
ATOM     19  C   UNL     1      -5.371  13.158  30.163  0.00  0.00    +0.109 C 
ATOM     20  O   UNL     1      -3.257  14.249  30.558  0.00  0.00    -0.276 OA
ENDBRANCH  15  16
BRANCH  12  21
ATOM     21  C   UNL     1      -2.258   8.099  27.388  0.00  0.00    +0.414 C 
ATOM     22  O   UNL     1      -1.665   7.587  28.337  0.00  0.00    -0.240 OA
ATOM     23  O   UNL     1      -1.651   8.300  26.336  0.00  0.00    -0.240 OA
ENDBRANCH  12  21
BRANCH  14  24
ATOM     24  O   UNL     1      -4.011   9.961  31.014  0.00  0.00    -0.390 OA
ATOM     25  H   UNL     1      -4.022  10.888  31.262  0.00  0.00    +0.210 HD
ENDBRANCH  14  24
BRANCH  12  26
ATOM     26  O   UNL     1      -4.571   7.462  26.902  0.00  0.00    -0.343 OA
ATOM     27  C   UNL     1      -5.047   7.780  25.569  0.00  0.00    +0.198 C 
ENDBRANCH  12  26
ENDBRANCH   9  10
BRANCH   9  28
ATOM     28  O   UNL     1      -5.058  12.557  26.697  0.00  0.00    -0.387 OA
ATOM     29  H   UNL     1      -5.569  11.846  27.090  0.00  0.00    +0.210 HD
ENDBRANCH   9  28
ENDBRANCH   6   9
ENDBRANCH   5   6
ENDBRANCH   3   5
BRANCH   1  30
ATOM     30  O   UNL     1      -5.185  13.299  21.148  0.00  0.00    -0.444 OA
BRANCH  30  31
ATOM     31  C   UNL     1      -5.847  12.107  20.718  0.00  0.00    +0.292 C 
BRANCH  31  33
ATOM     32  N   UNL     1      -6.634  12.214  18.381  0.00  0.00    -0.131 NA
ATOM     33  C   UNL     1      -5.653  11.900  19.270  0.00  0.00    +0.121 A 
ATOM     34  C   UNL     1      -4.563  11.421  18.579  0.00  0.00    +0.143 A 
ATOM     35  N   UNL     1      -4.941  11.415  17.251  0.00  0.00    -0.218 N 
ATOM     36  N   UNL     1      -6.196  11.923  17.165  0.00  0.00    -0.060 NA
BRANCH  35  37
ATOM     37  C   UNL     1      -4.219  10.969  16.101  0.00  0.00    +0.085 A 
ATOM     38  C   UNL     1      -3.784  11.916  15.106  0.00  0.00    +0.026 A 
ATOM     39  C   UNL     1      -3.103  11.368  14.000  0.00  0.00    +0.074 A 
ATOM     40  C   UNL     1      -2.638  12.181  12.978  0.00  0.00    +0.028 A 
ATOM     41  C   UNL     1      -2.808  13.561  12.990  0.00  0.00    +0.002 A 
ATOM     42  C   UNL     1      -3.438  14.146  14.071  0.00  0.00    +0.001 A 
ATOM     43  N   UNL     1      -2.839  10.072  13.861  0.00  0.00    -0.247 NA
ATOM     44  C   UNL     1      -3.218   9.203  14.797  0.00  0.00    +0.074 A 
ATOM     45  C   UNL     1      -2.892   7.873  14.548  0.00  0.00    +0.028 A 
ATOM     46  C   UNL     1      -3.253   6.846  15.414  0.00  0.00    +0.002 A 
ATOM     47  C   UNL     1      -3.969   7.151  16.553  0.00  0.00    +0.001 A 
ATOM     48  C   UNL     1      -4.309   8.482  16.815  0.00  0.00    +0.012 A 
ATOM     49  C   UNL     1      -3.898  13.342  15.120  0.00  0.00    +0.012 A 
ATOM     50  C   UNL     1      -3.927   9.562  15.954  0.00  0.00    +0.026 A 
ENDBRANCH  35  37
ENDBRANCH  31  33
ENDBRANCH  30  31
ENDBRANCH   1  30
TORSDOF 14
