REMARK VINA RESULT:    -4.545      7.348     12.328
REMARK INTER + INTRA:         -10.975
REMARK INTER:                  -7.683
REMARK INTRA:                  -3.292
REMARK UNBOUND:                -2.844
REMARK  Name = lig_assembled_44.pdb
REMARK  17 active torsions:
REMARK  status: ('A' for Active; 'I' for Inactive)
REMARK    1  A    between atoms: _2  and  _9
REMARK    2  A    between atoms: _4  and  _19
REMARK    3  A    between atoms: _6  and  _7
REMARK    4  A    between atoms: _6  and  _19
REMARK    5  A    between atoms: _9  and  _10
REMARK    6  A    between atoms: _15  and  _35
REMARK    7  A    between atoms: _17  and  _23
REMARK    8  A    between atoms: _18  and  _22
REMARK    9  A    between atoms: _22  and  _23
REMARK   10  A    between atoms: _25  and  _26
REMARK   11  A    between atoms: _27  and  _28
REMARK   12  A    between atoms: _29  and  _31
REMARK   13  A    between atoms: _31  and  _32
REMARK   14  A    between atoms: _31  and  _33
REMARK   15  A    between atoms: _33  and  _34
REMARK   16  A    between atoms: _33  and  _35
REMARK   17  A    between atoms: _36  and  _38
REMARK                            x       y       z     vdW  Elec       q    Type
REMARK                         _______ _______ _______ _____ _____    ______ ____
ROOT
ATOM      1  C   UNL     1      -2.755  11.211  26.056  0.00  0.00    +0.163 C 
ENDROOT
BRANCH   1   2
ATOM      2  O   UNL     1      -1.976  12.197  25.359  0.00  0.00    -0.388 OA
ATOM      3  H   UNL     1      -2.265  13.075  25.616  0.00  0.00    +0.210 HD
ENDBRANCH   1   2
BRANCH   1   4
ATOM      4  C   UNL     1      -1.846  10.109  26.589  0.00  0.00    +0.141 C 
BRANCH   4   7
ATOM      5  C   UNL     1      -2.535   8.702  28.500  0.00  0.00    +0.401 C 
ATOM      6  O   UNL     1      -2.831   7.731  27.800  0.00  0.00    -0.226 OA
ATOM      7  N   UNL     1      -2.073   9.856  28.017  0.00  0.00    -0.279 N 
ATOM      8  H   UNL     1      -1.867  10.598  28.671  0.00  0.00    +0.152 HD
BRANCH   5   9
ATOM      9  O   UNL     1      -2.692   8.609  29.918  0.00  0.00    -0.444 OA
BRANCH   9  10
ATOM     10  C   UNL     1      -3.977   9.114  30.291  0.00  0.00    +0.292 C 
BRANCH  10  12
ATOM     11  N   UNL     1      -2.622  10.977  31.205  0.00  0.00    -0.131 NA
ATOM     12  C   UNL     1      -3.834  10.352  31.080  0.00  0.00    +0.120 A 
ATOM     13  C   UNL     1      -4.784  11.072  31.767  0.00  0.00    +0.137 A 
ATOM     14  N   UNL     1      -4.104  12.164  32.220  0.00  0.00    -0.247 N 
ATOM     15  N   UNL     1      -2.796  12.083  31.916  0.00  0.00    -0.065 NA
BRANCH  14  16
ATOM     16  C   UNL     1      -4.624  13.310  32.940  0.00  0.00    +0.180 C 
BRANCH  16  17
ATOM     17  C   UNL     1      -4.786  14.506  32.033  0.00  0.00    -0.026 A 
ATOM     18  C   UNL     1      -3.792  15.495  31.968  0.00  0.00    +0.006 A 
ATOM     19  C   UNL     1      -3.951  16.609  31.141  0.00  0.00    +0.015 A 
ATOM     20  C   UNL     1      -5.107  16.740  30.373  0.00  0.00    +0.018 A 
ATOM     21 BR   UNL     1      -5.313  18.239  29.240  0.00  0.00    -0.050 Br
ATOM     22  C   UNL     1      -6.109  15.775  30.433  0.00  0.00    +0.015 A 
ATOM     23  C   UNL     1      -5.952  14.663  31.266  0.00  0.00    +0.006 A 
ENDBRANCH  16  17
ENDBRANCH  14  16
ENDBRANCH  10  12
ENDBRANCH   9  10
ENDBRANCH   5   9
ENDBRANCH   4   7
ENDBRANCH   1   4
BRANCH   1  24
ATOM     24  C   UNL     1      -3.820  10.597  25.131  0.00  0.00    +0.175 C 
BRANCH  24  25
ATOM     25  C   UNL     1      -4.795  11.653  24.591  0.00  0.00    +0.176 C 
ATOM     26  O   UNL     1      -4.087  12.450  23.601  0.00  0.00    -0.332 OA
ATOM     27  C   UNL     1      -4.896  13.449  22.896  0.00  0.00    +0.277 C 
ATOM     28  C   UNL     1      -5.608  14.381  23.907  0.00  0.00    +0.110 C 
ATOM     29  C   UNL     1      -6.348  13.579  24.998  0.00  0.00    +0.143 C 
ATOM     30  C   UNL     1      -5.414  12.568  25.664  0.00  0.00    +0.133 C 
BRANCH  30  31
ATOM     31  N   UNL     1      -6.152  11.750  26.640  0.00  0.00    -0.308 N 
ATOM     32  H   UNL     1      -6.863  11.123  26.289  0.00  0.00    +0.149 HD
ATOM     33  C   UNL     1      -5.945  11.782  27.959  0.00  0.00    +0.210 C 
ATOM     34  C   UNL     1      -4.873  12.767  28.464  0.00  0.00    +0.109 C 
ATOM     35  O   UNL     1      -6.568  11.075  28.751  0.00  0.00    -0.276 OA
ENDBRANCH  30  31
BRANCH  27  36
ATOM     36  C   UNL     1      -5.947  12.766  21.996  0.00  0.00    +0.414 C 
ATOM     37  O   UNL     1      -7.126  13.116  22.044  0.00  0.00    -0.240 OA
ATOM     38  O   UNL     1      -5.617  11.866  21.223  0.00  0.00    -0.240 OA
ENDBRANCH  27  36
BRANCH  27  39
ATOM     39  O   UNL     1      -4.005  14.254  22.081  0.00  0.00    -0.343 OA
ATOM     40  C   UNL     1      -4.190  15.687  22.203  0.00  0.00    +0.198 C 
ENDBRANCH  27  39
BRANCH  29  41
ATOM     41  O   UNL     1      -6.859  14.471  25.989  0.00  0.00    -0.390 OA
ATOM     42  H   UNL     1      -6.930  14.011  26.828  0.00  0.00    +0.210 HD
ENDBRANCH  29  41
ENDBRANCH  24  25
BRANCH  24  43
ATOM     43  O   UNL     1      -4.544   9.562  25.826  0.00  0.00    -0.387 OA
ATOM     44  H   UNL     1      -4.059   9.305  26.613  0.00  0.00    +0.210 HD
ENDBRANCH  24  43
ENDBRANCH   1  24
TORSDOF 15
