REMARK VINA RESULT:    -4.773      2.252      6.989
REMARK INTER + INTRA:         -10.843
REMARK INTER:                  -6.889
REMARK INTRA:                  -3.954
REMARK UNBOUND:                -2.303
REMARK  Name = lig_assembled_4.pdb
REMARK  19 active torsions:
REMARK  status: ('A' for Active; 'I' for Inactive)
REMARK    1  A    between atoms: _2  and  _9
REMARK    2  A    between atoms: _4  and  _21
REMARK    3  A    between atoms: _6  and  _7
REMARK    4  A    between atoms: _6  and  _21
REMARK    5  A    between atoms: _10  and  _11
REMARK    6  A    between atoms: _11  and  _12
REMARK    7  A    between atoms: _11  and  _13
REMARK    8  A    between atoms: _17  and  _37
REMARK    9  A    between atoms: _19  and  _25
REMARK   10  A    between atoms: _20  and  _24
REMARK   11  A    between atoms: _24  and  _25
REMARK   12  A    between atoms: _27  and  _28
REMARK   13  A    between atoms: _29  and  _30
REMARK   14  A    between atoms: _31  and  _33
REMARK   15  A    between atoms: _33  and  _34
REMARK   16  A    between atoms: _33  and  _35
REMARK   17  A    between atoms: _35  and  _36
REMARK   18  A    between atoms: _35  and  _37
REMARK   19  A    between atoms: _38  and  _40
REMARK                            x       y       z     vdW  Elec       q    Type
REMARK                         _______ _______ _______ _____ _____    ______ ____
ROOT
ATOM      1  C   UNL     1      -3.711   7.645  26.123  0.00  0.00    +0.163 C 
ENDROOT
BRANCH   1   2
ATOM      2  O   UNL     1      -2.967   8.609  25.359  0.00  0.00    -0.388 OA
ATOM      3  H   UNL     1      -2.811   9.390  25.895  0.00  0.00    +0.210 HD
ENDBRANCH   1   2
BRANCH   1   4
ATOM      4  C   UNL     1      -3.915   6.375  25.303  0.00  0.00    +0.141 C 
BRANCH   4   7
ATOM      5  C   UNL     1      -5.055   6.938  23.185  0.00  0.00    +0.401 C 
ATOM      6  O   UNL     1      -4.032   7.351  22.635  0.00  0.00    -0.226 OA
ATOM      7  N   UNL     1      -5.093   6.469  24.433  0.00  0.00    -0.279 N 
ATOM      8  H   UNL     1      -5.983   6.162  24.800  0.00  0.00    +0.152 HD
BRANCH   5   9
ATOM      9  O   UNL     1      -6.288   6.956  22.461  0.00  0.00    -0.444 OA
BRANCH   9  10
ATOM     10  C   UNL     1      -7.276   7.660  23.219  0.00  0.00    +0.292 C 
BRANCH  10  12
ATOM     11  N   UNL     1      -7.916   9.550  21.767  0.00  0.00    -0.131 NA
ATOM     12  C   UNL     1      -7.273   9.094  22.875  0.00  0.00    +0.121 A 
ATOM     13  C   UNL     1      -6.654  10.150  23.505  0.00  0.00    +0.143 A 
ATOM     14  N   UNL     1      -6.843  11.227  22.659  0.00  0.00    -0.219 N 
ATOM     15  N   UNL     1      -7.671  10.850  21.661  0.00  0.00    -0.060 NA
BRANCH  14  16
ATOM     16  C   UNL     1      -6.263  12.527  22.765  0.00  0.00    +0.070 A 
ATOM     17  C   UNL     1      -5.050  12.895  22.120  0.00  0.00    -0.019 A 
ATOM     18  C   UNL     1      -4.571  14.207  22.336  0.00  0.00    +0.006 A 
ATOM     19  C   UNL     1      -5.239  15.116  23.157  0.00  0.00    +0.000 A 
ATOM     20  C   UNL     1      -6.425  14.748  23.775  0.00  0.00    +0.002 A 
ATOM     21  C   UNL     1      -6.932  13.464  23.583  0.00  0.00    +0.028 A 
BRANCH  17  22
ATOM     22  C   UNL     1      -4.233  11.964  21.223  0.00  0.00    +0.015 C 
ATOM     23  C   UNL     1      -2.708  12.121  21.338  0.00  0.00    +0.012 C 
ATOM     24  C   UNL     1      -4.664  12.134  19.764  0.00  0.00    +0.012 C 
ENDBRANCH  17  22
ENDBRANCH  14  16
ENDBRANCH  10  12
ENDBRANCH   9  10
ENDBRANCH   5   9
ENDBRANCH   4   7
ENDBRANCH   1   4
BRANCH   1  25
ATOM     25  C   UNL     1      -5.078   8.211  26.543  0.00  0.00    +0.175 C 
BRANCH  25  26
ATOM     26  C   UNL     1      -4.948   9.562  27.261  0.00  0.00    +0.176 C 
ATOM     27  O   UNL     1      -4.599  10.565  26.267  0.00  0.00    -0.332 OA
ATOM     28  C   UNL     1      -4.536  11.946  26.756  0.00  0.00    +0.277 C 
ATOM     29  C   UNL     1      -3.572  12.049  27.963  0.00  0.00    +0.110 C 
ATOM     30  C   UNL     1      -3.884  10.981  29.033  0.00  0.00    +0.143 C 
ATOM     31  C   UNL     1      -3.929   9.583  28.415  0.00  0.00    +0.133 C 
BRANCH  31  32
ATOM     32  N   UNL     1      -4.312   8.585  29.427  0.00  0.00    -0.308 N 
ATOM     33  H   UNL     1      -5.254   8.619  29.789  0.00  0.00    +0.149 HD
ATOM     34  C   UNL     1      -3.495   7.639  29.897  0.00  0.00    +0.210 C 
ATOM     35  C   UNL     1      -2.057   7.631  29.345  0.00  0.00    +0.109 C 
ATOM     36  O   UNL     1      -3.848   6.807  30.734  0.00  0.00    -0.276 OA
ENDBRANCH  31  32
BRANCH  28  37
ATOM     37  C   UNL     1      -5.936  12.445  27.169  0.00  0.00    +0.414 C 
ATOM     38  O   UNL     1      -6.054  13.332  28.014  0.00  0.00    -0.240 OA
ATOM     39  O   UNL     1      -6.947  11.961  26.658  0.00  0.00    -0.240 OA
ENDBRANCH  28  37
BRANCH  30  40
ATOM     40  O   UNL     1      -2.883  11.014  30.052  0.00  0.00    -0.390 OA
ATOM     41  H   UNL     1      -2.581  10.121  30.233  0.00  0.00    +0.210 HD
ENDBRANCH  30  40
BRANCH  28  42
ATOM     42  O   UNL     1      -4.018  12.777  25.685  0.00  0.00    -0.343 OA
ATOM     43  C   UNL     1      -2.758  12.333  25.120  0.00  0.00    +0.198 C 
ENDBRANCH  28  42
ENDBRANCH  25  26
BRANCH  25  44
ATOM     44  O   UNL     1      -5.770   7.267  27.383  0.00  0.00    -0.387 OA
ATOM     45  H   UNL     1      -5.937   7.663  28.241  0.00  0.00    +0.210 HD
ENDBRANCH  25  44
ENDBRANCH   1  25
TORSDOF 15
