REMARK VINA RESULT:    -4.784      2.066      2.659
REMARK INTER + INTRA:         -10.290
REMARK INTER:                  -7.764
REMARK INTRA:                  -2.526
REMARK UNBOUND:                -2.010
REMARK  Name = lig_assembled_49.pdb
REMARK  16 active torsions:
REMARK  status: ('A' for Active; 'I' for Inactive)
REMARK    1  A    between atoms: _2  and  _9
REMARK    2  A    between atoms: _4  and  _17
REMARK    3  A    between atoms: _6  and  _7
REMARK    4  A    between atoms: _6  and  _17
REMARK    5  A    between atoms: _13  and  _33
REMARK    6  A    between atoms: _15  and  _21
REMARK    7  A    between atoms: _16  and  _20
REMARK    8  A    between atoms: _20  and  _21
REMARK    9  A    between atoms: _23  and  _24
REMARK   10  A    between atoms: _25  and  _26
REMARK   11  A    between atoms: _27  and  _29
REMARK   12  A    between atoms: _29  and  _30
REMARK   13  A    between atoms: _29  and  _31
REMARK   14  A    between atoms: _31  and  _32
REMARK   15  A    between atoms: _31  and  _33
REMARK   16  A    between atoms: _34  and  _36
REMARK                            x       y       z     vdW  Elec       q    Type
REMARK                         _______ _______ _______ _____ _____    ______ ____
ROOT
ATOM      1  C   UNL     1      -5.140  11.925  29.097  0.00  0.00    +0.175 C 
ENDROOT
BRANCH   1   2
ATOM      2  C   UNL     1      -5.088  13.304  29.771  0.00  0.00    +0.176 C 
ATOM      3  O   UNL     1      -4.932  13.097  31.202  0.00  0.00    -0.332 OA
ATOM      4  C   UNL     1      -4.757  14.312  32.003  0.00  0.00    +0.277 C 
ATOM      5  C   UNL     1      -5.917  15.304  31.742  0.00  0.00    +0.110 C 
ATOM      6  C   UNL     1      -6.143  15.531  30.232  0.00  0.00    +0.143 C 
ATOM      7  C   UNL     1      -6.309  14.201  29.496  0.00  0.00    +0.133 C 
BRANCH   7   8
ATOM      8  N   UNL     1      -6.436  14.427  28.047  0.00  0.00    -0.308 N 
ATOM      9  H   UNL     1      -5.629  14.778  27.552  0.00  0.00    +0.149 HD
ATOM     10  C   UNL     1      -7.549  14.197  27.345  0.00  0.00    +0.210 C 
ATOM     11  C   UNL     1      -8.770  13.687  28.133  0.00  0.00    +0.109 C 
ATOM     12  O   UNL     1      -7.622  14.382  26.129  0.00  0.00    -0.276 OA
ENDBRANCH   7   8
BRANCH   4  13
ATOM     13  C   UNL     1      -3.412  14.994  31.676  0.00  0.00    +0.414 C 
ATOM     14  O   UNL     1      -2.517  14.363  31.115  0.00  0.00    -0.240 OA
ATOM     15  O   UNL     1      -3.222  16.174  31.972  0.00  0.00    -0.240 OA
ENDBRANCH   4  13
BRANCH   6  16
ATOM     16  O   UNL     1      -7.311  16.328  30.034  0.00  0.00    -0.390 OA
ATOM     17  H   UNL     1      -7.438  16.904  30.792  0.00  0.00    +0.210 HD
ENDBRANCH   6  16
BRANCH   4  18
ATOM     18  O   UNL     1      -4.785  13.934  33.404  0.00  0.00    -0.343 OA
ATOM     19  C   UNL     1      -4.149  12.667  33.709  0.00  0.00    +0.198 C 
ENDBRANCH   4  18
ENDBRANCH   1   2
BRANCH   1  20
ATOM     20  O   UNL     1      -6.443  11.333  29.275  0.00  0.00    -0.387 OA
ATOM     21  H   UNL     1      -7.048  11.688  28.619  0.00  0.00    +0.210 HD
ENDBRANCH   1  20
BRANCH   1  22
ATOM     22  C   UNL     1      -4.051  10.978  29.632  0.00  0.00    +0.163 C 
BRANCH  22  23
ATOM     23  O   UNL     1      -2.927  11.719  30.132  0.00  0.00    -0.388 OA
ATOM     24  H   UNL     1      -2.363  11.981  29.400  0.00  0.00    +0.210 HD
ENDBRANCH  22  23
BRANCH  22  25
ATOM     25  C   UNL     1      -3.602  10.038  28.518  0.00  0.00    +0.141 C 
BRANCH  25  28
ATOM     26  C   UNL     1      -2.254  10.344  26.470  0.00  0.00    +0.401 C 
ATOM     27  O   UNL     1      -1.619   9.297  26.618  0.00  0.00    -0.226 OA
ATOM     28  N   UNL     1      -3.195  10.771  27.313  0.00  0.00    -0.279 N 
ATOM     29  H   UNL     1      -3.653  11.649  27.112  0.00  0.00    +0.152 HD
BRANCH  26  30
ATOM     30  O   UNL     1      -1.977  11.169  25.336  0.00  0.00    -0.444 OA
BRANCH  30  31
ATOM     31  C   UNL     1      -2.980  10.961  24.338  0.00  0.00    +0.292 C 
BRANCH  31  33
ATOM     32  N   UNL     1      -4.314  12.946  24.970  0.00  0.00    -0.131 NA
ATOM     33  C   UNL     1      -3.649  12.234  24.008  0.00  0.00    +0.120 A 
ATOM     34  C   UNL     1      -3.747  12.899  22.807  0.00  0.00    +0.137 A 
ATOM     35  N   UNL     1      -4.489  14.005  23.102  0.00  0.00    -0.248 N 
ATOM     36  N   UNL     1      -4.824  14.030  24.404  0.00  0.00    -0.065 NA
BRANCH  35  37
ATOM     37  C   UNL     1      -4.921  15.045  22.200  0.00  0.00    +0.109 C 
ATOM     38  C   UNL     1      -6.233  15.716  22.612  0.00  0.00    +0.027 C 
ATOM     39  C   UNL     1      -6.225  17.001  21.802  0.00  0.00    +0.002 C 
ATOM     40  C   UNL     1      -4.775  17.464  21.850  0.00  0.00    +0.002 C 
ATOM     41  C   UNL     1      -3.928  16.203  22.040  0.00  0.00    +0.027 C 
ENDBRANCH  35  37
ENDBRANCH  31  33
ENDBRANCH  30  31
ENDBRANCH  26  30
ENDBRANCH  25  28
ENDBRANCH  22  25
ENDBRANCH   1  22
TORSDOF 14
