REMARK VINA RESULT:    -4.720      4.627     10.095
REMARK INTER + INTRA:         -11.010
REMARK INTER:                  -8.624
REMARK INTRA:                  -2.387
REMARK UNBOUND:                -2.841
REMARK  Name = lig_assembled_86.pdb
REMARK  17 active torsions:
REMARK  status: ('A' for Active; 'I' for Inactive)
REMARK    1  A    between atoms: _2  and  _10
REMARK    2  A    between atoms: _3  and  _13
REMARK    3  A    between atoms: _5  and  _21
REMARK    4  A    between atoms: _7  and  _8
REMARK    5  A    between atoms: _7  and  _21
REMARK    6  A    between atoms: _17  and  _37
REMARK    7  A    between atoms: _19  and  _25
REMARK    8  A    between atoms: _20  and  _24
REMARK    9  A    between atoms: _24  and  _25
REMARK   10  A    between atoms: _27  and  _28
REMARK   11  A    between atoms: _29  and  _30
REMARK   12  A    between atoms: _31  and  _33
REMARK   13  A    between atoms: _33  and  _34
REMARK   14  A    between atoms: _33  and  _35
REMARK   15  A    between atoms: _35  and  _36
REMARK   16  A    between atoms: _35  and  _37
REMARK   17  A    between atoms: _38  and  _40
REMARK                            x       y       z     vdW  Elec       q    Type
REMARK                         _______ _______ _______ _____ _____    ______ ____
ROOT
ATOM      1  C   UNL     1      -5.552   7.476  24.333  0.00  0.00    +0.163 C 
ENDROOT
BRANCH   1   2
ATOM      2  O   UNL     1      -4.430   6.777  24.897  0.00  0.00    -0.388 OA
ATOM      3  H   UNL     1      -4.451   6.856  25.854  0.00  0.00    +0.210 HD
ENDBRANCH   1   2
BRANCH   1   4
ATOM      4  C   UNL     1      -6.338   6.545  23.416  0.00  0.00    +0.141 C 
BRANCH   4   7
ATOM      5  C   UNL     1      -5.914   6.742  20.989  0.00  0.00    +0.401 C 
ATOM      6  O   UNL     1      -6.860   7.507  20.791  0.00  0.00    -0.226 OA
ATOM      7  N   UNL     1      -5.600   6.239  22.184  0.00  0.00    -0.279 N 
ATOM      8  H   UNL     1      -4.811   5.611  22.245  0.00  0.00    +0.152 HD
BRANCH   5   9
ATOM      9  O   UNL     1      -5.091   6.354  19.886  0.00  0.00    -0.444 OA
BRANCH   9  10
ATOM     10  C   UNL     1      -5.859   6.393  18.680  0.00  0.00    +0.292 C 
BRANCH  10  12
ATOM     11  N   UNL     1      -3.978   6.474  17.067  0.00  0.00    -0.131 NA
ATOM     12  C   UNL     1      -5.093   7.057  17.609  0.00  0.00    +0.120 A 
ATOM     13  C   UNL     1      -5.316   8.261  16.983  0.00  0.00    +0.137 A 
ATOM     14  N   UNL     1      -4.329   8.337  16.049  0.00  0.00    -0.248 N 
ATOM     15  N   UNL     1      -3.506   7.276  16.121  0.00  0.00    -0.065 NA
BRANCH  14  16
ATOM     16  C   UNL     1      -4.127   9.386  15.061  0.00  0.00    +0.112 C 
ATOM     17  C   UNL     1      -5.463   9.995  14.589  0.00  0.00    +0.045 C 
ATOM     18  C   UNL     1      -5.486  11.525  14.540  0.00  0.00    +0.059 C 
ATOM     19  C   UNL     1      -5.626  12.121  15.944  0.00  0.00    +0.020 C 
ATOM     20  C   UNL     1      -4.191  12.389  16.393  0.00  0.00    +0.020 C 
ATOM     21  C   UNL     1      -3.326  11.853  15.250  0.00  0.00    +0.059 C 
ATOM     22  N   UNL     1      -4.210  12.096  14.110  0.00  0.00    -0.299 NA
ATOM     23  C   UNL     1      -3.714  11.688  12.810  0.00  0.00    +0.105 C 
ATOM     24  C   UNL     1      -2.997  10.367  15.450  0.00  0.00    +0.045 C 
ENDBRANCH  14  16
ENDBRANCH  10  12
ENDBRANCH   9  10
ENDBRANCH   5   9
ENDBRANCH   4   7
ENDBRANCH   1   4
BRANCH   1  25
ATOM     25  C   UNL     1      -5.089   8.709  23.539  0.00  0.00    +0.175 C 
BRANCH  25  26
ATOM     26  C   UNL     1      -3.989   9.490  24.273  0.00  0.00    +0.176 C 
ATOM     27  O   UNL     1      -4.312   9.492  25.691  0.00  0.00    -0.332 OA
ATOM     28  C   UNL     1      -3.311  10.106  26.568  0.00  0.00    +0.277 C 
ATOM     29  C   UNL     1      -2.994  11.548  26.102  0.00  0.00    +0.110 C 
ATOM     30  C   UNL     1      -2.675  11.601  24.593  0.00  0.00    +0.143 C 
ATOM     31  C   UNL     1      -3.780  10.932  23.774  0.00  0.00    +0.133 C 
BRANCH  31  32
ATOM     32  N   UNL     1      -3.423  10.911  22.347  0.00  0.00    -0.308 N 
ATOM     33  H   UNL     1      -2.676  10.296  22.056  0.00  0.00    +0.149 HD
ATOM     34  C   UNL     1      -4.022  11.652  21.411  0.00  0.00    +0.210 C 
ATOM     35  C   UNL     1      -5.139  12.598  21.890  0.00  0.00    +0.109 C 
ATOM     36  O   UNL     1      -3.712  11.603  20.220  0.00  0.00    -0.276 OA
ENDBRANCH  31  32
BRANCH  28  37
ATOM     37  C   UNL     1      -2.013   9.272  26.585  0.00  0.00    +0.414 C 
ATOM     38  O   UNL     1      -0.918   9.831  26.646  0.00  0.00    -0.240 OA
ATOM     39  O   UNL     1      -2.061   8.043  26.538  0.00  0.00    -0.240 OA
ENDBRANCH  28  37
BRANCH  30  40
ATOM     40  O   UNL     1      -2.539  12.960  24.176  0.00  0.00    -0.390 OA
ATOM     41  H   UNL     1      -3.075  13.112  23.395  0.00  0.00    +0.210 HD
ENDBRANCH  30  40
BRANCH  28  42
ATOM     42  O   UNL     1      -3.867  10.171  27.907  0.00  0.00    -0.343 OA
ATOM     43  C   UNL     1      -3.616  11.411  28.615  0.00  0.00    +0.198 C 
ENDBRANCH  28  42
ENDBRANCH  25  26
BRANCH  25  44
ATOM     44  O   UNL     1      -6.211   9.572  23.263  0.00  0.00    -0.387 OA
ATOM     45  H   UNL     1      -5.892  10.419  22.943  0.00  0.00    +0.210 HD
ENDBRANCH  25  44
ENDBRANCH   1  25
TORSDOF 14
