REMARK VINA RESULT:    -5.197      2.826      8.343
REMARK INTER + INTRA:         -11.382
REMARK INTER:                  -8.608
REMARK INTRA:                  -2.774
REMARK UNBOUND:                -1.779
REMARK  Name = lig_assembled_14.pdb
REMARK  18 active torsions:
REMARK  status: ('A' for Active; 'I' for Inactive)
REMARK    1  A    between atoms: _2  and  _10
REMARK    2  A    between atoms: _3  and  _11
REMARK    3  A    between atoms: _5  and  _19
REMARK    4  A    between atoms: _7  and  _8
REMARK    5  A    between atoms: _7  and  _19
REMARK    6  A    between atoms: _10  and  _11
REMARK    7  A    between atoms: _15  and  _35
REMARK    8  A    between atoms: _17  and  _23
REMARK    9  A    between atoms: _18  and  _22
REMARK   10  A    between atoms: _22  and  _23
REMARK   11  A    between atoms: _25  and  _26
REMARK   12  A    between atoms: _27  and  _28
REMARK   13  A    between atoms: _29  and  _31
REMARK   14  A    between atoms: _31  and  _32
REMARK   15  A    between atoms: _31  and  _33
REMARK   16  A    between atoms: _33  and  _34
REMARK   17  A    between atoms: _33  and  _35
REMARK   18  A    between atoms: _36  and  _38
REMARK                            x       y       z     vdW  Elec       q    Type
REMARK                         _______ _______ _______ _____ _____    ______ ____
ROOT
ATOM      1  C   UNL     1      -2.814  12.035  24.247  0.00  0.00    +0.163 C 
ENDROOT
BRANCH   1   2
ATOM      2  O   UNL     1      -1.994  11.964  25.425  0.00  0.00    -0.388 OA
ATOM      3  H   UNL     1      -2.516  12.204  26.194  0.00  0.00    +0.210 HD
ENDBRANCH   1   2
BRANCH   1   4
ATOM      4  C   UNL     1      -3.720  10.797  24.132  0.00  0.00    +0.175 C 
BRANCH   4   5
ATOM      5  C   UNL     1      -3.788  10.007  25.447  0.00  0.00    +0.176 C 
ATOM      6  O   UNL     1      -2.834   8.913  25.362  0.00  0.00    -0.332 OA
ATOM      7  C   UNL     1      -2.683   8.106  26.577  0.00  0.00    +0.277 C 
ATOM      8  C   UNL     1      -4.058   7.567  27.042  0.00  0.00    +0.110 C 
ATOM      9  C   UNL     1      -5.114   8.689  27.118  0.00  0.00    +0.143 C 
ATOM     10  C   UNL     1      -5.185   9.466  25.802  0.00  0.00    +0.133 C 
BRANCH  10  11
ATOM     11  N   UNL     1      -6.132  10.586  25.916  0.00  0.00    -0.308 N 
ATOM     12  H   UNL     1      -5.992  11.247  26.667  0.00  0.00    +0.149 HD
ATOM     13  C   UNL     1      -7.164  10.787  25.091  0.00  0.00    +0.210 C 
ATOM     14  C   UNL     1      -7.364   9.747  23.973  0.00  0.00    +0.109 C 
ATOM     15  O   UNL     1      -7.932  11.743  25.202  0.00  0.00    -0.276 OA
ENDBRANCH  10  11
BRANCH   7  16
ATOM     16  C   UNL     1      -2.046   8.937  27.709  0.00  0.00    +0.414 C 
ATOM     17  O   UNL     1      -1.277   9.861  27.444  0.00  0.00    -0.240 OA
ATOM     18  O   UNL     1      -2.300   8.685  28.888  0.00  0.00    -0.240 OA
ENDBRANCH   7  16
BRANCH   9  19
ATOM     19  O   UNL     1      -6.396   8.126  27.402  0.00  0.00    -0.390 OA
ATOM     20  H   UNL     1      -6.899   8.048  26.588  0.00  0.00    +0.210 HD
ENDBRANCH   9  19
BRANCH   7  21
ATOM     21  O   UNL     1      -1.831   6.975  26.262  0.00  0.00    -0.343 OA
ATOM     22  C   UNL     1      -2.346   5.685  26.679  0.00  0.00    +0.198 C 
ENDBRANCH   7  21
ENDBRANCH   4   5
BRANCH   4  23
ATOM     23  O   UNL     1      -3.262   9.944  23.064  0.00  0.00    -0.387 OA
ATOM     24  H   UNL     1      -2.555  10.383  22.584  0.00  0.00    +0.210 HD
ENDBRANCH   4  23
ENDBRANCH   1   4
BRANCH   1  25
ATOM     25  C   UNL     1      -3.674  13.294  24.285  0.00  0.00    +0.141 C 
BRANCH  25  28
ATOM     26  C   UNL     1      -4.647  13.653  22.043  0.00  0.00    +0.401 C 
ATOM     27  O   UNL     1      -3.615  14.132  21.568  0.00  0.00    -0.226 OA
ATOM     28  N   UNL     1      -4.766  13.241  23.306  0.00  0.00    -0.279 N 
ATOM     29  H   UNL     1      -5.657  12.871  23.605  0.00  0.00    +0.152 HD
BRANCH  26  30
ATOM     30  O   UNL     1      -5.802  13.526  21.208  0.00  0.00    -0.444 OA
BRANCH  30  31
ATOM     31  C   UNL     1      -6.424  12.260  21.442  0.00  0.00    +0.292 C 
BRANCH  31  33
ATOM     32  N   UNL     1      -5.065  10.324  20.714  0.00  0.00    -0.131 NA
ATOM     33  C   UNL     1      -6.000  11.282  20.423  0.00  0.00    +0.120 A 
ATOM     34  C   UNL     1      -6.393  11.144  19.110  0.00  0.00    +0.137 A 
ATOM     35  N   UNL     1      -5.652  10.095  18.658  0.00  0.00    -0.250 N 
ATOM     36  N   UNL     1      -4.861   9.599  19.625  0.00  0.00    -0.065 NA
BRANCH  35  37
ATOM     37  C   UNL     1      -5.599   9.548  17.319  0.00  0.00    +0.160 C 
BRANCH  37  38
ATOM     38  C   UNL     1      -4.292   9.910  16.605  0.00  0.00    +0.107 C 
BRANCH  38  39
ATOM     39  N   UNL     1      -4.444  11.030  15.660  0.00  0.00    -0.301 NA
ATOM     40  C   UNL     1      -4.100  12.328  16.247  0.00  0.00    +0.084 C 
ATOM     41  C   UNL     1      -3.929  13.207  15.025  0.00  0.00    +0.017 C 
ATOM     42  C   UNL     1      -3.262  12.293  14.013  0.00  0.00    +0.017 C 
ATOM     43  C   UNL     1      -3.569  10.876  14.488  0.00  0.00    +0.084 C 
ENDBRANCH  38  39
ENDBRANCH  37  38
ENDBRANCH  35  37
ENDBRANCH  31  33
ENDBRANCH  30  31
ENDBRANCH  26  30
ENDBRANCH  25  28
ENDBRANCH   1  25
TORSDOF 16
