REMARK VINA RESULT:    -5.190      5.069      9.313
REMARK INTER + INTRA:         -12.300
REMARK INTER:                  -8.257
REMARK INTRA:                  -4.043
REMARK UNBOUND:                -2.711
REMARK  Name = lig_assembled_36.pdb
REMARK  18 active torsions:
REMARK  status: ('A' for Active; 'I' for Inactive)
REMARK    1  A    between atoms: _2  and  _10
REMARK    2  A    between atoms: _5  and  _21
REMARK    3  A    between atoms: _7  and  _8
REMARK    4  A    between atoms: _7  and  _21
REMARK    5  A    between atoms: _10  and  _11
REMARK    6  A    between atoms: _14  and  _15
REMARK    7  A    between atoms: _17  and  _37
REMARK    8  A    between atoms: _19  and  _25
REMARK    9  A    between atoms: _20  and  _24
REMARK   10  A    between atoms: _24  and  _25
REMARK   11  A    between atoms: _27  and  _28
REMARK   12  A    between atoms: _29  and  _30
REMARK   13  A    between atoms: _31  and  _33
REMARK   14  A    between atoms: _33  and  _34
REMARK   15  A    between atoms: _33  and  _35
REMARK   16  A    between atoms: _35  and  _36
REMARK   17  A    between atoms: _35  and  _37
REMARK   18  A    between atoms: _38  and  _40
REMARK                            x       y       z     vdW  Elec       q    Type
REMARK                         _______ _______ _______ _____ _____    ______ ____
ROOT
ATOM      1  C   UNL     1      -3.014  11.175  23.508  0.00  0.00    +0.163 C 
ENDROOT
BRANCH   1   2
ATOM      2  O   UNL     1      -2.321  11.609  24.690  0.00  0.00    -0.388 OA
ATOM      3  H   UNL     1      -1.989  12.500  24.557  0.00  0.00    +0.210 HD
ENDBRANCH   1   2
BRANCH   1   4
ATOM      4  C   UNL     1      -3.986  10.027  23.831  0.00  0.00    +0.175 C 
BRANCH   4   5
ATOM      5  C   UNL     1      -3.884   9.578  25.296  0.00  0.00    +0.176 C 
ATOM      6  O   UNL     1      -2.838   8.572  25.384  0.00  0.00    -0.332 OA
ATOM      7  C   UNL     1      -2.524   8.100  26.736  0.00  0.00    +0.277 C 
ATOM      8  C   UNL     1      -3.804   7.587  27.440  0.00  0.00    +0.110 C 
ATOM      9  C   UNL     1      -4.956   8.610  27.346  0.00  0.00    +0.143 C 
ATOM     10  C   UNL     1      -5.194   9.035  25.896  0.00  0.00    +0.133 C 
BRANCH  10  11
ATOM     11  N   UNL     1      -6.234  10.074  25.828  0.00  0.00    -0.308 N 
ATOM     12  H   UNL     1      -6.047  10.959  26.279  0.00  0.00    +0.149 HD
ATOM     13  C   UNL     1      -7.409   9.924  25.210  0.00  0.00    +0.210 C 
ATOM     14  C   UNL     1      -7.674   8.555  24.555  0.00  0.00    +0.109 C 
ATOM     15  O   UNL     1      -8.255  10.817  25.156  0.00  0.00    -0.276 OA
ENDBRANCH  10  11
BRANCH   7  16
ATOM     16  C   UNL     1      -1.891   9.229  27.576  0.00  0.00    +0.414 C 
ATOM     17  O   UNL     1      -1.173  10.073  27.041  0.00  0.00    -0.240 OA
ATOM     18  O   UNL     1      -2.097   9.295  28.789  0.00  0.00    -0.240 OA
ENDBRANCH   7  16
BRANCH   7  19
ATOM     19  O   UNL     1      -1.592   6.995  26.620  0.00  0.00    -0.343 OA
ATOM     20  C   UNL     1      -1.913   5.835  27.429  0.00  0.00    +0.198 C 
ENDBRANCH   7  19
BRANCH   9  21
ATOM     21  O   UNL     1      -6.154   8.038  27.871  0.00  0.00    -0.390 OA
ATOM     22  H   UNL     1      -6.512   7.408  27.241  0.00  0.00    +0.210 HD
ENDBRANCH   9  21
ENDBRANCH   4   5
BRANCH   4  23
ATOM     23  O   UNL     1      -3.746   8.910  22.952  0.00  0.00    -0.387 OA
ATOM     24  H   UNL     1      -2.825   8.647  23.013  0.00  0.00    +0.210 HD
ENDBRANCH   4  23
ENDBRANCH   1   4
BRANCH   1  25
ATOM     25  C   UNL     1      -3.785  12.340  22.897  0.00  0.00    +0.141 C 
BRANCH  25  28
ATOM     26  C   UNL     1      -5.594  13.528  24.089  0.00  0.00    +0.401 C 
ATOM     27  O   UNL     1      -6.494  13.054  23.391  0.00  0.00    -0.226 OA
ATOM     28  N   UNL     1      -4.300  13.254  23.925  0.00  0.00    -0.279 N 
ATOM     29  H   UNL     1      -3.635  13.700  24.542  0.00  0.00    +0.152 HD
BRANCH  26  30
ATOM     30  O   UNL     1      -5.936  14.433  25.142  0.00  0.00    -0.444 OA
BRANCH  30  31
ATOM     31  C   UNL     1      -6.656  13.732  26.160  0.00  0.00    +0.292 C 
BRANCH  31  33
ATOM     32  N   UNL     1      -4.616  12.545  26.912  0.00  0.00    -0.131 NA
ATOM     33  C   UNL     1      -5.733  13.276  27.217  0.00  0.00    +0.120 A 
ATOM     34  C   UNL     1      -5.778  13.486  28.577  0.00  0.00    +0.137 A 
ATOM     35  N   UNL     1      -4.612  12.940  29.027  0.00  0.00    -0.247 N 
ATOM     36  N   UNL     1      -3.944  12.327  28.034  0.00  0.00    -0.065 NA
BRANCH  35  37
ATOM     37  C   UNL     1      -4.069  12.979  30.371  0.00  0.00    +0.180 C 
BRANCH  37  38
ATOM     38  C   UNL     1      -3.924  11.588  30.944  0.00  0.00    -0.026 A 
ATOM     39  C   UNL     1      -2.806  11.240  31.715  0.00  0.00    +0.007 A 
ATOM     40  C   UNL     1      -2.683   9.952  32.246  0.00  0.00    +0.019 A 
ATOM     41  C   UNL     1      -3.674   8.994  32.009  0.00  0.00    +0.052 A 
ATOM     42  C   UNL     1      -4.779   9.326  31.222  0.00  0.00    +0.019 A 
ATOM     43  C   UNL     1      -4.902  10.613  30.690  0.00  0.00    +0.007 A 
BRANCH  41  44
ATOM     44  C   UNL     1      -3.556   7.679  32.573  0.00  0.00    +0.099 C 
ATOM     45  N   UNL     1      -3.449   6.618  33.029  0.00  0.00    -0.191 NA
ENDBRANCH  41  44
ENDBRANCH  37  38
ENDBRANCH  35  37
ENDBRANCH  31  33
ENDBRANCH  30  31
ENDBRANCH  26  30
ENDBRANCH  25  28
ENDBRANCH   1  25
TORSDOF 16
