REMARK VINA RESULT:    -4.358      3.540      7.243
REMARK INTER + INTRA:         -10.576
REMARK INTER:                  -7.711
REMARK INTRA:                  -2.866
REMARK UNBOUND:                -2.779
REMARK  Name = lig_assembled_39.pdb
REMARK  17 active torsions:
REMARK  status: ('A' for Active; 'I' for Inactive)
REMARK    1  A    between atoms: _2  and  _9
REMARK    2  A    between atoms: _4  and  _19
REMARK    3  A    between atoms: _6  and  _7
REMARK    4  A    between atoms: _6  and  _19
REMARK    5  A    between atoms: _9  and  _10
REMARK    6  A    between atoms: _15  and  _35
REMARK    7  A    between atoms: _17  and  _23
REMARK    8  A    between atoms: _18  and  _22
REMARK    9  A    between atoms: _22  and  _23
REMARK   10  A    between atoms: _25  and  _26
REMARK   11  A    between atoms: _27  and  _28
REMARK   12  A    between atoms: _29  and  _31
REMARK   13  A    between atoms: _31  and  _32
REMARK   14  A    between atoms: _31  and  _33
REMARK   15  A    between atoms: _33  and  _34
REMARK   16  A    between atoms: _33  and  _35
REMARK   17  A    between atoms: _36  and  _38
REMARK                            x       y       z     vdW  Elec       q    Type
REMARK                         _______ _______ _______ _____ _____    ______ ____
ROOT
ATOM      1  C   UNL     1      -5.784   8.309  24.754  0.00  0.00    +0.163 C 
ENDROOT
BRANCH   1   2
ATOM      2  O   UNL     1      -6.195   8.908  25.994  0.00  0.00    -0.388 OA
ATOM      3  H   UNL     1      -5.940   9.834  26.003  0.00  0.00    +0.210 HD
ENDBRANCH   1   2
BRANCH   1   4
ATOM      4  C   UNL     1      -4.314   7.910  24.830  0.00  0.00    +0.141 C 
BRANCH   4   7
ATOM      5  C   UNL     1      -2.653   7.316  26.560  0.00  0.00    +0.401 C 
ATOM      6  O   UNL     1      -1.817   6.905  25.751  0.00  0.00    -0.226 OA
ATOM      7  N   UNL     1      -3.848   7.797  26.218  0.00  0.00    -0.279 N 
ATOM      8  H   UNL     1      -4.469   8.101  26.955  0.00  0.00    +0.152 HD
BRANCH   5   9
ATOM      9  O   UNL     1      -2.344   7.279  27.956  0.00  0.00    -0.444 OA
BRANCH   9  10
ATOM     10  C   UNL     1      -1.967   8.586  28.396  0.00  0.00    +0.292 C 
BRANCH  10  12
ATOM     11  N   UNL     1      -4.152   8.454  29.553  0.00  0.00    -0.131 NA
ATOM     12  C   UNL     1      -3.000   9.147  29.287  0.00  0.00    +0.120 A 
ATOM     13  C   UNL     1      -3.018  10.335  29.983  0.00  0.00    +0.137 A 
ATOM     14  N   UNL     1      -4.167  10.267  30.714  0.00  0.00    -0.247 N 
ATOM     15  N   UNL     1      -4.876   9.164  30.406  0.00  0.00    -0.065 NA
BRANCH  14  16
ATOM     16  C   UNL     1      -4.615  11.170  31.763  0.00  0.00    +0.181 C 
BRANCH  16  17
ATOM     17  C   UNL     1      -4.478  12.636  31.391  0.00  0.00    -0.012 A 
ATOM     18  C   UNL     1      -3.345  13.380  31.777  0.00  0.00    +0.006 A 
ATOM     19  C   UNL     1      -3.208  14.731  31.446  0.00  0.00    +0.000 A 
ATOM     20  C   UNL     1      -4.213  15.378  30.741  0.00  0.00    +0.001 A 
ATOM     21  C   UNL     1      -5.364  14.680  30.383  0.00  0.00    +0.015 A 
ATOM     22  C   UNL     1      -5.503  13.324  30.714  0.00  0.00    +0.023 A 
ATOM     23 BR   UNL     1      -7.142  12.492  30.226  0.00  0.00    -0.050 Br
ENDBRANCH  16  17
ENDBRANCH  14  16
ENDBRANCH  10  12
ENDBRANCH   9  10
ENDBRANCH   5   9
ENDBRANCH   4   7
ENDBRANCH   1   4
BRANCH   1  24
ATOM     24  C   UNL     1      -5.992   9.280  23.578  0.00  0.00    +0.175 C 
BRANCH  24  25
ATOM     25  C   UNL     1      -4.957  10.413  23.574  0.00  0.00    +0.176 C 
ATOM     26  O   UNL     1      -5.298  11.335  24.645  0.00  0.00    -0.332 OA
ATOM     27  C   UNL     1      -4.352  12.434  24.862  0.00  0.00    +0.277 C 
ATOM     28  C   UNL     1      -4.126  13.220  23.547  0.00  0.00    +0.110 C 
ATOM     29  C   UNL     1      -3.791  12.279  22.371  0.00  0.00    +0.143 C 
ATOM     30  C   UNL     1      -4.838  11.172  22.239  0.00  0.00    +0.133 C 
BRANCH  30  31
ATOM     31  N   UNL     1      -4.462  10.232  21.171  0.00  0.00    -0.308 N 
ATOM     32  H   UNL     1      -3.607   9.706  21.285  0.00  0.00    +0.149 HD
ATOM     33  C   UNL     1      -5.177  10.029  20.061  0.00  0.00    +0.210 C 
ATOM     34  C   UNL     1      -6.461  10.865  19.905  0.00  0.00    +0.109 C 
ATOM     35  O   UNL     1      -4.845   9.224  19.190  0.00  0.00    -0.276 OA
ENDBRANCH  30  31
BRANCH  27  36
ATOM     36  C   UNL     1      -3.001  11.898  25.381  0.00  0.00    +0.414 C 
ATOM     37  O   UNL     1      -1.954  12.483  25.104  0.00  0.00    -0.240 OA
ATOM     38  O   UNL     1      -2.958  10.883  26.077  0.00  0.00    -0.240 OA
ENDBRANCH  27  36
BRANCH  27  39
ATOM     39  O   UNL     1      -4.928  13.336  25.841  0.00  0.00    -0.343 OA
ATOM     40  C   UNL     1      -5.942  12.747  26.694  0.00  0.00    +0.198 C 
ENDBRANCH  27  39
BRANCH  29  41
ATOM     41  O   UNL     1      -3.740  13.026  21.155  0.00  0.00    -0.390 OA
ATOM     42  H   UNL     1      -2.827  13.231  20.943  0.00  0.00    +0.210 HD
ENDBRANCH  29  41
ENDBRANCH  24  25
BRANCH  24  43
ATOM     43  O   UNL     1      -7.326   9.825  23.616  0.00  0.00    -0.387 OA
ATOM     44  H   UNL     1      -7.891   9.254  24.141  0.00  0.00    +0.210 HD
ENDBRANCH  24  43
ENDBRANCH   1  24
TORSDOF 15
