REMARK VINA RESULT:    -4.300      4.846      8.668
REMARK INTER + INTRA:         -10.370
REMARK INTER:                  -7.628
REMARK INTRA:                  -2.742
REMARK UNBOUND:                -2.299
REMARK  Name = lig_assembled_32.pdb
REMARK  19 active torsions:
REMARK  status: ('A' for Active; 'I' for Inactive)
REMARK    1  A    between atoms: _2  and  _9
REMARK    2  A    between atoms: _4  and  _17
REMARK    3  A    between atoms: _5  and  _10
REMARK    4  A    between atoms: _5  and  _11
REMARK    5  A    between atoms: _6  and  _7
REMARK    6  A    between atoms: _6  and  _17
REMARK    7  A    between atoms: _9  and  _10
REMARK    8  A    between atoms: _13  and  _33
REMARK    9  A    between atoms: _15  and  _21
REMARK   10  A    between atoms: _16  and  _20
REMARK   11  A    between atoms: _20  and  _21
REMARK   12  A    between atoms: _23  and  _24
REMARK   13  A    between atoms: _25  and  _26
REMARK   14  A    between atoms: _27  and  _29
REMARK   15  A    between atoms: _29  and  _30
REMARK   16  A    between atoms: _29  and  _31
REMARK   17  A    between atoms: _31  and  _32
REMARK   18  A    between atoms: _31  and  _33
REMARK   19  A    between atoms: _34  and  _36
REMARK                            x       y       z     vdW  Elec       q    Type
REMARK                         _______ _______ _______ _____ _____    ______ ____
ROOT
ATOM      1  C   UNL     1      -6.615   9.387  23.602  0.00  0.00    +0.163 C 
ENDROOT
BRANCH   1   2
ATOM      2  O   UNL     1      -7.279   9.235  24.868  0.00  0.00    -0.388 OA
ATOM      3  H   UNL     1      -7.934   9.929  24.972  0.00  0.00    +0.210 HD
ENDBRANCH   1   2
BRANCH   1   4
ATOM      4  C   UNL     1      -5.287   8.611  23.580  0.00  0.00    +0.175 C 
BRANCH   4   5
ATOM      5  C   UNL     1      -4.142   9.405  24.225  0.00  0.00    +0.176 C 
ATOM      6  O   UNL     1      -4.418   9.511  25.649  0.00  0.00    -0.332 OA
ATOM      7  C   UNL     1      -3.371  10.152  26.451  0.00  0.00    +0.277 C 
ATOM      8  C   UNL     1      -3.030  11.550  25.878  0.00  0.00    +0.110 C 
ATOM      9  C   UNL     1      -2.760  11.492  24.360  0.00  0.00    +0.143 C 
ATOM     10  C   UNL     1      -3.910  10.804  23.624  0.00  0.00    +0.133 C 
BRANCH  10  11
ATOM     11  N   UNL     1      -3.602  10.678  22.190  0.00  0.00    -0.308 N 
ATOM     12  H   UNL     1      -2.898  10.006  21.916  0.00  0.00    +0.149 HD
ATOM     13  C   UNL     1      -4.191  11.392  21.228  0.00  0.00    +0.210 C 
ATOM     14  C   UNL     1      -5.240  12.426  21.681  0.00  0.00    +0.109 C 
ATOM     15  O   UNL     1      -3.923  11.255  20.034  0.00  0.00    -0.276 OA
ENDBRANCH  10  11
BRANCH   7  16
ATOM     16  C   UNL     1      -2.097   9.283  26.483  0.00  0.00    +0.414 C 
ATOM     17  O   UNL     1      -0.986   9.811  26.496  0.00  0.00    -0.240 OA
ATOM     18  O   UNL     1      -2.180   8.054  26.496  0.00  0.00    -0.240 OA
ENDBRANCH   7  16
BRANCH   7  19
ATOM     19  O   UNL     1      -3.880  10.322  27.799  0.00  0.00    -0.343 OA
ATOM     20  C   UNL     1      -3.919  11.693  28.270  0.00  0.00    +0.198 C 
ENDBRANCH   7  19
BRANCH   9  21
ATOM     21  O   UNL     1      -2.600  12.816  23.849  0.00  0.00    -0.390 OA
ATOM     22  H   UNL     1      -2.690  13.450  24.565  0.00  0.00    +0.210 HD
ENDBRANCH   9  21
ENDBRANCH   4   5
BRANCH   4  23
ATOM     23  O   UNL     1      -4.943   8.253  22.227  0.00  0.00    -0.387 OA
ATOM     24  H   UNL     1      -4.029   8.491  22.055  0.00  0.00    +0.210 HD
ENDBRANCH   4  23
ENDBRANCH   1   4
BRANCH   1  25
ATOM     25  C   UNL     1      -7.516   8.889  22.477  0.00  0.00    +0.141 C 
BRANCH  25  28
ATOM     26  C   UNL     1      -7.201   9.542  20.115  0.00  0.00    +0.401 C 
ATOM     27  O   UNL     1      -6.760   8.443  19.772  0.00  0.00    -0.226 OA
ATOM     28  N   UNL     1      -7.574   9.840  21.360  0.00  0.00    -0.279 N 
ATOM     29  H   UNL     1      -7.915  10.773  21.546  0.00  0.00    +0.152 HD
BRANCH  26  30
ATOM     30  O   UNL     1      -7.327  10.577  19.136  0.00  0.00    -0.444 OA
BRANCH  30  31
ATOM     31  C   UNL     1      -7.231  10.010  17.826  0.00  0.00    +0.292 C 
BRANCH  31  33
ATOM     32  N   UNL     1      -5.864  11.986  17.234  0.00  0.00    -0.131 NA
ATOM     33  C   UNL     1      -6.144  10.655  17.066  0.00  0.00    +0.120 A 
ATOM     34  C   UNL     1      -5.281  10.127  16.131  0.00  0.00    +0.137 A 
ATOM     35  N   UNL     1      -4.513  11.188  15.762  0.00  0.00    -0.251 N 
ATOM     36  N   UNL     1      -4.862  12.303  16.426  0.00  0.00    -0.065 NA
BRANCH  35  37
ATOM     37  C   UNL     1      -3.434  11.221  14.800  0.00  0.00    +0.156 C 
BRANCH  37  38
ATOM     38  C   UNL     1      -3.787  12.056  13.576  0.00  0.00    +0.143 C 
BRANCH  38  39
ATOM     39  C   UNL     1      -2.863  13.234  13.470  0.00  0.00    +0.306 C 
ATOM     40  O   UNL     1      -2.023  13.385  12.596  0.00  0.00    -0.251 OA
BRANCH  39  41
ATOM     41  O   UNL     1      -3.042  14.130  14.466  0.00  0.00    -0.481 OA
ATOM     42  H   UNL     1      -2.753  15.038  14.247  0.00  0.00    +0.295 HD
ENDBRANCH  39  41
ENDBRANCH  38  39
ENDBRANCH  37  38
ENDBRANCH  35  37
ENDBRANCH  31  33
ENDBRANCH  30  31
ENDBRANCH  26  30
ENDBRANCH  25  28
ENDBRANCH   1  25
TORSDOF 17
