REMARK VINA RESULT:    -5.368      2.659      5.082
REMARK INTER + INTRA:         -11.927
REMARK INTER:                  -8.223
REMARK INTRA:                  -3.704
REMARK UNBOUND:                -1.695
REMARK  Name = lig_assembled_12.pdb
REMARK  19 active torsions:
REMARK  status: ('A' for Active; 'I' for Inactive)
REMARK    1  A    between atoms: _2  and  _9
REMARK    2  A    between atoms: _4  and  _21
REMARK    3  A    between atoms: _6  and  _7
REMARK    4  A    between atoms: _6  and  _21
REMARK    5  A    between atoms: _9  and  _16
REMARK    6  A    between atoms: _10  and  _11
REMARK    7  A    between atoms: _10  and  _16
REMARK    8  A    between atoms: _17  and  _37
REMARK    9  A    between atoms: _19  and  _25
REMARK   10  A    between atoms: _20  and  _24
REMARK   11  A    between atoms: _24  and  _25
REMARK   12  A    between atoms: _27  and  _28
REMARK   13  A    between atoms: _29  and  _30
REMARK   14  A    between atoms: _31  and  _33
REMARK   15  A    between atoms: _33  and  _34
REMARK   16  A    between atoms: _33  and  _35
REMARK   17  A    between atoms: _35  and  _36
REMARK   18  A    between atoms: _35  and  _37
REMARK   19  A    between atoms: _38  and  _40
REMARK                            x       y       z     vdW  Elec       q    Type
REMARK                         _______ _______ _______ _____ _____    ______ ____
ROOT
ATOM      1  C   UNL     1      -4.624   9.599  29.696  0.00  0.00    +0.163 C 
ENDROOT
BRANCH   1   2
ATOM      2  O   UNL     1      -4.773   9.294  31.093  0.00  0.00    -0.388 OA
ATOM      3  H   UNL     1      -3.913   9.313  31.518  0.00  0.00    +0.210 HD
ENDBRANCH   1   2
BRANCH   1   4
ATOM      4  C   UNL     1      -4.308  11.090  29.489  0.00  0.00    +0.175 C 
BRANCH   4   5
ATOM      5  C   UNL     1      -5.123  11.700  28.339  0.00  0.00    +0.176 C 
ATOM      6  O   UNL     1      -4.342  11.570  27.120  0.00  0.00    -0.332 OA
ATOM      7  C   UNL     1      -5.010  12.006  25.890  0.00  0.00    +0.277 C 
ATOM      8  C   UNL     1      -5.514  13.463  26.036  0.00  0.00    +0.110 C 
ATOM      9  C   UNL     1      -6.324  13.657  27.335  0.00  0.00    +0.143 C 
ATOM     10  C   UNL     1      -5.537  13.168  28.551  0.00  0.00    +0.133 C 
BRANCH  10  11
ATOM     11  N   UNL     1      -6.352  13.278  29.771  0.00  0.00    -0.308 N 
ATOM     12  H   UNL     1      -7.210  12.747  29.814  0.00  0.00    +0.149 HD
ATOM     13  C   UNL     1      -6.031  14.034  30.824  0.00  0.00    +0.210 C 
ATOM     14  C   UNL     1      -4.731  14.851  30.717  0.00  0.00    +0.109 C 
ATOM     15  O   UNL     1      -6.726  14.095  31.839  0.00  0.00    -0.276 OA
ENDBRANCH  10  11
BRANCH   7  16
ATOM     16  C   UNL     1      -6.197  11.080  25.554  0.00  0.00    +0.414 C 
ATOM     17  O   UNL     1      -6.286   9.971  26.079  0.00  0.00    -0.240 OA
ATOM     18  O   UNL     1      -7.066  11.442  24.760  0.00  0.00    -0.240 OA
ENDBRANCH   7  16
BRANCH   9  19
ATOM     19  O   UNL     1      -6.639  15.040  27.504  0.00  0.00    -0.390 OA
ATOM     20  H   UNL     1      -6.088  15.568  26.922  0.00  0.00    +0.210 HD
ENDBRANCH   9  19
BRANCH   7  21
ATOM     21  O   UNL     1      -4.038  11.965  24.813  0.00  0.00    -0.343 OA
ATOM     22  C   UNL     1      -2.699  12.380  25.180  0.00  0.00    +0.198 C 
ENDBRANCH   7  21
ENDBRANCH   4   5
BRANCH   4  23
ATOM     23  O   UNL     1      -2.898  11.269  29.249  0.00  0.00    -0.387 OA
ATOM     24  H   UNL     1      -2.773  11.828  28.477  0.00  0.00    +0.210 HD
ENDBRANCH   4  23
ENDBRANCH   1   4
BRANCH   1  25
ATOM     25  C   UNL     1      -3.508   8.752  29.094  0.00  0.00    +0.141 C 
BRANCH  25  28
ATOM     26  C   UNL     1      -2.564   8.999  26.823  0.00  0.00    +0.401 C 
ATOM     27  O   UNL     1      -1.451   9.350  27.222  0.00  0.00    -0.226 OA
ATOM     28  N   UNL     1      -3.586   8.706  27.628  0.00  0.00    -0.279 N 
ATOM     29  H   UNL     1      -4.464   8.437  27.206  0.00  0.00    +0.152 HD
BRANCH  26  30
ATOM     30  O   UNL     1      -2.797   8.897  25.416  0.00  0.00    -0.444 OA
BRANCH  30  31
ATOM     31  C   UNL     1      -3.752   7.863  25.164  0.00  0.00    +0.292 C 
BRANCH  31  33
ATOM     32  N   UNL     1      -4.538   6.833  23.050  0.00  0.00    -0.131 NA
ATOM     33  C   UNL     1      -4.262   7.958  23.784  0.00  0.00    +0.120 A 
ATOM     34  C   UNL     1      -4.537   9.070  23.022  0.00  0.00    +0.139 A 
ATOM     35  N   UNL     1      -4.949   8.558  21.827  0.00  0.00    -0.226 N 
ATOM     36  N   UNL     1      -4.971   7.213  21.854  0.00  0.00    -0.063 NA
BRANCH  35  37
ATOM     37  C   UNL     1      -5.381   9.271  20.637  0.00  0.00    +0.305 C 
BRANCH  37  38
ATOM     38  O   UNL     1      -4.328  10.123  20.193  0.00  0.00    -0.353 OA
BRANCH  38  39
ATOM     39  C   UNL     1      -4.830  11.309  19.590  0.00  0.00    +0.197 C 
BRANCH  39  40
ATOM     40  C   UNL     1      -4.653  12.429  20.580  0.00  0.00    -0.022 A 
ATOM     41  C   UNL     1      -3.373  12.905  20.895  0.00  0.00    +0.006 A 
ATOM     42  C   UNL     1      -3.206  13.916  21.842  0.00  0.00    +0.000 A 
ATOM     43  C   UNL     1      -4.316  14.456  22.488  0.00  0.00    +0.000 A 
ATOM     44  C   UNL     1      -5.593  13.984  22.192  0.00  0.00    +0.000 A 
ATOM     45  C   UNL     1      -5.761  12.972  21.245  0.00  0.00    +0.006 A 
ENDBRANCH  39  40
ENDBRANCH  38  39
ENDBRANCH  37  38
ENDBRANCH  35  37
ENDBRANCH  31  33
ENDBRANCH  30  31
ENDBRANCH  26  30
ENDBRANCH  25  28
ENDBRANCH   1  25
TORSDOF 17
