REMARK VINA RESULT:    -4.822      4.723      8.362
REMARK INTER + INTRA:         -12.533
REMARK INTER:                  -9.705
REMARK INTRA:                  -2.828
REMARK UNBOUND:                -3.060
REMARK  Name = lig_assembled_37.pdb
REMARK  21 active torsions:
REMARK  status: ('A' for Active; 'I' for Inactive)
REMARK    1  A    between atoms: _2  and  _9
REMARK    2  A    between atoms: _4  and  _24
REMARK    3  A    between atoms: _6  and  _7
REMARK    4  A    between atoms: _6  and  _24
REMARK    5  A    between atoms: _9  and  _10
REMARK    6  A    between atoms: _9  and  _11
REMARK    7  A    between atoms: _11  and  _18
REMARK    8  A    between atoms: _12  and  _13
REMARK    9  A    between atoms: _12  and  _18
REMARK   10  A    between atoms: _20  and  _40
REMARK   11  A    between atoms: _22  and  _28
REMARK   12  A    between atoms: _23  and  _27
REMARK   13  A    between atoms: _27  and  _28
REMARK   14  A    between atoms: _30  and  _31
REMARK   15  A    between atoms: _32  and  _33
REMARK   16  A    between atoms: _34  and  _36
REMARK   17  A    between atoms: _36  and  _37
REMARK   18  A    between atoms: _36  and  _38
REMARK   19  A    between atoms: _38  and  _39
REMARK   20  A    between atoms: _38  and  _40
REMARK   21  A    between atoms: _41  and  _43
REMARK                            x       y       z     vdW  Elec       q    Type
REMARK                         _______ _______ _______ _____ _____    ______ ____
ROOT
ATOM      1  C   UNL     1      -3.949  12.140  20.313  0.00  0.00    +0.141 C 
ENDROOT
BRANCH   1   4
ATOM      2  C   UNL     1      -5.590  11.085  18.796  0.00  0.00    +0.401 C 
ATOM      3  O   UNL     1      -5.969  12.153  18.311  0.00  0.00    -0.226 OA
ATOM      4  N   UNL     1      -4.655  10.986  19.742  0.00  0.00    -0.279 N 
ATOM      5  H   UNL     1      -4.418  10.066  20.084  0.00  0.00    +0.152 HD
BRANCH   2   6
ATOM      6  O   UNL     1      -6.179   9.866  18.337  0.00  0.00    -0.444 OA
BRANCH   6   7
ATOM      7  C   UNL     1      -6.349   9.923  16.918  0.00  0.00    +0.292 C 
BRANCH   7   9
ATOM      8  N   UNL     1      -5.366   7.961  15.764  0.00  0.00    -0.131 NA
ATOM      9  C   UNL     1      -5.233   9.239  16.237  0.00  0.00    +0.120 A 
ATOM     10  C   UNL     1      -3.963   9.691  15.960  0.00  0.00    +0.138 A 
ATOM     11  N   UNL     1      -3.361   8.634  15.343  0.00  0.00    -0.238 N 
ATOM     12  N   UNL     1      -4.216   7.602  15.211  0.00  0.00    -0.065 NA
BRANCH  11  13
ATOM     13  C   UNL     1      -2.025   8.531  14.790  0.00  0.00    +0.214 C 
ATOM     14  C   UNL     1      -1.423   7.148  15.040  0.00  0.00    +0.045 C 
BRANCH  13  15
ATOM     15  C   UNL     1      -2.019   8.845  13.311  0.00  0.00    +0.332 C 
ATOM     16  O   UNL     1      -2.119   7.998  12.430  0.00  0.00    -0.248 OA
BRANCH  15  17
ATOM     17  O   UNL     1      -1.885  10.180  13.093  0.00  0.00    -0.458 OA
BRANCH  17  18
ATOM     18  C   UNL     1      -2.880  10.786  12.253  0.00  0.00    +0.267 C 
BRANCH  18  19
ATOM     19  C   UNL     1      -3.839  11.592  13.089  0.00  0.00    -0.010 A 
ATOM     20  C   UNL     1      -3.368  12.620  13.919  0.00  0.00    +0.007 A 
ATOM     21  C   UNL     1      -4.258  13.385  14.674  0.00  0.00    +0.000 A 
ATOM     22  C   UNL     1      -5.627  13.131  14.609  0.00  0.00    +0.000 A 
ATOM     23  C   UNL     1      -6.106  12.109  13.793  0.00  0.00    +0.000 A 
ATOM     24  C   UNL     1      -5.217  11.340  13.039  0.00  0.00    +0.007 A 
ENDBRANCH  18  19
ENDBRANCH  17  18
ENDBRANCH  15  17
ENDBRANCH  13  15
ENDBRANCH  11  13
ENDBRANCH   7   9
ENDBRANCH   6   7
ENDBRANCH   2   6
ENDBRANCH   1   4
BRANCH   1  25
ATOM     25  C   UNL     1      -3.126  11.754  21.537  0.00  0.00    +0.163 C 
BRANCH  25  26
ATOM     26  O   UNL     1      -3.018  12.875  22.430  0.00  0.00    -0.388 OA
ATOM     27  H   UNL     1      -3.702  12.817  23.101  0.00  0.00    +0.210 HD
ENDBRANCH  25  26
BRANCH  25  28
ATOM     28  C   UNL     1      -3.782  10.552  22.239  0.00  0.00    +0.175 C 
BRANCH  28  29
ATOM     29  C   UNL     1      -4.125  10.856  23.705  0.00  0.00    +0.176 C 
ATOM     30  O   UNL     1      -3.471   9.856  24.534  0.00  0.00    -0.332 OA
ATOM     31  C   UNL     1      -3.601  10.049  25.981  0.00  0.00    +0.277 C 
ATOM     32  C   UNL     1      -5.092  10.166  26.380  0.00  0.00    +0.110 C 
ATOM     33  C   UNL     1      -5.837  11.195  25.505  0.00  0.00    +0.143 C 
ATOM     34  C   UNL     1      -5.632  10.902  24.018  0.00  0.00    +0.133 C 
BRANCH  34  35
ATOM     35  N   UNL     1      -6.274  11.939  23.195  0.00  0.00    -0.308 N 
ATOM     36  H   UNL     1      -5.998  12.899  23.347  0.00  0.00    +0.149 HD
ATOM     37  C   UNL     1      -7.197  11.694  22.261  0.00  0.00    +0.210 C 
ATOM     38  C   UNL     1      -7.614  10.224  22.072  0.00  0.00    +0.109 C 
ATOM     39  O   UNL     1      -7.706  12.582  21.576  0.00  0.00    -0.276 OA
ENDBRANCH  34  35
BRANCH  31  40
ATOM     40  C   UNL     1      -2.845  11.316  26.434  0.00  0.00    +0.414 C 
ATOM     41  O   UNL     1      -1.979  11.811  25.714  0.00  0.00    -0.240 OA
ATOM     42  O   UNL     1      -3.102  11.842  27.518  0.00  0.00    -0.240 OA
ENDBRANCH  31  40
BRANCH  31  43
ATOM     43  O   UNL     1      -3.041   8.884  26.641  0.00  0.00    -0.343 OA
ATOM     44  C   UNL     1      -3.600   7.614  26.222  0.00  0.00    +0.198 C 
ENDBRANCH  31  43
BRANCH  33  45
ATOM     45  O   UNL     1      -7.233  11.161  25.803  0.00  0.00    -0.390 OA
ATOM     46  H   UNL     1      -7.359  11.214  26.753  0.00  0.00    +0.210 HD
ENDBRANCH  33  45
ENDBRANCH  28  29
BRANCH  28  47
ATOM     47  O   UNL     1      -2.920   9.399  22.159  0.00  0.00    -0.387 OA
ATOM     48  H   UNL     1      -2.119   9.562  22.663  0.00  0.00    +0.210 HD
ENDBRANCH  28  47
ENDBRANCH  25  28
ENDBRANCH   1  25
TORSDOF 18
