REMARK VINA RESULT:    -5.807      2.372      3.080
REMARK INTER + INTRA:         -12.394
REMARK INTER:                  -9.688
REMARK INTRA:                  -2.706
REMARK UNBOUND:                -2.004
REMARK  Name = lig_assembled_6.pdb
REMARK  17 active torsions:
REMARK  status: ('A' for Active; 'I' for Inactive)
REMARK    1  A    between atoms: _2  and  _10
REMARK    2  A    between atoms: _3  and  _13
REMARK    3  A    between atoms: _5  and  _21
REMARK    4  A    between atoms: _7  and  _8
REMARK    5  A    between atoms: _7  and  _21
REMARK    6  A    between atoms: _17  and  _37
REMARK    7  A    between atoms: _19  and  _25
REMARK    8  A    between atoms: _20  and  _24
REMARK    9  A    between atoms: _24  and  _25
REMARK   10  A    between atoms: _27  and  _28
REMARK   11  A    between atoms: _29  and  _30
REMARK   12  A    between atoms: _31  and  _33
REMARK   13  A    between atoms: _33  and  _34
REMARK   14  A    between atoms: _33  and  _35
REMARK   15  A    between atoms: _35  and  _36
REMARK   16  A    between atoms: _35  and  _37
REMARK   17  A    between atoms: _38  and  _40
REMARK                            x       y       z     vdW  Elec       q    Type
REMARK                         _______ _______ _______ _____ _____    ______ ____
ROOT
ATOM      1  C   UNL     1      -2.995  11.998  24.109  0.00  0.00    +0.163 C 
ENDROOT
BRANCH   1   2
ATOM      2  O   UNL     1      -2.034  11.974  25.177  0.00  0.00    -0.388 OA
ATOM      3  H   UNL     1      -1.149  11.903  24.811  0.00  0.00    +0.210 HD
ENDBRANCH   1   2
BRANCH   1   4
ATOM      4  C   UNL     1      -3.958  13.165  24.299  0.00  0.00    +0.141 C 
BRANCH   4   7
ATOM      5  C   UNL     1      -5.191  13.730  22.234  0.00  0.00    +0.401 C 
ATOM      6  O   UNL     1      -4.315  14.483  21.804  0.00  0.00    -0.226 OA
ATOM      7  N   UNL     1      -5.110  13.077  23.394  0.00  0.00    -0.279 N 
ATOM      8  H   UNL     1      -5.886  12.489  23.666  0.00  0.00    +0.152 HD
BRANCH   5   9
ATOM      9  O   UNL     1      -6.377  13.532  21.460  0.00  0.00    -0.444 OA
BRANCH   9  10
ATOM     10  C   UNL     1      -6.704  12.140  21.434  0.00  0.00    +0.292 C 
BRANCH  10  12
ATOM     11  N   UNL     1      -5.240  10.289  20.688  0.00  0.00    -0.131 NA
ATOM     12  C   UNL     1      -5.908  11.445  20.406  0.00  0.00    +0.121 A 
ATOM     13  C   UNL     1      -5.702  11.770  19.085  0.00  0.00    +0.143 A 
ATOM     14  N   UNL     1      -4.918  10.756  18.586  0.00  0.00    -0.220 N 
ATOM     15  N   UNL     1      -4.635   9.880  19.581  0.00  0.00    -0.060 NA
BRANCH  14  16
ATOM     16  C   UNL     1      -4.469  10.553  17.254  0.00  0.00    +0.067 A 
ATOM     17  C   UNL     1      -4.358   9.258  16.725  0.00  0.00    +0.034 A 
ATOM     18  C   UNL     1      -3.856   9.068  15.434  0.00  0.00    +0.086 A 
ATOM     19  C   UNL     1      -3.465  10.173  14.668  0.00  0.00    +0.273 A 
ATOM     20  C   UNL     1      -3.597  11.471  15.176  0.00  0.00    +0.086 A 
ATOM     21  C   UNL     1      -4.100  11.658  16.468  0.00  0.00    +0.034 A 
BRANCH  19  22
ATOM     22  N   UNL     1      -2.898   9.963  13.330  0.00  0.00    +0.080 N 
ATOM     23  O   UNL     1      -3.656  10.090  12.357  0.00  0.00    +0.041 OA
ATOM     24  O   UNL     1      -1.698   9.665  13.252  0.00  0.00    -0.576 OA
ENDBRANCH  19  22
ENDBRANCH  14  16
ENDBRANCH  10  12
ENDBRANCH   9  10
ENDBRANCH   5   9
ENDBRANCH   4   7
ENDBRANCH   1   4
BRANCH   1  25
ATOM     25  C   UNL     1      -3.788  10.681  24.053  0.00  0.00    +0.175 C 
BRANCH  25  26
ATOM     26  C   UNL     1      -3.798   9.954  25.406  0.00  0.00    +0.176 C 
ATOM     27  O   UNL     1      -2.850   8.854  25.329  0.00  0.00    -0.332 OA
ATOM     28  C   UNL     1      -2.646   8.105  26.573  0.00  0.00    +0.277 C 
ATOM     29  C   UNL     1      -3.999   7.594  27.125  0.00  0.00    +0.110 C 
ATOM     30  C   UNL     1      -5.049   8.722  27.195  0.00  0.00    +0.143 C 
ATOM     31  C   UNL     1      -5.178   9.436  25.848  0.00  0.00    +0.133 C 
BRANCH  31  32
ATOM     32  N   UNL     1      -6.117  10.564  25.951  0.00  0.00    -0.308 N 
ATOM     33  H   UNL     1      -5.923  11.279  26.638  0.00  0.00    +0.149 HD
ATOM     34  C   UNL     1      -7.210  10.705  25.196  0.00  0.00    +0.210 C 
ATOM     35  C   UNL     1      -7.493   9.586  24.176  0.00  0.00    +0.109 C 
ATOM     36  O   UNL     1      -7.971  11.669  25.294  0.00  0.00    -0.276 OA
ENDBRANCH  31  32
BRANCH  28  37
ATOM     37  C   UNL     1      -1.957   8.987  27.635  0.00  0.00    +0.414 C 
ATOM     38  O   UNL     1      -2.207   8.830  28.829  0.00  0.00    -0.240 OA
ATOM     39  O   UNL     1      -1.150   9.855  27.298  0.00  0.00    -0.240 OA
ENDBRANCH  28  37
BRANCH  30  40
ATOM     40  O   UNL     1      -6.318   8.178  27.562  0.00  0.00    -0.390 OA
ATOM     41  H   UNL     1      -6.188   7.432  28.152  0.00  0.00    +0.210 HD
ENDBRANCH  30  40
BRANCH  28  42
ATOM     42  O   UNL     1      -1.811   6.957  26.274  0.00  0.00    -0.343 OA
ATOM     43  C   UNL     1      -2.148   5.749  27.001  0.00  0.00    +0.198 C 
ENDBRANCH  28  42
ENDBRANCH  25  26
BRANCH  25  44
ATOM     44  O   UNL     1      -3.248   9.820  23.030  0.00  0.00    -0.387 OA
ATOM     45  H   UNL     1      -3.812   9.852  22.254  0.00  0.00    +0.210 HD
ENDBRANCH  25  44
ENDBRANCH   1  25
TORSDOF 15
