REMARK VINA RESULT:    -4.559      3.102      5.634
REMARK INTER + INTRA:         -12.417
REMARK INTER:                  -8.718
REMARK INTRA:                  -3.700
REMARK UNBOUND:                -3.062
REMARK  Name = lig_assembled_74.pdb
REMARK  24 active torsions:
REMARK  status: ('A' for Active; 'I' for Inactive)
REMARK    1  A    between atoms: _2  and  _9
REMARK    2  A    between atoms: _4  and  _22
REMARK    3  A    between atoms: _5  and  _14
REMARK    4  A    between atoms: _6  and  _7
REMARK    5  A    between atoms: _6  and  _22
REMARK    6  A    between atoms: _9  and  _10
REMARK    7  A    between atoms: _10  and  _11
REMARK    8  A    between atoms: _10  and  _13
REMARK    9  A    between atoms: _11  and  _12
REMARK   10  A    between atoms: _12  and  _16
REMARK   11  A    between atoms: _13  and  _14
REMARK   12  A    between atoms: _14  and  _15
REMARK   13  A    between atoms: _18  and  _38
REMARK   14  A    between atoms: _20  and  _26
REMARK   15  A    between atoms: _21  and  _25
REMARK   16  A    between atoms: _25  and  _26
REMARK   17  A    between atoms: _28  and  _29
REMARK   18  A    between atoms: _30  and  _31
REMARK   19  A    between atoms: _32  and  _34
REMARK   20  A    between atoms: _34  and  _35
REMARK   21  A    between atoms: _34  and  _36
REMARK   22  A    between atoms: _36  and  _37
REMARK   23  A    between atoms: _36  and  _38
REMARK   24  A    between atoms: _39  and  _41
REMARK                            x       y       z     vdW  Elec       q    Type
REMARK                         _______ _______ _______ _____ _____    ______ ____
ROOT
ATOM      1  C   UNL     1      -3.874  10.777  30.036  0.00  0.00    +0.163 C 
ENDROOT
BRANCH   1   2
ATOM      2  O   UNL     1      -2.885  11.600  30.675  0.00  0.00    -0.388 OA
ATOM      3  H   UNL     1      -3.076  12.525  30.501  0.00  0.00    +0.210 HD
ENDBRANCH   1   2
BRANCH   1   4
ATOM      4  C   UNL     1      -4.806  11.623  29.151  0.00  0.00    +0.175 C 
BRANCH   4   5
ATOM      5  C   UNL     1      -4.902  13.077  29.637  0.00  0.00    +0.176 C 
ATOM      6  O   UNL     1      -4.989  13.058  31.089  0.00  0.00    -0.332 OA
ATOM      7  C   UNL     1      -4.982  14.371  31.741  0.00  0.00    +0.277 C 
ATOM      8  C   UNL     1      -6.101  15.270  31.161  0.00  0.00    +0.110 C 
ATOM      9  C   UNL     1      -6.069  15.296  29.618  0.00  0.00    +0.143 C 
ATOM     10  C   UNL     1      -6.076  13.878  29.045  0.00  0.00    +0.133 C 
BRANCH  10  11
ATOM     11  N   UNL     1      -5.957  13.914  27.579  0.00  0.00    -0.308 N 
ATOM     12  H   UNL     1      -5.084  14.236  27.185  0.00  0.00    +0.149 HD
ATOM     13  C   UNL     1      -6.927  13.549  26.736  0.00  0.00    +0.210 C 
ATOM     14  C   UNL     1      -8.253  13.089  27.368  0.00  0.00    +0.109 C 
ATOM     15  O   UNL     1      -6.793  13.576  25.512  0.00  0.00    -0.276 OA
ENDBRANCH  10  11
BRANCH   7  16
ATOM     16  C   UNL     1      -3.616  15.065  31.558  0.00  0.00    +0.414 C 
ATOM     17  O   UNL     1      -3.546  16.292  31.509  0.00  0.00    -0.240 OA
ATOM     18  O   UNL     1      -2.585  14.398  31.460  0.00  0.00    -0.240 OA
ENDBRANCH   7  16
BRANCH   9  19
ATOM     19  O   UNL     1      -7.203  16.009  29.124  0.00  0.00    -0.390 OA
ATOM     20  H   UNL     1      -6.989  16.403  28.276  0.00  0.00    +0.210 HD
ENDBRANCH   9  19
BRANCH   7  21
ATOM     21  O   UNL     1      -5.242  14.171  33.155  0.00  0.00    -0.343 OA
ATOM     22  C   UNL     1      -6.271  15.026  33.715  0.00  0.00    +0.198 C 
ENDBRANCH   7  21
ENDBRANCH   4   5
BRANCH   4  23
ATOM     23  O   UNL     1      -6.118  11.029  29.101  0.00  0.00    -0.387 OA
ATOM     24  H   UNL     1      -6.550  11.133  29.952  0.00  0.00    +0.210 HD
ENDBRANCH   4  23
ENDBRANCH   1   4
BRANCH   1  25
ATOM     25  C   UNL     1      -3.195   9.709  29.186  0.00  0.00    +0.141 C 
BRANCH  25  28
ATOM     26  C   UNL     1      -1.955   9.946  27.061  0.00  0.00    +0.401 C 
ATOM     27  O   UNL     1      -0.928   9.417  27.493  0.00  0.00    -0.226 OA
ATOM     28  N   UNL     1      -3.060  10.129  27.785  0.00  0.00    -0.279 N 
ATOM     29  H   UNL     1      -3.849  10.581  27.345  0.00  0.00    +0.152 HD
BRANCH  26  30
ATOM     30  O   UNL     1      -1.985  10.402  25.707  0.00  0.00    -0.444 OA
BRANCH  30  31
ATOM     31  C   UNL     1      -3.255  10.997  25.430  0.00  0.00    +0.292 C 
BRANCH  31  33
ATOM     32  N   UNL     1      -2.953  11.515  23.021  0.00  0.00    -0.131 NA
ATOM     33  C   UNL     1      -3.154  11.947  24.305  0.00  0.00    +0.120 A 
ATOM     34  C   UNL     1      -3.315  13.316  24.298  0.00  0.00    +0.137 A 
ATOM     35  N   UNL     1      -3.385  13.624  22.969  0.00  0.00    -0.251 N 
ATOM     36  N   UNL     1      -3.071  12.557  22.210  0.00  0.00    -0.065 NA
BRANCH  35  37
ATOM     37  C   UNL     1      -4.040  14.772  22.374  0.00  0.00    +0.149 C 
BRANCH  37  38
ATOM     38  C   UNL     1      -5.582  14.761  22.427  0.00  0.00    +0.021 C 
BRANCH  38  39
ATOM     39  C   UNL     1      -6.223  13.766  21.438  0.00  0.00    +0.125 C 
BRANCH  39  40
ATOM     40  C   UNL     1      -6.721  12.480  22.064  0.00  0.00    +0.305 C 
ATOM     41  O   UNL     1      -7.824  12.326  22.563  0.00  0.00    -0.251 OA
BRANCH  40  42
ATOM     42  O   UNL     1      -5.837  11.470  21.962  0.00  0.00    -0.481 OA
ATOM     43  H   UNL     1      -6.025  10.691  22.517  0.00  0.00    +0.295 HD
ENDBRANCH  40  42
ENDBRANCH  39  40
ENDBRANCH  38  39
BRANCH  38  44
ATOM     44  C   UNL     1      -6.109  16.216  22.254  0.00  0.00    +0.009 C 
BRANCH  44  45
ATOM     45  C   UNL     1      -5.828  17.179  23.426  0.00  0.00    -0.017 C 
ATOM     46  C   UNL     1      -5.825  18.644  22.985  0.00  0.00    +0.007 C 
ATOM     47  C   UNL     1      -6.868  16.994  24.536  0.00  0.00    +0.007 C 
ENDBRANCH  44  45
ENDBRANCH  38  44
ENDBRANCH  37  38
ENDBRANCH  35  37
ENDBRANCH  31  33
ENDBRANCH  30  31
ENDBRANCH  26  30
ENDBRANCH  25  28
ENDBRANCH   1  25
TORSDOF 20
