REMARK VINA RESULT:    -4.971      7.050      9.615
REMARK INTER + INTRA:         -11.738
REMARK INTER:                  -8.052
REMARK INTRA:                  -3.686
REMARK UNBOUND:                -2.844
REMARK  Name = lig_assembled_44.pdb
REMARK  17 active torsions:
REMARK  status: ('A' for Active; 'I' for Inactive)
REMARK    1  A    between atoms: _2  and  _9
REMARK    2  A    between atoms: _4  and  _19
REMARK    3  A    between atoms: _6  and  _7
REMARK    4  A    between atoms: _6  and  _19
REMARK    5  A    between atoms: _9  and  _10
REMARK    6  A    between atoms: _15  and  _35
REMARK    7  A    between atoms: _17  and  _23
REMARK    8  A    between atoms: _18  and  _22
REMARK    9  A    between atoms: _22  and  _23
REMARK   10  A    between atoms: _25  and  _26
REMARK   11  A    between atoms: _27  and  _28
REMARK   12  A    between atoms: _29  and  _31
REMARK   13  A    between atoms: _31  and  _32
REMARK   14  A    between atoms: _31  and  _33
REMARK   15  A    between atoms: _33  and  _34
REMARK   16  A    between atoms: _33  and  _35
REMARK   17  A    between atoms: _36  and  _38
REMARK                            x       y       z     vdW  Elec       q    Type
REMARK                         _______ _______ _______ _____ _____    ______ ____
ROOT
ATOM      1  C   UNL     1      -3.533   9.618  31.270  0.00  0.00    +0.163 C 
ENDROOT
BRANCH   1   2
ATOM      2  O   UNL     1      -2.491  10.538  31.635  0.00  0.00    -0.388 OA
ATOM      3  H   UNL     1      -2.881  11.331  32.011  0.00  0.00    +0.210 HD
ENDBRANCH   1   2
BRANCH   1   4
ATOM      4  C   UNL     1      -2.928   8.369  30.637  0.00  0.00    +0.141 C 
BRANCH   4   7
ATOM      5  C   UNL     1      -2.010   7.654  28.457  0.00  0.00    +0.401 C 
ATOM      6  O   UNL     1      -1.740   6.513  28.838  0.00  0.00    -0.226 OA
ATOM      7  N   UNL     1      -2.561   8.589  29.233  0.00  0.00    -0.279 N 
ATOM      8  H   UNL     1      -2.736   9.499  28.832  0.00  0.00    +0.152 HD
BRANCH   5   9
ATOM      9  O   UNL     1      -1.720   8.022  27.106  0.00  0.00    -0.444 OA
BRANCH   9  10
ATOM     10  C   UNL     1      -2.923   8.437  26.455  0.00  0.00    +0.292 C 
BRANCH  10  12
ATOM     11  N   UNL     1      -2.729  10.816  27.121  0.00  0.00    -0.131 NA
ATOM     12  C   UNL     1      -2.866   9.876  26.135  0.00  0.00    +0.120 A 
ATOM     13  C   UNL     1      -2.913  10.508  24.914  0.00  0.00    +0.137 A 
ATOM     14  N   UNL     1      -2.721  11.824  25.218  0.00  0.00    -0.247 N 
ATOM     15  N   UNL     1      -2.651  12.011  26.549  0.00  0.00    -0.065 NA
BRANCH  14  16
ATOM     16  C   UNL     1      -2.594  12.946  24.309  0.00  0.00    +0.180 C 
BRANCH  16  17
ATOM     17  C   UNL     1      -3.897  13.237  23.603  0.00  0.00    -0.026 A 
ATOM     18  C   UNL     1      -4.938  13.903  24.269  0.00  0.00    +0.006 A 
ATOM     19  C   UNL     1      -6.148  14.157  23.619  0.00  0.00    +0.015 A 
ATOM     20  C   UNL     1      -6.323  13.745  22.299  0.00  0.00    +0.018 A 
ATOM     21 BR   UNL     1      -7.956  14.105  21.416  0.00  0.00    -0.050 Br
ATOM     22  C   UNL     1      -5.306  13.072  21.627  0.00  0.00    +0.015 A 
ATOM     23  C   UNL     1      -4.097  12.813  22.280  0.00  0.00    +0.006 A 
ENDBRANCH  16  17
ENDBRANCH  14  16
ENDBRANCH  10  12
ENDBRANCH   9  10
ENDBRANCH   5   9
ENDBRANCH   4   7
ENDBRANCH   1   4
BRANCH   1  24
ATOM     24  C   UNL     1      -4.519  10.267  30.283  0.00  0.00    +0.175 C 
BRANCH  24  25
ATOM     25  C   UNL     1      -4.466  11.801  30.339  0.00  0.00    +0.176 C 
ATOM     26  O   UNL     1      -4.620  12.203  31.728  0.00  0.00    -0.332 OA
ATOM     27  C   UNL     1      -4.489  13.640  31.990  0.00  0.00    +0.277 C 
ATOM     28  C   UNL     1      -5.469  14.444  31.100  0.00  0.00    +0.110 C 
ATOM     29  C   UNL     1      -5.364  14.028  29.618  0.00  0.00    +0.143 C 
ATOM     30  C   UNL     1      -5.512  12.514  29.461  0.00  0.00    +0.133 C 
BRANCH  30  31
ATOM     31  N   UNL     1      -5.323  12.121  28.056  0.00  0.00    -0.308 N 
ATOM     32  H   UNL     1      -4.408  12.250  27.648  0.00  0.00    +0.149 HD
ATOM     33  C   UNL     1      -6.283  11.604  27.284  0.00  0.00    +0.210 C 
ATOM     34  C   UNL     1      -7.674  11.443  27.927  0.00  0.00    +0.109 C 
ATOM     35  O   UNL     1      -6.093  11.270  26.114  0.00  0.00    -0.276 OA
ENDBRANCH  30  31
BRANCH  27  36
ATOM     36  C   UNL     1      -3.045  14.115  31.726  0.00  0.00    +0.414 C 
ATOM     37  O   UNL     1      -2.093  13.499  32.203  0.00  0.00    -0.240 OA
ATOM     38  O   UNL     1      -2.833  15.112  31.036  0.00  0.00    -0.240 OA
ENDBRANCH  27  36
BRANCH  27  39
ATOM     39  O   UNL     1      -4.834  13.876  33.379  0.00  0.00    -0.343 OA
ATOM     40  C   UNL     1      -4.927  15.272  33.759  0.00  0.00    +0.198 C 
ENDBRANCH  27  39
BRANCH  29  41
ATOM     41  O   UNL     1      -6.385  14.681  28.861  0.00  0.00    -0.390 OA
ATOM     42  H   UNL     1      -6.113  14.742  27.943  0.00  0.00    +0.210 HD
ENDBRANCH  29  41
ENDBRANCH  24  25
BRANCH  24  43
ATOM     43  O   UNL     1      -5.859   9.806  30.546  0.00  0.00    -0.387 OA
ATOM     44  H   UNL     1      -6.102   9.142  29.896  0.00  0.00    +0.210 HD
ENDBRANCH  24  43
ENDBRANCH   1  24
TORSDOF 15
