REMARK VINA RESULT:    -5.073      7.757     12.120
REMARK INTER + INTRA:         -12.115
REMARK INTER:                 -10.208
REMARK INTRA:                  -1.907
REMARK UNBOUND:                -2.890
REMARK  Name = lig_assembled_73.pdb
REMARK  18 active torsions:
REMARK  status: ('A' for Active; 'I' for Inactive)
REMARK    1  A    between atoms: _2  and  _10
REMARK    2  A    between atoms: _3  and  _14
REMARK    3  A    between atoms: _5  and  _22
REMARK    4  A    between atoms: _7  and  _8
REMARK    5  A    between atoms: _7  and  _22
REMARK    6  A    between atoms: _13  and  _16
REMARK    7  A    between atoms: _18  and  _38
REMARK    8  A    between atoms: _20  and  _26
REMARK    9  A    between atoms: _21  and  _25
REMARK   10  A    between atoms: _25  and  _26
REMARK   11  A    between atoms: _28  and  _29
REMARK   12  A    between atoms: _30  and  _31
REMARK   13  A    between atoms: _32  and  _34
REMARK   14  A    between atoms: _34  and  _35
REMARK   15  A    between atoms: _34  and  _36
REMARK   16  A    between atoms: _36  and  _37
REMARK   17  A    between atoms: _36  and  _38
REMARK   18  A    between atoms: _39  and  _41
REMARK                            x       y       z     vdW  Elec       q    Type
REMARK                         _______ _______ _______ _____ _____    ______ ____
ROOT
ATOM      1  C   UNL     1      -4.780  11.174  20.957  0.00  0.00    +0.163 C 
ENDROOT
BRANCH   1   2
ATOM      2  O   UNL     1      -4.706   9.832  20.449  0.00  0.00    -0.388 OA
ATOM      3  H   UNL     1      -5.473   9.655  19.898  0.00  0.00    +0.210 HD
ENDBRANCH   1   2
BRANCH   1   4
ATOM      4  C   UNL     1      -3.474  11.564  21.670  0.00  0.00    +0.175 C 
BRANCH   4   5
ATOM      5  C   UNL     1      -3.684  11.799  23.173  0.00  0.00    +0.176 C 
ATOM      6  O   UNL     1      -4.045  10.527  23.778  0.00  0.00    -0.332 OA
ATOM      7  C   UNL     1      -4.183  10.536  25.238  0.00  0.00    +0.277 C 
ATOM      8  C   UNL     1      -5.187  11.629  25.680  0.00  0.00    +0.110 C 
ATOM      9  C   UNL     1      -4.862  12.993  25.036  0.00  0.00    +0.143 C 
ATOM     10  C   UNL     1      -4.738  12.868  23.517  0.00  0.00    +0.133 C 
BRANCH  10  11
ATOM     11  N   UNL     1      -4.343  14.155  22.924  0.00  0.00    -0.308 N 
ATOM     12  H   UNL     1      -3.389  14.461  23.052  0.00  0.00    +0.149 HD
ATOM     13  C   UNL     1      -5.164  14.947  22.228  0.00  0.00    +0.210 C 
ATOM     14  C   UNL     1      -6.619  14.465  22.074  0.00  0.00    +0.109 C 
ATOM     15  O   UNL     1      -4.802  16.013  21.731  0.00  0.00    -0.276 OA
ENDBRANCH  10  11
BRANCH   7  16
ATOM     16  C   UNL     1      -2.819  10.784  25.915  0.00  0.00    +0.414 C 
ATOM     17  O   UNL     1      -1.784  10.365  25.397  0.00  0.00    -0.240 OA
ATOM     18  O   UNL     1      -2.753  11.403  26.978  0.00  0.00    -0.240 OA
ENDBRANCH   7  16
BRANCH   9  19
ATOM     19  O   UNL     1      -5.894  13.931  25.348  0.00  0.00    -0.390 OA
ATOM     20  H   UNL     1      -6.379  13.629  26.119  0.00  0.00    +0.210 HD
ENDBRANCH   9  19
BRANCH   7  21
ATOM     21  O   UNL     1      -4.703   9.245  25.647  0.00  0.00    -0.343 OA
ATOM     22  C   UNL     1      -4.920   8.301  24.568  0.00  0.00    +0.198 C 
ENDBRANCH   7  21
ENDBRANCH   4   5
BRANCH   4  23
ATOM     23  O   UNL     1      -2.906  12.739  21.058  0.00  0.00    -0.387 OA
ATOM     24  H   UNL     1      -3.462  13.021  20.328  0.00  0.00    +0.210 HD
ENDBRANCH   4  23
ENDBRANCH   1   4
BRANCH   1  25
ATOM     25  C   UNL     1      -5.049  12.150  19.816  0.00  0.00    +0.141 C 
BRANCH  25  28
ATOM     26  C   UNL     1      -4.744  11.862  17.381  0.00  0.00    +0.401 C 
ATOM     27  O   UNL     1      -5.910  12.155  17.106  0.00  0.00    -0.226 OA
ATOM     28  N   UNL     1      -4.257  11.828  18.622  0.00  0.00    -0.279 N 
ATOM     29  H   UNL     1      -3.290  11.566  18.748  0.00  0.00    +0.152 HD
BRANCH  26  30
ATOM     30  O   UNL     1      -3.842  11.530  16.322  0.00  0.00    -0.444 OA
BRANCH  30  31
ATOM     31  C   UNL     1      -4.433  11.875  15.066  0.00  0.00    +0.292 C 
BRANCH  31  33
ATOM     32  N   UNL     1      -2.737  10.996  13.493  0.00  0.00    -0.131 NA
ATOM     33  C   UNL     1      -3.388  12.062  14.042  0.00  0.00    +0.121 A 
ATOM     34  C   UNL     1      -2.902  13.221  13.483  0.00  0.00    +0.143 A 
ATOM     35  N   UNL     1      -1.949  12.809  12.580  0.00  0.00    -0.220 N 
ATOM     36  N   UNL     1      -1.865  11.457  12.606  0.00  0.00    -0.060 NA
BRANCH  35  37
ATOM     37  C   UNL     1      -1.134  13.594  11.725  0.00  0.00    +0.074 A 
ATOM     38  C   UNL     1      -0.970  13.219  10.380  0.00  0.00    +0.032 A 
ATOM     39  C   UNL     1      -0.161  13.975   9.519  0.00  0.00    +0.054 A 
ATOM     40  C   UNL     1       0.492  15.110   9.994  0.00  0.00    +0.195 A 
ATOM     41  C   UNL     1       0.324  15.477  11.329  0.00  0.00    +0.316 A 
ATOM     42  C   UNL     1      -0.486  14.739  12.203  0.00  0.00    +0.116 A 
BRANCH  41  43
ATOM     43  N   UNL     1       0.999  16.647  11.856  0.00  0.00    +0.083 N 
ATOM     44  O   UNL     1       0.602  17.757  11.475  0.00  0.00    +0.042 OA
ATOM     45  O   UNL     1       1.985  16.441  12.578  0.00  0.00    -0.576 OA
ENDBRANCH  41  43
BRANCH  40  46
ATOM     46  O   UNL     1       1.260  15.855   9.152  0.00  0.00    -0.501 OA
ATOM     47  H   UNL     1       1.412  15.371   8.322  0.00  0.00    +0.292 HD
ENDBRANCH  40  46
ENDBRANCH  35  37
ENDBRANCH  31  33
ENDBRANCH  30  31
ENDBRANCH  26  30
ENDBRANCH  25  28
ENDBRANCH   1  25
TORSDOF 16
