REMARK VINA RESULT:    -4.988      7.651     12.401
REMARK INTER + INTRA:         -11.992
REMARK INTER:                  -9.417
REMARK INTRA:                  -2.575
REMARK UNBOUND:                -3.358
REMARK  Name = lig_assembled_42.pdb
REMARK  16 active torsions:
REMARK  status: ('A' for Active; 'I' for Inactive)
REMARK    1  A    between atoms: _2  and  _9
REMARK    2  A    between atoms: _4  and  _21
REMARK    3  A    between atoms: _6  and  _7
REMARK    4  A    between atoms: _6  and  _21
REMARK    5  A    between atoms: _17  and  _37
REMARK    6  A    between atoms: _19  and  _25
REMARK    7  A    between atoms: _20  and  _24
REMARK    8  A    between atoms: _24  and  _25
REMARK    9  A    between atoms: _27  and  _28
REMARK   10  A    between atoms: _29  and  _30
REMARK   11  A    between atoms: _31  and  _33
REMARK   12  A    between atoms: _33  and  _34
REMARK   13  A    between atoms: _33  and  _35
REMARK   14  A    between atoms: _35  and  _36
REMARK   15  A    between atoms: _35  and  _37
REMARK   16  A    between atoms: _38  and  _40
REMARK                            x       y       z     vdW  Elec       q    Type
REMARK                         _______ _______ _______ _____ _____    ______ ____
ROOT
ATOM      1  C   UNL     1      -2.292   9.636  26.991  0.00  0.00    +0.163 C 
ENDROOT
BRANCH   1   2
ATOM      2  O   UNL     1      -1.141   9.838  26.156  0.00  0.00    -0.388 OA
ATOM      3  H   UNL     1      -1.156  10.730  25.799  0.00  0.00    +0.210 HD
ENDBRANCH   1   2
BRANCH   1   4
ATOM      4  C   UNL     1      -1.855   9.191  28.383  0.00  0.00    +0.141 C 
BRANCH   4   7
ATOM      5  C   UNL     1      -3.103   9.384  30.507  0.00  0.00    +0.401 C 
ATOM      6  O   UNL     1      -3.123   8.168  30.715  0.00  0.00    -0.226 OA
ATOM      7  N   UNL     1      -2.537   9.948  29.440  0.00  0.00    -0.279 N 
ATOM      8  H   UNL     1      -2.580  10.954  29.353  0.00  0.00    +0.152 HD
BRANCH   5   9
ATOM      9  O   UNL     1      -3.721  10.260  31.453  0.00  0.00    -0.444 OA
BRANCH   9  10
ATOM     10  C   UNL     1      -2.716  10.866  32.271  0.00  0.00    +0.292 C 
BRANCH  10  12
ATOM     11  N   UNL     1      -1.710  13.121  32.509  0.00  0.00    -0.131 NA
ATOM     12  C   UNL     1      -2.765  12.335  32.150  0.00  0.00    +0.121 A 
ATOM     13  C   UNL     1      -3.786  13.136  31.698  0.00  0.00    +0.143 A 
ATOM     14  N   UNL     1      -3.306  14.420  31.797  0.00  0.00    -0.220 N 
ATOM     15  N   UNL     1      -2.044  14.388  32.291  0.00  0.00    -0.060 NA
BRANCH  14  16
ATOM     16  C   UNL     1      -3.963  15.631  31.461  0.00  0.00    +0.071 A 
ATOM     17  C   UNL     1      -4.811  15.684  30.345  0.00  0.00    +0.077 A 
ATOM     18  C   UNL     1      -5.426  16.884  30.061  0.00  0.00    +0.168 A 
ATOM     19  O   UNL     1      -6.276  17.101  29.023  0.00  0.00    -0.453 OA
ATOM     20  C   UNL     1      -6.600  18.491  29.228  0.00  0.00    +0.466 C 
ATOM     21  O   UNL     1      -5.935  19.073  30.370  0.00  0.00    -0.453 OA
ATOM     22  C   UNL     1      -5.231  18.005  30.830  0.00  0.00    +0.166 A 
ATOM     23  C   UNL     1      -4.404  17.991  31.932  0.00  0.00    +0.051 A 
ATOM     24  C   UNL     1      -3.761  16.787  32.253  0.00  0.00    +0.031 A 
ENDBRANCH  14  16
ENDBRANCH  10  12
ENDBRANCH   9  10
ENDBRANCH   5   9
ENDBRANCH   4   7
ENDBRANCH   1   4
BRANCH   1  25
ATOM     25  C   UNL     1      -3.233   8.580  26.386  0.00  0.00    +0.175 C 
BRANCH  25  26
ATOM     26  C   UNL     1      -4.106   9.160  25.263  0.00  0.00    +0.176 C 
ATOM     27  O   UNL     1      -3.252   9.396  24.110  0.00  0.00    -0.332 OA
ATOM     28  C   UNL     1      -3.937   9.854  22.897  0.00  0.00    +0.277 C 
ATOM     29  C   UNL     1      -4.777  11.120  23.196  0.00  0.00    +0.110 C 
ATOM     30  C   UNL     1      -5.677  10.928  24.434  0.00  0.00    +0.143 C 
ATOM     31  C   UNL     1      -4.863  10.448  25.635  0.00  0.00    +0.133 C 
BRANCH  31  32
ATOM     32  N   UNL     1      -5.745  10.185  26.784  0.00  0.00    -0.308 N 
ATOM     33  H   UNL     1      -6.367   9.391  26.729  0.00  0.00    +0.149 HD
ATOM     34  C   UNL     1      -5.776  10.927  27.894  0.00  0.00    +0.210 C 
ATOM     35  C   UNL     1      -4.835  12.146  27.936  0.00  0.00    +0.109 C 
ATOM     36  O   UNL     1      -6.515  10.675  28.846  0.00  0.00    -0.276 OA
ENDBRANCH  31  32
BRANCH  28  37
ATOM     37  C   UNL     1      -4.855   8.748  22.337  0.00  0.00    +0.414 C 
ATOM     38  O   UNL     1      -5.954   9.034  21.862  0.00  0.00    -0.240 OA
ATOM     39  O   UNL     1      -4.498   7.569  22.359  0.00  0.00    -0.240 OA
ENDBRANCH  28  37
BRANCH  30  40
ATOM     40  O   UNL     1      -6.316  12.163  24.761  0.00  0.00    -0.390 OA
ATOM     41  H   UNL     1      -7.164  12.213  24.315  0.00  0.00    +0.210 HD
ENDBRANCH  30  40
BRANCH  28  42
ATOM     42  O   UNL     1      -2.928  10.196  21.913  0.00  0.00    -0.343 OA
ATOM     43  C   UNL     1      -3.093  11.495  21.292  0.00  0.00    +0.198 C 
ENDBRANCH  28  42
ENDBRANCH  25  26
BRANCH  25  44
ATOM     44  O   UNL     1      -4.063   8.006  27.415  0.00  0.00    -0.387 OA
ATOM     45  H   UNL     1      -3.811   7.090  27.556  0.00  0.00    +0.210 HD
ENDBRANCH  25  44
ENDBRANCH   1  25
TORSDOF 14
