REMARK VINA RESULT:    -4.634      6.863      9.598
REMARK INTER + INTRA:         -10.789
REMARK INTER:                  -8.426
REMARK INTRA:                  -2.363
REMARK UNBOUND:                -2.363
REMARK  Name = lig_assembled_59.pdb
REMARK  18 active torsions:
REMARK  status: ('A' for Active; 'I' for Inactive)
REMARK    1  A    between atoms: _2  and  _10
REMARK    2  A    between atoms: _5  and  _20
REMARK    3  A    between atoms: _7  and  _8
REMARK    4  A    between atoms: _7  and  _20
REMARK    5  A    between atoms: _13  and  _14
REMARK    6  A    between atoms: _14  and  _15
REMARK    7  A    between atoms: _16  and  _36
REMARK    8  A    between atoms: _18  and  _24
REMARK    9  A    between atoms: _19  and  _23
REMARK   10  A    between atoms: _23  and  _24
REMARK   11  A    between atoms: _26  and  _27
REMARK   12  A    between atoms: _28  and  _29
REMARK   13  A    between atoms: _30  and  _32
REMARK   14  A    between atoms: _32  and  _33
REMARK   15  A    between atoms: _32  and  _34
REMARK   16  A    between atoms: _34  and  _35
REMARK   17  A    between atoms: _34  and  _36
REMARK   18  A    between atoms: _37  and  _39
REMARK                            x       y       z     vdW  Elec       q    Type
REMARK                         _______ _______ _______ _____ _____    ______ ____
ROOT
ATOM      1  C   UNL     1      -7.167  11.837  15.601  0.00  0.00    +0.163 C 
ENDROOT
BRANCH   1   2
ATOM      2  O   UNL     1      -6.438  13.060  15.412  0.00  0.00    -0.388 OA
ATOM      3  H   UNL     1      -5.589  13.000  15.856  0.00  0.00    +0.210 HD
ENDBRANCH   1   2
BRANCH   1   4
ATOM      4  C   UNL     1      -6.413  10.646  14.984  0.00  0.00    +0.175 C 
BRANCH   4   5
ATOM      5  C   UNL     1      -5.067  11.067  14.376  0.00  0.00    +0.176 C 
ATOM      6  O   UNL     1      -5.333  11.674  13.081  0.00  0.00    -0.332 OA
ATOM      7  C   UNL     1      -4.167  12.236  12.393  0.00  0.00    +0.277 C 
ATOM      8  C   UNL     1      -3.055  11.168  12.252  0.00  0.00    +0.110 C 
ATOM      9  C   UNL     1      -2.759  10.472  13.598  0.00  0.00    +0.143 C 
ATOM     10  C   UNL     1      -4.042   9.928  14.227  0.00  0.00    +0.133 C 
BRANCH  10  11
ATOM     11  N   UNL     1      -3.761   9.345  15.548  0.00  0.00    -0.308 N 
ATOM     12  H   UNL     1      -3.489   9.972  16.292  0.00  0.00    +0.149 HD
ATOM     13  C   UNL     1      -3.841   8.041  15.829  0.00  0.00    +0.210 C 
ATOM     14  C   UNL     1      -4.233   7.109  14.667  0.00  0.00    +0.109 C 
ATOM     15  O   UNL     1      -3.614   7.583  16.949  0.00  0.00    -0.276 OA
ENDBRANCH  10  11
BRANCH   7  16
ATOM     16  C   UNL     1      -3.615  13.456  13.160  0.00  0.00    +0.414 C 
ATOM     17  O   UNL     1      -4.384  14.228  13.732  0.00  0.00    -0.240 OA
ATOM     18  O   UNL     1      -2.403  13.669  13.205  0.00  0.00    -0.240 OA
ENDBRANCH   7  16
BRANCH   7  19
ATOM     19  O   UNL     1      -4.582  12.642  11.064  0.00  0.00    -0.343 OA
ATOM     20  C   UNL     1      -5.315  11.637  10.318  0.00  0.00    +0.198 C 
ENDBRANCH   7  19
BRANCH   9  21
ATOM     21  O   UNL     1      -1.842   9.397  13.393  0.00  0.00    -0.390 OA
ATOM     22  H   UNL     1      -2.327   8.571  13.325  0.00  0.00    +0.210 HD
ENDBRANCH   9  21
ENDBRANCH   4   5
BRANCH   4  23
ATOM     23  O   UNL     1      -7.230  10.003  13.986  0.00  0.00    -0.387 OA
ATOM     24  H   UNL     1      -8.063   9.731  14.380  0.00  0.00    +0.210 HD
ENDBRANCH   4  23
ENDBRANCH   1   4
BRANCH   1  25
ATOM     25  C   UNL     1      -7.387  11.585  17.089  0.00  0.00    +0.141 C 
BRANCH  25  28
ATOM     26  C   UNL     1      -5.348  11.169  18.420  0.00  0.00    +0.401 C 
ATOM     27  O   UNL     1      -5.406   9.943  18.300  0.00  0.00    -0.226 OA
ATOM     28  N   UNL     1      -6.236  12.012  17.893  0.00  0.00    -0.279 N 
ATOM     29  H   UNL     1      -6.108  13.002  18.055  0.00  0.00    +0.152 HD
BRANCH  26  30
ATOM     30  O   UNL     1      -4.275  11.743  19.171  0.00  0.00    -0.444 OA
BRANCH  30  31
ATOM     31  C   UNL     1      -4.780  12.270  20.400  0.00  0.00    +0.292 C 
BRANCH  31  33
ATOM     32  N   UNL     1      -3.292  10.540  21.351  0.00  0.00    -0.131 NA
ATOM     33  C   UNL     1      -4.190  11.552  21.546  0.00  0.00    +0.121 A 
ATOM     34  C   UNL     1      -4.393  11.720  22.897  0.00  0.00    +0.145 A 
ATOM     35  N   UNL     1      -3.586  10.778  23.493  0.00  0.00    -0.202 N 
ATOM     36  N   UNL     1      -2.925  10.076  22.537  0.00  0.00    -0.059 NA
BRANCH  35  37
ATOM     37  C   UNL     1      -3.439  10.523  24.883  0.00  0.00    +0.156 A 
ATOM     38  C   UNL     1      -3.398  11.599  25.769  0.00  0.00    +0.048 A 
ATOM     39  C   UNL     1      -3.212  11.343  27.126  0.00  0.00    +0.011 A 
ATOM     40  C   UNL     1      -3.077  10.029  27.577  0.00  0.00    -0.004 A 
ATOM     41  C   UNL     1      -3.132   9.019  26.620  0.00  0.00    +0.119 A 
ATOM     42  N   UNL     1      -3.318   9.231  25.295  0.00  0.00    -0.236 NA
BRANCH  40  43
ATOM     43  C   UNL     1      -2.783   9.738  29.019  0.00  0.00    +0.192 C 
BRANCH  43  44
ATOM     44  O   UNL     1      -2.845  10.916  29.809  0.00  0.00    -0.390 OA
ATOM     45  H   UNL     1      -3.664  11.381  29.559  0.00  0.00    +0.210 HD
ENDBRANCH  43  44
ENDBRANCH  40  43
ENDBRANCH  35  37
ENDBRANCH  31  33
ENDBRANCH  30  31
ENDBRANCH  26  30
ENDBRANCH  25  28
ENDBRANCH   1  25
TORSDOF 16
