REMARK VINA RESULT:    -5.271      5.654     12.611
REMARK INTER + INTRA:         -11.539
REMARK INTER:                  -9.584
REMARK INTRA:                  -1.954
REMARK UNBOUND:                -1.954
REMARK  Name = lig_assembled_60.pdb
REMARK  18 active torsions:
REMARK  status: ('A' for Active; 'I' for Inactive)
REMARK    1  A    between atoms: _2  and  _10
REMARK    2  A    between atoms: _3  and  _41
REMARK    3  A    between atoms: _5  and  _21
REMARK    4  A    between atoms: _7  and  _8
REMARK    5  A    between atoms: _7  and  _21
REMARK    6  A    between atoms: _13  and  _41
REMARK    7  A    between atoms: _17  and  _37
REMARK    8  A    between atoms: _19  and  _25
REMARK    9  A    between atoms: _20  and  _24
REMARK   10  A    between atoms: _24  and  _25
REMARK   11  A    between atoms: _27  and  _28
REMARK   12  A    between atoms: _29  and  _30
REMARK   13  A    between atoms: _31  and  _33
REMARK   14  A    between atoms: _33  and  _34
REMARK   15  A    between atoms: _33  and  _35
REMARK   16  A    between atoms: _35  and  _36
REMARK   17  A    between atoms: _35  and  _37
REMARK   18  A    between atoms: _38  and  _40
REMARK                            x       y       z     vdW  Elec       q    Type
REMARK                         _______ _______ _______ _____ _____    ______ ____
ROOT
ATOM      1  C   UNL     1      -2.889  12.100  24.596  0.00  0.00    +0.141 C 
ENDROOT
BRANCH   1   4
ATOM      2  C   UNL     1      -4.171  10.873  22.877  0.00  0.00    +0.401 C 
ATOM      3  O   UNL     1      -3.223  10.157  22.547  0.00  0.00    -0.226 OA
ATOM      4  N   UNL     1      -4.102  11.812  23.821  0.00  0.00    -0.279 N 
ATOM      5  H   UNL     1      -4.932  12.356  24.014  0.00  0.00    +0.152 HD
BRANCH   2   6
ATOM      6  O   UNL     1      -5.429  10.708  22.217  0.00  0.00    -0.444 OA
BRANCH   6   7
ATOM      7  C   UNL     1      -5.845  11.958  21.661  0.00  0.00    +0.292 C 
BRANCH   7   9
ATOM      8  N   UNL     1      -6.758  12.465  19.417  0.00  0.00    -0.131 NA
ATOM      9  C   UNL     1      -5.778  11.912  20.189  0.00  0.00    +0.121 A 
ATOM     10  C   UNL     1      -4.813  11.373  19.370  0.00  0.00    +0.143 A 
ATOM     11  N   UNL     1      -5.232  11.656  18.090  0.00  0.00    -0.220 N 
ATOM     12  N   UNL     1      -6.425  12.298  18.144  0.00  0.00    -0.060 NA
BRANCH  11  13
ATOM     13  C   UNL     1      -4.568  11.399  16.863  0.00  0.00    +0.067 A 
ATOM     14  C   UNL     1      -4.116  12.458  16.059  0.00  0.00    +0.030 A 
ATOM     15  C   UNL     1      -3.527  12.195  14.821  0.00  0.00    +0.030 A 
ATOM     16  C   UNL     1      -3.373  10.874  14.391  0.00  0.00    +0.105 A 
ATOM     17  C   UNL     1      -3.804   9.812  15.191  0.00  0.00    +0.030 A 
ATOM     18  C   UNL     1      -4.395  10.075  16.430  0.00  0.00    +0.030 A 
BRANCH  16  19
ATOM     19  S   UNL     1      -2.697  10.559  12.788  0.00  0.00    +0.056 S 
ATOM     20  O   UNL     1      -1.863  11.671  12.395  0.00  0.00    -0.153 OA
ATOM     21  O   UNL     1      -2.242   9.188  12.729  0.00  0.00    -0.153 OA
BRANCH  19  22
ATOM     22  N   UNL     1      -4.064  10.637  11.820  0.00  0.00    -0.204 NA
ATOM     23  H   UNL     1      -4.898  10.692  12.404  0.00  0.00    +0.144 HD
ATOM     24  H   UNL     1      -4.068   9.853  11.166  0.00  0.00    +0.144 HD
ENDBRANCH  19  22
ENDBRANCH  16  19
ENDBRANCH  11  13
ENDBRANCH   7   9
ENDBRANCH   6   7
ENDBRANCH   2   6
ENDBRANCH   1   4
BRANCH   1  25
ATOM     25  C   UNL     1      -3.049  11.718  26.064  0.00  0.00    +0.163 C 
BRANCH  25  26
ATOM     26  O   UNL     1      -4.363  12.072  26.525  0.00  0.00    -0.388 OA
ATOM     27  H   UNL     1      -4.993  11.407  26.236  0.00  0.00    +0.210 HD
ENDBRANCH  25  26
BRANCH  25  28
ATOM     28  C   UNL     1      -2.793  10.211  26.234  0.00  0.00    +0.175 C 
BRANCH  28  29
ATOM     29  C   UNL     1      -3.505   9.640  27.469  0.00  0.00    +0.176 C 
ATOM     30  O   UNL     1      -2.972  10.312  28.643  0.00  0.00    -0.332 OA
ATOM     31  C   UNL     1      -3.612   9.969  29.916  0.00  0.00    +0.277 C 
ATOM     32  C   UNL     1      -3.590   8.436  30.137  0.00  0.00    +0.110 C 
ATOM     33  C   UNL     1      -4.118   7.676  28.902  0.00  0.00    +0.143 C 
ATOM     34  C   UNL     1      -3.385   8.113  27.633  0.00  0.00    +0.133 C 
BRANCH  34  35
ATOM     35  N   UNL     1      -3.956   7.446  26.453  0.00  0.00    -0.308 N 
ATOM     36  H   UNL     1      -4.887   7.713  26.164  0.00  0.00    +0.149 HD
ATOM     37  C   UNL     1      -3.325   6.511  25.738  0.00  0.00    +0.210 C 
ATOM     38  C   UNL     1      -1.919   6.107  26.219  0.00  0.00    +0.109 C 
ATOM     39  O   UNL     1      -3.823   5.980  24.744  0.00  0.00    -0.276 OA
ENDBRANCH  34  35
BRANCH  31  40
ATOM     40  C   UNL     1      -5.069  10.474  29.950  0.00  0.00    +0.414 C 
ATOM     41  O   UNL     1      -5.908   9.900  30.643  0.00  0.00    -0.240 OA
ATOM     42  O   UNL     1      -5.406  11.453  29.284  0.00  0.00    -0.240 OA
ENDBRANCH  31  40
BRANCH  33  43
ATOM     43  O   UNL     1      -3.940   6.271  29.088  0.00  0.00    -0.390 OA
ATOM     44  H   UNL     1      -3.235   6.119  29.722  0.00  0.00    +0.210 HD
ENDBRANCH  33  43
BRANCH  31  45
ATOM     45  O   UNL     1      -2.854  10.595  30.983  0.00  0.00    -0.343 OA
ATOM     46  C   UNL     1      -2.848   9.868  32.238  0.00  0.00    +0.198 C 
ENDBRANCH  31  45
ENDBRANCH  28  29
BRANCH  28  47
ATOM     47  O   UNL     1      -1.377   9.952  26.312  0.00  0.00    -0.387 OA
ATOM     48  H   UNL     1      -1.167   9.580  27.171  0.00  0.00    +0.210 HD
ENDBRANCH  28  47
ENDBRANCH  25  28
ENDBRANCH   1  25
TORSDOF 16
