REMARK VINA RESULT:    -4.249      2.118      5.958
REMARK INTER + INTRA:         -11.973
REMARK INTER:                  -8.085
REMARK INTRA:                  -3.888
REMARK UNBOUND:                -3.997
REMARK  Name = lig_assembled_68.pdb
REMARK  19 active torsions:
REMARK  status: ('A' for Active; 'I' for Inactive)
REMARK    1  A    between atoms: _2  and  _9
REMARK    2  A    between atoms: _4  and  _21
REMARK    3  A    between atoms: _6  and  _7
REMARK    4  A    between atoms: _6  and  _21
REMARK    5  A    between atoms: _9  and  _10
REMARK    6  A    between atoms: _10  and  _11
REMARK    7  A    between atoms: _10  and  _16
REMARK    8  A    between atoms: _17  and  _37
REMARK    9  A    between atoms: _19  and  _25
REMARK   10  A    between atoms: _20  and  _24
REMARK   11  A    between atoms: _24  and  _25
REMARK   12  A    between atoms: _27  and  _28
REMARK   13  A    between atoms: _29  and  _30
REMARK   14  A    between atoms: _31  and  _33
REMARK   15  A    between atoms: _33  and  _34
REMARK   16  A    between atoms: _33  and  _35
REMARK   17  A    between atoms: _35  and  _36
REMARK   18  A    between atoms: _35  and  _37
REMARK   19  A    between atoms: _38  and  _40
REMARK                            x       y       z     vdW  Elec       q    Type
REMARK                         _______ _______ _______ _____ _____    ______ ____
ROOT
ATOM      1  C   UNL     1      -3.956   7.190  23.780  0.00  0.00    +0.163 C 
ENDROOT
BRANCH   1   2
ATOM      2  O   UNL     1      -4.141   6.749  22.425  0.00  0.00    -0.388 OA
ATOM      3  H   UNL     1      -4.098   7.504  21.833  0.00  0.00    +0.210 HD
ENDBRANCH   1   2
BRANCH   1   4
ATOM      4  C   UNL     1      -5.025   8.226  24.171  0.00  0.00    +0.175 C 
BRANCH   4   5
ATOM      5  C   UNL     1      -4.452   9.649  24.238  0.00  0.00    +0.176 C 
ATOM      6  O   UNL     1      -4.812  10.215  25.529  0.00  0.00    -0.332 OA
ATOM      7  C   UNL     1      -4.257  11.541  25.816  0.00  0.00    +0.277 C 
ATOM      8  C   UNL     1      -4.622  12.537  24.688  0.00  0.00    +0.110 C 
ATOM      9  C   UNL     1      -4.287  11.966  23.294  0.00  0.00    +0.143 C 
ATOM     10  C   UNL     1      -4.911  10.583  23.103  0.00  0.00    +0.133 C 
BRANCH  10  11
ATOM     11  N   UNL     1      -4.513  10.013  21.806  0.00  0.00    -0.308 N 
ATOM     12  H   UNL     1      -3.536   9.798  21.665  0.00  0.00    +0.149 HD
ATOM     13  C   UNL     1      -5.359   9.760  20.804  0.00  0.00    +0.210 C 
ATOM     14  C   UNL     1      -6.837  10.122  21.041  0.00  0.00    +0.109 C 
ATOM     15  O   UNL     1      -4.999   9.268  19.734  0.00  0.00    -0.276 OA
ENDBRANCH  10  11
BRANCH   7  16
ATOM     16  C   UNL     1      -2.723  11.472  25.966  0.00  0.00    +0.414 C 
ATOM     17  O   UNL     1      -2.210  10.644  26.718  0.00  0.00    -0.240 OA
ATOM     18  O   UNL     1      -1.999  12.242  25.334  0.00  0.00    -0.240 OA
ENDBRANCH   7  16
BRANCH   7  19
ATOM     19  O   UNL     1      -4.847  12.016  27.054  0.00  0.00    -0.343 OA
ATOM     20  C   UNL     1      -5.738  13.151  26.911  0.00  0.00    +0.198 C 
ENDBRANCH   7  19
BRANCH   9  21
ATOM     21  O   UNL     1      -4.776  12.847  22.282  0.00  0.00    -0.390 OA
ATOM     22  H   UNL     1      -4.902  13.723  22.653  0.00  0.00    +0.210 HD
ENDBRANCH   9  21
ENDBRANCH   4   5
BRANCH   4  23
ATOM     23  O   UNL     1      -5.622   7.870  25.434  0.00  0.00    -0.387 OA
ATOM     24  H   UNL     1      -5.596   6.917  25.543  0.00  0.00    +0.210 HD
ENDBRANCH   4  23
ENDBRANCH   1   4
BRANCH   1  25
ATOM     25  C   UNL     1      -4.029   6.000  24.730  0.00  0.00    +0.141 C 
BRANCH  25  28
ATOM     26  C   UNL     1      -2.109   6.374  26.241  0.00  0.00    +0.401 C 
ATOM     27  O   UNL     1      -1.262   6.182  25.366  0.00  0.00    -0.226 OA
ATOM     28  N   UNL     1      -3.425   6.303  26.034  0.00  0.00    -0.279 N 
ATOM     29  H   UNL     1      -4.041   6.467  26.818  0.00  0.00    +0.152 HD
BRANCH  26  30
ATOM     30  O   UNL     1      -1.678   6.689  27.567  0.00  0.00    -0.444 OA
BRANCH  30  31
ATOM     31  C   UNL     1      -2.697   6.323  28.501  0.00  0.00    +0.292 C 
BRANCH  31  33
ATOM     32  N   UNL     1      -4.354   8.164  28.381  0.00  0.00    -0.131 NA
ATOM     33  C   UNL     1      -3.345   7.525  29.056  0.00  0.00    +0.120 A 
ATOM     34  C   UNL     1      -3.097   8.193  30.231  0.00  0.00    +0.137 A 
ATOM     35  N   UNL     1      -3.992   9.223  30.220  0.00  0.00    -0.249 N 
ATOM     36  N   UNL     1      -4.738   9.210  29.102  0.00  0.00    -0.065 NA
BRANCH  35  37
ATOM     37  C   UNL     1      -4.117  10.299  31.180  0.00  0.00    +0.181 C 
BRANCH  37  38
ATOM     38  C   UNL     1      -3.545  11.619  30.647  0.00  0.00    +0.166 C 
BRANCH  38  39
ATOM     39  C   UNL     1      -4.564  12.742  30.528  0.00  0.00    -0.017 A 
ATOM     40  C   UNL     1      -5.934  12.427  30.600  0.00  0.00    +0.006 A 
ATOM     41  C   UNL     1      -6.903  13.430  30.522  0.00  0.00    +0.000 A 
ATOM     42  C   UNL     1      -6.521  14.760  30.378  0.00  0.00    +0.000 A 
ATOM     43  C   UNL     1      -5.172  15.092  30.324  0.00  0.00    +0.000 A 
ATOM     44  C   UNL     1      -4.199  14.092  30.403  0.00  0.00    +0.006 A 
ENDBRANCH  38  39
BRANCH  38  45
ATOM     45  O   UNL     1      -2.984  11.394  29.349  0.00  0.00    -0.385 OA
ATOM     46  H   UNL     1      -3.558  10.772  28.873  0.00  0.00    +0.210 HD
ENDBRANCH  38  45
ENDBRANCH  37  38
ENDBRANCH  35  37
ENDBRANCH  31  33
ENDBRANCH  30  31
ENDBRANCH  26  30
ENDBRANCH  25  28
ENDBRANCH   1  25
TORSDOF 17
