REMARK VINA RESULT:    -4.450      4.604      9.184
REMARK INTER + INTRA:         -12.276
REMARK INTER:                  -9.354
REMARK INTRA:                  -2.922
REMARK UNBOUND:                -3.793
REMARK  Name = lig_assembled_21.pdb
REMARK  20 active torsions:
REMARK  status: ('A' for Active; 'I' for Inactive)
REMARK    1  A    between atoms: _2  and  _9
REMARK    2  A    between atoms: _4  and  _23
REMARK    3  A    between atoms: _6  and  _7
REMARK    4  A    between atoms: _6  and  _23
REMARK    5  A    between atoms: _9  and  _10
REMARK    6  A    between atoms: _11  and  _18
REMARK    7  A    between atoms: _12  and  _13
REMARK    8  A    between atoms: _12  and  _18
REMARK    9  A    between atoms: _19  and  _39
REMARK   10  A    between atoms: _21  and  _27
REMARK   11  A    between atoms: _22  and  _26
REMARK   12  A    between atoms: _26  and  _27
REMARK   13  A    between atoms: _29  and  _30
REMARK   14  A    between atoms: _31  and  _32
REMARK   15  A    between atoms: _33  and  _35
REMARK   16  A    between atoms: _35  and  _36
REMARK   17  A    between atoms: _35  and  _37
REMARK   18  A    between atoms: _37  and  _38
REMARK   19  A    between atoms: _37  and  _39
REMARK   20  A    between atoms: _40  and  _42
REMARK                            x       y       z     vdW  Elec       q    Type
REMARK                         _______ _______ _______ _____ _____    ______ ____
ROOT
ATOM      1  C   UNL     1      -2.977  11.800  25.000  0.00  0.00    +0.163 C 
ENDROOT
BRANCH   1   2
ATOM      2  O   UNL     1      -3.465  11.852  26.351  0.00  0.00    -0.388 OA
ATOM      3  H   UNL     1      -3.405  10.979  26.747  0.00  0.00    +0.210 HD
ENDBRANCH   1   2
BRANCH   1   4
ATOM      4  C   UNL     1      -3.771  10.779  24.167  0.00  0.00    +0.175 C 
BRANCH   4   5
ATOM      5  C   UNL     1      -4.143   9.532  24.984  0.00  0.00    +0.176 C 
ATOM      6  O   UNL     1      -2.911   8.936  25.475  0.00  0.00    -0.332 OA
ATOM      7  C   UNL     1      -3.076   7.786  26.370  0.00  0.00    +0.277 C 
ATOM      8  C   UNL     1      -3.952   6.700  25.698  0.00  0.00    +0.110 C 
ATOM      9  C   UNL     1      -5.259   7.292  25.132  0.00  0.00    +0.143 C 
ATOM     10  C   UNL     1      -4.971   8.484  24.217  0.00  0.00    +0.133 C 
BRANCH  10  11
ATOM     11  N   UNL     1      -6.227   9.093  23.753  0.00  0.00    -0.308 N 
ATOM     12  H   UNL     1      -6.840   9.497  24.447  0.00  0.00    +0.149 HD
ATOM     13  C   UNL     1      -6.610   9.147  22.475  0.00  0.00    +0.210 C 
ATOM     14  C   UNL     1      -5.667   8.498  21.444  0.00  0.00    +0.109 C 
ATOM     15  O   UNL     1      -7.661   9.677  22.114  0.00  0.00    -0.276 OA
ENDBRANCH  10  11
BRANCH   7  16
ATOM     16  C   UNL     1      -3.722   8.218  27.702  0.00  0.00    +0.414 C 
ATOM     17  O   UNL     1      -4.445   7.439  28.322  0.00  0.00    -0.240 OA
ATOM     18  O   UNL     1      -3.520   9.345  28.157  0.00  0.00    -0.240 OA
ENDBRANCH   7  16
BRANCH   9  19
ATOM     19  O   UNL     1      -5.961   6.291  24.393  0.00  0.00    -0.390 OA
ATOM     20  H   UNL     1      -5.750   6.374  23.460  0.00  0.00    +0.210 HD
ENDBRANCH   9  19
BRANCH   7  21
ATOM     21  O   UNL     1      -1.763   7.223  26.623  0.00  0.00    -0.343 OA
ATOM     22  C   UNL     1      -1.735   5.781  26.776  0.00  0.00    +0.198 C 
ENDBRANCH   7  21
ENDBRANCH   4   5
BRANCH   4  23
ATOM     23  O   UNL     1      -3.019  10.400  22.997  0.00  0.00    -0.387 OA
ATOM     24  H   UNL     1      -3.601   9.970  22.367  0.00  0.00    +0.210 HD
ENDBRANCH   4  23
ENDBRANCH   1   4
BRANCH   1  25
ATOM     25  C   UNL     1      -3.084  13.178  24.354  0.00  0.00    +0.141 C 
BRANCH  25  28
ATOM     26  C   UNL     1      -4.749  14.052  22.751  0.00  0.00    +0.401 C 
ATOM     27  O   UNL     1      -5.050  15.024  23.449  0.00  0.00    -0.226 OA
ATOM     28  N   UNL     1      -3.846  13.136  23.099  0.00  0.00    -0.279 N 
ATOM     29  H   UNL     1      -3.675  12.369  22.463  0.00  0.00    +0.152 HD
BRANCH  26  30
ATOM     30  O   UNL     1      -5.400  13.875  21.490  0.00  0.00    -0.444 OA
BRANCH  30  31
ATOM     31  C   UNL     1      -5.638  12.483  21.267  0.00  0.00    +0.292 C 
BRANCH  31  33
ATOM     32  N   UNL     1      -6.954  12.244  19.188  0.00  0.00    -0.131 NA
ATOM     33  C   UNL     1      -5.742  12.209  19.822  0.00  0.00    +0.120 A 
ATOM     34  C   UNL     1      -4.760  11.928  18.898  0.00  0.00    +0.137 A 
ATOM     35  N   UNL     1      -5.427  11.894  17.703  0.00  0.00    -0.247 N 
ATOM     36  N   UNL     1      -6.750  12.048  17.894  0.00  0.00    -0.065 NA
BRANCH  35  37
ATOM     37  C   UNL     1      -4.815  11.799  16.382  0.00  0.00    +0.184 C 
BRANCH  37  38
ATOM     38  C   UNL     1      -4.181  10.471  16.048  0.00  0.00    +0.016 A 
ATOM     39  C   UNL     1      -3.111  10.365  15.140  0.00  0.00    +0.137 A 
ATOM     40  C   UNL     1      -2.536   9.127  14.847  0.00  0.00    +0.047 A 
ATOM     41  C   UNL     1      -3.015   7.977  15.474  0.00  0.00    +0.004 A 
ATOM     42  C   UNL     1      -4.083   8.059  16.365  0.00  0.00    +0.001 A 
ATOM     43  C   UNL     1      -4.660   9.297  16.653  0.00  0.00    +0.009 A 
BRANCH  39  44
ATOM     44  O   UNL     1      -2.711  11.553  14.483  0.00  0.00    -0.426 OA
BRANCH  44  45
ATOM     45  C   UNL     1      -2.700  11.674  13.093  0.00  0.00    +0.309 C 
ATOM     46  O   UNL     1      -1.724  11.641  12.355  0.00  0.00    -0.251 OA
ATOM     47  C   UNL     1      -4.113  11.781  12.601  0.00  0.00    +0.136 C 
ENDBRANCH  44  45
ENDBRANCH  39  44
ENDBRANCH  37  38
ENDBRANCH  35  37
ENDBRANCH  31  33
ENDBRANCH  30  31
ENDBRANCH  26  30
ENDBRANCH  25  28
ENDBRANCH   1  25
TORSDOF 17
