REMARK VINA RESULT:    -5.426      5.070     10.117
REMARK INTER + INTRA:         -11.804
REMARK INTER:                 -10.057
REMARK INTRA:                  -1.747
REMARK UNBOUND:                -1.779
REMARK  Name = lig_assembled_14.pdb
REMARK  18 active torsions:
REMARK  status: ('A' for Active; 'I' for Inactive)
REMARK    1  A    between atoms: _2  and  _10
REMARK    2  A    between atoms: _3  and  _11
REMARK    3  A    between atoms: _5  and  _19
REMARK    4  A    between atoms: _7  and  _8
REMARK    5  A    between atoms: _7  and  _19
REMARK    6  A    between atoms: _10  and  _11
REMARK    7  A    between atoms: _15  and  _35
REMARK    8  A    between atoms: _17  and  _23
REMARK    9  A    between atoms: _18  and  _22
REMARK   10  A    between atoms: _22  and  _23
REMARK   11  A    between atoms: _25  and  _26
REMARK   12  A    between atoms: _27  and  _28
REMARK   13  A    between atoms: _29  and  _31
REMARK   14  A    between atoms: _31  and  _32
REMARK   15  A    between atoms: _31  and  _33
REMARK   16  A    between atoms: _33  and  _34
REMARK   17  A    between atoms: _33  and  _35
REMARK   18  A    between atoms: _36  and  _38
REMARK                            x       y       z     vdW  Elec       q    Type
REMARK                         _______ _______ _______ _____ _____    ______ ____
ROOT
ATOM      1  C   UNL     1      -4.352  11.143  21.179  0.00  0.00    +0.163 C 
ENDROOT
BRANCH   1   2
ATOM      2  O   UNL     1      -4.502   9.730  20.965  0.00  0.00    -0.388 OA
ATOM      3  H   UNL     1      -3.876   9.254  21.516  0.00  0.00    +0.210 HD
ENDBRANCH   1   2
BRANCH   1   4
ATOM      4  C   UNL     1      -3.039  11.452  21.918  0.00  0.00    +0.175 C 
BRANCH   4   5
ATOM      5  C   UNL     1      -3.268  11.725  23.412  0.00  0.00    +0.176 C 
ATOM      6  O   UNL     1      -3.700  10.484  24.033  0.00  0.00    -0.332 OA
ATOM      7  C   UNL     1      -3.866  10.527  25.489  0.00  0.00    +0.277 C 
ATOM      8  C   UNL     1      -4.826  11.675  25.890  0.00  0.00    +0.110 C 
ATOM      9  C   UNL     1      -4.425  13.010  25.227  0.00  0.00    +0.143 C 
ATOM     10  C   UNL     1      -4.277  12.849  23.714  0.00  0.00    +0.133 C 
BRANCH  10  11
ATOM     11  N   UNL     1      -3.811  14.105  23.106  0.00  0.00    -0.308 N 
ATOM     12  H   UNL     1      -2.846  14.369  23.249  0.00  0.00    +0.149 HD
ATOM     13  C   UNL     1      -4.579  14.918  22.376  0.00  0.00    +0.210 C 
ATOM     14  C   UNL     1      -6.051  14.501  22.197  0.00  0.00    +0.109 C 
ATOM     15  O   UNL     1      -4.157  15.957  21.866  0.00  0.00    -0.276 OA
ENDBRANCH  10  11
BRANCH   7  16
ATOM     16  C   UNL     1      -2.506  10.725  26.189  0.00  0.00    +0.414 C 
ATOM     17  O   UNL     1      -1.498  10.169  25.755  0.00  0.00    -0.240 OA
ATOM     18  O   UNL     1      -2.416  11.440  27.188  0.00  0.00    -0.240 OA
ENDBRANCH   7  16
BRANCH   9  19
ATOM     19  O   UNL     1      -5.418  14.000  25.500  0.00  0.00    -0.390 OA
ATOM     20  H   UNL     1      -5.301  14.744  24.905  0.00  0.00    +0.210 HD
ENDBRANCH   9  19
BRANCH   7  21
ATOM     21  O   UNL     1      -4.455   9.270  25.912  0.00  0.00    -0.343 OA
ATOM     22  C   UNL     1      -5.563   9.394  26.838  0.00  0.00    +0.198 C 
ENDBRANCH   7  21
ENDBRANCH   4   5
BRANCH   4  23
ATOM     23  O   UNL     1      -2.375  12.574  21.304  0.00  0.00    -0.387 OA
ATOM     24  H   UNL     1      -2.129  12.347  20.404  0.00  0.00    +0.210 HD
ENDBRANCH   4  23
ENDBRANCH   1   4
BRANCH   1  25
ATOM     25  C   UNL     1      -4.369  11.877  19.842  0.00  0.00    +0.141 C 
BRANCH  25  28
ATOM     26  C   UNL     1      -5.247  11.234  17.624  0.00  0.00    +0.401 C 
ATOM     27  O   UNL     1      -5.859  12.291  17.455  0.00  0.00    -0.226 OA
ATOM     28  N   UNL     1      -4.529  10.954  18.712  0.00  0.00    -0.279 N 
ATOM     29  H   UNL     1      -4.071  10.055  18.762  0.00  0.00    +0.152 HD
BRANCH  26  30
ATOM     30  O   UNL     1      -5.299  10.232  16.605  0.00  0.00    -0.444 OA
BRANCH  30  31
ATOM     31  C   UNL     1      -4.002   9.652  16.439  0.00  0.00    +0.292 C 
BRANCH  31  33
ATOM     32  N   UNL     1      -2.280   9.411  14.678  0.00  0.00    -0.131 NA
ATOM     33  C   UNL     1      -3.511   9.871  15.066  0.00  0.00    +0.120 A 
ATOM     34  C   UNL     1      -4.105  10.519  14.006  0.00  0.00    +0.137 A 
ATOM     35  N   UNL     1      -3.180  10.430  13.011  0.00  0.00    -0.250 N 
ATOM     36  N   UNL     1      -2.089   9.757  13.414  0.00  0.00    -0.065 NA
BRANCH  35  37
ATOM     37  C   UNL     1      -3.236  11.001  11.682  0.00  0.00    +0.160 C 
BRANCH  37  38
ATOM     38  C   UNL     1      -3.021  12.518  11.703  0.00  0.00    +0.107 C 
BRANCH  38  39
ATOM     39  N   UNL     1      -1.616  12.897  11.936  0.00  0.00    -0.301 NA
ATOM     40  C   UNL     1      -0.884  13.181  10.698  0.00  0.00    +0.084 C 
ATOM     41  C   UNL     1       0.337  13.924  11.202  0.00  0.00    +0.017 C 
ATOM     42  C   UNL     1      -0.202  14.781  12.333  0.00  0.00    +0.017 C 
ATOM     43  C   UNL     1      -1.509  14.115  12.753  0.00  0.00    +0.084 C 
ENDBRANCH  38  39
ENDBRANCH  37  38
ENDBRANCH  35  37
ENDBRANCH  31  33
ENDBRANCH  30  31
ENDBRANCH  26  30
ENDBRANCH  25  28
ENDBRANCH   1  25
TORSDOF 16
