REMARK VINA RESULT:    -4.934      2.581      4.874
REMARK INTER + INTRA:         -13.612
REMARK INTER:                  -9.950
REMARK INTRA:                  -3.663
REMARK UNBOUND:                -3.487
REMARK  Name = lig_assembled_90.pdb
REMARK  22 active torsions:
REMARK  status: ('A' for Active; 'I' for Inactive)
REMARK    1  A    between atoms: _2  and  _13
REMARK    2  A    between atoms: _3  and  _15
REMARK    3  A    between atoms: _4  and  _17
REMARK    4  A    between atoms: _8  and  _28
REMARK    5  A    between atoms: _10  and  _11
REMARK    6  A    between atoms: _10  and  _28
REMARK    7  A    between atoms: _13  and  _14
REMARK    8  A    between atoms: _15  and  _16
REMARK    9  A    between atoms: _16  and  _17
REMARK   10  A    between atoms: _16  and  _22
REMARK   11  A    between atoms: _24  and  _44
REMARK   12  A    between atoms: _26  and  _32
REMARK   13  A    between atoms: _27  and  _31
REMARK   14  A    between atoms: _31  and  _32
REMARK   15  A    between atoms: _34  and  _35
REMARK   16  A    between atoms: _36  and  _37
REMARK   17  A    between atoms: _38  and  _40
REMARK   18  A    between atoms: _40  and  _41
REMARK   19  A    between atoms: _40  and  _42
REMARK   20  A    between atoms: _42  and  _43
REMARK   21  A    between atoms: _42  and  _44
REMARK   22  A    between atoms: _45  and  _47
REMARK                            x       y       z     vdW  Elec       q    Type
REMARK                         _______ _______ _______ _____ _____    ______ ____
ROOT
ATOM      1  C   UNL     1      -1.926   9.998  27.187  0.00  0.00    +0.401 C 
ATOM      2  O   UNL     1      -0.967   9.921  26.415  0.00  0.00    -0.226 OA
ATOM      3  N   UNL     1      -2.827  10.980  27.160  0.00  0.00    -0.279 N 
ATOM      4  H   UNL     1      -3.584  10.951  27.829  0.00  0.00    +0.152 HD
ENDROOT
BRANCH   3   5
ATOM      5  C   UNL     1      -2.780  12.103  26.215  0.00  0.00    +0.141 C 
BRANCH   5   6
ATOM      6  C   UNL     1      -4.160  12.430  25.653  0.00  0.00    +0.163 C 
BRANCH   6   7
ATOM      7  O   UNL     1      -4.941  13.123  26.640  0.00  0.00    -0.388 OA
ATOM      8  H   UNL     1      -5.874  13.033  26.431  0.00  0.00    +0.210 HD
ENDBRANCH   6   7
BRANCH   6   9
ATOM      9  C   UNL     1      -4.008  13.277  24.378  0.00  0.00    +0.175 C 
BRANCH   9  10
ATOM     10  C   UNL     1      -4.976  12.835  23.271  0.00  0.00    +0.176 C 
ATOM     11  O   UNL     1      -4.256  11.942  22.377  0.00  0.00    -0.332 OA
ATOM     12  C   UNL     1      -5.055  11.332  21.311  0.00  0.00    +0.277 C 
ATOM     13  C   UNL     1      -5.781  12.424  20.486  0.00  0.00    +0.110 C 
ATOM     14  C   UNL     1      -6.535  13.416  21.396  0.00  0.00    +0.143 C 
ATOM     15  C   UNL     1      -5.610  13.988  22.471  0.00  0.00    +0.133 C 
BRANCH  15  16
ATOM     16  N   UNL     1      -6.361  14.864  23.383  0.00  0.00    -0.308 N 
ATOM     17  H   UNL     1      -7.097  14.449  23.937  0.00  0.00    +0.149 HD
ATOM     18  C   UNL     1      -6.133  16.173  23.528  0.00  0.00    +0.210 C 
ATOM     19  C   UNL     1      -5.022  16.780  22.651  0.00  0.00    +0.109 C 
ATOM     20  O   UNL     1      -6.767  16.880  24.311  0.00  0.00    -0.276 OA
ENDBRANCH  15  16
BRANCH  12  21
ATOM     21  C   UNL     1      -6.094  10.353  21.897  0.00  0.00    +0.414 C 
ATOM     22  O   UNL     1      -7.229  10.298  21.426  0.00  0.00    -0.240 OA
ATOM     23  O   UNL     1      -5.796   9.619  22.840  0.00  0.00    -0.240 OA
ENDBRANCH  12  21
BRANCH  14  24
ATOM     24  O   UNL     1      -7.061  14.486  20.610  0.00  0.00    -0.390 OA
ATOM     25  H   UNL     1      -7.252  14.169  19.724  0.00  0.00    +0.210 HD
ENDBRANCH  14  24
BRANCH  12  26
ATOM     26  O   UNL     1      -4.154  10.616  20.427  0.00  0.00    -0.343 OA
ATOM     27  C   UNL     1      -4.592  10.524  19.048  0.00  0.00    +0.198 C 
ENDBRANCH  12  26
ENDBRANCH   9  10
BRANCH   9  28
ATOM     28  O   UNL     1      -2.648  13.218  23.901  0.00  0.00    -0.387 OA
ATOM     29  H   UNL     1      -2.117  12.702  24.513  0.00  0.00    +0.210 HD
ENDBRANCH   9  28
ENDBRANCH   6   9
ENDBRANCH   5   6
ENDBRANCH   3   5
BRANCH   1  30
ATOM     30  O   UNL     1      -2.105   8.980  28.175  0.00  0.00    -0.444 OA
BRANCH  30  31
ATOM     31  C   UNL     1      -3.502   8.756  28.382  0.00  0.00    +0.292 C 
BRANCH  31  33
ATOM     32  N   UNL     1      -5.035   8.357  30.290  0.00  0.00    -0.131 NA
ATOM     33  C   UNL     1      -3.821   8.791  29.822  0.00  0.00    +0.120 A 
ATOM     34  C   UNL     1      -3.058   9.218  30.885  0.00  0.00    +0.137 A 
ATOM     35  N   UNL     1      -3.852   9.000  31.971  0.00  0.00    -0.242 N 
ATOM     36  N   UNL     1      -5.047   8.501  31.610  0.00  0.00    -0.065 NA
BRANCH  35  37
ATOM     37  C   UNL     1      -3.592   9.336  33.350  0.00  0.00    +0.240 C 
BRANCH  37  38
ATOM     38  C   UNL     1      -3.929  10.781  33.638  0.00  0.00    +0.235 C 
ATOM     39  O   UNL     1      -5.034  11.136  34.046  0.00  0.00    -0.274 OA
ATOM     40  N   UNL     1      -2.888  11.674  33.466  0.00  0.00    -0.311 N 
ATOM     41  H   UNL     1      -2.102  11.399  32.882  0.00  0.00    +0.149 HD
BRANCH  40  42
ATOM     42  C   UNL     1      -3.108  13.105  33.629  0.00  0.00    +0.137 C 
BRANCH  42  43
ATOM     43  C   UNL     1      -2.484  13.899  32.472  0.00  0.00    +0.151 C 
BRANCH  43  44
ATOM     44  O   UNL     1      -1.816  12.982  31.595  0.00  0.00    -0.388 OA
ATOM     45  H   UNL     1      -2.485  12.528  31.043  0.00  0.00    +0.210 HD
ENDBRANCH  43  44
BRANCH  43  46
ATOM     46  C   UNL     1      -3.534  14.725  31.720  0.00  0.00    +0.162 C 
BRANCH  46  47
ATOM     47  N   UNL     1      -4.847  14.097  31.727  0.00  0.00    -0.269 N 
ATOM     48  C   UNL     1      -5.802  14.364  32.684  0.00  0.00    +0.113 A 
ATOM     49  C   UNL     1      -6.871  13.556  32.381  0.00  0.00    +0.137 A 
ATOM     50  N   UNL     1      -6.604  12.797  31.270  0.00  0.00    -0.172 NA
ATOM     51  C   UNL     1      -5.386  13.151  30.890  0.00  0.00    +0.450 A 
ATOM     52  N   UNL     1      -4.741  12.575  29.735  0.00  0.00    +0.120 N 
ATOM     53  O   UNL     1      -3.647  13.045  29.393  0.00  0.00    +0.045 OA
ATOM     54  O   UNL     1      -5.322  11.641  29.168  0.00  0.00    -0.573 OA
ENDBRANCH  46  47
ENDBRANCH  43  46
ENDBRANCH  42  43
ENDBRANCH  40  42
ENDBRANCH  37  38
ENDBRANCH  35  37
ENDBRANCH  31  33
ENDBRANCH  30  31
ENDBRANCH   1  30
TORSDOF 20
