REMARK VINA RESULT:    -4.282      3.675      6.729
REMARK INTER + INTRA:         -10.784
REMARK INTER:                  -8.023
REMARK INTRA:                  -2.762
REMARK UNBOUND:                -3.373
REMARK  Name = lig_assembled_27.pdb
REMARK  16 active torsions:
REMARK  status: ('A' for Active; 'I' for Inactive)
REMARK    1  A    between atoms: _2  and  _9
REMARK    2  A    between atoms: _4  and  _18
REMARK    3  A    between atoms: _6  and  _7
REMARK    4  A    between atoms: _6  and  _18
REMARK    5  A    between atoms: _14  and  _34
REMARK    6  A    between atoms: _16  and  _22
REMARK    7  A    between atoms: _17  and  _21
REMARK    8  A    between atoms: _21  and  _22
REMARK    9  A    between atoms: _24  and  _25
REMARK   10  A    between atoms: _26  and  _27
REMARK   11  A    between atoms: _28  and  _30
REMARK   12  A    between atoms: _30  and  _31
REMARK   13  A    between atoms: _30  and  _32
REMARK   14  A    between atoms: _32  and  _33
REMARK   15  A    between atoms: _32  and  _34
REMARK   16  A    between atoms: _35  and  _37
REMARK                            x       y       z     vdW  Elec       q    Type
REMARK                         _______ _______ _______ _____ _____    ______ ____
ROOT
ATOM      1  C   UNL     1      -3.439  12.658  31.687  0.00  0.00    +0.163 C 
ENDROOT
BRANCH   1   2
ATOM      2  O   UNL     1      -2.767  12.394  30.444  0.00  0.00    -0.388 OA
ATOM      3  H   UNL     1      -2.376  13.206  30.113  0.00  0.00    +0.210 HD
ENDBRANCH   1   2
BRANCH   1   4
ATOM      4  C   UNL     1      -4.503  11.595  31.941  0.00  0.00    +0.141 C 
BRANCH   4   7
ATOM      5  C   UNL     1      -4.076   9.292  31.152  0.00  0.00    +0.401 C 
ATOM      6  O   UNL     1      -3.670   8.893  32.246  0.00  0.00    -0.226 OA
ATOM      7  N   UNL     1      -4.480  10.542  30.918  0.00  0.00    -0.279 N 
ATOM      8  H   UNL     1      -4.787  10.777  29.985  0.00  0.00    +0.152 HD
BRANCH   5   9
ATOM      9  O   UNL     1      -4.122   8.380  30.053  0.00  0.00    -0.444 OA
BRANCH   9  10
ATOM     10  C   UNL     1      -2.791   8.083  29.623  0.00  0.00    +0.292 C 
BRANCH  10  12
ATOM     11  N   UNL     1      -1.227   8.778  27.835  0.00  0.00    -0.131 NA
ATOM     12  C   UNL     1      -2.480   8.806  28.376  0.00  0.00    +0.121 A 
ATOM     13  C   UNL     1      -3.296   9.573  27.578  0.00  0.00    +0.143 A 
ATOM     14  N   UNL     1      -2.492   9.993  26.543  0.00  0.00    -0.220 N 
ATOM     15  N   UNL     1      -1.241   9.502  26.724  0.00  0.00    -0.060 NA
BRANCH  14  16
ATOM     16  C   UNL     1      -2.828  10.804  25.429  0.00  0.00    +0.068 A 
ATOM     17  C   UNL     1      -2.465  12.161  25.422  0.00  0.00    +0.028 A 
ATOM     18  C   UNL     1      -2.793  12.971  24.332  0.00  0.00    +0.003 A 
ATOM     19  C   UNL     1      -3.483  12.435  23.246  0.00  0.00    +0.020 A 
ATOM     20  C   UNL     1      -3.841  11.090  23.251  0.00  0.00    +0.043 A 
ATOM     21 CL   UNL     1      -4.692  10.428  21.908  0.00  0.00    -0.083 Cl
ATOM     22  C   UNL     1      -3.519  10.269  24.333  0.00  0.00    +0.047 A 
ENDBRANCH  14  16
ENDBRANCH  10  12
ENDBRANCH   9  10
ENDBRANCH   5   9
ENDBRANCH   4   7
ENDBRANCH   1   4
BRANCH   1  23
ATOM     23  C   UNL     1      -4.095  14.049  31.674  0.00  0.00    +0.175 C 
BRANCH  23  24
ATOM     24  C   UNL     1      -5.267  14.126  30.684  0.00  0.00    +0.176 C 
ATOM     25  O   UNL     1      -4.866  13.448  29.462  0.00  0.00    -0.332 OA
ATOM     26  C   UNL     1      -5.903  13.328  28.434  0.00  0.00    +0.277 C 
ATOM     27  C   UNL     1      -6.489  14.720  28.092  0.00  0.00    +0.110 C 
ATOM     28  C   UNL     1      -6.901  15.493  29.362  0.00  0.00    +0.143 C 
ATOM     29  C   UNL     1      -5.748  15.554  30.365  0.00  0.00    +0.133 C 
BRANCH  29  30
ATOM     30  N   UNL     1      -6.179  16.216  31.606  0.00  0.00    -0.308 N 
ATOM     31  H   UNL     1      -6.865  15.743  32.179  0.00  0.00    +0.149 HD
ATOM     32  C   UNL     1      -5.725  17.400  32.025  0.00  0.00    +0.210 C 
ATOM     33  C   UNL     1      -4.701  18.106  31.117  0.00  0.00    +0.109 C 
ATOM     34  O   UNL     1      -6.093  17.924  33.077  0.00  0.00    -0.276 OA
ENDBRANCH  29  30
BRANCH  26  35
ATOM     35  C   UNL     1      -7.036  12.394  28.906  0.00  0.00    +0.414 C 
ATOM     36  O   UNL     1      -6.774  11.282  29.361  0.00  0.00    -0.240 OA
ATOM     37  O   UNL     1      -8.213  12.752  28.831  0.00  0.00    -0.240 OA
ENDBRANCH  26  35
BRANCH  28  38
ATOM     38  O   UNL     1      -7.292  16.821  29.013  0.00  0.00    -0.390 OA
ATOM     39  H   UNL     1      -6.570  17.427  29.199  0.00  0.00    +0.210 HD
ENDBRANCH  28  38
BRANCH  26  40
ATOM     40  O   UNL     1      -5.288  12.784  27.237  0.00  0.00    -0.343 OA
ATOM     41  C   UNL     1      -6.064  12.947  26.022  0.00  0.00    +0.198 C 
ENDBRANCH  26  40
ENDBRANCH  23  24
BRANCH  23  42
ATOM     42  O   UNL     1      -3.114  15.058  31.361  0.00  0.00    -0.387 OA
ATOM     43  H   UNL     1      -3.141  15.749  32.026  0.00  0.00    +0.210 HD
ENDBRANCH  23  42
ENDBRANCH   1  23
TORSDOF 14
