REMARK VINA RESULT:    -3.423      3.037      6.885
REMARK INTER + INTRA:         -11.235
REMARK INTER:                  -7.355
REMARK INTRA:                  -3.880
REMARK UNBOUND:                -4.711
REMARK  Name = lig_assembled_62.pdb
REMARK  20 active torsions:
REMARK  status: ('A' for Active; 'I' for Inactive)
REMARK    1  A    between atoms: _2  and  _10
REMARK    2  A    between atoms: _5  and  _19
REMARK    3  A    between atoms: _6  and  _10
REMARK    4  A    between atoms: _7  and  _8
REMARK    5  A    between atoms: _7  and  _19
REMARK    6  A    between atoms: _10  and  _11
REMARK    7  A    between atoms: _11  and  _14
REMARK    8  A    between atoms: _12  and  _14
REMARK    9  A    between atoms: _15  and  _35
REMARK   10  A    between atoms: _17  and  _23
REMARK   11  A    between atoms: _18  and  _22
REMARK   12  A    between atoms: _22  and  _23
REMARK   13  A    between atoms: _25  and  _26
REMARK   14  A    between atoms: _27  and  _28
REMARK   15  A    between atoms: _29  and  _31
REMARK   16  A    between atoms: _31  and  _32
REMARK   17  A    between atoms: _31  and  _33
REMARK   18  A    between atoms: _33  and  _34
REMARK   19  A    between atoms: _33  and  _35
REMARK   20  A    between atoms: _36  and  _38
REMARK                            x       y       z     vdW  Elec       q    Type
REMARK                         _______ _______ _______ _____ _____    ______ ____
ROOT
ATOM      1  C   UNL     1      -6.309   8.145  24.041  0.00  0.00    +0.163 C 
ENDROOT
BRANCH   1   2
ATOM      2  O   UNL     1      -5.615   6.960  24.465  0.00  0.00    -0.388 OA
ATOM      3  H   UNL     1      -4.687   7.030  24.227  0.00  0.00    +0.210 HD
ENDBRANCH   1   2
BRANCH   1   4
ATOM      4  C   UNL     1      -5.367   9.361  24.033  0.00  0.00    +0.175 C 
BRANCH   4   5
ATOM      5  C   UNL     1      -4.569   9.482  25.340  0.00  0.00    +0.176 C 
ATOM      6  O   UNL     1      -3.554   8.441  25.342  0.00  0.00    -0.332 OA
ATOM      7  C   UNL     1      -2.621   8.467  26.472  0.00  0.00    +0.277 C 
ATOM      8  C   UNL     1      -3.394   8.446  27.813  0.00  0.00    +0.110 C 
ATOM      9  C   UNL     1      -4.506   9.515  27.846  0.00  0.00    +0.143 C 
ATOM     10  C   UNL     1      -5.417   9.398  26.623  0.00  0.00    +0.133 C 
BRANCH  10  11
ATOM     11  N   UNL     1      -6.418  10.476  26.621  0.00  0.00    -0.308 N 
ATOM     12  H   UNL     1      -6.097  11.418  26.447  0.00  0.00    +0.149 HD
ATOM     13  C   UNL     1      -7.724  10.291  26.835  0.00  0.00    +0.210 C 
ATOM     14  C   UNL     1      -8.177   8.847  27.123  0.00  0.00    +0.109 C 
ATOM     15  O   UNL     1      -8.542  11.211  26.813  0.00  0.00    -0.276 OA
ENDBRANCH  10  11
BRANCH   7  16
ATOM     16  C   UNL     1      -1.725   9.722  26.413  0.00  0.00    +0.414 C 
ATOM     17  O   UNL     1      -0.805   9.866  27.217  0.00  0.00    -0.240 OA
ATOM     18  O   UNL     1      -1.923  10.591  25.563  0.00  0.00    -0.240 OA
ENDBRANCH   7  16
BRANCH   7  19
ATOM     19  O   UNL     1      -1.796   7.275  26.401  0.00  0.00    -0.343 OA
ATOM     20  C   UNL     1      -2.514   6.051  26.106  0.00  0.00    +0.198 C 
ENDBRANCH   7  19
BRANCH   9  21
ATOM     21  O   UNL     1      -5.288   9.361  29.031  0.00  0.00    -0.390 OA
ATOM     22  H   UNL     1      -5.708  10.196  29.250  0.00  0.00    +0.210 HD
ENDBRANCH   9  21
ENDBRANCH   4   5
BRANCH   4  23
ATOM     23  O   UNL     1      -6.118  10.569  23.796  0.00  0.00    -0.387 OA
ATOM     24  H   UNL     1      -6.018  11.161  24.546  0.00  0.00    +0.210 HD
ENDBRANCH   4  23
ENDBRANCH   1   4
BRANCH   1  25
ATOM     25  C   UNL     1      -6.887   7.940  22.644  0.00  0.00    +0.141 C 
BRANCH  25  28
ATOM     26  C   UNL     1      -6.247   8.823  20.427  0.00  0.00    +0.401 C 
ATOM     27  O   UNL     1      -7.403   9.101  20.100  0.00  0.00    -0.226 OA
ATOM     28  N   UNL     1      -5.915   8.272  21.595  0.00  0.00    -0.279 N 
ATOM     29  H   UNL     1      -4.940   8.073  21.769  0.00  0.00    +0.152 HD
BRANCH  26  30
ATOM     30  O   UNL     1      -5.182   9.096  19.513  0.00  0.00    -0.444 OA
BRANCH  30  31
ATOM     31  C   UNL     1      -5.205  10.480  19.152  0.00  0.00    +0.292 C 
BRANCH  31  33
ATOM     32  N   UNL     1      -3.401  11.085  20.736  0.00  0.00    -0.131 NA
ATOM     33  C   UNL     1      -4.659  11.305  20.246  0.00  0.00    +0.120 A 
ATOM     34  C   UNL     1      -5.230  12.356  20.930  0.00  0.00    +0.138 A 
ATOM     35  N   UNL     1      -4.276  12.723  21.834  0.00  0.00    -0.237 N 
ATOM     36  N   UNL     1      -3.174  11.959  21.707  0.00  0.00    -0.065 NA
BRANCH  35  37
ATOM     37  C   UNL     1      -4.297  13.789  22.821  0.00  0.00    +0.219 C 
BRANCH  37  38
ATOM     38  C   UNL     1      -4.005  13.233  24.205  0.00  0.00    +0.237 C 
ATOM     39  O   UNL     1      -4.865  12.839  24.989  0.00  0.00    -0.274 OA
ATOM     40  N   UNL     1      -2.682  13.122  24.541  0.00  0.00    -0.328 N 
ATOM     41  H   UNL     1      -1.921  13.341  23.911  0.00  0.00    +0.145 HD
ATOM     42  H   UNL     1      -2.458  12.746  25.455  0.00  0.00    +0.145 HD
ENDBRANCH  37  38
BRANCH  37  43
ATOM     43  C   UNL     1      -5.637  14.520  22.798  0.00  0.00    +0.195 C 
BRANCH  43  44
ATOM     44  O   UNL     1      -5.477  15.825  23.372  0.00  0.00    -0.380 OA
ATOM     45  C   UNL     1      -6.604  16.198  24.155  0.00  0.00    +0.194 C 
ENDBRANCH  43  44
ENDBRANCH  37  43
ENDBRANCH  35  37
ENDBRANCH  31  33
ENDBRANCH  30  31
ENDBRANCH  26  30
ENDBRANCH  25  28
ENDBRANCH   1  25
TORSDOF 17
