REMARK VINA RESULT:    -4.911      4.012      9.311
REMARK INTER + INTRA:         -12.950
REMARK INTER:                  -9.887
REMARK INTRA:                  -3.064
REMARK UNBOUND:                -3.302
REMARK  Name = lig_assembled_84.pdb
REMARK  21 active torsions:
REMARK  status: ('A' for Active; 'I' for Inactive)
REMARK    1  A    between atoms: _2  and  _11
REMARK    2  A    between atoms: _3  and  _14
REMARK    3  A    between atoms: _4  and  _17
REMARK    4  A    between atoms: _6  and  _28
REMARK    5  A    between atoms: _8  and  _9
REMARK    6  A    between atoms: _8  and  _28
REMARK    7  A    between atoms: _11  and  _12
REMARK    8  A    between atoms: _12  and  _13
REMARK    9  A    between atoms: _12  and  _14
REMARK   10  A    between atoms: _24  and  _44
REMARK   11  A    between atoms: _26  and  _32
REMARK   12  A    between atoms: _27  and  _31
REMARK   13  A    between atoms: _31  and  _32
REMARK   14  A    between atoms: _34  and  _35
REMARK   15  A    between atoms: _36  and  _37
REMARK   16  A    between atoms: _38  and  _40
REMARK   17  A    between atoms: _40  and  _41
REMARK   18  A    between atoms: _40  and  _42
REMARK   19  A    between atoms: _42  and  _43
REMARK   20  A    between atoms: _42  and  _44
REMARK   21  A    between atoms: _45  and  _47
REMARK                            x       y       z     vdW  Elec       q    Type
REMARK                         _______ _______ _______ _____ _____    ______ ____
ROOT
ATOM      1  C   UNL     1      -2.936  13.709  32.032  0.00  0.00    +0.401 C 
ATOM      2  O   UNL     1      -2.005  12.977  32.376  0.00  0.00    -0.226 OA
ATOM      3  N   UNL     1      -4.078  13.265  31.506  0.00  0.00    -0.279 N 
ATOM      4  H   UNL     1      -4.787  13.942  31.264  0.00  0.00    +0.152 HD
ENDROOT
BRANCH   1   5
ATOM      5  O   UNL     1      -2.807  15.122  32.202  0.00  0.00    -0.444 OA
BRANCH   5   6
ATOM      6  C   UNL     1      -4.086  15.685  32.509  0.00  0.00    +0.292 C 
BRANCH   6   8
ATOM      7  N   UNL     1      -4.296  18.142  32.255  0.00  0.00    -0.131 NA
ATOM      8  C   UNL     1      -4.336  16.891  31.697  0.00  0.00    +0.120 A 
ATOM      9  C   UNL     1      -4.664  17.003  30.364  0.00  0.00    +0.137 A 
ATOM     10  N   UNL     1      -4.876  18.338  30.190  0.00  0.00    -0.251 N 
ATOM     11  N   UNL     1      -4.631  19.023  31.321  0.00  0.00    -0.065 NA
BRANCH  10  12
ATOM     12  C   UNL     1      -5.436  19.003  29.030  0.00  0.00    +0.149 C 
BRANCH  12  13
ATOM     13  C   UNL     1      -6.666  18.301  28.429  0.00  0.00    +0.021 C 
ATOM     14  C   UNL     1      -7.927  18.577  29.261  0.00  0.00    +0.010 C 
BRANCH  13  15
ATOM     15  C   UNL     1      -6.919  18.760  26.973  0.00  0.00    +0.089 C 
BRANCH  15  16
ATOM     16  N   UNL     1      -7.177  17.687  26.003  0.00  0.00    -0.299 NA
ATOM     17  C   UNL     1      -6.700  16.386  26.545  0.00  0.00    +0.103 C 
ATOM     18  C   UNL     1      -7.029  15.216  25.595  0.00  0.00    +0.120 C 
ATOM     19  N   UNL     1      -6.419  15.459  24.283  0.00  0.00    -0.327 N 
ATOM     20  C   UNL     1      -6.779  16.750  23.678  0.00  0.00    +0.120 C 
ATOM     21  C   UNL     1      -6.523  17.905  24.688  0.00  0.00    +0.103 C 
BRANCH  19  22
ATOM     22  C   UNL     1      -5.622  14.532  23.652  0.00  0.00    +0.030 A 
ATOM     23  C   UNL     1      -4.762  13.691  24.380  0.00  0.00    +0.024 A 
ATOM     24  C   UNL     1      -3.926  12.759  23.753  0.00  0.00    +0.022 A 
ATOM     25  C   UNL     1      -3.940  12.646  22.373  0.00  0.00    +0.041 A 
ATOM     26 CL   UNL     1      -2.912  11.507  21.595  0.00  0.00    -0.084 Cl
ATOM     27  C   UNL     1      -4.779  13.457  21.617  0.00  0.00    +0.022 A 
ATOM     28  C   UNL     1      -5.607  14.390  22.256  0.00  0.00    +0.024 A 
ENDBRANCH  19  22
ENDBRANCH  15  16
ENDBRANCH  13  15
ENDBRANCH  12  13
ENDBRANCH  10  12
ENDBRANCH   6   8
ENDBRANCH   5   6
ENDBRANCH   1   5
BRANCH   3  29
ATOM     29  C   UNL     1      -4.363  11.846  31.258  0.00  0.00    +0.141 C 
BRANCH  29  30
ATOM     30  C   UNL     1      -4.865  11.606  29.838  0.00  0.00    +0.163 C 
BRANCH  30  31
ATOM     31  O   UNL     1      -3.976  12.221  28.891  0.00  0.00    -0.388 OA
ATOM     32  H   UNL     1      -3.145  12.433  29.323  0.00  0.00    +0.210 HD
ENDBRANCH  30  31
BRANCH  30  33
ATOM     33  C   UNL     1      -4.981  10.094  29.582  0.00  0.00    +0.175 C 
BRANCH  33  34
ATOM     34  C   UNL     1      -3.803   9.556  28.756  0.00  0.00    +0.176 C 
ATOM     35  O   UNL     1      -4.177   9.615  27.352  0.00  0.00    -0.332 OA
ATOM     36  C   UNL     1      -3.128   9.237  26.400  0.00  0.00    +0.277 C 
ATOM     37  C   UNL     1      -2.575   7.830  26.735  0.00  0.00    +0.110 C 
ATOM     38  C   UNL     1      -2.194   7.708  28.226  0.00  0.00    +0.143 C 
ATOM     39  C   UNL     1      -3.356   8.129  29.126  0.00  0.00    +0.133 C 
BRANCH  39  40
ATOM     40  N   UNL     1      -2.952   8.092  30.540  0.00  0.00    -0.308 N 
ATOM     41  H   UNL     1      -2.207   8.709  30.834  0.00  0.00    +0.149 HD
ATOM     42  C   UNL     1      -3.504   7.297  31.460  0.00  0.00    +0.210 C 
ATOM     43  C   UNL     1      -4.619   6.351  30.975  0.00  0.00    +0.109 C 
ATOM     44  O   UNL     1      -3.155   7.298  32.641  0.00  0.00    -0.276 OA
ENDBRANCH  39  40
BRANCH  36  45
ATOM     45  C   UNL     1      -1.976  10.262  26.420  0.00  0.00    +0.414 C 
ATOM     46  O   UNL     1      -2.218  11.468  26.400  0.00  0.00    -0.240 OA
ATOM     47  O   UNL     1      -0.804   9.884  26.457  0.00  0.00    -0.240 OA
ENDBRANCH  36  45
BRANCH  36  48
ATOM     48  O   UNL     1      -3.719   9.192  25.076  0.00  0.00    -0.343 OA
ATOM     49  C   UNL     1      -5.166   9.278  25.048  0.00  0.00    +0.198 C 
ENDBRANCH  36  48
BRANCH  38  50
ATOM     50  O   UNL     1      -1.834   6.358  28.522  0.00  0.00    -0.390 OA
ATOM     51  H   UNL     1      -2.072   6.155  29.430  0.00  0.00    +0.210 HD
ENDBRANCH  38  50
ENDBRANCH  33  34
BRANCH  33  52
ATOM     52  O   UNL     1      -6.228   9.796  28.922  0.00  0.00    -0.387 OA
ATOM     53  H   UNL     1      -6.940   9.801  29.565  0.00  0.00    +0.210 HD
ENDBRANCH  33  52
ENDBRANCH  30  33
ENDBRANCH  29  30
ENDBRANCH   3  29
TORSDOF 18
