REMARK VINA RESULT:    -4.733      1.169      1.642
REMARK INTER + INTRA:         -10.698
REMARK INTER:                  -7.939
REMARK INTRA:                  -2.758
REMARK UNBOUND:                -2.505
REMARK  Name = lig_assembled_3.pdb
REMARK  16 active torsions:
REMARK  status: ('A' for Active; 'I' for Inactive)
REMARK    1  A    between atoms: _2  and  _9
REMARK    2  A    between atoms: _4  and  _18
REMARK    3  A    between atoms: _6  and  _7
REMARK    4  A    between atoms: _6  and  _18
REMARK    5  A    between atoms: _14  and  _34
REMARK    6  A    between atoms: _16  and  _22
REMARK    7  A    between atoms: _17  and  _21
REMARK    8  A    between atoms: _21  and  _22
REMARK    9  A    between atoms: _24  and  _25
REMARK   10  A    between atoms: _26  and  _27
REMARK   11  A    between atoms: _28  and  _30
REMARK   12  A    between atoms: _30  and  _31
REMARK   13  A    between atoms: _30  and  _32
REMARK   14  A    between atoms: _32  and  _33
REMARK   15  A    between atoms: _32  and  _34
REMARK   16  A    between atoms: _35  and  _37
REMARK                            x       y       z     vdW  Elec       q    Type
REMARK                         _______ _______ _______ _____ _____    ______ ____
ROOT
ATOM      1  C   UNL     1      -3.054  10.961  26.243  0.00  0.00    +0.163 C 
ENDROOT
BRANCH   1   2
ATOM      2  O   UNL     1      -2.058  11.476  25.345  0.00  0.00    -0.388 OA
ATOM      3  H   UNL     1      -2.479  12.025  24.679  0.00  0.00    +0.210 HD
ENDBRANCH   1   2
BRANCH   1   4
ATOM      4  C   UNL     1      -2.386  10.207  27.388  0.00  0.00    +0.141 C 
BRANCH   4   7
ATOM      5  C   UNL     1      -3.565   9.898  29.537  0.00  0.00    +0.401 C 
ATOM      6  O   UNL     1      -3.892   8.734  29.298  0.00  0.00    -0.226 OA
ATOM      7  N   UNL     1      -2.865  10.663  28.698  0.00  0.00    -0.279 N 
ATOM      8  H   UNL     1      -2.653  11.610  28.980  0.00  0.00    +0.152 HD
BRANCH   5   9
ATOM      9  O   UNL     1      -3.951  10.487  30.781  0.00  0.00    -0.444 OA
BRANCH   9  10
ATOM     10  C   UNL     1      -2.783  10.859  31.517  0.00  0.00    +0.292 C 
BRANCH  10  12
ATOM     11  N   UNL     1      -1.764  12.904  32.467  0.00  0.00    -0.131 NA
ATOM     12  C   UNL     1      -2.778  12.313  31.771  0.00  0.00    +0.121 A 
ATOM     13  C   UNL     1      -3.686  13.275  31.393  0.00  0.00    +0.143 A 
ATOM     14  N   UNL     1      -3.166  14.460  31.864  0.00  0.00    -0.220 N 
ATOM     15  N   UNL     1      -2.009  14.206  32.525  0.00  0.00    -0.060 NA
BRANCH  14  16
ATOM     16  C   UNL     1      -3.675  15.776  31.712  0.00  0.00    +0.067 A 
ATOM     17  C   UNL     1      -4.422  16.133  30.581  0.00  0.00    +0.028 A 
ATOM     18  C   UNL     1      -4.888  17.442  30.435  0.00  0.00    +0.002 A 
ATOM     19  C   UNL     1      -4.616  18.396  31.413  0.00  0.00    +0.000 A 
ATOM     20  C   UNL     1      -3.882  18.046  32.545  0.00  0.00    +0.002 A 
ATOM     21  C   UNL     1      -3.412  16.739  32.697  0.00  0.00    +0.028 A 
ENDBRANCH  14  16
ENDBRANCH  10  12
ENDBRANCH   9  10
ENDBRANCH   5   9
ENDBRANCH   4   7
ENDBRANCH   1   4
BRANCH   1  22
ATOM     22  C   UNL     1      -4.026  10.023  25.508  0.00  0.00    +0.175 C 
BRANCH  22  23
ATOM     23  C   UNL     1      -5.069  10.798  24.688  0.00  0.00    +0.176 C 
ATOM     24  O   UNL     1      -4.405  11.330  23.509  0.00  0.00    -0.332 OA
ATOM     25  C   UNL     1      -5.273  12.016  22.548  0.00  0.00    +0.277 C 
ATOM     26  C   UNL     1      -6.076  13.139  23.249  0.00  0.00    +0.110 C 
ATOM     27  C   UNL     1      -6.774  12.628  24.526  0.00  0.00    +0.143 C 
ATOM     28  C   UNL     1      -5.779  11.929  25.454  0.00  0.00    +0.133 C 
BRANCH  28  29
ATOM     29  N   UNL     1      -6.471  11.371  26.626  0.00  0.00    -0.308 N 
ATOM     30  H   UNL     1      -7.074  10.573  26.481  0.00  0.00    +0.149 HD
ATOM     31  C   UNL     1      -6.355  11.849  27.867  0.00  0.00    +0.210 C 
ATOM     32  C   UNL     1      -5.450  13.082  28.049  0.00  0.00    +0.109 C 
ATOM     33  O   UNL     1      -6.936  11.352  28.833  0.00  0.00    -0.276 OA
ENDBRANCH  28  29
BRANCH  25  34
ATOM     34  C   UNL     1      -6.250  11.021  21.886  0.00  0.00    +0.414 C 
ATOM     35  O   UNL     1      -7.342  11.407  21.472  0.00  0.00    -0.240 OA
ATOM     36  O   UNL     1      -5.945   9.834  21.767  0.00  0.00    -0.240 OA
ENDBRANCH  25  34
BRANCH  27  37
ATOM     37  O   UNL     1      -7.373  13.724  25.219  0.00  0.00    -0.390 OA
ATOM     38  H   UNL     1      -8.143  13.415  25.702  0.00  0.00    +0.210 HD
ENDBRANCH  27  37
BRANCH  25  39
ATOM     39  O   UNL     1      -4.431  12.621  21.533  0.00  0.00    -0.343 OA
ATOM     40  C   UNL     1      -3.143  11.980  21.345  0.00  0.00    +0.198 C 
ENDBRANCH  25  39
ENDBRANCH  22  23
BRANCH  22  41
ATOM     41  O   UNL     1      -4.683   9.151  26.449  0.00  0.00    -0.387 OA
ATOM     42  H   UNL     1      -4.343   9.319  27.332  0.00  0.00    +0.210 HD
ENDBRANCH  22  41
ENDBRANCH   1  22
TORSDOF 14
