REMARK VINA RESULT:    -5.204      2.529      5.185
REMARK INTER + INTRA:         -12.353
REMARK INTER:                  -8.543
REMARK INTRA:                  -3.810
REMARK UNBOUND:                -2.890
REMARK  Name = lig_assembled_73.pdb
REMARK  18 active torsions:
REMARK  status: ('A' for Active; 'I' for Inactive)
REMARK    1  A    between atoms: _2  and  _10
REMARK    2  A    between atoms: _3  and  _14
REMARK    3  A    between atoms: _5  and  _22
REMARK    4  A    between atoms: _7  and  _8
REMARK    5  A    between atoms: _7  and  _22
REMARK    6  A    between atoms: _13  and  _16
REMARK    7  A    between atoms: _18  and  _38
REMARK    8  A    between atoms: _20  and  _26
REMARK    9  A    between atoms: _21  and  _25
REMARK   10  A    between atoms: _25  and  _26
REMARK   11  A    between atoms: _28  and  _29
REMARK   12  A    between atoms: _30  and  _31
REMARK   13  A    between atoms: _32  and  _34
REMARK   14  A    between atoms: _34  and  _35
REMARK   15  A    between atoms: _34  and  _36
REMARK   16  A    between atoms: _36  and  _37
REMARK   17  A    between atoms: _36  and  _38
REMARK   18  A    between atoms: _39  and  _41
REMARK                            x       y       z     vdW  Elec       q    Type
REMARK                         _______ _______ _______ _____ _____    ______ ____
ROOT
ATOM      1  C   UNL     1      -7.267   8.783  23.962  0.00  0.00    +0.163 C 
ENDROOT
BRANCH   1   2
ATOM      2  O   UNL     1      -6.818   8.773  25.327  0.00  0.00    -0.388 OA
ATOM      3  H   UNL     1      -7.576   8.715  25.913  0.00  0.00    +0.210 HD
ENDBRANCH   1   2
BRANCH   1   4
ATOM      4  C   UNL     1      -6.957  10.133  23.291  0.00  0.00    +0.175 C 
BRANCH   4   5
ATOM      5  C   UNL     1      -5.740  10.825  23.922  0.00  0.00    +0.176 C 
ATOM      6  O   UNL     1      -6.217  11.663  25.010  0.00  0.00    -0.332 OA
ATOM      7  C   UNL     1      -5.177  12.327  25.802  0.00  0.00    +0.277 C 
ATOM      8  C   UNL     1      -4.237  13.146  24.884  0.00  0.00    +0.110 C 
ATOM      9  C   UNL     1      -3.730  12.306  23.693  0.00  0.00    +0.143 C 
ATOM     10  C   UNL     1      -4.894  11.659  22.942  0.00  0.00    +0.133 C 
BRANCH  10  11
ATOM     11  N   UNL     1      -4.394  10.792  21.864  0.00  0.00    -0.308 N 
ATOM     12  H   UNL     1      -3.831   9.994  22.123  0.00  0.00    +0.149 HD
ATOM     13  C   UNL     1      -4.634  10.990  20.565  0.00  0.00    +0.210 C 
ATOM     14  C   UNL     1      -5.474  12.230  20.200  0.00  0.00    +0.109 C 
ATOM     15  O   UNL     1      -4.214  10.239  19.684  0.00  0.00    -0.276 OA
ENDBRANCH  10  11
BRANCH   7  16
ATOM     16  C   UNL     1      -4.350  11.293  26.595  0.00  0.00    +0.414 C 
ATOM     17  O   UNL     1      -3.157  11.493  26.819  0.00  0.00    -0.240 OA
ATOM     18  O   UNL     1      -4.876  10.259  27.010  0.00  0.00    -0.240 OA
ENDBRANCH   7  16
BRANCH   9  19
ATOM     19  O   UNL     1      -2.994  13.137  22.795  0.00  0.00    -0.390 OA
ATOM     20  H   UNL     1      -3.230  12.920  21.890  0.00  0.00    +0.210 HD
ENDBRANCH   9  19
BRANCH   7  21
ATOM     21  O   UNL     1      -5.827  13.240  26.723  0.00  0.00    -0.343 OA
ATOM     22  C   UNL     1      -7.245  13.007  26.917  0.00  0.00    +0.198 C 
ENDBRANCH   7  21
ENDBRANCH   4   5
BRANCH   4  23
ATOM     23  O   UNL     1      -8.110  10.996  23.357  0.00  0.00    -0.387 OA
ATOM     24  H   UNL     1      -8.906  10.479  23.215  0.00  0.00    +0.210 HD
ENDBRANCH   4  23
ENDBRANCH   1   4
BRANCH   1  25
ATOM     25  C   UNL     1      -6.592   7.660  23.182  0.00  0.00    +0.141 C 
BRANCH  25  28
ATOM     26  C   UNL     1      -4.148   7.357  23.393  0.00  0.00    +0.401 C 
ATOM     27  O   UNL     1      -3.890   7.945  22.340  0.00  0.00    -0.226 OA
ATOM     28  N   UNL     1      -5.384   7.172  23.859  0.00  0.00    -0.279 N 
ATOM     29  H   UNL     1      -5.495   6.669  24.728  0.00  0.00    +0.152 HD
BRANCH  26  30
ATOM     30  O   UNL     1      -3.074   6.828  24.175  0.00  0.00    -0.444 OA
BRANCH  30  31
ATOM     31  C   UNL     1      -3.592   6.282  25.390  0.00  0.00    +0.292 C 
BRANCH  31  33
ATOM     32  N   UNL     1      -2.027   7.869  26.465  0.00  0.00    -0.131 NA
ATOM     33  C   UNL     1      -3.135   7.076  26.546  0.00  0.00    +0.121 A 
ATOM     34  C   UNL     1      -3.668   7.177  27.810  0.00  0.00    +0.143 A 
ATOM     35  N   UNL     1      -2.847   8.060  28.472  0.00  0.00    -0.220 N 
ATOM     36  N   UNL     1      -1.859   8.463  27.638  0.00  0.00    -0.060 NA
BRANCH  35  37
ATOM     37  C   UNL     1      -2.936   8.526  29.810  0.00  0.00    +0.074 A 
ATOM     38  C   UNL     1      -3.168   7.612  30.853  0.00  0.00    +0.032 A 
ATOM     39  C   UNL     1      -3.269   8.050  32.180  0.00  0.00    +0.054 A 
ATOM     40  C   UNL     1      -3.142   9.405  32.479  0.00  0.00    +0.195 A 
ATOM     41  C   UNL     1      -2.911  10.307  31.440  0.00  0.00    +0.316 A 
ATOM     42  C   UNL     1      -2.799   9.887  30.107  0.00  0.00    +0.116 A 
BRANCH  41  43
ATOM     43  N   UNL     1      -2.784  11.724  31.716  0.00  0.00    +0.083 N 
ATOM     44  O   UNL     1      -1.836  12.087  32.425  0.00  0.00    +0.042 OA
ATOM     45  O   UNL     1      -3.692  12.455  31.296  0.00  0.00    -0.576 OA
ENDBRANCH  41  43
BRANCH  40  46
ATOM     46  O   UNL     1      -3.219   9.828  33.771  0.00  0.00    -0.501 OA
ATOM     47  H   UNL     1      -2.735  10.665  33.878  0.00  0.00    +0.292 HD
ENDBRANCH  40  46
ENDBRANCH  35  37
ENDBRANCH  31  33
ENDBRANCH  30  31
ENDBRANCH  26  30
ENDBRANCH  25  28
ENDBRANCH   1  25
TORSDOF 16
