REMARK VINA RESULT:    -4.609      4.396      7.780
REMARK INTER + INTRA:         -11.044
REMARK INTER:                  -8.164
REMARK INTRA:                  -2.881
REMARK UNBOUND:                -3.067
REMARK  Name = lig_assembled_8.pdb
REMARK  16 active torsions:
REMARK  status: ('A' for Active; 'I' for Inactive)
REMARK    1  A    between atoms: _2  and  _9
REMARK    2  A    between atoms: _4  and  _18
REMARK    3  A    between atoms: _6  and  _7
REMARK    4  A    between atoms: _6  and  _18
REMARK    5  A    between atoms: _14  and  _34
REMARK    6  A    between atoms: _16  and  _22
REMARK    7  A    between atoms: _17  and  _21
REMARK    8  A    between atoms: _21  and  _22
REMARK    9  A    between atoms: _24  and  _25
REMARK   10  A    between atoms: _26  and  _27
REMARK   11  A    between atoms: _28  and  _30
REMARK   12  A    between atoms: _30  and  _31
REMARK   13  A    between atoms: _30  and  _32
REMARK   14  A    between atoms: _32  and  _33
REMARK   15  A    between atoms: _32  and  _34
REMARK   16  A    between atoms: _35  and  _37
REMARK                            x       y       z     vdW  Elec       q    Type
REMARK                         _______ _______ _______ _____ _____    ______ ____
ROOT
ATOM      1  C   UNL     1      -2.877  11.745  24.817  0.00  0.00    +0.163 C 
ENDROOT
BRANCH   1   2
ATOM      2  O   UNL     1      -3.139  11.634  26.226  0.00  0.00    -0.388 OA
ATOM      3  H   UNL     1      -4.080  11.742  26.386  0.00  0.00    +0.210 HD
ENDBRANCH   1   2
BRANCH   1   4
ATOM      4  C   UNL     1      -3.108  13.180  24.355  0.00  0.00    +0.141 C 
BRANCH   4   7
ATOM      5  C   UNL     1      -4.434  14.308  22.601  0.00  0.00    +0.401 C 
ATOM      6  O   UNL     1      -3.683  15.284  22.529  0.00  0.00    -0.226 OA
ATOM      7  N   UNL     1      -4.245  13.282  23.432  0.00  0.00    -0.279 N 
ATOM      8  H   UNL     1      -4.922  12.532  23.425  0.00  0.00    +0.152 HD
BRANCH   5   9
ATOM      9  O   UNL     1      -5.586  14.255  21.756  0.00  0.00    -0.444 OA
BRANCH   9  10
ATOM     10  C   UNL     1      -6.001  12.895  21.600  0.00  0.00    +0.292 C 
BRANCH  10  12
ATOM     11  N   UNL     1      -7.072  12.469  19.418  0.00  0.00    -0.131 NA
ATOM     12  C   UNL     1      -5.947  12.505  20.179  0.00  0.00    +0.121 A 
ATOM     13  C   UNL     1      -4.872  12.143  19.401  0.00  0.00    +0.143 A 
ATOM     14  N   UNL     1      -5.390  11.910  18.138  0.00  0.00    -0.219 N 
ATOM     15  N   UNL     1      -6.727  12.103  18.192  0.00  0.00    -0.060 NA
BRANCH  14  16
ATOM     16  C   UNL     1      -4.685  11.545  16.949  0.00  0.00    +0.081 A 
ATOM     17  C   UNL     1      -4.185  12.582  16.129  0.00  0.00    +0.029 A 
ATOM     18  C   UNL     1      -3.505  12.310  14.939  0.00  0.00    +0.002 A 
ATOM     19  C   UNL     1      -3.305  10.997  14.539  0.00  0.00    +0.001 A 
ATOM     20  C   UNL     1      -3.782   9.959  15.334  0.00  0.00    +0.017 A 
ATOM     21  C   UNL     1      -4.468  10.215  16.537  0.00  0.00    +0.043 A 
ATOM     22 BR   UNL     1      -5.016   8.635  17.451  0.00  0.00    -0.048 Br
ENDBRANCH  14  16
ENDBRANCH  10  12
ENDBRANCH   9  10
ENDBRANCH   5   9
ENDBRANCH   4   7
ENDBRANCH   1   4
BRANCH   1  23
ATOM     23  C   UNL     1      -3.781  10.795  24.013  0.00  0.00    +0.175 C 
BRANCH  23  24
ATOM     24  C   UNL     1      -4.175   9.550  24.821  0.00  0.00    +0.176 C 
ATOM     25  O   UNL     1      -2.954   8.927  25.306  0.00  0.00    -0.332 OA
ATOM     26  C   UNL     1      -3.139   7.774  26.193  0.00  0.00    +0.277 C 
ATOM     27  C   UNL     1      -4.037   6.710  25.516  0.00  0.00    +0.110 C 
ATOM     28  C   UNL     1      -5.334   7.331  24.956  0.00  0.00    +0.143 C 
ATOM     29  C   UNL     1      -5.025   8.523  24.050  0.00  0.00    +0.133 C 
BRANCH  29  30
ATOM     30  N   UNL     1      -6.270   9.160  23.593  0.00  0.00    -0.308 N 
ATOM     31  H   UNL     1      -6.882   9.554  24.293  0.00  0.00    +0.149 HD
ATOM     32  C   UNL     1      -6.643   9.250  22.313  0.00  0.00    +0.210 C 
ATOM     33  C   UNL     1      -5.701   8.617  21.273  0.00  0.00    +0.109 C 
ATOM     34  O   UNL     1      -7.685   9.803  21.959  0.00  0.00    -0.276 OA
ENDBRANCH  29  30
BRANCH  26  35
ATOM     35  C   UNL     1      -3.774   8.209  27.530  0.00  0.00    +0.414 C 
ATOM     36  O   UNL     1      -3.562   9.335  27.980  0.00  0.00    -0.240 OA
ATOM     37  O   UNL     1      -4.498   7.436  28.158  0.00  0.00    -0.240 OA
ENDBRANCH  26  35
BRANCH  28  38
ATOM     38  O   UNL     1      -6.057   6.349  24.212  0.00  0.00    -0.390 OA
ATOM     39  H   UNL     1      -5.677   5.482  24.373  0.00  0.00    +0.210 HD
ENDBRANCH  28  38
BRANCH  26  40
ATOM     40  O   UNL     1      -1.837   7.184  26.440  0.00  0.00    -0.343 OA
ATOM     41  C   UNL     1      -1.817   5.734  26.465  0.00  0.00    +0.198 C 
ENDBRANCH  26  40
ENDBRANCH  23  24
BRANCH  23  42
ATOM     42  O   UNL     1      -3.127  10.406  22.789  0.00  0.00    -0.387 OA
ATOM     43  H   UNL     1      -3.253   9.465  22.643  0.00  0.00    +0.210 HD
ENDBRANCH  23  42
ENDBRANCH   1  23
TORSDOF 14
