REMARK VINA RESULT:    -4.404      1.552      2.173
REMARK INTER + INTRA:         -11.559
REMARK INTER:                  -8.366
REMARK INTRA:                  -3.193
REMARK UNBOUND:                -3.679
REMARK  Name = lig_assembled_0.pdb
REMARK  17 active torsions:
REMARK  status: ('A' for Active; 'I' for Inactive)
REMARK    1  A    between atoms: _2  and  _10
REMARK    2  A    between atoms: _5  and  _21
REMARK    3  A    between atoms: _7  and  _8
REMARK    4  A    between atoms: _7  and  _21
REMARK    5  A    between atoms: _11  and  _12
REMARK    6  A    between atoms: _17  and  _37
REMARK    7  A    between atoms: _19  and  _25
REMARK    8  A    between atoms: _20  and  _24
REMARK    9  A    between atoms: _24  and  _25
REMARK   10  A    between atoms: _27  and  _28
REMARK   11  A    between atoms: _29  and  _30
REMARK   12  A    between atoms: _31  and  _33
REMARK   13  A    between atoms: _33  and  _34
REMARK   14  A    between atoms: _33  and  _35
REMARK   15  A    between atoms: _35  and  _36
REMARK   16  A    between atoms: _35  and  _37
REMARK   17  A    between atoms: _38  and  _40
REMARK                            x       y       z     vdW  Elec       q    Type
REMARK                         _______ _______ _______ _____ _____    ______ ____
ROOT
ATOM      1  C   UNL     1      -6.662   8.788  23.219  0.00  0.00    +0.163 C 
ENDROOT
BRANCH   1   2
ATOM      2  O   UNL     1      -6.335   8.598  24.606  0.00  0.00    -0.388 OA
ATOM      3  H   UNL     1      -5.381   8.628  24.717  0.00  0.00    +0.210 HD
ENDBRANCH   1   2
BRANCH   1   4
ATOM      4  C   UNL     1      -5.610   8.122  22.339  0.00  0.00    +0.141 C 
BRANCH   4   7
ATOM      5  C   UNL     1      -4.018   6.383  23.082  0.00  0.00    +0.401 C 
ATOM      6  O   UNL     1      -4.523   5.494  22.392  0.00  0.00    -0.226 OA
ATOM      7  N   UNL     1      -4.466   7.639  23.123  0.00  0.00    -0.279 N 
ATOM      8  H   UNL     1      -3.991   8.295  23.727  0.00  0.00    +0.152 HD
BRANCH   5   9
ATOM      9  O   UNL     1      -2.887   6.072  23.898  0.00  0.00    -0.444 OA
BRANCH   9  10
ATOM     10  C   UNL     1      -3.332   5.590  25.169  0.00  0.00    +0.292 C 
BRANCH  10  12
ATOM     11  N   UNL     1      -1.684   7.017  26.323  0.00  0.00    -0.131 NA
ATOM     12  C   UNL     1      -2.955   6.534  26.237  0.00  0.00    +0.121 A 
ATOM     13  C   UNL     1      -3.716   7.086  27.243  0.00  0.00    +0.143 A 
ATOM     14  N   UNL     1      -2.837   7.839  27.987  0.00  0.00    -0.219 N 
ATOM     15  N   UNL     1      -1.631   7.846  27.353  0.00  0.00    -0.060 NA
BRANCH  14  16
ATOM     16  C   UNL     1      -3.043   8.631  29.152  0.00  0.00    +0.079 A 
ATOM     17  C   UNL     1      -3.113   8.127  30.466  0.00  0.00    +0.062 A 
ATOM     18  C   UNL     1      -3.365   9.024  31.527  0.00  0.00    +0.015 A 
ATOM     19  C   UNL     1      -3.558  10.386  31.296  0.00  0.00    +0.001 A 
ATOM     20  C   UNL     1      -3.474  10.885  30.004  0.00  0.00    +0.002 A 
ATOM     21  C   UNL     1      -3.208  10.020  28.943  0.00  0.00    +0.028 A 
BRANCH  17  22
ATOM     22  C   UNL     1      -2.754   6.731  30.845  0.00  0.00    +0.244 C 
ATOM     23  O   UNL     1      -3.466   6.046  31.563  0.00  0.00    -0.270 OA
ATOM     24  N   UNL     1      -1.600   6.210  30.325  0.00  0.00    -0.325 N 
ATOM     25  H   UNL     1      -1.390   5.244  30.546  0.00  0.00    +0.145 HD
ATOM     26  H   UNL     1      -0.966   6.704  29.714  0.00  0.00    +0.145 HD
ENDBRANCH  17  22
ENDBRANCH  14  16
ENDBRANCH  10  12
ENDBRANCH   9  10
ENDBRANCH   5   9
ENDBRANCH   4   7
ENDBRANCH   1   4
BRANCH   1  27
ATOM     27  C   UNL     1      -6.748  10.285  22.874  0.00  0.00    +0.175 C 
BRANCH  27  28
ATOM     28  C   UNL     1      -5.476  11.045  23.280  0.00  0.00    +0.176 C 
ATOM     29  O   UNL     1      -5.524  11.261  24.717  0.00  0.00    -0.332 OA
ATOM     30  C   UNL     1      -4.334  11.885  25.304  0.00  0.00    +0.277 C 
ATOM     31  C   UNL     1      -4.012  13.218  24.585  0.00  0.00    +0.110 C 
ATOM     32  C   UNL     1      -3.982  13.045  23.052  0.00  0.00    +0.143 C 
ATOM     33  C   UNL     1      -5.266  12.384  22.549  0.00  0.00    +0.133 C 
BRANCH  33  34
ATOM     34  N   UNL     1      -5.189  12.146  21.099  0.00  0.00    -0.308 N 
ATOM     35  H   UNL     1      -4.393  11.632  20.747  0.00  0.00    +0.149 HD
ATOM     36  C   UNL     1      -6.101  12.565  20.218  0.00  0.00    +0.210 C 
ATOM     37  C   UNL     1      -7.288  13.368  20.783  0.00  0.00    +0.109 C 
ATOM     38  O   UNL     1      -6.018  12.338  19.011  0.00  0.00    -0.276 OA
ENDBRANCH  33  34
BRANCH  30  39
ATOM     39  C   UNL     1      -3.118  10.940  25.209  0.00  0.00    +0.414 C 
ATOM     40  O   UNL     1      -1.992  11.349  25.488  0.00  0.00    -0.240 OA
ATOM     41  O   UNL     1      -3.263   9.770  24.854  0.00  0.00    -0.240 OA
ENDBRANCH  30  39
BRANCH  32  42
ATOM     42  O   UNL     1      -3.832  14.320  22.427  0.00  0.00    -0.390 OA
ATOM     43  H   UNL     1      -3.276  14.232  21.649  0.00  0.00    +0.210 HD
ENDBRANCH  32  42
BRANCH  30  44
ATOM     44  O   UNL     1      -4.620  12.174  26.697  0.00  0.00    -0.343 OA
ATOM     45  C   UNL     1      -5.993  11.941  27.101  0.00  0.00    +0.198 C 
ENDBRANCH  30  44
ENDBRANCH  27  28
BRANCH  27  46
ATOM     46  O   UNL     1      -7.902  10.875  23.505  0.00  0.00    -0.387 OA
ATOM     47  H   UNL     1      -8.674  10.331  23.332  0.00  0.00    +0.210 HD
ENDBRANCH  27  46
ENDBRANCH   1  27
TORSDOF 15
