REMARK VINA RESULT:    -5.296      5.058      7.227
REMARK INTER + INTRA:         -12.307
REMARK INTER:                  -9.867
REMARK INTRA:                  -2.440
REMARK UNBOUND:                -3.141
REMARK  Name = lig_assembled_91.pdb
REMARK  16 active torsions:
REMARK  status: ('A' for Active; 'I' for Inactive)
REMARK    1  A    between atoms: _2  and  _10
REMARK    2  A    between atoms: _5  and  _26
REMARK    3  A    between atoms: _7  and  _8
REMARK    4  A    between atoms: _7  and  _26
REMARK    5  A    between atoms: _22  and  _42
REMARK    6  A    between atoms: _24  and  _30
REMARK    7  A    between atoms: _25  and  _29
REMARK    8  A    between atoms: _29  and  _30
REMARK    9  A    between atoms: _32  and  _33
REMARK   10  A    between atoms: _34  and  _35
REMARK   11  A    between atoms: _36  and  _38
REMARK   12  A    between atoms: _38  and  _39
REMARK   13  A    between atoms: _38  and  _40
REMARK   14  A    between atoms: _40  and  _41
REMARK   15  A    between atoms: _40  and  _42
REMARK   16  A    between atoms: _43  and  _45
REMARK                            x       y       z     vdW  Elec       q    Type
REMARK                         _______ _______ _______ _____ _____    ______ ____
ROOT
ATOM      1  C   UNL     1      -5.972  12.003  20.456  0.00  0.00    +0.401 C 
ATOM      2  O   UNL     1      -6.325  13.178  20.578  0.00  0.00    -0.226 OA
ATOM      3  N   UNL     1      -4.774  11.542  20.819  0.00  0.00    -0.279 N 
ATOM      4  H   UNL     1      -4.581  10.559  20.687  0.00  0.00    +0.152 HD
ENDROOT
BRANCH   3   5
ATOM      5  C   UNL     1      -3.720  12.383  21.399  0.00  0.00    +0.141 C 
BRANCH   5   6
ATOM      6  C   UNL     1      -2.943  11.651  22.488  0.00  0.00    +0.163 C 
BRANCH   6   7
ATOM      7  O   UNL     1      -2.671  12.543  23.581  0.00  0.00    -0.388 OA
ATOM      8  H   UNL     1      -3.498  12.808  23.992  0.00  0.00    +0.210 HD
ENDBRANCH   6   7
BRANCH   6   9
ATOM      9  C   UNL     1      -3.749  10.430  22.961  0.00  0.00    +0.175 C 
BRANCH   9  10
ATOM     10  C   UNL     1      -3.805  10.333  24.493  0.00  0.00    +0.176 C 
ATOM     11  O   UNL     1      -3.394   8.991  24.872  0.00  0.00    -0.332 OA
ATOM     12  C   UNL     1      -3.285   8.744  26.312  0.00  0.00    +0.277 C 
ATOM     13  C   UNL     1      -4.611   9.105  27.026  0.00  0.00    +0.110 C 
ATOM     14  C   UNL     1      -5.105  10.512  26.629  0.00  0.00    +0.143 C 
ATOM     15  C   UNL     1      -5.178  10.660  25.109  0.00  0.00    +0.133 C 
BRANCH  15  16
ATOM     16  N   UNL     1      -5.567  12.032  24.743  0.00  0.00    -0.308 N 
ATOM     17  H   UNL     1      -4.969  12.788  25.046  0.00  0.00    +0.149 HD
ATOM     18  C   UNL     1      -6.658  12.342  24.038  0.00  0.00    +0.210 C 
ATOM     19  C   UNL     1      -7.562  11.169  23.615  0.00  0.00    +0.109 C 
ATOM     20  O   UNL     1      -6.950  13.499  23.733  0.00  0.00    -0.276 OA
ENDBRANCH  15  16
BRANCH  12  21
ATOM     21  C   UNL     1      -2.130   9.566  26.922  0.00  0.00    +0.414 C 
ATOM     22  O   UNL     1      -1.094   9.748  26.284  0.00  0.00    -0.240 OA
ATOM     23  O   UNL     1      -2.235  10.048  28.051  0.00  0.00    -0.240 OA
ENDBRANCH  12  21
BRANCH  14  24
ATOM     24  O   UNL     1      -6.399  10.743  27.188  0.00  0.00    -0.390 OA
ATOM     25  H   UNL     1      -6.743   9.923  27.550  0.00  0.00    +0.210 HD
ENDBRANCH  14  24
BRANCH  12  26
ATOM     26  O   UNL     1      -3.032   7.328  26.507  0.00  0.00    -0.343 OA
ATOM     27  C   UNL     1      -3.886   6.683  27.485  0.00  0.00    +0.198 C 
ENDBRANCH  12  26
ENDBRANCH   9  10
BRANCH   9  28
ATOM     28  O   UNL     1      -3.191   9.221  22.407  0.00  0.00    -0.387 OA
ATOM     29  H   UNL     1      -3.490   8.466  22.920  0.00  0.00    +0.210 HD
ENDBRANCH   9  28
ENDBRANCH   6   9
ENDBRANCH   5   6
ENDBRANCH   3   5
BRANCH   1  30
ATOM     30  O   UNL     1      -6.888  11.058  19.897  0.00  0.00    -0.444 OA
BRANCH  30  31
ATOM     31  C   UNL     1      -7.533  11.633  18.758  0.00  0.00    +0.292 C 
BRANCH  31  33
ATOM     32  N   UNL     1      -7.572  10.637  16.499  0.00  0.00    -0.131 NA
ATOM     33  C   UNL     1      -6.864  11.207  17.512  0.00  0.00    +0.121 A 
ATOM     34  C   UNL     1      -5.543  11.298  17.137  0.00  0.00    +0.143 A 
ATOM     35  N   UNL     1      -5.474  10.722  15.885  0.00  0.00    -0.218 N 
ATOM     36  N   UNL     1      -6.727  10.351  15.519  0.00  0.00    -0.060 NA
BRANCH  35  37
ATOM     37  C   UNL     1      -4.339  10.501  15.045  0.00  0.00    +0.085 A 
ATOM     38  C   UNL     1      -3.532   9.318  15.214  0.00  0.00    +0.026 A 
ATOM     39  C   UNL     1      -2.423   9.210  14.352  0.00  0.00    +0.074 A 
ATOM     40  C   UNL     1      -1.572   8.117  14.422  0.00  0.00    +0.028 A 
ATOM     41  C   UNL     1      -1.768   7.080  15.327  0.00  0.00    +0.002 A 
ATOM     42  C   UNL     1      -2.863   7.126  16.168  0.00  0.00    +0.001 A 
ATOM     43  N   UNL     1      -2.122  10.106  13.415  0.00  0.00    -0.247 NA
ATOM     44  C   UNL     1      -2.887  11.183  13.243  0.00  0.00    +0.074 A 
ATOM     45  C   UNL     1      -2.479  12.054  12.238  0.00  0.00    +0.028 A 
ATOM     46  C   UNL     1      -3.153  13.239  11.963  0.00  0.00    +0.002 A 
ATOM     47  C   UNL     1      -4.258  13.572  12.720  0.00  0.00    +0.001 A 
ATOM     48  C   UNL     1      -4.678  12.709  13.739  0.00  0.00    +0.012 A 
ATOM     49  C   UNL     1      -3.741   8.213  16.099  0.00  0.00    +0.012 A 
ATOM     50  C   UNL     1      -4.018  11.471  14.024  0.00  0.00    +0.026 A 
ENDBRANCH  35  37
ENDBRANCH  31  33
ENDBRANCH  30  31
ENDBRANCH   1  30
TORSDOF 14
