REMARK VINA RESULT:    -4.828      6.021      9.868
REMARK INTER + INTRA:         -11.222
REMARK INTER:                  -7.337
REMARK INTRA:                  -3.886
REMARK UNBOUND:                -2.867
REMARK  Name = lig_assembled_70.pdb
REMARK  16 active torsions:
REMARK  status: ('A' for Active; 'I' for Inactive)
REMARK    1  A    between atoms: _2  and  _10
REMARK    2  A    between atoms: _5  and  _22
REMARK    3  A    between atoms: _7  and  _8
REMARK    4  A    between atoms: _7  and  _22
REMARK    5  A    between atoms: _18  and  _38
REMARK    6  A    between atoms: _20  and  _26
REMARK    7  A    between atoms: _21  and  _25
REMARK    8  A    between atoms: _25  and  _26
REMARK    9  A    between atoms: _28  and  _29
REMARK   10  A    between atoms: _30  and  _31
REMARK   11  A    between atoms: _32  and  _34
REMARK   12  A    between atoms: _34  and  _35
REMARK   13  A    between atoms: _34  and  _36
REMARK   14  A    between atoms: _36  and  _37
REMARK   15  A    between atoms: _36  and  _38
REMARK   16  A    between atoms: _39  and  _41
REMARK                            x       y       z     vdW  Elec       q    Type
REMARK                         _______ _______ _______ _____ _____    ______ ____
ROOT
ATOM      1  C   UNL     1      -3.182  10.402  29.208  0.00  0.00    +0.163 C 
ENDROOT
BRANCH   1   2
ATOM      2  O   UNL     1      -2.180  10.103  28.222  0.00  0.00    -0.388 OA
ATOM      3  H   UNL     1      -1.797  10.921  27.897  0.00  0.00    +0.210 HD
ENDBRANCH   1   2
BRANCH   1   4
ATOM      4  C   UNL     1      -2.942   9.570  30.464  0.00  0.00    +0.141 C 
BRANCH   4   7
ATOM      5  C   UNL     1      -2.971  11.082  32.418  0.00  0.00    +0.401 C 
ATOM      6  O   UNL     1      -1.828  11.504  32.227  0.00  0.00    -0.226 OA
ATOM      7  N   UNL     1      -3.568  10.173  31.647  0.00  0.00    -0.279 N 
ATOM      8  H   UNL     1      -4.505   9.882  31.891  0.00  0.00    +0.152 HD
BRANCH   5   9
ATOM      9  O   UNL     1      -3.718  11.580  33.531  0.00  0.00    -0.444 OA
BRANCH   9  10
ATOM     10  C   UNL     1      -3.887  12.994  33.398  0.00  0.00    +0.292 C 
BRANCH  10  12
ATOM     11  N   UNL     1      -5.898  12.565  32.012  0.00  0.00    -0.131 NA
ATOM     12  C   UNL     1      -4.776  13.303  32.262  0.00  0.00    +0.121 A 
ATOM     13  C   UNL     1      -4.674  14.295  31.316  0.00  0.00    +0.143 A 
ATOM     14  N   UNL     1      -5.774  14.132  30.507  0.00  0.00    -0.218 N 
ATOM     15  N   UNL     1      -6.495  13.071  30.939  0.00  0.00    -0.060 NA
BRANCH  14  16
ATOM     16  C   UNL     1      -6.173  14.914  29.403  0.00  0.00    +0.086 A 
ATOM     17  C   UNL     1      -6.354  16.280  29.538  0.00  0.00    +0.139 A 
ATOM     18  N   UNL     1      -6.692  17.098  28.508  0.00  0.00    -0.253 NA
ATOM     19  C   UNL     1      -6.852  16.555  27.288  0.00  0.00    +0.071 A 
ATOM     20  C   UNL     1      -6.705  15.172  27.058  0.00  0.00    +0.002 A 
ATOM     21  C   UNL     1      -6.879  14.639  25.768  0.00  0.00    +0.010 A 
ATOM     22  C   UNL     1      -7.180  15.477  24.698  0.00  0.00    +0.001 A 
ATOM     23  C   UNL     1      -7.318  16.842  24.916  0.00  0.00    +0.002 A 
ATOM     24  C   UNL     1      -7.161  17.365  26.203  0.00  0.00    +0.028 A 
ATOM     25  C   UNL     1      -6.369  14.350  28.141  0.00  0.00    +0.039 A 
ENDBRANCH  14  16
ENDBRANCH  10  12
ENDBRANCH   9  10
ENDBRANCH   5   9
ENDBRANCH   4   7
ENDBRANCH   1   4
BRANCH   1  26
ATOM     26  C   UNL     1      -4.592  10.116  28.664  0.00  0.00    +0.175 C 
BRANCH  26  27
ATOM     27  C   UNL     1      -4.651  10.211  27.132  0.00  0.00    +0.176 C 
ATOM     28  O   UNL     1      -4.142  11.518  26.746  0.00  0.00    -0.332 OA
ATOM     29  C   UNL     1      -4.024  11.750  25.303  0.00  0.00    +0.277 C 
ATOM     30  C   UNL     1      -5.378  11.487  24.600  0.00  0.00    +0.110 C 
ATOM     31  C   UNL     1      -5.974  10.122  25.004  0.00  0.00    +0.143 C 
ATOM     32  C   UNL     1      -6.048   9.985  26.526  0.00  0.00    +0.133 C 
BRANCH  32  33
ATOM     33  N   UNL     1      -6.536   8.648  26.899  0.00  0.00    -0.308 N 
ATOM     34  H   UNL     1      -5.972   7.851  26.641  0.00  0.00    +0.149 HD
ATOM     35  C   UNL     1      -7.676   8.420  27.558  0.00  0.00    +0.210 C 
ATOM     36  C   UNL     1      -8.526   9.654  27.914  0.00  0.00    +0.109 C 
ATOM     37  O   UNL     1      -8.052   7.290  27.871  0.00  0.00    -0.276 OA
ENDBRANCH  32  33
BRANCH  29  38
ATOM     38  C   UNL     1      -2.939  10.842  24.690  0.00  0.00    +0.414 C 
ATOM     39  O   UNL     1      -3.081  10.384  23.556  0.00  0.00    -0.240 OA
ATOM     40  O   UNL     1      -1.922  10.566  25.327  0.00  0.00    -0.240 OA
ENDBRANCH  29  38
BRANCH  31  41
ATOM     41  O   UNL     1      -7.285   9.987  24.455  0.00  0.00    -0.390 OA
ATOM     42  H   UNL     1      -7.567  10.827  24.087  0.00  0.00    +0.210 HD
ENDBRANCH  31  41
BRANCH  29  43
ATOM     43  O   UNL     1      -3.667  13.142  25.101  0.00  0.00    -0.343 OA
ATOM     44  C   UNL     1      -3.907  13.648  23.763  0.00  0.00    +0.198 C 
ENDBRANCH  29  43
ENDBRANCH  26  27
BRANCH  26  45
ATOM     45  O   UNL     1      -5.546  11.021  29.255  0.00  0.00    -0.387 OA
ATOM     46  H   UNL     1      -6.351  10.545  29.467  0.00  0.00    +0.210 HD
ENDBRANCH  26  45
ENDBRANCH   1  26
TORSDOF 14
