REMARK VINA RESULT:    -4.834      4.145      9.289
REMARK INTER + INTRA:         -10.861
REMARK INTER:                  -7.888
REMARK INTRA:                  -2.973
REMARK UNBOUND:                -2.494
REMARK  Name = lig_assembled_56.pdb
REMARK  16 active torsions:
REMARK  status: ('A' for Active; 'I' for Inactive)
REMARK    1  A    between atoms: _2  and  _10
REMARK    2  A    between atoms: _5  and  _18
REMARK    3  A    between atoms: _7  and  _8
REMARK    4  A    between atoms: _7  and  _18
REMARK    5  A    between atoms: _14  and  _34
REMARK    6  A    between atoms: _16  and  _22
REMARK    7  A    between atoms: _17  and  _21
REMARK    8  A    between atoms: _21  and  _22
REMARK    9  A    between atoms: _24  and  _25
REMARK   10  A    between atoms: _26  and  _27
REMARK   11  A    between atoms: _28  and  _30
REMARK   12  A    between atoms: _30  and  _31
REMARK   13  A    between atoms: _30  and  _32
REMARK   14  A    between atoms: _32  and  _33
REMARK   15  A    between atoms: _32  and  _34
REMARK   16  A    between atoms: _35  and  _37
REMARK                            x       y       z     vdW  Elec       q    Type
REMARK                         _______ _______ _______ _____ _____    ______ ____
ROOT
ATOM      1  C   UNL     1      -2.998  10.954  22.668  0.00  0.00    +0.163 C 
ENDROOT
BRANCH   1   2
ATOM      2  O   UNL     1      -2.825  11.852  21.560  0.00  0.00    -0.388 OA
ATOM      3  H   UNL     1      -1.933  12.208  21.572  0.00  0.00    +0.210 HD
ENDBRANCH   1   2
BRANCH   1   4
ATOM      4  C   UNL     1      -4.145   9.990  22.385  0.00  0.00    +0.141 C 
BRANCH   4   7
ATOM      5  C   UNL     1      -5.012   8.568  24.210  0.00  0.00    +0.401 C 
ATOM      6  O   UNL     1      -5.973   9.302  24.452  0.00  0.00    -0.226 OA
ATOM      7  N   UNL     1      -4.104   8.816  23.265  0.00  0.00    -0.279 N 
ATOM      8  H   UNL     1      -3.346   8.159  23.148  0.00  0.00    +0.152 HD
BRANCH   5   9
ATOM      9  O   UNL     1      -4.837   7.376  24.980  0.00  0.00    -0.444 OA
BRANCH   9  10
ATOM     10  C   UNL     1      -3.448   7.186  25.258  0.00  0.00    +0.292 C 
BRANCH  10  12
ATOM     11  N   UNL     1      -2.122   8.852  26.517  0.00  0.00    -0.131 NA
ATOM     12  C   UNL     1      -3.075   7.876  26.506  0.00  0.00    +0.121 A 
ATOM     13  C   UNL     1      -3.558   7.707  27.785  0.00  0.00    +0.143 A 
ATOM     14  N   UNL     1      -2.874   8.625  28.548  0.00  0.00    -0.220 N 
ATOM     15  N   UNL     1      -2.003   9.301  27.759  0.00  0.00    -0.060 NA
BRANCH  14  16
ATOM     16  C   UNL     1      -3.000   8.900  29.931  0.00  0.00    +0.070 A 
ATOM     17  C   UNL     1      -2.710  10.168  30.442  0.00  0.00    +0.047 A 
ATOM     18  C   UNL     1      -2.839  10.363  31.808  0.00  0.00    +0.113 A 
ATOM     19  N   UNL     1      -3.230   9.403  32.672  0.00  0.00    -0.263 NA
ATOM     20  C   UNL     1      -3.507   8.188  32.152  0.00  0.00    +0.113 A 
ATOM     21  C   UNL     1      -3.411   7.889  30.804  0.00  0.00    +0.047 A 
ENDBRANCH  14  16
ENDBRANCH  10  12
ENDBRANCH   9  10
ENDBRANCH   5   9
ENDBRANCH   4   7
ENDBRANCH   1   4
BRANCH   1  22
ATOM     22  C   UNL     1      -3.288  11.730  23.965  0.00  0.00    +0.175 C 
BRANCH  22  23
ATOM     23  C   UNL     1      -4.476  12.691  23.810  0.00  0.00    +0.176 C 
ATOM     24  O   UNL     1      -4.010  13.868  23.096  0.00  0.00    -0.332 OA
ATOM     25  C   UNL     1      -5.040  14.857  22.762  0.00  0.00    +0.277 C 
ATOM     26  C   UNL     1      -5.810  15.287  24.035  0.00  0.00    +0.110 C 
ATOM     27  C   UNL     1      -6.299  14.067  24.844  0.00  0.00    +0.143 C 
ATOM     28  C   UNL     1      -5.148  13.103  25.133  0.00  0.00    +0.133 C 
BRANCH  28  29
ATOM     29  N   UNL     1      -5.641  11.904  25.829  0.00  0.00    -0.308 N 
ATOM     30  H   UNL     1      -6.372  11.368  25.382  0.00  0.00    +0.149 HD
ATOM     31  C   UNL     1      -5.188  11.479  27.011  0.00  0.00    +0.210 C 
ATOM     32  C   UNL     1      -4.093  12.333  27.677  0.00  0.00    +0.109 C 
ATOM     33  O   UNL     1      -5.610  10.463  27.563  0.00  0.00    -0.276 OA
ENDBRANCH  28  29
BRANCH  25  34
ATOM     34  C   UNL     1      -6.031  14.285  21.728  0.00  0.00    +0.414 C 
ATOM     35  O   UNL     1      -7.177  14.727  21.658  0.00  0.00    -0.240 OA
ATOM     36  O   UNL     1      -5.685  13.382  20.964  0.00  0.00    -0.240 OA
ENDBRANCH  25  34
BRANCH  27  37
ATOM     37  O   UNL     1      -6.868  14.505  26.079  0.00  0.00    -0.390 OA
ATOM     38  H   UNL     1      -6.323  15.200  26.454  0.00  0.00    +0.210 HD
ENDBRANCH  27  37
BRANCH  25  39
ATOM     39  O   UNL     1      -4.379  16.025  22.211  0.00  0.00    -0.343 OA
ATOM     40  C   UNL     1      -5.147  17.253  22.282  0.00  0.00    +0.198 C 
ENDBRANCH  25  39
ENDBRANCH  22  23
BRANCH  22  41
ATOM     41  O   UNL     1      -2.114  12.456  24.382  0.00  0.00    -0.387 OA
ATOM     42  H   UNL     1      -2.368  13.152  24.992  0.00  0.00    +0.210 HD
ENDBRANCH  22  41
ENDBRANCH   1  22
TORSDOF 14
