REMARK VINA RESULT:    -4.010      2.037      6.668
REMARK INTER + INTRA:         -10.797
REMARK INTER:                  -6.683
REMARK INTRA:                  -4.114
REMARK UNBOUND:                -3.505
REMARK  Name = lig_assembled_22.pdb
REMARK  20 active torsions:
REMARK  status: ('A' for Active; 'I' for Inactive)
REMARK    1  A    between atoms: _2  and  _9
REMARK    2  A    between atoms: _4  and  _18
REMARK    3  A    between atoms: _5  and  _9
REMARK    4  A    between atoms: _5  and  _12
REMARK    5  A    between atoms: _6  and  _7
REMARK    6  A    between atoms: _6  and  _18
REMARK    7  A    between atoms: _9  and  _10
REMARK    8  A    between atoms: _9  and  _11
REMARK    9  A    between atoms: _14  and  _34
REMARK   10  A    between atoms: _16  and  _22
REMARK   11  A    between atoms: _17  and  _21
REMARK   12  A    between atoms: _21  and  _22
REMARK   13  A    between atoms: _24  and  _25
REMARK   14  A    between atoms: _26  and  _27
REMARK   15  A    between atoms: _28  and  _30
REMARK   16  A    between atoms: _30  and  _31
REMARK   17  A    between atoms: _30  and  _32
REMARK   18  A    between atoms: _32  and  _33
REMARK   19  A    between atoms: _32  and  _34
REMARK   20  A    between atoms: _35  and  _37
REMARK                            x       y       z     vdW  Elec       q    Type
REMARK                         _______ _______ _______ _____ _____    ______ ____
ROOT
ATOM      1  C   UNL     1      -3.719  12.056  26.816  0.00  0.00    +0.163 C 
ENDROOT
BRANCH   1   2
ATOM      2  O   UNL     1      -3.566  10.844  27.572  0.00  0.00    -0.388 OA
ATOM      3  H   UNL     1      -2.647  10.564  27.547  0.00  0.00    +0.210 HD
ENDBRANCH   1   2
BRANCH   1   4
ATOM      4  C   UNL     1      -5.136  12.596  26.979  0.00  0.00    +0.141 C 
BRANCH   4   7
ATOM      5  C   UNL     1      -5.932  12.894  29.299  0.00  0.00    +0.401 C 
ATOM      6  O   UNL     1      -5.574  14.071  29.371  0.00  0.00    -0.226 OA
ATOM      7  N   UNL     1      -5.762  12.127  28.221  0.00  0.00    -0.279 N 
ATOM      8  H   UNL     1      -6.081  11.169  28.262  0.00  0.00    +0.152 HD
BRANCH   5   9
ATOM      9  O   UNL     1      -6.568  12.291  30.429  0.00  0.00    -0.444 OA
BRANCH   9  10
ATOM     10  C   UNL     1      -5.595  12.039  31.447  0.00  0.00    +0.292 C 
BRANCH  10  12
ATOM     11  N   UNL     1      -3.439  11.124  30.665  0.00  0.00    -0.131 NA
ATOM     12  C   UNL     1      -4.730  10.910  31.057  0.00  0.00    +0.120 A 
ATOM     13  C   UNL     1      -4.995   9.559  31.007  0.00  0.00    +0.138 A 
ATOM     14  N   UNL     1      -3.824   9.001  30.575  0.00  0.00    -0.235 N 
ATOM     15  N   UNL     1      -2.895   9.955  30.369  0.00  0.00    -0.064 NA
BRANCH  14  16
ATOM     16  C   UNL     1      -3.504   7.597  30.312  0.00  0.00    +0.155 C 
ATOM     17  C   UNL     1      -4.735   6.801  29.825  0.00  0.00    +0.048 C 
ATOM     18  C   UNL     1      -2.994   6.954  31.615  0.00  0.00    +0.048 C 
BRANCH  16  19
ATOM     19  C   UNL     1      -2.427   7.490  29.229  0.00  0.00    +0.332 C 
ATOM     20  O   UNL     1      -1.432   6.781  29.317  0.00  0.00    -0.248 OA
BRANCH  19  21
ATOM     21  O   UNL     1      -2.638   8.247  28.125  0.00  0.00    -0.479 OA
ATOM     22  H   UNL     1      -3.353   8.910  28.183  0.00  0.00    +0.295 HD
ENDBRANCH  19  21
ENDBRANCH  16  19
ENDBRANCH  14  16
ENDBRANCH  10  12
ENDBRANCH   9  10
ENDBRANCH   5   9
ENDBRANCH   4   7
ENDBRANCH   1   4
BRANCH   1  23
ATOM     23  C   UNL     1      -3.429  11.815  25.325  0.00  0.00    +0.175 C 
BRANCH  23  24
ATOM     24  C   UNL     1      -4.088  10.527  24.809  0.00  0.00    +0.176 C 
ATOM     25  O   UNL     1      -3.333   9.399  25.329  0.00  0.00    -0.332 OA
ATOM     26  C   UNL     1      -3.882   8.074  25.025  0.00  0.00    +0.277 C 
ATOM     27  C   UNL     1      -4.083   7.910  23.498  0.00  0.00    +0.110 C 
ATOM     28  C   UNL     1      -4.855   9.102  22.894  0.00  0.00    +0.143 C 
ATOM     29  C   UNL     1      -4.199  10.430  23.276  0.00  0.00    +0.133 C 
BRANCH  29  30
ATOM     30  N   UNL     1      -4.991  11.561  22.767  0.00  0.00    -0.308 N 
ATOM     31  H   UNL     1      -5.932  11.674  23.120  0.00  0.00    +0.149 HD
ATOM     32  C   UNL     1      -4.549  12.447  21.871  0.00  0.00    +0.210 C 
ATOM     33  C   UNL     1      -3.122  12.231  21.334  0.00  0.00    +0.109 C 
ATOM     34  O   UNL     1      -5.230  13.393  21.474  0.00  0.00    -0.276 OA
ENDBRANCH  29  30
BRANCH  26  35
ATOM     35  C   UNL     1      -5.228   7.860  25.748  0.00  0.00    +0.414 C 
ATOM     36  O   UNL     1      -5.423   8.359  26.856  0.00  0.00    -0.240 OA
ATOM     37  O   UNL     1      -6.118   7.189  25.225  0.00  0.00    -0.240 OA
ENDBRANCH  26  35
BRANCH  26  38
ATOM     38  O   UNL     1      -2.925   7.079  25.470  0.00  0.00    -0.343 OA
ATOM     39  C   UNL     1      -2.895   5.863  24.680  0.00  0.00    +0.198 C 
ENDBRANCH  26  38
BRANCH  28  40
ATOM     40  O   UNL     1      -4.885   8.985  21.471  0.00  0.00    -0.390 OA
ATOM     41  H   UNL     1      -5.719   9.324  21.139  0.00  0.00    +0.210 HD
ENDBRANCH  28  40
ENDBRANCH  23  24
BRANCH  23  42
ATOM     42  O   UNL     1      -2.007  11.771  25.096  0.00  0.00    -0.387 OA
ATOM     43  H   UNL     1      -1.545  11.856  25.934  0.00  0.00    +0.210 HD
ENDBRANCH  23  42
ENDBRANCH   1  23
TORSDOF 16
