REMARK VINA RESULT:    -5.550      3.102      5.573
REMARK INTER + INTRA:         -12.747
REMARK INTER:                  -9.606
REMARK INTRA:                  -3.141
REMARK UNBOUND:                -3.141
REMARK  Name = lig_assembled_91.pdb
REMARK  16 active torsions:
REMARK  status: ('A' for Active; 'I' for Inactive)
REMARK    1  A    between atoms: _2  and  _10
REMARK    2  A    between atoms: _5  and  _26
REMARK    3  A    between atoms: _7  and  _8
REMARK    4  A    between atoms: _7  and  _26
REMARK    5  A    between atoms: _22  and  _42
REMARK    6  A    between atoms: _24  and  _30
REMARK    7  A    between atoms: _25  and  _29
REMARK    8  A    between atoms: _29  and  _30
REMARK    9  A    between atoms: _32  and  _33
REMARK   10  A    between atoms: _34  and  _35
REMARK   11  A    between atoms: _36  and  _38
REMARK   12  A    between atoms: _38  and  _39
REMARK   13  A    between atoms: _38  and  _40
REMARK   14  A    between atoms: _40  and  _41
REMARK   15  A    between atoms: _40  and  _42
REMARK   16  A    between atoms: _43  and  _45
REMARK                            x       y       z     vdW  Elec       q    Type
REMARK                         _______ _______ _______ _____ _____    ______ ____
ROOT
ATOM      1  C   UNL     1      -2.857   6.465  25.983  0.00  0.00    +0.401 C 
ATOM      2  O   UNL     1      -1.740   6.960  26.149  0.00  0.00    -0.226 OA
ATOM      3  N   UNL     1      -3.671   6.111  26.978  0.00  0.00    -0.279 N 
ATOM      4  H   UNL     1      -4.573   5.721  26.741  0.00  0.00    +0.152 HD
ENDROOT
BRANCH   3   5
ATOM      5  C   UNL     1      -3.331   6.256  28.399  0.00  0.00    +0.141 C 
BRANCH   5   6
ATOM      6  C   UNL     1      -3.773   7.606  28.954  0.00  0.00    +0.163 C 
BRANCH   6   7
ATOM      7  O   UNL     1      -4.817   7.421  29.924  0.00  0.00    -0.388 OA
ATOM      8  H   UNL     1      -5.456   8.133  29.846  0.00  0.00    +0.210 HD
ENDBRANCH   6   7
BRANCH   6   9
ATOM      9  C   UNL     1      -2.564   8.325  29.578  0.00  0.00    +0.175 C 
BRANCH   9  10
ATOM     10  C   UNL     1      -2.881   9.785  29.935  0.00  0.00    +0.176 C 
ATOM     11  O   UNL     1      -3.763   9.781  31.091  0.00  0.00    -0.332 OA
ATOM     12  C   UNL     1      -4.090  11.099  31.643  0.00  0.00    +0.277 C 
ATOM     13  C   UNL     1      -4.675  12.017  30.542  0.00  0.00    +0.110 C 
ATOM     14  C   UNL     1      -3.788  12.028  29.280  0.00  0.00    +0.143 C 
ATOM     15  C   UNL     1      -3.507  10.606  28.793  0.00  0.00    +0.133 C 
BRANCH  15  16
ATOM     16  N   UNL     1      -2.590  10.627  27.642  0.00  0.00    -0.308 N 
ATOM     17  H   UNL     1      -1.627  10.881  27.811  0.00  0.00    +0.149 HD
ATOM     18  C   UNL     1      -2.948  10.333  26.389  0.00  0.00    +0.210 C 
ATOM     19  C   UNL     1      -4.429   9.975  26.161  0.00  0.00    +0.109 C 
ATOM     20  O   UNL     1      -2.155  10.344  25.447  0.00  0.00    -0.276 OA
ENDBRANCH  15  16
BRANCH  12  21
ATOM     21  C   UNL     1      -2.839  11.761  32.256  0.00  0.00    +0.414 C 
ATOM     22  O   UNL     1      -1.820  11.100  32.452  0.00  0.00    -0.240 OA
ATOM     23  O   UNL     1      -2.848  12.956  32.554  0.00  0.00    -0.240 OA
ENDBRANCH  12  21
BRANCH  14  24
ATOM     24  O   UNL     1      -4.437  12.762  28.241  0.00  0.00    -0.390 OA
ATOM     25  H   UNL     1      -4.470  12.228  27.444  0.00  0.00    +0.210 HD
ENDBRANCH  14  24
BRANCH  12  26
ATOM     26  O   UNL     1      -5.099  10.917  32.671  0.00  0.00    -0.343 OA
ATOM     27  C   UNL     1      -5.218   9.564  33.179  0.00  0.00    +0.198 C 
ENDBRANCH  12  26
ENDBRANCH   9  10
BRANCH   9  28
ATOM     28  O   UNL     1      -1.435   8.267  28.682  0.00  0.00    -0.387 OA
ATOM     29  H   UNL     1      -1.724   7.948  27.824  0.00  0.00    +0.210 HD
ENDBRANCH   9  28
ENDBRANCH   6   9
ENDBRANCH   5   6
ENDBRANCH   3   5
BRANCH   1  30
ATOM     30  O   UNL     1      -3.330   6.251  24.651  0.00  0.00    -0.444 OA
BRANCH  30  31
ATOM     31  C   UNL     1      -4.742   6.472  24.604  0.00  0.00    +0.292 C 
BRANCH  31  33
ATOM     32  N   UNL     1      -6.308   8.200  23.791  0.00  0.00    -0.131 NA
ATOM     33  C   UNL     1      -5.053   7.673  23.803  0.00  0.00    +0.121 A 
ATOM     34  C   UNL     1      -4.239   8.443  23.004  0.00  0.00    +0.143 A 
ATOM     35  N   UNL     1      -5.057   9.422  22.476  0.00  0.00    -0.218 N 
ATOM     36  N   UNL     1      -6.302   9.256  22.991  0.00  0.00    -0.060 NA
BRANCH  35  37
ATOM     37  C   UNL     1      -4.751  10.460  21.544  0.00  0.00    +0.085 A 
ATOM     38  C   UNL     1      -4.867  10.220  20.127  0.00  0.00    +0.026 A 
ATOM     39  C   UNL     1      -4.517  11.302  19.296  0.00  0.00    +0.074 A 
ATOM     40  C   UNL     1      -4.587  11.189  17.915  0.00  0.00    +0.028 A 
ATOM     41  C   UNL     1      -5.007  10.023  17.286  0.00  0.00    +0.002 A 
ATOM     42  C   UNL     1      -5.394   8.948  18.061  0.00  0.00    +0.001 A 
ATOM     43  N   UNL     1      -4.125  12.489  19.750  0.00  0.00    -0.247 NA
ATOM     44  C   UNL     1      -4.046  12.717  21.060  0.00  0.00    +0.074 A 
ATOM     45  C   UNL     1      -3.624  13.991  21.424  0.00  0.00    +0.028 A 
ATOM     46  C   UNL     1      -3.457  14.368  22.753  0.00  0.00    +0.002 A 
ATOM     47  C   UNL     1      -3.707  13.443  23.747  0.00  0.00    +0.001 A 
ATOM     48  C   UNL     1      -4.127  12.155  23.398  0.00  0.00    +0.012 A 
ATOM     49  C   UNL     1      -5.346   9.051  19.456  0.00  0.00    +0.012 A 
ATOM     50  C   UNL     1      -4.332  11.751  22.039  0.00  0.00    +0.026 A 
ENDBRANCH  35  37
ENDBRANCH  31  33
ENDBRANCH  30  31
ENDBRANCH   1  30
TORSDOF 14
