REMARK VINA RESULT:    -4.299      3.875      9.410
REMARK INTER + INTRA:         -11.187
REMARK INTER:                  -8.305
REMARK INTRA:                  -2.882
REMARK UNBOUND:                -3.243
REMARK  Name = lig_assembled_78.pdb
REMARK  18 active torsions:
REMARK  status: ('A' for Active; 'I' for Inactive)
REMARK    1  A    between atoms: _2  and  _9
REMARK    2  A    between atoms: _4  and  _21
REMARK    3  A    between atoms: _6  and  _7
REMARK    4  A    between atoms: _6  and  _21
REMARK    5  A    between atoms: _9  and  _41
REMARK    6  A    between atoms: _10  and  _41
REMARK    7  A    between atoms: _17  and  _37
REMARK    8  A    between atoms: _19  and  _25
REMARK    9  A    between atoms: _20  and  _24
REMARK   10  A    between atoms: _24  and  _25
REMARK   11  A    between atoms: _27  and  _28
REMARK   12  A    between atoms: _29  and  _30
REMARK   13  A    between atoms: _31  and  _33
REMARK   14  A    between atoms: _33  and  _34
REMARK   15  A    between atoms: _33  and  _35
REMARK   16  A    between atoms: _35  and  _36
REMARK   17  A    between atoms: _35  and  _37
REMARK   18  A    between atoms: _38  and  _40
REMARK                            x       y       z     vdW  Elec       q    Type
REMARK                         _______ _______ _______ _____ _____    ______ ____
ROOT
ATOM      1  C   UNL     1      -6.153   8.376  24.290  0.00  0.00    +0.163 C 
ENDROOT
BRANCH   1   2
ATOM      2  O   UNL     1      -6.070   8.923  25.616  0.00  0.00    -0.388 OA
ATOM      3  H   UNL     1      -6.404   9.824  25.613  0.00  0.00    +0.210 HD
ENDBRANCH   1   2
BRANCH   1   4
ATOM      4  C   UNL     1      -6.226   9.494  23.237  0.00  0.00    +0.175 C 
BRANCH   4   5
ATOM      5  C   UNL     1      -5.063  10.489  23.368  0.00  0.00    +0.176 C 
ATOM      6  O   UNL     1      -5.381  11.409  24.448  0.00  0.00    -0.332 OA
ATOM      7  C   UNL     1      -4.331  12.372  24.791  0.00  0.00    +0.277 C 
ATOM      8  C   UNL     1      -3.896  13.168  23.535  0.00  0.00    +0.110 C 
ATOM      9  C   UNL     1      -3.577  12.233  22.350  0.00  0.00    +0.143 C 
ATOM     10  C   UNL     1      -4.736  11.272  22.083  0.00  0.00    +0.133 C 
BRANCH  10  11
ATOM     11  N   UNL     1      -4.386  10.329  21.009  0.00  0.00    -0.308 N 
ATOM     12  H   UNL     1      -3.587   9.727  21.151  0.00  0.00    +0.149 HD
ATOM     13  C   UNL     1      -5.056  10.217  19.858  0.00  0.00    +0.210 C 
ATOM     14  C   UNL     1      -6.252  11.166  19.661  0.00  0.00    +0.109 C 
ATOM     15  O   UNL     1      -4.748   9.407  18.982  0.00  0.00    -0.276 OA
ENDBRANCH  10  11
BRANCH   7  16
ATOM     16  C   UNL     1      -3.106  11.654  25.395  0.00  0.00    +0.414 C 
ATOM     17  O   UNL     1      -1.997  12.185  25.362  0.00  0.00    -0.240 OA
ATOM     18  O   UNL     1      -3.228  10.544  25.915  0.00  0.00    -0.240 OA
ENDBRANCH   7  16
BRANCH   7  19
ATOM     19  O   UNL     1      -4.876  13.306  25.758  0.00  0.00    -0.343 OA
ATOM     20  C   UNL     1      -6.057  14.023  25.319  0.00  0.00    +0.198 C 
ENDBRANCH   7  19
BRANCH   9  21
ATOM     21  O   UNL     1      -3.330  13.009  21.177  0.00  0.00    -0.390 OA
ATOM     22  H   UNL     1      -2.932  13.847  21.425  0.00  0.00    +0.210 HD
ENDBRANCH   9  21
ENDBRANCH   4   5
BRANCH   4  23
ATOM     23  O   UNL     1      -7.486  10.188  23.335  0.00  0.00    -0.387 OA
ATOM     24  H   UNL     1      -7.400  11.065  22.954  0.00  0.00    +0.210 HD
ENDBRANCH   4  23
ENDBRANCH   1   4
BRANCH   1  25
ATOM     25  C   UNL     1      -4.941   7.493  24.013  0.00  0.00    +0.141 C 
BRANCH  25  28
ATOM     26  C   UNL     1      -2.845   6.851  25.154  0.00  0.00    +0.401 C 
ATOM     27  O   UNL     1      -2.645   5.868  24.437  0.00  0.00    -0.226 OA
ATOM     28  N   UNL     1      -3.896   7.662  25.031  0.00  0.00    -0.279 N 
ATOM     29  H   UNL     1      -3.979   8.437  25.674  0.00  0.00    +0.152 HD
BRANCH  26  30
ATOM     30  O   UNL     1      -1.909   7.156  26.191  0.00  0.00    -0.444 OA
BRANCH  30  31
ATOM     31  C   UNL     1      -2.201   6.364  27.346  0.00  0.00    +0.292 C 
BRANCH  31  33
ATOM     32  N   UNL     1      -3.545   6.832  29.375  0.00  0.00    -0.131 NA
ATOM     33  C   UNL     1      -2.592   7.229  28.475  0.00  0.00    +0.120 A 
ATOM     34  C   UNL     1      -2.133   8.478  28.828  0.00  0.00    +0.139 A 
ATOM     35  N   UNL     1      -2.801   8.759  29.983  0.00  0.00    -0.230 N 
ATOM     36  N   UNL     1      -3.683   7.789  30.283  0.00  0.00    -0.064 NA
BRANCH  35  37
ATOM     37  C   UNL     1      -2.724   9.942  30.804  0.00  0.00    +0.316 C 
BRANCH  37  38
ATOM     38  S   UNL     1      -3.890  11.199  30.349  0.00  0.00    +0.017 S 
ATOM     39  O   UNL     1      -3.646  11.630  28.987  0.00  0.00    -0.168 OA
ATOM     40  O   UNL     1      -5.210  10.757  30.766  0.00  0.00    -0.168 OA
BRANCH  38  41
ATOM     41  C   UNL     1      -3.458  12.585  31.381  0.00  0.00    +0.090 A 
ATOM     42  C   UNL     1      -2.612  12.383  32.476  0.00  0.00    +0.027 A 
ATOM     43  C   UNL     1      -2.251  13.470  33.271  0.00  0.00    +0.002 A 
ATOM     44  C   UNL     1      -2.717  14.749  32.961  0.00  0.00    +0.000 A 
ATOM     45  C   UNL     1      -3.544  14.947  31.856  0.00  0.00    +0.002 A 
ATOM     46  C   UNL     1      -3.920  13.865  31.059  0.00  0.00    +0.027 A 
ENDBRANCH  38  41
ENDBRANCH  37  38
ENDBRANCH  35  37
ENDBRANCH  31  33
ENDBRANCH  30  31
ENDBRANCH  26  30
ENDBRANCH  25  28
ENDBRANCH   1  25
TORSDOF 16
