REMARK VINA RESULT:    -4.934      3.343      5.975
REMARK INTER + INTRA:         -11.407
REMARK INTER:                  -9.397
REMARK INTRA:                  -2.010
REMARK UNBOUND:                -2.867
REMARK  Name = lig_assembled_70.pdb
REMARK  16 active torsions:
REMARK  status: ('A' for Active; 'I' for Inactive)
REMARK    1  A    between atoms: _2  and  _10
REMARK    2  A    between atoms: _5  and  _22
REMARK    3  A    between atoms: _7  and  _8
REMARK    4  A    between atoms: _7  and  _22
REMARK    5  A    between atoms: _18  and  _38
REMARK    6  A    between atoms: _20  and  _26
REMARK    7  A    between atoms: _21  and  _25
REMARK    8  A    between atoms: _25  and  _26
REMARK    9  A    between atoms: _28  and  _29
REMARK   10  A    between atoms: _30  and  _31
REMARK   11  A    between atoms: _32  and  _34
REMARK   12  A    between atoms: _34  and  _35
REMARK   13  A    between atoms: _34  and  _36
REMARK   14  A    between atoms: _36  and  _37
REMARK   15  A    between atoms: _36  and  _38
REMARK   16  A    between atoms: _39  and  _41
REMARK                            x       y       z     vdW  Elec       q    Type
REMARK                         _______ _______ _______ _____ _____    ______ ____
ROOT
ATOM      1  C   UNL     1      -2.969  11.744  22.048  0.00  0.00    +0.163 C 
ENDROOT
BRANCH   1   2
ATOM      2  O   UNL     1      -2.887  13.100  21.579  0.00  0.00    -0.388 OA
ATOM      3  H   UNL     1      -2.412  13.122  20.745  0.00  0.00    +0.210 HD
ENDBRANCH   1   2
BRANCH   1   4
ATOM      4  C   UNL     1      -4.105  11.014  21.339  0.00  0.00    +0.141 C 
BRANCH   4   7
ATOM      5  C   UNL     1      -5.061  11.317  19.080  0.00  0.00    +0.401 C 
ATOM      6  O   UNL     1      -4.959  10.126  18.775  0.00  0.00    -0.226 OA
ATOM      7  N   UNL     1      -4.681  11.820  20.255  0.00  0.00    -0.279 N 
ATOM      8  H   UNL     1      -4.795  12.813  20.408  0.00  0.00    +0.152 HD
BRANCH   5   9
ATOM      9  O   UNL     1      -5.613  12.232  18.131  0.00  0.00    -0.444 OA
BRANCH   9  10
ATOM     10  C   UNL     1      -5.970  11.527  16.939  0.00  0.00    +0.292 C 
BRANCH  10  12
ATOM     11  N   UNL     1      -5.948  13.047  14.981  0.00  0.00    -0.131 NA
ATOM     12  C   UNL     1      -5.310  12.129  15.766  0.00  0.00    +0.121 A 
ATOM     13  C   UNL     1      -4.046  11.916  15.269  0.00  0.00    +0.143 A 
ATOM     14  N   UNL     1      -3.949  12.745  14.175  0.00  0.00    -0.218 N 
ATOM     15  N   UNL     1      -5.116  13.410  14.012  0.00  0.00    -0.060 NA
BRANCH  14  16
ATOM     16  C   UNL     1      -2.842  12.946  13.324  0.00  0.00    +0.086 A 
ATOM     17  C   UNL     1      -2.557  12.041  12.315  0.00  0.00    +0.139 A 
ATOM     18  N   UNL     1      -1.536  12.197  11.433  0.00  0.00    -0.253 NA
ATOM     19  C   UNL     1      -0.763  13.293  11.538  0.00  0.00    +0.071 A 
ATOM     20  C   UNL     1      -0.968  14.260  12.545  0.00  0.00    +0.002 A 
ATOM     21  C   UNL     1      -0.141  15.394  12.623  0.00  0.00    +0.010 A 
ATOM     22  C   UNL     1       0.879  15.586  11.695  0.00  0.00    +0.001 A 
ATOM     23  C   UNL     1       1.081  14.641  10.696  0.00  0.00    +0.002 A 
ATOM     24  C   UNL     1       0.267  13.505  10.632  0.00  0.00    +0.028 A 
ATOM     25  C   UNL     1      -2.020  14.067  13.449  0.00  0.00    +0.039 A 
ENDBRANCH  14  16
ENDBRANCH  10  12
ENDBRANCH   9  10
ENDBRANCH   5   9
ENDBRANCH   4   7
ENDBRANCH   1   4
BRANCH   1  26
ATOM     26  C   UNL     1      -3.200  11.700  23.568  0.00  0.00    +0.175 C 
BRANCH  26  27
ATOM     27  C   UNL     1      -4.563  12.287  23.962  0.00  0.00    +0.176 C 
ATOM     28  O   UNL     1      -4.578  13.687  23.570  0.00  0.00    -0.332 OA
ATOM     29  C   UNL     1      -5.849  14.389  23.774  0.00  0.00    +0.277 C 
ATOM     30  C   UNL     1      -6.312  14.253  25.245  0.00  0.00    +0.110 C 
ATOM     31  C   UNL     1      -6.282  12.784  25.718  0.00  0.00    +0.143 C 
ATOM     32  C   UNL     1      -4.916  12.151  25.455  0.00  0.00    +0.133 C 
BRANCH  32  33
ATOM     33  N   UNL     1      -4.927  10.728  25.830  0.00  0.00    -0.308 N 
ATOM     34  H   UNL     1      -5.601  10.127  25.379  0.00  0.00    +0.149 HD
ATOM     35  C   UNL     1      -4.104  10.180  26.728  0.00  0.00    +0.210 C 
ATOM     36  C   UNL     1      -3.105  11.128  27.418  0.00  0.00    +0.109 C 
ATOM     37  O   UNL     1      -4.126   8.982  27.012  0.00  0.00    -0.276 OA
ENDBRANCH  32  33
BRANCH  29  38
ATOM     38  C   UNL     1      -6.939  13.829  22.836  0.00  0.00    +0.414 C 
ATOM     39  O   UNL     1      -8.120  13.840  23.183  0.00  0.00    -0.240 OA
ATOM     40  O   UNL     1      -6.639  13.368  21.734  0.00  0.00    -0.240 OA
ENDBRANCH  29  38
BRANCH  31  41
ATOM     41  O   UNL     1      -6.569  12.723  27.116  0.00  0.00    -0.390 OA
ATOM     42  H   UNL     1      -7.103  11.946  27.300  0.00  0.00    +0.210 HD
ENDBRANCH  31  41
BRANCH  29  43
ATOM     43  O   UNL     1      -5.635  15.795  23.489  0.00  0.00    -0.343 OA
ATOM     44  C   UNL     1      -4.723  16.067  22.395  0.00  0.00    +0.198 C 
ENDBRANCH  29  43
ENDBRANCH  26  27
BRANCH  26  45
ATOM     45  O   UNL     1      -2.141  12.401  24.252  0.00  0.00    -0.387 OA
ATOM     46  H   UNL     1      -1.293  12.119  23.902  0.00  0.00    +0.210 HD
ENDBRANCH  26  45
ENDBRANCH   1  26
TORSDOF 14
