REMARK VINA RESULT:    -4.580      3.847      9.473
REMARK INTER + INTRA:         -13.054
REMARK INTER:                  -8.039
REMARK INTRA:                  -5.014
REMARK UNBOUND:                -3.788
REMARK  Name = lig_assembled_81.pdb
REMARK  22 active torsions:
REMARK  status: ('A' for Active; 'I' for Inactive)
REMARK    1  A    between atoms: _2  and  _12
REMARK    2  A    between atoms: _7  and  _30
REMARK    3  A    between atoms: _8  and  _24
REMARK    4  A    between atoms: _9  and  _10
REMARK    5  A    between atoms: _9  and  _30
REMARK    6  A    between atoms: _14  and  _15
REMARK    7  A    between atoms: _21  and  _22
REMARK    8  A    between atoms: _22  and  _23
REMARK    9  A    between atoms: _23  and  _25
REMARK   10  A    between atoms: _24  and  _25
REMARK   11  A    between atoms: _26  and  _46
REMARK   12  A    between atoms: _28  and  _34
REMARK   13  A    between atoms: _29  and  _33
REMARK   14  A    between atoms: _33  and  _34
REMARK   15  A    between atoms: _36  and  _37
REMARK   16  A    between atoms: _38  and  _39
REMARK   17  A    between atoms: _40  and  _42
REMARK   18  A    between atoms: _42  and  _43
REMARK   19  A    between atoms: _42  and  _44
REMARK   20  A    between atoms: _44  and  _45
REMARK   21  A    between atoms: _44  and  _46
REMARK   22  A    between atoms: _47  and  _49
REMARK                            x       y       z     vdW  Elec       q    Type
REMARK                         _______ _______ _______ _____ _____    ______ ____
ROOT
ATOM      1  C   UNL     1      -3.988  14.628  31.780  0.00  0.00    +0.401 C 
ATOM      2  O   UNL     1      -2.949  15.288  31.856  0.00  0.00    -0.226 OA
ATOM      3  N   UNL     1      -4.091  13.354  32.159  0.00  0.00    -0.279 N 
ATOM      4  H   UNL     1      -4.989  12.900  32.066  0.00  0.00    +0.152 HD
ENDROOT
BRANCH   1   5
ATOM      5  O   UNL     1      -5.168  15.248  31.261  0.00  0.00    -0.444 OA
BRANCH   5   6
ATOM      6  C   UNL     1      -6.142  14.244  30.961  0.00  0.00    +0.289 C 
BRANCH   6   8
ATOM      7  N   UNL     1      -7.865  14.312  29.217  0.00  0.00    -0.130 NA
ATOM      8  C   UNL     1      -6.541  14.326  29.541  0.00  0.00    +0.100 C 
ATOM      9  C   UNL     1      -5.802  14.389  28.375  0.00  0.00    +0.124 C 
ATOM     10  N   UNL     1      -6.744  14.556  27.369  0.00  0.00    -0.187 N 
ATOM     11  N   UNL     1      -7.960  14.313  27.899  0.00  0.00    -0.010 NA
BRANCH  10  12
ATOM     12  C   UNL     1      -6.515  14.729  25.963  0.00  0.00    +0.150 A 
ATOM     13  C   UNL     1      -5.876  13.796  25.109  0.00  0.00    +0.022 A 
ATOM     14  C   UNL     1      -5.717  14.271  23.780  0.00  0.00    +0.081 A 
ATOM     15  N   UNL     1      -6.085  15.531  23.422  0.00  0.00    -0.214 NA
ATOM     16  C   UNL     1      -6.649  16.322  24.319  0.00  0.00    +0.215 A 
ATOM     17  N   UNL     1      -6.930  17.619  23.961  0.00  0.00    -0.327 N 
ATOM     18  H   UNL     1      -7.005  17.714  22.959  0.00  0.00    +0.145 HD
ATOM     19  H   UNL     1      -7.645  18.023  24.546  0.00  0.00    +0.145 HD
ATOM     20  N   UNL     1      -6.964  15.943  25.542  0.00  0.00    -0.198 NA
BRANCH  14  21
ATOM     21  C   UNL     1      -5.127  13.539  22.595  0.00  0.00    +0.001 A 
ATOM     22  C   UNL     1      -5.871  12.953  21.555  0.00  0.00    +0.010 A 
ATOM     23  C   UNL     1      -5.264  12.296  20.471  0.00  0.00    +0.001 A 
ATOM     24  C   UNL     1      -3.888  12.255  20.354  0.00  0.00    +0.000 A 
ATOM     25  C   UNL     1      -3.107  12.870  21.330  0.00  0.00    +0.001 A 
ATOM     26  C   UNL     1      -3.722  13.486  22.430  0.00  0.00    +0.010 A 
ENDBRANCH  14  21
BRANCH  13  27
ATOM     27  C   UNL     1      -5.456  12.354  25.412  0.00  0.00    +0.069 C 
BRANCH  27  28
ATOM     28  C   UNL     1      -4.094  12.040  25.998  0.00  0.00    +0.164 C 
BRANCH  28  29
ATOM     29  O   UNL     1      -4.053  11.013  26.996  0.00  0.00    -0.380 OA
BRANCH  29  30
ATOM     30  C   UNL     1      -3.308   9.921  26.421  0.00  0.00    +0.156 C 
ATOM     31  C   UNL     1      -1.826  10.054  26.687  0.00  0.00    +0.034 C 
ENDBRANCH  29  30
ENDBRANCH  28  29
ENDBRANCH  27  28
ENDBRANCH  13  27
ENDBRANCH  10  12
ENDBRANCH   6   8
ENDBRANCH   5   6
ENDBRANCH   1   5
BRANCH   3  32
ATOM     32  C   UNL     1      -2.973  12.573  32.702  0.00  0.00    +0.141 C 
BRANCH  32  33
ATOM     33  C   UNL     1      -2.671  11.344  31.851  0.00  0.00    +0.163 C 
BRANCH  33  34
ATOM     34  O   UNL     1      -2.494  10.194  32.694  0.00  0.00    -0.388 OA
ATOM     35  H   UNL     1      -2.505   9.398  32.157  0.00  0.00    +0.210 HD
ENDBRANCH  33  34
BRANCH  33  36
ATOM     36  C   UNL     1      -3.816  11.119  30.848  0.00  0.00    +0.175 C 
BRANCH  36  37
ATOM     37  C   UNL     1      -4.113   9.628  30.635  0.00  0.00    +0.176 C 
ATOM     38  O   UNL     1      -2.941   9.021  30.025  0.00  0.00    -0.332 OA
ATOM     39  C   UNL     1      -3.002   7.568  29.842  0.00  0.00    +0.277 C 
ATOM     40  C   UNL     1      -4.270   7.176  29.044  0.00  0.00    +0.110 C 
ATOM     41  C   UNL     1      -5.539   7.823  29.637  0.00  0.00    +0.143 C 
ATOM     42  C   UNL     1      -5.365   9.335  29.786  0.00  0.00    +0.133 C 
BRANCH  42  43
ATOM     43  N   UNL     1      -6.546   9.928  30.432  0.00  0.00    -0.308 N 
ATOM     44  H   UNL     1      -6.681   9.756  31.419  0.00  0.00    +0.149 HD
ATOM     45  C   UNL     1      -7.452  10.680  29.800  0.00  0.00    +0.210 C 
ATOM     46  C   UNL     1      -7.231  10.903  28.292  0.00  0.00    +0.109 C 
ATOM     47  O   UNL     1      -8.424  11.176  30.370  0.00  0.00    -0.276 OA
ENDBRANCH  42  43
BRANCH  39  48
ATOM     48  C   UNL     1      -3.007   6.845  31.205  0.00  0.00    +0.414 C 
ATOM     49  O   UNL     1      -3.329   5.659  31.277  0.00  0.00    -0.240 OA
ATOM     50  O   UNL     1      -2.688   7.446  32.231  0.00  0.00    -0.240 OA
ENDBRANCH  39  48
BRANCH  39  51
ATOM     51  O   UNL     1      -1.837   7.162  29.078  0.00  0.00    -0.343 OA
ATOM     52  C   UNL     1      -2.127   6.405  27.875  0.00  0.00    +0.198 C 
ENDBRANCH  39  51
BRANCH  41  53
ATOM     53  O   UNL     1      -6.656   7.560  28.787  0.00  0.00    -0.390 OA
ATOM     54  H   UNL     1      -7.438   7.988  29.143  0.00  0.00    +0.210 HD
ENDBRANCH  41  53
ENDBRANCH  36  37
BRANCH  36  55
ATOM     55  O   UNL     1      -3.504  11.748  29.589  0.00  0.00    -0.387 OA
ATOM     56  H   UNL     1      -3.781  11.178  28.869  0.00  0.00    +0.210 HD
ENDBRANCH  36  55
ENDBRANCH  33  36
ENDBRANCH  32  33
ENDBRANCH   3  32
TORSDOF 19
