REMARK VINA RESULT:    -4.410      4.117      9.232
REMARK INTER + INTRA:         -14.085
REMARK INTER:                  -9.996
REMARK INTRA:                  -4.088
REMARK UNBOUND:                -3.746
REMARK  Name = lig_assembled_30.pdb
REMARK  27 active torsions:
REMARK  status: ('A' for Active; 'I' for Inactive)
REMARK    1  A    between atoms: _2  and  _9
REMARK    2  A    between atoms: _4  and  _25
REMARK    3  A    between atoms: _5  and  _18
REMARK    4  A    between atoms: _5  and  _19
REMARK    5  A    between atoms: _6  and  _7
REMARK    6  A    between atoms: _6  and  _25
REMARK    7  A    between atoms: _9  and  _10
REMARK    8  A    between atoms: _10  and  _11
REMARK    9  A    between atoms: _11  and  _12
REMARK   10  A    between atoms: _12  and  _13
REMARK   11  A    between atoms: _13  and  _14
REMARK   12  A    between atoms: _14  and  _15
REMARK   13  A    between atoms: _15  and  _16
REMARK   14  A    between atoms: _16  and  _17
REMARK   15  A    between atoms: _17  and  _18
REMARK   16  A    between atoms: _21  and  _41
REMARK   17  A    between atoms: _23  and  _29
REMARK   18  A    between atoms: _24  and  _28
REMARK   19  A    between atoms: _28  and  _29
REMARK   20  A    between atoms: _31  and  _32
REMARK   21  A    between atoms: _33  and  _34
REMARK   22  A    between atoms: _35  and  _37
REMARK   23  A    between atoms: _37  and  _38
REMARK   24  A    between atoms: _37  and  _39
REMARK   25  A    between atoms: _39  and  _40
REMARK   26  A    between atoms: _39  and  _41
REMARK   27  A    between atoms: _42  and  _44
REMARK                            x       y       z     vdW  Elec       q    Type
REMARK                         _______ _______ _______ _____ _____    ______ ____
ROOT
ATOM      1  C   UNL     1      -2.949  14.478  32.504  0.00  0.00    +0.401 C 
ATOM      2  O   UNL     1      -1.848  13.928  32.582  0.00  0.00    -0.226 OA
ATOM      3  N   UNL     1      -4.111  13.823  32.501  0.00  0.00    -0.279 N 
ATOM      4  H   UNL     1      -4.963  14.364  32.444  0.00  0.00    +0.152 HD
ENDROOT
BRANCH   1   5
ATOM      5  O   UNL     1      -3.008  15.904  32.415  0.00  0.00    -0.444 OA
BRANCH   5   6
ATOM      6  C   UNL     1      -4.364  16.336  32.560  0.00  0.00    +0.292 C 
BRANCH   6   8
ATOM      7  N   UNL     1      -5.572  15.783  30.472  0.00  0.00    -0.131 NA
ATOM      8  C   UNL     1      -4.926  16.708  31.249  0.00  0.00    +0.120 A 
ATOM      9  C   UNL     1      -4.921  17.921  30.597  0.00  0.00    +0.137 A 
ATOM     10  N   UNL     1      -5.577  17.665  29.432  0.00  0.00    -0.251 N 
ATOM     11  N   UNL     1      -5.966  16.383  29.356  0.00  0.00    -0.065 NA
BRANCH  10  12
ATOM     12  C   UNL     1      -5.830  18.576  28.336  0.00  0.00    +0.145 C 
BRANCH  12  13
ATOM     13  C   UNL     1      -6.888  18.020  27.390  0.00  0.00    +0.023 C 
BRANCH  13  14
ATOM     14  C   UNL     1      -6.689  18.511  25.957  0.00  0.00    +0.002 C 
BRANCH  14  15
ATOM     15  C   UNL     1      -6.870  17.355  24.974  0.00  0.00    +0.000 C 
BRANCH  15  16
ATOM     16  C   UNL     1      -6.977  16.012  25.691  0.00  0.00    +0.000 C 
BRANCH  16  17
ATOM     17  C   UNL     1      -6.778  14.856  24.710  0.00  0.00    +0.000 C 
BRANCH  17  18
ATOM     18  C   UNL     1      -5.707  13.892  25.214  0.00  0.00    +0.000 C 
BRANCH  18  19
ATOM     19  C   UNL     1      -5.556  12.684  24.289  0.00  0.00    +0.001 C 
BRANCH  19  20
ATOM     20  C   UNL     1      -4.803  13.075  23.019  0.00  0.00    +0.011 C 
BRANCH  20  21
ATOM     21  C   UNL     1      -3.297  13.163  23.253  0.00  0.00    +0.120 C 
BRANCH  21  22
ATOM     22  C   UNL     1      -2.793  11.987  24.058  0.00  0.00    +0.305 C 
ATOM     23  O   UNL     1      -2.805  10.822  23.693  0.00  0.00    -0.251 OA
BRANCH  22  24
ATOM     24  O   UNL     1      -2.309  12.359  25.265  0.00  0.00    -0.481 OA
ATOM     25  H   UNL     1      -2.793  11.970  26.018  0.00  0.00    +0.295 HD
ENDBRANCH  22  24
ENDBRANCH  21  22
ENDBRANCH  20  21
ENDBRANCH  19  20
ENDBRANCH  18  19
ENDBRANCH  17  18
ENDBRANCH  16  17
ENDBRANCH  15  16
ENDBRANCH  14  15
ENDBRANCH  13  14
ENDBRANCH  12  13
ENDBRANCH  10  12
ENDBRANCH   6   8
ENDBRANCH   5   6
ENDBRANCH   1   5
BRANCH   3  26
ATOM     26  C   UNL     1      -4.222  12.362  32.577  0.00  0.00    +0.141 C 
BRANCH  26  27
ATOM     27  C   UNL     1      -4.334  11.728  31.194  0.00  0.00    +0.163 C 
BRANCH  27  28
ATOM     28  O   UNL     1      -5.005  12.625  30.295  0.00  0.00    -0.388 OA
ATOM     29  H   UNL     1      -5.778  12.994  30.729  0.00  0.00    +0.210 HD
ENDBRANCH  27  28
BRANCH  27  30
ATOM     30  C   UNL     1      -2.929  11.377  30.675  0.00  0.00    +0.175 C 
BRANCH  30  31
ATOM     31  C   UNL     1      -2.944  10.154  29.747  0.00  0.00    +0.176 C 
ATOM     32  O   UNL     1      -3.525  10.563  28.477  0.00  0.00    -0.332 OA
ATOM     33  C   UNL     1      -3.525   9.544  27.423  0.00  0.00    +0.277 C 
ATOM     34  C   UNL     1      -4.214   8.250  27.921  0.00  0.00    +0.110 C 
ATOM     35  C   UNL     1      -3.652   7.794  29.284  0.00  0.00    +0.143 C 
ATOM     36  C   UNL     1      -3.697   8.931  30.304  0.00  0.00    +0.133 C 
BRANCH  36  37
ATOM     37  N   UNL     1      -3.079   8.511  31.572  0.00  0.00    -0.308 N 
ATOM     38  H   UNL     1      -2.079   8.366  31.585  0.00  0.00    +0.149 HD
ATOM     39  C   UNL     1      -3.754   8.307  32.707  0.00  0.00    +0.210 C 
ATOM     40  C   UNL     1      -5.279   8.510  32.648  0.00  0.00    +0.109 C 
ATOM     41  O   UNL     1      -3.208   7.969  33.758  0.00  0.00    -0.276 OA
ENDBRANCH  36  37
BRANCH  33  42
ATOM     42  C   UNL     1      -2.085   9.221  26.974  0.00  0.00    +0.414 C 
ATOM     43  O   UNL     1      -1.226  10.102  26.964  0.00  0.00    -0.240 OA
ATOM     44  O   UNL     1      -1.781   8.080  26.623  0.00  0.00    -0.240 OA
ENDBRANCH  33  42
BRANCH  35  45
ATOM     45  O   UNL     1      -4.415   6.691  29.775  0.00  0.00    -0.390 OA
ATOM     46  H   UNL     1      -4.892   6.282  29.048  0.00  0.00    +0.210 HD
ENDBRANCH  35  45
BRANCH  33  47
ATOM     47  O   UNL     1      -4.282  10.062  26.299  0.00  0.00    -0.343 OA
ATOM     48  C   UNL     1      -5.299   9.167  25.781  0.00  0.00    +0.198 C 
ENDBRANCH  33  47
ENDBRANCH  30  31
BRANCH  30  49
ATOM     49  O   UNL     1      -2.033  11.150  31.781  0.00  0.00    -0.387 OA
ATOM     50  H   UNL     1      -2.227  11.774  32.484  0.00  0.00    +0.210 HD
ENDBRANCH  30  49
ENDBRANCH  27  30
ENDBRANCH  26  27
ENDBRANCH   3  26
TORSDOF 25
