REMARK VINA RESULT:    -4.032      2.500      6.760
REMARK INTER + INTRA:         -10.816
REMARK INTER:                  -7.287
REMARK INTRA:                  -3.529
REMARK UNBOUND:                -2.894
REMARK  Name = lig_assembled_17.pdb
REMARK  22 active torsions:
REMARK  status: ('A' for Active; 'I' for Inactive)
REMARK    1  A    between atoms: _2  and  _10
REMARK    2  A    between atoms: _3  and  _11
REMARK    3  A    between atoms: _3  and  _12
REMARK    4  A    between atoms: _3  and  _14
REMARK    5  A    between atoms: _5  and  _19
REMARK    6  A    between atoms: _6  and  _14
REMARK    7  A    between atoms: _7  and  _8
REMARK    8  A    between atoms: _7  and  _19
REMARK    9  A    between atoms: _10  and  _11
REMARK   10  A    between atoms: _12  and  _13
REMARK   11  A    between atoms: _15  and  _35
REMARK   12  A    between atoms: _17  and  _23
REMARK   13  A    between atoms: _18  and  _22
REMARK   14  A    between atoms: _22  and  _23
REMARK   15  A    between atoms: _25  and  _26
REMARK   16  A    between atoms: _27  and  _28
REMARK   17  A    between atoms: _29  and  _31
REMARK   18  A    between atoms: _31  and  _32
REMARK   19  A    between atoms: _31  and  _33
REMARK   20  A    between atoms: _33  and  _34
REMARK   21  A    between atoms: _33  and  _35
REMARK   22  A    between atoms: _36  and  _38
REMARK                            x       y       z     vdW  Elec       q    Type
REMARK                         _______ _______ _______ _____ _____    ______ ____
ROOT
ATOM      1  C   UNL     1      -4.242   8.040  28.903  0.00  0.00    +0.163 C 
ENDROOT
BRANCH   1   2
ATOM      2  O   UNL     1      -5.148   7.705  29.968  0.00  0.00    -0.388 OA
ATOM      3  H   UNL     1      -4.674   7.701  30.803  0.00  0.00    +0.210 HD
ENDBRANCH   1   2
BRANCH   1   4
ATOM      4  C   UNL     1      -2.960   8.688  29.455  0.00  0.00    +0.175 C 
BRANCH   4   5
ATOM      5  C   UNL     1      -3.177  10.158  29.844  0.00  0.00    +0.176 C 
ATOM      6  O   UNL     1      -3.917  10.185  31.095  0.00  0.00    -0.332 OA
ATOM      7  C   UNL     1      -4.127  11.513  31.679  0.00  0.00    +0.277 C 
ATOM      8  C   UNL     1      -4.802  12.455  30.652  0.00  0.00    +0.110 C 
ATOM      9  C   UNL     1      -4.068  12.436  29.294  0.00  0.00    +0.143 C 
ATOM     10  C   UNL     1      -3.901  11.005  28.781  0.00  0.00    +0.133 C 
BRANCH  10  11
ATOM     11  N   UNL     1      -3.126  10.993  27.531  0.00  0.00    -0.308 N 
ATOM     12  H   UNL     1      -2.140  11.207  27.586  0.00  0.00    +0.149 HD
ATOM     13  C   UNL     1      -3.639  10.718  26.329  0.00  0.00    +0.210 C 
ATOM     14  C   UNL     1      -5.150  10.422  26.276  0.00  0.00    +0.109 C 
ATOM     15  O   UNL     1      -2.962  10.701  25.300  0.00  0.00    -0.276 OA
ENDBRANCH  10  11
BRANCH   7  16
ATOM     16  C   UNL     1      -2.788  12.126  32.139  0.00  0.00    +0.414 C 
ATOM     17  O   UNL     1      -1.797  11.412  32.287  0.00  0.00    -0.240 OA
ATOM     18  O   UNL     1      -2.699  13.334  32.362  0.00  0.00    -0.240 OA
ENDBRANCH   7  16
BRANCH   9  19
ATOM     19  O   UNL     1      -4.807  13.196  28.337  0.00  0.00    -0.390 OA
ATOM     20  H   UNL     1      -4.924  14.092  28.661  0.00  0.00    +0.210 HD
ENDBRANCH   9  19
BRANCH   7  21
ATOM     21  O   UNL     1      -5.015  11.368  32.818  0.00  0.00    -0.343 OA
ATOM     22  C   UNL     1      -5.505  10.022  33.044  0.00  0.00    +0.198 C 
ENDBRANCH   7  21
ENDBRANCH   4   5
BRANCH   4  23
ATOM     23  O   UNL     1      -1.895   8.582  28.490  0.00  0.00    -0.387 OA
ATOM     24  H   UNL     1      -1.055   8.499  28.948  0.00  0.00    +0.210 HD
ENDBRANCH   4  23
ENDBRANCH   1   4
BRANCH   1  25
ATOM     25  C   UNL     1      -3.879   6.787  28.113  0.00  0.00    +0.141 C 
BRANCH  25  28
ATOM     26  C   UNL     1      -2.932   7.008  25.842  0.00  0.00    +0.401 C 
ATOM     27  O   UNL     1      -1.767   6.840  26.210  0.00  0.00    -0.226 OA
ATOM     28  N   UNL     1      -3.981   7.004  26.665  0.00  0.00    -0.279 N 
ATOM     29  H   UNL     1      -4.898   7.160  26.270  0.00  0.00    +0.152 HD
BRANCH  26  30
ATOM     30  O   UNL     1      -3.198   7.224  24.454  0.00  0.00    -0.444 OA
BRANCH  30  31
ATOM     31  C   UNL     1      -4.611   7.263  24.238  0.00  0.00    +0.292 C 
BRANCH  31  33
ATOM     32  N   UNL     1      -6.260   8.672  23.053  0.00  0.00    -0.131 NA
ATOM     33  C   UNL     1      -4.953   8.341  23.292  0.00  0.00    +0.120 A 
ATOM     34  C   UNL     1      -4.135   9.159  22.545  0.00  0.00    +0.137 A 
ATOM     35  N   UNL     1      -5.006   9.977  21.890  0.00  0.00    -0.250 N 
ATOM     36  N   UNL     1      -6.281   9.676  22.188  0.00  0.00    -0.065 NA
BRANCH  35  37
ATOM     37  C   UNL     1      -4.710  11.087  21.008  0.00  0.00    +0.160 C 
BRANCH  37  38
ATOM     38  C   UNL     1      -5.267  12.397  21.583  0.00  0.00    +0.107 C 
BRANCH  38  39
ATOM     39  N   UNL     1      -4.885  12.707  22.983  0.00  0.00    -0.301 NA
BRANCH  39  40
ATOM     40  C   UNL     1      -3.608  13.437  23.092  0.00  0.00    +0.081 C 
ATOM     41  C   UNL     1      -3.435  14.645  22.176  0.00  0.00    +0.020 C 
ENDBRANCH  39  40
BRANCH  39  42
ATOM     42  C   UNL     1      -6.012  13.398  23.642  0.00  0.00    +0.081 C 
ATOM     43  C   UNL     1      -5.710  13.932  25.038  0.00  0.00    +0.020 C 
ENDBRANCH  39  42
ENDBRANCH  38  39
ENDBRANCH  37  38
ENDBRANCH  35  37
ENDBRANCH  31  33
ENDBRANCH  30  31
ENDBRANCH  26  30
ENDBRANCH  25  28
ENDBRANCH   1  25
TORSDOF 18
