REMARK VINA RESULT:    -3.731      4.396      7.407
REMARK INTER + INTRA:         -10.788
REMARK INTER:                  -6.780
REMARK INTRA:                  -4.008
REMARK UNBOUND:                -3.458
REMARK  Name = lig_assembled_43.pdb
REMARK  20 active torsions:
REMARK  status: ('A' for Active; 'I' for Inactive)
REMARK    1  A    between atoms: _2  and  _9
REMARK    2  A    between atoms: _4  and  _18
REMARK    3  A    between atoms: _6  and  _7
REMARK    4  A    between atoms: _6  and  _18
REMARK    5  A    between atoms: _9  and  _10
REMARK    6  A    between atoms: _10  and  _11
REMARK    7  A    between atoms: _11  and  _12
REMARK    8  A    between atoms: _12  and  _13
REMARK    9  A    between atoms: _14  and  _34
REMARK   10  A    between atoms: _16  and  _22
REMARK   11  A    between atoms: _17  and  _21
REMARK   12  A    between atoms: _21  and  _22
REMARK   13  A    between atoms: _24  and  _25
REMARK   14  A    between atoms: _26  and  _27
REMARK   15  A    between atoms: _28  and  _30
REMARK   16  A    between atoms: _30  and  _31
REMARK   17  A    between atoms: _30  and  _32
REMARK   18  A    between atoms: _32  and  _33
REMARK   19  A    between atoms: _32  and  _34
REMARK   20  A    between atoms: _35  and  _37
REMARK                            x       y       z     vdW  Elec       q    Type
REMARK                         _______ _______ _______ _____ _____    ______ ____
ROOT
ATOM      1  C   UNL     1      -2.818  11.918  23.687  0.00  0.00    +0.163 C 
ENDROOT
BRANCH   1   2
ATOM      2  O   UNL     1      -2.101  12.208  24.898  0.00  0.00    -0.388 OA
ATOM      3  H   UNL     1      -1.728  13.091  24.846  0.00  0.00    +0.210 HD
ENDBRANCH   1   2
BRANCH   1   4
ATOM      4  C   UNL     1      -3.908  10.861  23.933  0.00  0.00    +0.175 C 
BRANCH   4   5
ATOM      5  C   UNL     1      -3.806  10.240  25.334  0.00  0.00    +0.176 C 
ATOM      6  O   UNL     1      -2.991   9.040  25.233  0.00  0.00    -0.332 OA
ATOM      7  C   UNL     1      -2.694   8.367  26.501  0.00  0.00    +0.277 C 
ATOM      8  C   UNL     1      -4.004   8.047  27.263  0.00  0.00    +0.110 C 
ATOM      9  C   UNL     1      -4.919   9.286  27.367  0.00  0.00    +0.143 C 
ATOM     10  C   UNL     1      -5.159   9.909  25.992  0.00  0.00    +0.133 C 
BRANCH  10  11
ATOM     11  N   UNL     1      -5.959  11.137  26.115  0.00  0.00    -0.308 N 
ATOM     12  H   UNL     1      -5.616  11.864  26.726  0.00  0.00    +0.149 HD
ATOM     13  C   UNL     1      -7.110  11.353  25.471  0.00  0.00    +0.210 C 
ATOM     14  C   UNL     1      -7.619  10.214  24.568  0.00  0.00    +0.109 C 
ATOM     15  O   UNL     1      -7.752  12.398  25.582  0.00  0.00    -0.276 OA
ENDBRANCH  10  11
BRANCH   7  16
ATOM     16  C   UNL     1      -1.784   9.243  27.386  0.00  0.00    +0.414 C 
ATOM     17  O   UNL     1      -1.884   9.201  28.612  0.00  0.00    -0.240 OA
ATOM     18  O   UNL     1      -0.950   9.992  26.875  0.00  0.00    -0.240 OA
ENDBRANCH   7  16
BRANCH   9  19
ATOM     19  O   UNL     1      -6.173   8.911  27.939  0.00  0.00    -0.390 OA
ATOM     20  H   UNL     1      -6.638   8.326  27.337  0.00  0.00    +0.210 HD
ENDBRANCH   9  19
BRANCH   7  21
ATOM     21  O   UNL     1      -2.024   7.116  26.199  0.00  0.00    -0.343 OA
ATOM     22  C   UNL     1      -2.854   6.116  25.557  0.00  0.00    +0.198 C 
ENDBRANCH   7  21
ENDBRANCH   4   5
BRANCH   4  23
ATOM     23  O   UNL     1      -3.837   9.831  22.927  0.00  0.00    -0.387 OA
ATOM     24  H   UNL     1      -4.031   8.979  23.326  0.00  0.00    +0.210 HD
ENDBRANCH   4  23
ENDBRANCH   1   4
BRANCH   1  25
ATOM     25  C   UNL     1      -3.457  13.191  23.141  0.00  0.00    +0.141 C 
BRANCH  25  28
ATOM     26  C   UNL     1      -5.528  13.178  21.793  0.00  0.00    +0.401 C 
ATOM     27  O   UNL     1      -6.232  13.628  22.700  0.00  0.00    -0.226 OA
ATOM     28  N   UNL     1      -4.222  12.937  21.914  0.00  0.00    -0.279 N 
ATOM     29  H   UNL     1      -3.731  12.558  21.116  0.00  0.00    +0.152 HD
BRANCH  26  30
ATOM     30  O   UNL     1      -6.127  12.885  20.528  0.00  0.00    -0.444 OA
BRANCH  30  31
ATOM     31  C   UNL     1      -7.141  11.891  20.698  0.00  0.00    +0.292 C 
BRANCH  31  33
ATOM     32  N   UNL     1      -5.272  10.350  20.184  0.00  0.00    -0.131 NA
ATOM     33  C   UNL     1      -6.551  10.541  20.641  0.00  0.00    +0.120 A 
ATOM     34  C   UNL     1      -7.091   9.323  20.987  0.00  0.00    +0.137 A 
ATOM     35  N   UNL     1      -6.096   8.435  20.712  0.00  0.00    -0.251 N 
ATOM     36  N   UNL     1      -5.005   9.052  20.232  0.00  0.00    -0.065 NA
BRANCH  35  37
ATOM     37  C   UNL     1      -6.124   6.993  20.848  0.00  0.00    +0.145 C 
BRANCH  37  38
ATOM     38  C   UNL     1      -5.093   6.508  21.863  0.00  0.00    +0.024 C 
BRANCH  38  39
ATOM     39  C   UNL     1      -5.749   5.846  23.077  0.00  0.00    +0.006 C 
BRANCH  39  40
ATOM     40  C   UNL     1      -6.188   6.903  24.093  0.00  0.00    +0.026 C 
BRANCH  40  41
ATOM     41  C   UNL     1      -7.451   6.511  24.802  0.00  0.00    -0.034 C 
ATOM     42  C   UNL     1      -7.538   6.332  26.126  0.00  0.00    +0.004 C 
ENDBRANCH  40  41
ENDBRANCH  39  40
ENDBRANCH  38  39
ENDBRANCH  37  38
ENDBRANCH  35  37
ENDBRANCH  31  33
ENDBRANCH  30  31
ENDBRANCH  26  30
ENDBRANCH  25  28
ENDBRANCH   1  25
TORSDOF 18
