REMARK VINA RESULT:    -4.772      2.568      4.807
REMARK INTER + INTRA:         -12.855
REMARK INTER:                  -8.217
REMARK INTRA:                  -4.638
REMARK UNBOUND:                -3.062
REMARK  Name = lig_assembled_74.pdb
REMARK  24 active torsions:
REMARK  status: ('A' for Active; 'I' for Inactive)
REMARK    1  A    between atoms: _2  and  _9
REMARK    2  A    between atoms: _4  and  _22
REMARK    3  A    between atoms: _5  and  _14
REMARK    4  A    between atoms: _6  and  _7
REMARK    5  A    between atoms: _6  and  _22
REMARK    6  A    between atoms: _9  and  _10
REMARK    7  A    between atoms: _10  and  _11
REMARK    8  A    between atoms: _10  and  _13
REMARK    9  A    between atoms: _11  and  _12
REMARK   10  A    between atoms: _12  and  _16
REMARK   11  A    between atoms: _13  and  _14
REMARK   12  A    between atoms: _14  and  _15
REMARK   13  A    between atoms: _18  and  _38
REMARK   14  A    between atoms: _20  and  _26
REMARK   15  A    between atoms: _21  and  _25
REMARK   16  A    between atoms: _25  and  _26
REMARK   17  A    between atoms: _28  and  _29
REMARK   18  A    between atoms: _30  and  _31
REMARK   19  A    between atoms: _32  and  _34
REMARK   20  A    between atoms: _34  and  _35
REMARK   21  A    between atoms: _34  and  _36
REMARK   22  A    between atoms: _36  and  _37
REMARK   23  A    between atoms: _36  and  _38
REMARK   24  A    between atoms: _39  and  _41
REMARK                            x       y       z     vdW  Elec       q    Type
REMARK                         _______ _______ _______ _____ _____    ______ ____
ROOT
ATOM      1  C   UNL     1      -2.383   9.483  29.033  0.00  0.00    +0.163 C 
ENDROOT
BRANCH   1   2
ATOM      2  O   UNL     1      -2.819  10.721  28.449  0.00  0.00    -0.388 OA
ATOM      3  H   UNL     1      -2.983  10.592  27.511  0.00  0.00    +0.210 HD
ENDBRANCH   1   2
BRANCH   1   4
ATOM      4  C   UNL     1      -3.365   9.011  30.120  0.00  0.00    +0.175 C 
BRANCH   4   5
ATOM      5  C   UNL     1      -3.872  10.175  30.985  0.00  0.00    +0.176 C 
ATOM      6  O   UNL     1      -2.735  11.026  31.300  0.00  0.00    -0.332 OA
ATOM      7  C   UNL     1      -3.048  12.254  32.037  0.00  0.00    +0.277 C 
ATOM      8  C   UNL     1      -3.829  11.923  33.332  0.00  0.00    +0.110 C 
ATOM      9  C   UNL     1      -5.029  10.994  33.052  0.00  0.00    +0.143 C 
ATOM     10  C   UNL     1      -4.591   9.750  32.279  0.00  0.00    +0.133 C 
BRANCH  10  11
ATOM     11  N   UNL     1      -5.756   8.916  31.942  0.00  0.00    -0.308 N 
ATOM     12  H   UNL     1      -6.413   9.275  31.264  0.00  0.00    +0.149 HD
ATOM     13  C   UNL     1      -6.000   7.715  32.474  0.00  0.00    +0.210 C 
ATOM     14  C   UNL     1      -4.994   7.208  33.524  0.00  0.00    +0.109 C 
ATOM     15  O   UNL     1      -6.977   7.032  32.163  0.00  0.00    -0.276 OA
ENDBRANCH  10  11
BRANCH   7  16
ATOM     16  C   UNL     1      -3.879  13.218  31.166  0.00  0.00    +0.414 C 
ATOM     17  O   UNL     1      -4.770  13.899  31.672  0.00  0.00    -0.240 OA
ATOM     18  O   UNL     1      -3.658  13.316  29.958  0.00  0.00    -0.240 OA
ENDBRANCH   7  16
BRANCH   9  19
ATOM     19  O   UNL     1      -5.627  10.594  34.286  0.00  0.00    -0.390 OA
ATOM     20  H   UNL     1      -5.426   9.671  34.456  0.00  0.00    +0.210 HD
ENDBRANCH   9  19
BRANCH   7  21
ATOM     21  O   UNL     1      -1.795  12.886  32.407  0.00  0.00    -0.343 OA
ATOM     22  C   UNL     1      -1.900  13.890  33.448  0.00  0.00    +0.198 C 
ENDBRANCH   7  21
ENDBRANCH   4   5
BRANCH   4  23
ATOM     23  O   UNL     1      -2.745   8.009  30.949  0.00  0.00    -0.387 OA
ATOM     24  H   UNL     1      -3.243   7.915  31.765  0.00  0.00    +0.210 HD
ENDBRANCH   4  23
ENDBRANCH   1   4
BRANCH   1  25
ATOM     25  C   UNL     1      -2.262   8.410  27.956  0.00  0.00    +0.141 C 
BRANCH  25  28
ATOM     26  C   UNL     1      -4.266   7.715  26.689  0.00  0.00    +0.401 C 
ATOM     27  O   UNL     1      -4.437   6.683  27.343  0.00  0.00    -0.226 OA
ATOM     28  N   UNL     1      -3.272   8.577  26.903  0.00  0.00    -0.279 N 
ATOM     29  H   UNL     1      -3.209   9.390  26.307  0.00  0.00    +0.152 HD
BRANCH  26  30
ATOM     30  O   UNL     1      -5.175   8.023  25.629  0.00  0.00    -0.444 OA
BRANCH  30  31
ATOM     31  C   UNL     1      -6.365   8.600  26.172  0.00  0.00    +0.292 C 
BRANCH  31  33
ATOM     32  N   UNL     1      -5.856  10.551  27.621  0.00  0.00    -0.131 NA
ATOM     33  C   UNL     1      -6.191  10.050  26.391  0.00  0.00    +0.120 A 
ATOM     34  C   UNL     1      -6.233  11.083  25.481  0.00  0.00    +0.137 A 
ATOM     35  N   UNL     1      -5.736  12.147  26.181  0.00  0.00    -0.251 N 
ATOM     36  N   UNL     1      -5.604  11.846  27.486  0.00  0.00    -0.065 NA
BRANCH  35  37
ATOM     37  C   UNL     1      -5.082  13.319  25.635  0.00  0.00    +0.149 C 
BRANCH  37  38
ATOM     38  C   UNL     1      -4.448  13.139  24.238  0.00  0.00    +0.021 C 
BRANCH  38  39
ATOM     39  C   UNL     1      -2.950  12.776  24.286  0.00  0.00    +0.125 C 
BRANCH  39  40
ATOM     40  C   UNL     1      -2.654  11.359  24.731  0.00  0.00    +0.305 C 
ATOM     41  O   UNL     1      -2.944  10.354  24.103  0.00  0.00    -0.251 OA
BRANCH  40  42
ATOM     42  O   UNL     1      -1.963  11.304  25.885  0.00  0.00    -0.481 OA
ATOM     43  H   UNL     1      -1.108  11.771  25.885  0.00  0.00    +0.295 HD
ENDBRANCH  40  42
ENDBRANCH  39  40
ENDBRANCH  38  39
BRANCH  38  44
ATOM     44  C   UNL     1      -4.741  14.404  23.378  0.00  0.00    +0.009 C 
BRANCH  44  45
ATOM     45  C   UNL     1      -5.579  14.173  22.103  0.00  0.00    -0.017 C 
ATOM     46  C   UNL     1      -5.604  12.701  21.685  0.00  0.00    +0.007 C 
ATOM     47  C   UNL     1      -7.019  14.657  22.309  0.00  0.00    +0.007 C 
ENDBRANCH  44  45
ENDBRANCH  38  44
ENDBRANCH  37  38
ENDBRANCH  35  37
ENDBRANCH  31  33
ENDBRANCH  30  31
ENDBRANCH  26  30
ENDBRANCH  25  28
ENDBRANCH   1  25
TORSDOF 20
