REMARK VINA RESULT:    -4.731      2.784      7.368
REMARK INTER + INTRA:         -11.818
REMARK INTER:                  -8.485
REMARK INTRA:                  -3.333
REMARK UNBOUND:                -2.799
REMARK  Name = lig_assembled_55.pdb
REMARK  20 active torsions:
REMARK  status: ('A' for Active; 'I' for Inactive)
REMARK    1  A    between atoms: _2  and  _10
REMARK    2  A    between atoms: _3  and  _11
REMARK    3  A    between atoms: _3  and  _38
REMARK    4  A    between atoms: _5  and  _18
REMARK    5  A    between atoms: _6  and  _38
REMARK    6  A    between atoms: _7  and  _8
REMARK    7  A    between atoms: _7  and  _18
REMARK    8  A    between atoms: _10  and  _11
REMARK    9  A    between atoms: _14  and  _34
REMARK   10  A    between atoms: _16  and  _22
REMARK   11  A    between atoms: _17  and  _21
REMARK   12  A    between atoms: _21  and  _22
REMARK   13  A    between atoms: _24  and  _25
REMARK   14  A    between atoms: _26  and  _27
REMARK   15  A    between atoms: _28  and  _30
REMARK   16  A    between atoms: _30  and  _31
REMARK   17  A    between atoms: _30  and  _32
REMARK   18  A    between atoms: _32  and  _33
REMARK   19  A    between atoms: _32  and  _34
REMARK   20  A    between atoms: _35  and  _37
REMARK                            x       y       z     vdW  Elec       q    Type
REMARK                         _______ _______ _______ _____ _____    ______ ____
ROOT
ATOM      1  C   UNL     1      -6.618   8.684  23.282  0.00  0.00    +0.163 C 
ENDROOT
BRANCH   1   2
ATOM      2  O   UNL     1      -6.275   8.920  24.658  0.00  0.00    -0.388 OA
ATOM      3  H   UNL     1      -6.325   8.095  25.146  0.00  0.00    +0.210 HD
ENDBRANCH   1   2
BRANCH   1   4
ATOM      4  C   UNL     1      -6.371   9.941  22.430  0.00  0.00    +0.175 C 
BRANCH   4   5
ATOM      5  C   UNL     1      -5.042  10.625  22.782  0.00  0.00    +0.176 C 
ATOM      6  O   UNL     1      -5.242  11.390  24.002  0.00  0.00    -0.332 OA
ATOM      7  C   UNL     1      -4.044  12.032  24.551  0.00  0.00    +0.277 C 
ATOM      8  C   UNL     1      -3.368  12.923  23.480  0.00  0.00    +0.110 C 
ATOM      9  C   UNL     1      -3.163  12.162  22.153  0.00  0.00    +0.143 C 
ATOM     10  C   UNL     1      -4.472  11.532  21.675  0.00  0.00    +0.133 C 
BRANCH  10  11
ATOM     11  N   UNL     1      -4.246  10.737  20.457  0.00  0.00    -0.308 N 
ATOM     12  H   UNL     1      -3.544  10.012  20.490  0.00  0.00    +0.149 HD
ATOM     13  C   UNL     1      -4.909  10.913  19.310  0.00  0.00    +0.210 C 
ATOM     14  C   UNL     1      -5.954  12.044  19.284  0.00  0.00    +0.109 C 
ATOM     15  O   UNL     1      -4.709  10.223  18.310  0.00  0.00    -0.276 OA
ENDBRANCH  10  11
BRANCH   7  16
ATOM     16  C   UNL     1      -3.038  10.975  25.052  0.00  0.00    +0.414 C 
ATOM     17  O   UNL     1      -3.150   9.799  24.707  0.00  0.00    -0.240 OA
ATOM     18  O   UNL     1      -2.115  11.297  25.801  0.00  0.00    -0.240 OA
ENDBRANCH   7  16
BRANCH   7  19
ATOM     19  O   UNL     1      -4.454  12.878  25.656  0.00  0.00    -0.343 OA
ATOM     20  C   UNL     1      -5.509  13.823  25.345  0.00  0.00    +0.198 C 
ENDBRANCH   7  19
BRANCH   9  21
ATOM     21  O   UNL     1      -2.680  13.059  21.153  0.00  0.00    -0.390 OA
ATOM     22  H   UNL     1      -3.350  13.720  20.965  0.00  0.00    +0.210 HD
ENDBRANCH   9  21
ENDBRANCH   4   5
BRANCH   4  23
ATOM     23  O   UNL     1      -7.464  10.868  22.586  0.00  0.00    -0.387 OA
ATOM     24  H   UNL     1      -8.197  10.429  23.024  0.00  0.00    +0.210 HD
ENDBRANCH   4  23
ENDBRANCH   1   4
BRANCH   1  25
ATOM     25  C   UNL     1      -5.795   7.525  22.731  0.00  0.00    +0.141 C 
BRANCH  25  28
ATOM     26  C   UNL     1      -3.696   6.372  23.340  0.00  0.00    +0.401 C 
ATOM     27  O   UNL     1      -3.444   6.018  22.186  0.00  0.00    -0.226 OA
ATOM     28  N   UNL     1      -4.776   7.073  23.686  0.00  0.00    -0.279 N 
ATOM     29  H   UNL     1      -4.900   7.308  24.661  0.00  0.00    +0.152 HD
BRANCH  26  30
ATOM     30  O   UNL     1      -2.791   6.015  24.388  0.00  0.00    -0.444 OA
BRANCH  30  31
ATOM     31  C   UNL     1      -3.498   5.952  25.629  0.00  0.00    +0.292 C 
BRANCH  31  33
ATOM     32  N   UNL     1      -1.723   7.367  26.610  0.00  0.00    -0.131 NA
ATOM     33  C   UNL     1      -3.048   7.027  26.533  0.00  0.00    +0.120 A 
ATOM     34  C   UNL     1      -3.768   7.825  27.395  0.00  0.00    +0.137 A 
ATOM     35  N   UNL     1      -2.825   8.615  27.979  0.00  0.00    -0.250 N 
ATOM     36  N   UNL     1      -1.597   8.338  27.503  0.00  0.00    -0.065 NA
BRANCH  35  37
ATOM     37  C   UNL     1      -3.014   9.658  28.963  0.00  0.00    +0.162 C 
BRANCH  37  38
ATOM     38  C   UNL     1      -4.244  10.536  28.706  0.00  0.00    +0.129 C 
BRANCH  38  39
ATOM     39  N   UNL     1      -3.916  11.973  28.475  0.00  0.00    -0.193 NA
ATOM     40  H   UNL     1      -4.174  12.253  27.520  0.00  0.00    +0.148 HD
BRANCH  39  41
ATOM     41  S   UNL     1      -4.456  13.058  29.645  0.00  0.00    +0.027 S 
ATOM     42  O   UNL     1      -3.283  13.534  30.346  0.00  0.00    -0.158 OA
ATOM     43  O   UNL     1      -5.372  13.974  29.003  0.00  0.00    -0.158 OA
ATOM     44  C   UNL     1      -5.361  11.984  30.736  0.00  0.00    +0.214 C 
ENDBRANCH  39  41
ENDBRANCH  38  39
ENDBRANCH  37  38
ENDBRANCH  35  37
ENDBRANCH  31  33
ENDBRANCH  30  31
ENDBRANCH  26  30
ENDBRANCH  25  28
ENDBRANCH   1  25
TORSDOF 17
