REMARK VINA RESULT:    -5.058      1.844      2.691
REMARK INTER + INTRA:         -12.056
REMARK INTER:                 -10.010
REMARK INTRA:                  -2.046
REMARK UNBOUND:                -2.711
REMARK  Name = lig_assembled_36.pdb
REMARK  18 active torsions:
REMARK  status: ('A' for Active; 'I' for Inactive)
REMARK    1  A    between atoms: _2  and  _10
REMARK    2  A    between atoms: _5  and  _21
REMARK    3  A    between atoms: _7  and  _8
REMARK    4  A    between atoms: _7  and  _21
REMARK    5  A    between atoms: _10  and  _11
REMARK    6  A    between atoms: _14  and  _15
REMARK    7  A    between atoms: _17  and  _37
REMARK    8  A    between atoms: _19  and  _25
REMARK    9  A    between atoms: _20  and  _24
REMARK   10  A    between atoms: _24  and  _25
REMARK   11  A    between atoms: _27  and  _28
REMARK   12  A    between atoms: _29  and  _30
REMARK   13  A    between atoms: _31  and  _33
REMARK   14  A    between atoms: _33  and  _34
REMARK   15  A    between atoms: _33  and  _35
REMARK   16  A    between atoms: _35  and  _36
REMARK   17  A    between atoms: _35  and  _37
REMARK   18  A    between atoms: _38  and  _40
REMARK                            x       y       z     vdW  Elec       q    Type
REMARK                         _______ _______ _______ _____ _____    ______ ____
ROOT
ATOM      1  C   UNL     1      -5.669  12.161  27.424  0.00  0.00    +0.163 C 
ENDROOT
BRANCH   1   2
ATOM      2  O   UNL     1      -6.355  10.989  26.955  0.00  0.00    -0.388 OA
ATOM      3  H   UNL     1      -6.397  11.004  25.996  0.00  0.00    +0.210 HD
ENDBRANCH   1   2
BRANCH   1   4
ATOM      4  C   UNL     1      -5.509  12.130  28.954  0.00  0.00    +0.175 C 
BRANCH   4   5
ATOM      5  C   UNL     1      -4.354  11.219  29.395  0.00  0.00    +0.176 C 
ATOM      6  O   UNL     1      -4.872   9.865  29.509  0.00  0.00    -0.332 OA
ATOM      7  C   UNL     1      -3.880   8.831  29.822  0.00  0.00    +0.277 C 
ATOM      8  C   UNL     1      -3.098   9.202  31.105  0.00  0.00    +0.110 C 
ATOM      9  C   UNL     1      -2.555  10.645  31.044  0.00  0.00    +0.143 C 
ATOM     10  C   UNL     1      -3.669  11.637  30.710  0.00  0.00    +0.133 C 
BRANCH  10  11
ATOM     11  N   UNL     1      -3.124  12.996  30.569  0.00  0.00    -0.308 N 
ATOM     12  H   UNL     1      -2.512  13.180  29.787  0.00  0.00    +0.149 HD
ATOM     13  C   UNL     1      -3.386  14.003  31.407  0.00  0.00    +0.210 C 
ATOM     14  C   UNL     1      -4.302  13.684  32.603  0.00  0.00    +0.109 C 
ATOM     15  O   UNL     1      -2.927  15.136  31.256  0.00  0.00    -0.276 OA
ENDBRANCH  10  11
BRANCH   7  16
ATOM     16  C   UNL     1      -2.892   8.649  28.651  0.00  0.00    +0.414 C 
ATOM     17  O   UNL     1      -1.789   8.141  28.844  0.00  0.00    -0.240 OA
ATOM     18  O   UNL     1      -3.199   9.010  27.514  0.00  0.00    -0.240 OA
ENDBRANCH   7  16
BRANCH   7  19
ATOM     19  O   UNL     1      -4.588   7.587  30.061  0.00  0.00    -0.343 OA
ATOM     20  C   UNL     1      -5.809   7.422  29.297  0.00  0.00    +0.198 C 
ENDBRANCH   7  19
BRANCH   9  21
ATOM     21  O   UNL     1      -1.975  10.995  32.302  0.00  0.00    -0.390 OA
ATOM     22  H   UNL     1      -1.256  10.391  32.503  0.00  0.00    +0.210 HD
ENDBRANCH   9  21
ENDBRANCH   4   5
BRANCH   4  23
ATOM     23  O   UNL     1      -6.740  11.708  29.574  0.00  0.00    -0.387 OA
ATOM     24  H   UNL     1      -7.307  11.302  28.914  0.00  0.00    +0.210 HD
ENDBRANCH   4  23
ENDBRANCH   1   4
BRANCH   1  25
ATOM     25  C   UNL     1      -4.295  12.258  26.770  0.00  0.00    +0.141 C 
BRANCH  25  28
ATOM     26  C   UNL     1      -3.086  11.281  24.848  0.00  0.00    +0.401 C 
ATOM     27  O   UNL     1      -2.086  11.986  24.999  0.00  0.00    -0.226 OA
ATOM     28  N   UNL     1      -4.168  11.346  25.626  0.00  0.00    -0.279 N 
ATOM     29  H   UNL     1      -4.943  10.732  25.418  0.00  0.00    +0.152 HD
BRANCH  26  30
ATOM     30  O   UNL     1      -3.113  10.332  23.779  0.00  0.00    -0.444 OA
BRANCH  30  31
ATOM     31  C   UNL     1      -4.451  10.199  23.292  0.00  0.00    +0.292 C 
BRANCH  31  33
ATOM     32  N   UNL     1      -3.465  11.251  21.277  0.00  0.00    -0.131 NA
ATOM     33  C   UNL     1      -4.571  10.805  21.953  0.00  0.00    +0.120 A 
ATOM     34  C   UNL     1      -5.687  11.006  21.173  0.00  0.00    +0.137 A 
ATOM     35  N   UNL     1      -5.182  11.488  20.001  0.00  0.00    -0.247 N 
ATOM     36  N   UNL     1      -3.854  11.686  20.087  0.00  0.00    -0.065 NA
BRANCH  35  37
ATOM     37  C   UNL     1      -5.893  11.762  18.768  0.00  0.00    +0.180 C 
BRANCH  37  38
ATOM     38  C   UNL     1      -5.080  11.347  17.563  0.00  0.00    -0.026 A 
ATOM     39  C   UNL     1      -4.476  12.307  16.737  0.00  0.00    +0.007 A 
ATOM     40  C   UNL     1      -3.722  11.914  15.626  0.00  0.00    +0.019 A 
ATOM     41  C   UNL     1      -3.566  10.558  15.324  0.00  0.00    +0.052 A 
ATOM     42  C   UNL     1      -4.185   9.597  16.127  0.00  0.00    +0.019 A 
ATOM     43  C   UNL     1      -4.940   9.989  17.237  0.00  0.00    +0.007 A 
BRANCH  41  44
ATOM     44  C   UNL     1      -2.774  10.156  14.196  0.00  0.00    +0.099 C 
ATOM     45  N   UNL     1      -2.125   9.837  13.289  0.00  0.00    -0.191 NA
ENDBRANCH  41  44
ENDBRANCH  37  38
ENDBRANCH  35  37
ENDBRANCH  31  33
ENDBRANCH  30  31
ENDBRANCH  26  30
ENDBRANCH  25  28
ENDBRANCH   1  25
TORSDOF 16
