REMARK VINA RESULT:    -5.711      0.000      0.000
REMARK INTER + INTRA:         -13.183
REMARK INTER:                 -10.530
REMARK INTRA:                  -2.653
REMARK UNBOUND:                -2.966
REMARK  Name = lig_assembled_89.pdb
REMARK  19 active torsions:
REMARK  status: ('A' for Active; 'I' for Inactive)
REMARK    1  A    between atoms: _2  and  _12
REMARK    2  A    between atoms: _5  and  _20
REMARK    3  A    between atoms: _7  and  _29
REMARK    4  A    between atoms: _9  and  _10
REMARK    5  A    between atoms: _9  and  _29
REMARK    6  A    between atoms: _20  and  _21
REMARK    7  A    between atoms: _20  and  _22
REMARK    8  A    between atoms: _25  and  _45
REMARK    9  A    between atoms: _27  and  _33
REMARK   10  A    between atoms: _28  and  _32
REMARK   11  A    between atoms: _32  and  _33
REMARK   12  A    between atoms: _35  and  _36
REMARK   13  A    between atoms: _37  and  _38
REMARK   14  A    between atoms: _39  and  _41
REMARK   15  A    between atoms: _41  and  _42
REMARK   16  A    between atoms: _41  and  _43
REMARK   17  A    between atoms: _43  and  _44
REMARK   18  A    between atoms: _43  and  _45
REMARK   19  A    between atoms: _46  and  _48
REMARK                            x       y       z     vdW  Elec       q    Type
REMARK                         _______ _______ _______ _____ _____    ______ ____
ROOT
ATOM      1  C   UNL     1      -4.675   6.912  15.240  0.00  0.00    +0.401 C 
ATOM      2  O   UNL     1      -3.929   6.183  15.899  0.00  0.00    -0.226 OA
ATOM      3  N   UNL     1      -4.325   7.491  14.091  0.00  0.00    -0.279 N 
ATOM      4  H   UNL     1      -5.010   8.064  13.618  0.00  0.00    +0.152 HD
ENDROOT
BRANCH   3   5
ATOM      5  C   UNL     1      -3.001   7.343  13.474  0.00  0.00    +0.141 C 
BRANCH   5   6
ATOM      6  C   UNL     1      -2.466   8.672  12.950  0.00  0.00    +0.163 C 
BRANCH   6   7
ATOM      7  O   UNL     1      -2.697   8.772  11.535  0.00  0.00    -0.388 OA
ATOM      8  H   UNL     1      -3.543   9.197  11.378  0.00  0.00    +0.210 HD
ENDBRANCH   6   7
BRANCH   6   9
ATOM      9  C   UNL     1      -3.144   9.831  13.701  0.00  0.00    +0.175 C 
BRANCH   9  10
ATOM     10  C   UNL     1      -3.195  11.114  12.859  0.00  0.00    +0.176 C 
ATOM     11  O   UNL     1      -1.874  11.327  12.289  0.00  0.00    -0.332 OA
ATOM     12  C   UNL     1      -1.758  12.458  11.363  0.00  0.00    +0.277 C 
ATOM     13  C   UNL     1      -2.254  13.761  12.036  0.00  0.00    +0.110 C 
ATOM     14  C   UNL     1      -3.642  13.575  12.684  0.00  0.00    +0.143 C 
ATOM     15  C   UNL     1      -3.651  12.370  13.626  0.00  0.00    +0.133 C 
BRANCH  15  16
ATOM     16  N   UNL     1      -5.000  12.151  14.170  0.00  0.00    -0.308 N 
ATOM     17  H   UNL     1      -5.727  11.868  13.528  0.00  0.00    +0.149 HD
ATOM     18  C   UNL     1      -5.326  12.301  15.456  0.00  0.00    +0.210 C 
ATOM     19  C   UNL     1      -4.202  12.758  16.404  0.00  0.00    +0.109 C 
ATOM     20  O   UNL     1      -6.462  12.096  15.886  0.00  0.00    -0.276 OA
ENDBRANCH  15  16
BRANCH  12  21
ATOM     21  C   UNL     1      -2.572  12.198  10.079  0.00  0.00    +0.414 C 
ATOM     22  O   UNL     1      -3.083  13.136   9.468  0.00  0.00    -0.240 OA
ATOM     23  O   UNL     1      -2.717  11.052   9.653  0.00  0.00    -0.240 OA
ENDBRANCH  12  21
BRANCH  14  24
ATOM     24  O   UNL     1      -3.992  14.749  13.419  0.00  0.00    -0.390 OA
ATOM     25  H   UNL     1      -4.767  14.571  13.957  0.00  0.00    +0.210 HD
ENDBRANCH  14  24
BRANCH  12  26
ATOM     26  O   UNL     1      -0.356  12.621  11.028  0.00  0.00    -0.343 OA
ATOM     27  C   UNL     1       0.154  13.971  11.171  0.00  0.00    +0.198 C 
ENDBRANCH  12  26
ENDBRANCH   9  10
BRANCH   9  28
ATOM     28  O   UNL     1      -2.464  10.081  14.948  0.00  0.00    -0.387 OA
ATOM     29  H   UNL     1      -1.930  10.875  14.868  0.00  0.00    +0.210 HD
ENDBRANCH   9  28
ENDBRANCH   6   9
ENDBRANCH   5   6
ENDBRANCH   3   5
BRANCH   1  30
ATOM     30  O   UNL     1      -6.000   7.161  15.715  0.00  0.00    -0.444 OA
BRANCH  30  31
ATOM     31  C   UNL     1      -6.212   8.572  15.821  0.00  0.00    +0.292 C 
BRANCH  31  33
ATOM     32  N   UNL     1      -7.270   9.514  17.838  0.00  0.00    -0.131 NA
ATOM     33  C   UNL     1      -6.168   8.989  17.233  0.00  0.00    +0.121 A 
ATOM     34  C   UNL     1      -5.143   8.926  18.146  0.00  0.00    +0.145 A 
ATOM     35  N   UNL     1      -5.678   9.408  19.326  0.00  0.00    -0.199 N 
ATOM     36  N   UNL     1      -6.967   9.757  19.106  0.00  0.00    -0.059 NA
BRANCH  35  37
ATOM     37  C   UNL     1      -5.017   9.438  20.589  0.00  0.00    +0.186 A 
ATOM     38  C   UNL     1      -4.485  10.506  21.280  0.00  0.00    +0.158 A 
ATOM     39  C   UNL     1      -4.287  11.885  20.953  0.00  0.00    +0.280 A 
ATOM     40  O   UNL     1      -4.271  12.289  19.798  0.00  0.00    -0.265 OA
ATOM     41  N   UNL     1      -4.080  12.741  22.054  0.00  0.00    -0.302 N 
ATOM     42  C   UNL     1      -3.639  12.200  23.321  0.00  0.00    +0.069 A 
ATOM     43  C   UNL     1      -3.153  13.006  24.361  0.00  0.00    +0.028 A 
ATOM     44  C   UNL     1      -2.686  12.444  25.557  0.00  0.00    +0.002 A 
ATOM     45  C   UNL     1      -2.703  11.066  25.745  0.00  0.00    +0.002 A 
ATOM     46  C   UNL     1      -3.192  10.238  24.740  0.00  0.00    +0.028 A 
ATOM     47  C   UNL     1      -3.644  10.805  23.539  0.00  0.00    +0.072 A 
ATOM     48  N   UNL     1      -4.135   9.996  22.502  0.00  0.00    -0.291 N 
ATOM     49  C   UNL     1      -4.360   8.644  22.460  0.00  0.00    +0.207 A 
ATOM     50  N   UNL     1      -4.905   8.271  21.321  0.00  0.00    -0.216 NA
BRANCH  41  51
ATOM     51  C   UNL     1      -4.124  14.202  21.815  0.00  0.00    +0.085 C 
ATOM     52  C   UNL     1      -2.752  14.893  21.948  0.00  0.00    +0.030 C 
ATOM     53  C   UNL     1      -5.159  14.893  22.701  0.00  0.00    +0.030 C 
ENDBRANCH  41  51
ENDBRANCH  35  37
ENDBRANCH  31  33
ENDBRANCH  30  31
ENDBRANCH   1  30
TORSDOF 15
