REMARK VINA RESULT:    -4.534      4.665      5.410
REMARK INTER + INTRA:         -11.442
REMARK INTER:                  -8.793
REMARK INTRA:                  -2.649
REMARK UNBOUND:                -2.799
REMARK  Name = lig_assembled_55.pdb
REMARK  20 active torsions:
REMARK  status: ('A' for Active; 'I' for Inactive)
REMARK    1  A    between atoms: _2  and  _10
REMARK    2  A    between atoms: _3  and  _11
REMARK    3  A    between atoms: _3  and  _38
REMARK    4  A    between atoms: _5  and  _18
REMARK    5  A    between atoms: _6  and  _38
REMARK    6  A    between atoms: _7  and  _8
REMARK    7  A    between atoms: _7  and  _18
REMARK    8  A    between atoms: _10  and  _11
REMARK    9  A    between atoms: _14  and  _34
REMARK   10  A    between atoms: _16  and  _22
REMARK   11  A    between atoms: _17  and  _21
REMARK   12  A    between atoms: _21  and  _22
REMARK   13  A    between atoms: _24  and  _25
REMARK   14  A    between atoms: _26  and  _27
REMARK   15  A    between atoms: _28  and  _30
REMARK   16  A    between atoms: _30  and  _31
REMARK   17  A    between atoms: _30  and  _32
REMARK   18  A    between atoms: _32  and  _33
REMARK   19  A    between atoms: _32  and  _34
REMARK   20  A    between atoms: _35  and  _37
REMARK                            x       y       z     vdW  Elec       q    Type
REMARK                         _______ _______ _______ _____ _____    ______ ____
ROOT
ATOM      1  C   UNL     1      -3.386  12.391  24.035  0.00  0.00    +0.163 C 
ENDROOT
BRANCH   1   2
ATOM      2  O   UNL     1      -2.006  12.308  24.424  0.00  0.00    -0.388 OA
ATOM      3  H   UNL     1      -1.566  13.139  24.226  0.00  0.00    +0.210 HD
ENDBRANCH   1   2
BRANCH   1   4
ATOM      4  C   UNL     1      -4.287  12.655  25.254  0.00  0.00    +0.175 C 
BRANCH   4   5
ATOM      5  C   UNL     1      -4.010  11.671  26.400  0.00  0.00    +0.176 C 
ATOM      6  O   UNL     1      -3.820  10.351  25.821  0.00  0.00    -0.332 OA
ATOM      7  C   UNL     1      -3.439   9.293  26.762  0.00  0.00    +0.277 C 
ATOM      8  C   UNL     1      -4.458   9.212  27.925  0.00  0.00    +0.110 C 
ATOM      9  C   UNL     1      -4.717  10.598  28.554  0.00  0.00    +0.143 C 
ATOM     10  C   UNL     1      -5.103  11.621  27.485  0.00  0.00    +0.133 C 
BRANCH  10  11
ATOM     11  N   UNL     1      -5.261  12.956  28.083  0.00  0.00    -0.308 N 
ATOM     12  H   UNL     1      -4.432  13.422  28.425  0.00  0.00    +0.149 HD
ATOM     13  C   UNL     1      -6.430  13.593  28.204  0.00  0.00    +0.210 C 
ATOM     14  C   UNL     1      -7.678  12.846  27.698  0.00  0.00    +0.109 C 
ATOM     15  O   UNL     1      -6.531  14.717  28.697  0.00  0.00    -0.276 OA
ENDBRANCH  10  11
BRANCH   7  16
ATOM     16  C   UNL     1      -2.028   9.549  27.329  0.00  0.00    +0.414 C 
ATOM     17  O   UNL     1      -1.726   9.140  28.450  0.00  0.00    -0.240 OA
ATOM     18  O   UNL     1      -1.191  10.163  26.667  0.00  0.00    -0.240 OA
ENDBRANCH   7  16
BRANCH   7  19
ATOM     19  O   UNL     1      -3.458   8.030  26.049  0.00  0.00    -0.343 OA
ATOM     20  C   UNL     1      -4.294   8.007  24.865  0.00  0.00    +0.198 C 
ENDBRANCH   7  19
BRANCH   9  21
ATOM     21  O   UNL     1      -5.768  10.502  29.515  0.00  0.00    -0.390 OA
ATOM     22  H   UNL     1      -5.393  10.463  30.398  0.00  0.00    +0.210 HD
ENDBRANCH   9  21
ENDBRANCH   4   5
BRANCH   4  23
ATOM     23  O   UNL     1      -5.675  12.592  24.870  0.00  0.00    -0.387 OA
ATOM     24  H   UNL     1      -5.803  13.079  24.052  0.00  0.00    +0.210 HD
ENDBRANCH   4  23
ENDBRANCH   1   4
BRANCH   1  25
ATOM     25  C   UNL     1      -3.574  13.507  23.012  0.00  0.00    +0.141 C 
BRANCH  25  28
ATOM     26  C   UNL     1      -5.556  13.457  21.538  0.00  0.00    +0.401 C 
ATOM     27  O   UNL     1      -6.204  14.249  22.225  0.00  0.00    -0.226 OA
ATOM     28  N   UNL     1      -4.321  13.049  21.834  0.00  0.00    -0.279 N 
ATOM     29  H   UNL     1      -3.875  12.389  21.213  0.00  0.00    +0.152 HD
BRANCH  26  30
ATOM     30  O   UNL     1      -6.146  12.925  20.348  0.00  0.00    -0.444 OA
BRANCH  30  31
ATOM     31  C   UNL     1      -5.779  11.551  20.206  0.00  0.00    +0.292 C 
BRANCH  31  33
ATOM     32  N   UNL     1      -5.771  12.132  17.802  0.00  0.00    -0.131 NA
ATOM     33  C   UNL     1      -5.454  11.248  18.800  0.00  0.00    +0.120 A 
ATOM     34  C   UNL     1      -4.839  10.146  18.246  0.00  0.00    +0.137 A 
ATOM     35  N   UNL     1      -4.830  10.411  16.909  0.00  0.00    -0.250 N 
ATOM     36  N   UNL     1      -5.389  11.607  16.647  0.00  0.00    -0.065 NA
BRANCH  35  37
ATOM     37  C   UNL     1      -4.290   9.601  15.840  0.00  0.00    +0.162 C 
BRANCH  37  38
ATOM     38  C   UNL     1      -2.896  10.037  15.376  0.00  0.00    +0.129 C 
BRANCH  38  39
ATOM     39  N   UNL     1      -2.829  11.461  14.936  0.00  0.00    -0.193 NA
ATOM     40  H   UNL     1      -2.112  11.969  15.469  0.00  0.00    +0.148 HD
BRANCH  39  41
ATOM     41  S   UNL     1      -2.720  11.723  13.275  0.00  0.00    +0.027 S 
ATOM     42  O   UNL     1      -2.138  13.035  13.098  0.00  0.00    -0.158 OA
ATOM     43  O   UNL     1      -2.118  10.548  12.686  0.00  0.00    -0.158 OA
ATOM     44  C   UNL     1      -4.435  11.805  12.814  0.00  0.00    +0.214 C 
ENDBRANCH  39  41
ENDBRANCH  38  39
ENDBRANCH  37  38
ENDBRANCH  35  37
ENDBRANCH  31  33
ENDBRANCH  30  31
ENDBRANCH  26  30
ENDBRANCH  25  28
ENDBRANCH   1  25
TORSDOF 17
