REMARK VINA RESULT:    -5.492      2.777      3.592
REMARK INTER + INTRA:         -12.762
REMARK INTER:                 -10.106
REMARK INTRA:                  -2.656
REMARK UNBOUND:                -2.453
REMARK  Name = lig_assembled_75.pdb
REMARK  19 active torsions:
REMARK  status: ('A' for Active; 'I' for Inactive)
REMARK    1  A    between atoms: _2  and  _9
REMARK    2  A    between atoms: _4  and  _23
REMARK    3  A    between atoms: _6  and  _7
REMARK    4  A    between atoms: _6  and  _23
REMARK    5  A    between atoms: _11  and  _12
REMARK    6  A    between atoms: _13  and  _14
REMARK    7  A    between atoms: _14  and  _17
REMARK    8  A    between atoms: _19  and  _39
REMARK    9  A    between atoms: _21  and  _27
REMARK   10  A    between atoms: _22  and  _26
REMARK   11  A    between atoms: _26  and  _27
REMARK   12  A    between atoms: _29  and  _30
REMARK   13  A    between atoms: _31  and  _32
REMARK   14  A    between atoms: _33  and  _35
REMARK   15  A    between atoms: _35  and  _36
REMARK   16  A    between atoms: _35  and  _37
REMARK   17  A    between atoms: _37  and  _38
REMARK   18  A    between atoms: _37  and  _39
REMARK   19  A    between atoms: _40  and  _42
REMARK                            x       y       z     vdW  Elec       q    Type
REMARK                         _______ _______ _______ _____ _____    ______ ____
ROOT
ATOM      1  C   UNL     1      -3.000  13.126  24.375  0.00  0.00    +0.141 C 
ENDROOT
BRANCH   1   4
ATOM      2  C   UNL     1      -5.108  13.807  23.278  0.00  0.00    +0.401 C 
ATOM      3  O   UNL     1      -5.601  14.276  24.306  0.00  0.00    -0.226 OA
ATOM      4  N   UNL     1      -3.900  13.244  23.220  0.00  0.00    -0.279 N 
ATOM      5  H   UNL     1      -3.586  12.878  22.332  0.00  0.00    +0.152 HD
BRANCH   2   6
ATOM      6  O   UNL     1      -5.860  13.853  22.063  0.00  0.00    -0.444 OA
BRANCH   6   7
ATOM      7  C   UNL     1      -6.607  12.643  21.917  0.00  0.00    +0.292 C 
BRANCH   7   9
ATOM      8  N   UNL     1      -5.114  10.730  21.439  0.00  0.00    -0.131 NA
ATOM      9  C   UNL     1      -5.926  11.728  20.982  0.00  0.00    +0.121 A 
ATOM     10  C   UNL     1      -5.957  11.691  19.608  0.00  0.00    +0.143 A 
ATOM     11  N   UNL     1      -5.137  10.641  19.261  0.00  0.00    -0.220 N 
ATOM     12  N   UNL     1      -4.637  10.076  20.389  0.00  0.00    -0.060 NA
BRANCH  11  13
ATOM     13  C   UNL     1      -4.787  10.173  17.969  0.00  0.00    +0.068 A 
ATOM     14  C   UNL     1      -4.188  11.058  17.056  0.00  0.00    +0.035 A 
ATOM     15  C   UNL     1      -3.889  10.647  15.748  0.00  0.00    -0.023 A 
ATOM     16  C   UNL     1      -4.139   9.317  15.388  0.00  0.00    +0.008 A 
ATOM     17  C   UNL     1      -4.713   8.427  16.299  0.00  0.00    +0.003 A 
ATOM     18  C   UNL     1      -5.045   8.853  17.584  0.00  0.00    +0.028 A 
BRANCH  15  19
ATOM     19  C   UNL     1      -3.305  11.555  14.749  0.00  0.00    +0.015 C 
ATOM     20  C   UNL     1      -3.800  12.771  14.465  0.00  0.00    +0.092 C 
BRANCH  20  21
ATOM     21  C   UNL     1      -3.174  13.586  13.408  0.00  0.00    +0.330 C 
ATOM     22  O   UNL     1      -3.777  14.336  12.661  0.00  0.00    -0.246 OA
BRANCH  21  23
ATOM     23  O   UNL     1      -1.837  13.417  13.365  0.00  0.00    -0.478 OA
ATOM     24  H   UNL     1      -1.475  13.131  12.508  0.00  0.00    +0.295 HD
ENDBRANCH  21  23
ENDBRANCH  20  21
ENDBRANCH  15  19
ENDBRANCH  11  13
ENDBRANCH   7   9
ENDBRANCH   6   7
ENDBRANCH   2   6
ENDBRANCH   1   4
BRANCH   1  25
ATOM     25  C   UNL     1      -3.232  11.831  25.146  0.00  0.00    +0.163 C 
BRANCH  25  26
ATOM     26  O   UNL     1      -2.065  10.996  25.068  0.00  0.00    -0.388 OA
ATOM     27  H   UNL     1      -2.195  10.212  25.607  0.00  0.00    +0.210 HD
ENDBRANCH  25  26
BRANCH  25  28
ATOM     28  C   UNL     1      -3.577  12.160  26.609  0.00  0.00    +0.175 C 
BRANCH  28  29
ATOM     29  C   UNL     1      -3.355  10.958  27.539  0.00  0.00    +0.176 C 
ATOM     30  O   UNL     1      -3.990   9.799  26.932  0.00  0.00    -0.332 OA
ATOM     31  C   UNL     1      -3.790   8.527  27.632  0.00  0.00    +0.277 C 
ATOM     32  C   UNL     1      -4.230   8.649  29.111  0.00  0.00    +0.110 C 
ATOM     33  C   UNL     1      -3.605   9.885  29.791  0.00  0.00    +0.143 C 
ATOM     34  C   UNL     1      -3.871  11.152  28.977  0.00  0.00    +0.133 C 
BRANCH  34  35
ATOM     35  N   UNL     1      -3.198  12.308  29.589  0.00  0.00    -0.308 N 
ATOM     36  H   UNL     1      -2.187  12.314  29.602  0.00  0.00    +0.149 HD
ATOM     37  C   UNL     1      -3.834  13.351  30.129  0.00  0.00    +0.210 C 
ATOM     38  C   UNL     1      -5.374  13.301  30.118  0.00  0.00    +0.109 C 
ATOM     39  O   UNL     1      -3.244  14.313  30.621  0.00  0.00    -0.276 OA
ENDBRANCH  34  35
BRANCH  31  40
ATOM     40  C   UNL     1      -2.311   8.094  27.568  0.00  0.00    +0.414 C 
ATOM     41  O   UNL     1      -1.642   8.318  26.560  0.00  0.00    -0.240 OA
ATOM     42  O   UNL     1      -1.786   7.521  28.524  0.00  0.00    -0.240 OA
ENDBRANCH  31  40
BRANCH  31  43
ATOM     43  O   UNL     1      -4.620   7.526  26.989  0.00  0.00    -0.343 OA
ATOM     44  C   UNL     1      -5.174   6.525  27.880  0.00  0.00    +0.198 C 
ENDBRANCH  31  43
BRANCH  33  45
ATOM     45  O   UNL     1      -4.154  10.043  31.101  0.00  0.00    -0.390 OA
ATOM     46  H   UNL     1      -5.101  10.185  31.036  0.00  0.00    +0.210 HD
ENDBRANCH  33  45
ENDBRANCH  28  29
BRANCH  28  47
ATOM     47  O   UNL     1      -4.940  12.619  26.707  0.00  0.00    -0.387 OA
ATOM     48  H   UNL     1      -5.531  11.863  26.744  0.00  0.00    +0.210 HD
ENDBRANCH  28  47
ENDBRANCH  25  28
ENDBRANCH   1  25
TORSDOF 17
