REMARK VINA RESULT:    -5.128      5.193     12.251
REMARK INTER + INTRA:         -11.256
REMARK INTER:                  -9.131
REMARK INTRA:                  -2.125
REMARK UNBOUND:                -2.381
REMARK  Name = lig_assembled_7.pdb
REMARK  19 active torsions:
REMARK  status: ('A' for Active; 'I' for Inactive)
REMARK    1  A    between atoms: _2  and  _9
REMARK    2  A    between atoms: _4  and  _21
REMARK    3  A    between atoms: _5  and  _16
REMARK    4  A    between atoms: _6  and  _7
REMARK    5  A    between atoms: _6  and  _21
REMARK    6  A    between atoms: _10  and  _11
REMARK    7  A    between atoms: _13  and  _14
REMARK    8  A    between atoms: _17  and  _37
REMARK    9  A    between atoms: _19  and  _25
REMARK   10  A    between atoms: _20  and  _24
REMARK   11  A    between atoms: _24  and  _25
REMARK   12  A    between atoms: _27  and  _28
REMARK   13  A    between atoms: _29  and  _30
REMARK   14  A    between atoms: _31  and  _33
REMARK   15  A    between atoms: _33  and  _34
REMARK   16  A    between atoms: _33  and  _35
REMARK   17  A    between atoms: _35  and  _36
REMARK   18  A    between atoms: _35  and  _37
REMARK   19  A    between atoms: _38  and  _40
REMARK                            x       y       z     vdW  Elec       q    Type
REMARK                         _______ _______ _______ _____ _____    ______ ____
ROOT
ATOM      1  C   UNL     1      -4.167  12.807  14.534  0.00  0.00    +0.163 C 
ENDROOT
BRANCH   1   2
ATOM      2  O   UNL     1      -3.156  12.604  15.534  0.00  0.00    -0.388 OA
ATOM      3  H   UNL     1      -3.144  11.680  15.796  0.00  0.00    +0.210 HD
ENDBRANCH   1   2
BRANCH   1   4
ATOM      4  C   UNL     1      -5.487  12.196  14.994  0.00  0.00    +0.141 C 
BRANCH   4   7
ATOM      5  C   UNL     1      -6.222  11.579  17.270  0.00  0.00    +0.401 C 
ATOM      6  O   UNL     1      -7.236  12.279  17.234  0.00  0.00    -0.226 OA
ATOM      7  N   UNL     1      -5.345  11.485  16.270  0.00  0.00    -0.279 N 
ATOM      8  H   UNL     1      -4.537  10.891  16.398  0.00  0.00    +0.152 HD
BRANCH   5   9
ATOM      9  O   UNL     1      -5.947  10.815  18.448  0.00  0.00    -0.444 OA
BRANCH   9  10
ATOM     10  C   UNL     1      -6.125  11.638  19.604  0.00  0.00    +0.292 C 
BRANCH  10  12
ATOM     11  N   UNL     1      -4.007  10.637  20.369  0.00  0.00    -0.131 NA
ATOM     12  C   UNL     1      -5.193  11.231  20.671  0.00  0.00    +0.121 A 
ATOM     13  C   UNL     1      -5.294  11.352  22.043  0.00  0.00    +0.143 A 
ATOM     14  N   UNL     1      -4.151  10.766  22.547  0.00  0.00    -0.219 N 
ATOM     15  N   UNL     1      -3.373  10.386  21.502  0.00  0.00    -0.060 NA
BRANCH  14  16
ATOM     16  C   UNL     1      -3.754  10.560  23.908  0.00  0.00    +0.073 A 
ATOM     17  C   UNL     1      -4.002   9.296  24.525  0.00  0.00    -0.024 A 
ATOM     18  C   UNL     1      -3.614   9.083  25.865  0.00  0.00    +0.008 A 
ATOM     19  C   UNL     1      -2.981  10.077  26.607  0.00  0.00    -0.050 A 
ATOM     20  C   UNL     1      -2.579   9.817  28.028  0.00  0.00    +0.044 C 
ATOM     21  C   UNL     1      -2.739  11.307  26.001  0.00  0.00    +0.008 A 
ATOM     22  C   UNL     1      -4.622   8.107  23.825  0.00  0.00    +0.046 C 
ATOM     23  C   UNL     1      -3.132  11.582  24.670  0.00  0.00    -0.024 A 
ATOM     24  C   UNL     1      -2.891  13.010  24.251  0.00  0.00    +0.046 C 
ENDBRANCH  14  16
ENDBRANCH  10  12
ENDBRANCH   9  10
ENDBRANCH   5   9
ENDBRANCH   4   7
ENDBRANCH   1   4
BRANCH   1  25
ATOM     25  C   UNL     1      -3.749  12.177  13.194  0.00  0.00    +0.175 C 
BRANCH  25  26
ATOM     26  C   UNL     1      -3.631  10.649  13.285  0.00  0.00    +0.176 C 
ATOM     27  O   UNL     1      -2.573  10.337  14.233  0.00  0.00    -0.332 OA
ATOM     28  C   UNL     1      -2.387   8.914  14.530  0.00  0.00    +0.277 C 
ATOM     29  C   UNL     1      -2.172   8.112  13.223  0.00  0.00    +0.110 C 
ATOM     30  C   UNL     1      -3.256   8.434  12.173  0.00  0.00    +0.143 C 
ATOM     31  C   UNL     1      -3.367   9.941  11.943  0.00  0.00    +0.133 C 
BRANCH  31  32
ATOM     32  N   UNL     1      -4.461  10.241  11.006  0.00  0.00    -0.308 N 
ATOM     33  H   UNL     1      -5.398   9.976  11.274  0.00  0.00    +0.149 HD
ATOM     34  C   UNL     1      -4.296  10.839   9.823  0.00  0.00    +0.210 C 
ATOM     35  C   UNL     1      -2.853  11.207   9.431  0.00  0.00    +0.109 C 
ATOM     36  O   UNL     1      -5.233  11.091   9.065  0.00  0.00    -0.276 OA
ENDBRANCH  31  32
BRANCH  28  37
ATOM     37  C   UNL     1      -3.607   8.349  15.287  0.00  0.00    +0.414 C 
ATOM     38  O   UNL     1      -3.972   8.861  16.344  0.00  0.00    -0.240 OA
ATOM     39  O   UNL     1      -4.226   7.382  14.840  0.00  0.00    -0.240 OA
ENDBRANCH  28  37
BRANCH  30  40
ATOM     40  O   UNL     1      -2.935   7.792  10.938  0.00  0.00    -0.390 OA
ATOM     41  H   UNL     1      -2.317   8.336  10.444  0.00  0.00    +0.210 HD
ENDBRANCH  30  40
BRANCH  28  42
ATOM     42  O   UNL     1      -1.198   8.778  15.350  0.00  0.00    -0.343 OA
ATOM     43  C   UNL     1      -0.761   7.414  15.574  0.00  0.00    +0.198 C 
ENDBRANCH  28  42
ENDBRANCH  25  26
BRANCH  25  44
ATOM     44  O   UNL     1      -2.502  12.745  12.746  0.00  0.00    -0.387 OA
ATOM     45  H   UNL     1      -2.631  13.672  12.531  0.00  0.00    +0.210 HD
ENDBRANCH  25  44
ENDBRANCH   1  25
TORSDOF 14
