REMARK VINA RESULT:    -4.976      2.240      3.838
REMARK INTER + INTRA:         -12.074
REMARK INTER:                  -8.553
REMARK INTRA:                  -3.522
REMARK UNBOUND:                -2.590
REMARK  Name = lig_assembled_29.pdb
REMARK  21 active torsions:
REMARK  status: ('A' for Active; 'I' for Inactive)
REMARK    1  A    between atoms: _2  and  _9
REMARK    2  A    between atoms: _4  and  _23
REMARK    3  A    between atoms: _6  and  _7
REMARK    4  A    between atoms: _6  and  _23
REMARK    5  A    between atoms: _9  and  _10
REMARK    6  A    between atoms: _12  and  _18
REMARK    7  A    between atoms: _13  and  _18
REMARK    8  A    between atoms: _14  and  _17
REMARK    9  A    between atoms: _15  and  _17
REMARK   10  A    between atoms: _19  and  _39
REMARK   11  A    between atoms: _21  and  _27
REMARK   12  A    between atoms: _22  and  _26
REMARK   13  A    between atoms: _26  and  _27
REMARK   14  A    between atoms: _29  and  _30
REMARK   15  A    between atoms: _31  and  _32
REMARK   16  A    between atoms: _33  and  _35
REMARK   17  A    between atoms: _35  and  _36
REMARK   18  A    between atoms: _35  and  _37
REMARK   19  A    between atoms: _37  and  _38
REMARK   20  A    between atoms: _37  and  _39
REMARK   21  A    between atoms: _40  and  _42
REMARK                            x       y       z     vdW  Elec       q    Type
REMARK                         _______ _______ _______ _____ _____    ______ ____
ROOT
ATOM      1  C   UNL     1      -2.984  11.735  24.780  0.00  0.00    +0.163 C 
ENDROOT
BRANCH   1   2
ATOM      2  O   UNL     1      -3.256  11.655  26.188  0.00  0.00    -0.388 OA
ATOM      3  H   UNL     1      -4.204  11.690  26.334  0.00  0.00    +0.210 HD
ENDBRANCH   1   2
BRANCH   1   4
ATOM      4  C   UNL     1      -3.889  10.775  23.989  0.00  0.00    +0.175 C 
BRANCH   4   5
ATOM      5  C   UNL     1      -4.238   9.514  24.795  0.00  0.00    +0.176 C 
ATOM      6  O   UNL     1      -2.994   8.928  25.268  0.00  0.00    -0.332 OA
ATOM      7  C   UNL     1      -3.136   7.767  26.151  0.00  0.00    +0.277 C 
ATOM      8  C   UNL     1      -4.004   6.677  25.476  0.00  0.00    +0.110 C 
ATOM      9  C   UNL     1      -5.324   7.259  24.928  0.00  0.00    +0.143 C 
ATOM     10  C   UNL     1      -5.060   8.464  24.025  0.00  0.00    +0.133 C 
BRANCH  10  11
ATOM     11  N   UNL     1      -6.328   9.063  23.579  0.00  0.00    -0.308 N 
ATOM     12  H   UNL     1      -6.925   9.479  24.280  0.00  0.00    +0.149 HD
ATOM     13  C   UNL     1      -6.741   9.092  22.309  0.00  0.00    +0.210 C 
ATOM     14  C   UNL     1      -5.821   8.426  21.269  0.00  0.00    +0.109 C 
ATOM     15  O   UNL     1      -7.802   9.613  21.963  0.00  0.00    -0.276 OA
ENDBRANCH  10  11
BRANCH   7  16
ATOM     16  C   UNL     1      -3.775   8.176  27.494  0.00  0.00    +0.414 C 
ATOM     17  O   UNL     1      -4.343   7.336  28.192  0.00  0.00    -0.240 OA
ATOM     18  O   UNL     1      -3.722   9.344  27.881  0.00  0.00    -0.240 OA
ENDBRANCH   7  16
BRANCH   7  19
ATOM     19  O   UNL     1      -1.814   7.217  26.386  0.00  0.00    -0.343 OA
ATOM     20  C   UNL     1      -1.736   5.770  26.342  0.00  0.00    +0.198 C 
ENDBRANCH   7  19
BRANCH   9  21
ATOM     21  O   UNL     1      -6.021   6.258  24.184  0.00  0.00    -0.390 OA
ATOM     22  H   UNL     1      -6.571   5.742  24.779  0.00  0.00    +0.210 HD
ENDBRANCH   9  21
ENDBRANCH   4   5
BRANCH   4  23
ATOM     23  O   UNL     1      -3.260  10.410  22.744  0.00  0.00    -0.387 OA
ATOM     24  H   UNL     1      -3.033   9.478  22.761  0.00  0.00    +0.210 HD
ENDBRANCH   4  23
ENDBRANCH   1   4
BRANCH   1  25
ATOM     25  C   UNL     1      -3.201  13.162  24.286  0.00  0.00    +0.141 C 
BRANCH  25  28
ATOM     26  C   UNL     1      -4.887  14.176  22.792  0.00  0.00    +0.401 C 
ATOM     27  O   UNL     1      -5.100  15.140  23.532  0.00  0.00    -0.226 OA
ATOM     28  N   UNL     1      -4.020  13.201  23.069  0.00  0.00    -0.279 N 
ATOM     29  H   UNL     1      -3.922  12.447  22.404  0.00  0.00    +0.152 HD
BRANCH  26  30
ATOM     30  O   UNL     1      -5.604  14.076  21.559  0.00  0.00    -0.444 OA
BRANCH  30  31
ATOM     31  C   UNL     1      -6.189  12.775  21.452  0.00  0.00    +0.292 C 
BRANCH  31  33
ATOM     32  N   UNL     1      -4.366  11.532  20.320  0.00  0.00    -0.131 NA
ATOM     33  C   UNL     1      -5.632  12.053  20.292  0.00  0.00    +0.120 A 
ATOM     34  C   UNL     1      -6.214  11.757  19.081  0.00  0.00    +0.137 A 
ATOM     35  N   UNL     1      -5.286  10.975  18.455  0.00  0.00    -0.247 N 
ATOM     36  N   UNL     1      -4.159  10.881  19.182  0.00  0.00    -0.065 NA
BRANCH  35  37
ATOM     37  C   UNL     1      -5.422  10.253  17.204  0.00  0.00    +0.180 C 
BRANCH  37  38
ATOM     38  C   UNL     1      -4.551  10.869  16.131  0.00  0.00    -0.022 A 
ATOM     39  C   UNL     1      -3.684  10.061  15.375  0.00  0.00    +0.054 A 
ATOM     40  C   UNL     1      -2.930  10.605  14.325  0.00  0.00    +0.162 A 
ATOM     41  C   UNL     1      -3.037  11.979  14.032  0.00  0.00    +0.162 A 
ATOM     42  C   UNL     1      -3.899  12.780  14.786  0.00  0.00    +0.050 A 
ATOM     43  C   UNL     1      -4.649  12.230  15.828  0.00  0.00    +0.009 A 
BRANCH  40  44
ATOM     44  O   UNL     1      -2.079   9.881  13.528  0.00  0.00    -0.491 OA
ATOM     45  C   UNL     1      -2.387   8.513  13.298  0.00  0.00    +0.277 C 
ENDBRANCH  40  44
BRANCH  41  46
ATOM     46  O   UNL     1      -2.262  12.438  12.994  0.00  0.00    -0.491 OA
ATOM     47  C   UNL     1      -2.928  12.937  11.843  0.00  0.00    +0.277 C 
ENDBRANCH  41  46
ENDBRANCH  37  38
ENDBRANCH  35  37
ENDBRANCH  31  33
ENDBRANCH  30  31
ENDBRANCH  26  30
ENDBRANCH  25  28
ENDBRANCH   1  25
TORSDOF 17
