REMARK VINA RESULT:    -4.389      3.583      6.419
REMARK INTER + INTRA:         -11.201
REMARK INTER:                  -7.119
REMARK INTRA:                  -4.082
REMARK UNBOUND:                -2.835
REMARK  Name = lig_assembled_13.pdb
REMARK  20 active torsions:
REMARK  status: ('A' for Active; 'I' for Inactive)
REMARK    1  A    between atoms: _2  and  _9
REMARK    2  A    between atoms: _4  and  _18
REMARK    3  A    between atoms: _5  and  _11
REMARK    4  A    between atoms: _6  and  _7
REMARK    5  A    between atoms: _6  and  _18
REMARK    6  A    between atoms: _9  and  _10
REMARK    7  A    between atoms: _10  and  _12
REMARK    8  A    between atoms: _11  and  _12
REMARK    9  A    between atoms: _14  and  _34
REMARK   10  A    between atoms: _16  and  _22
REMARK   11  A    between atoms: _17  and  _21
REMARK   12  A    between atoms: _21  and  _22
REMARK   13  A    between atoms: _24  and  _25
REMARK   14  A    between atoms: _26  and  _27
REMARK   15  A    between atoms: _28  and  _30
REMARK   16  A    between atoms: _30  and  _31
REMARK   17  A    between atoms: _30  and  _32
REMARK   18  A    between atoms: _32  and  _33
REMARK   19  A    between atoms: _32  and  _34
REMARK   20  A    between atoms: _35  and  _37
REMARK                            x       y       z     vdW  Elec       q    Type
REMARK                         _______ _______ _______ _____ _____    ______ ____
ROOT
ATOM      1  C   UNL     1      -3.495  11.167  21.466  0.00  0.00    +0.163 C 
ENDROOT
BRANCH   1   2
ATOM      2  O   UNL     1      -2.778  12.086  22.306  0.00  0.00    -0.388 OA
ATOM      3  H   UNL     1      -3.340  12.360  23.035  0.00  0.00    +0.210 HD
ENDBRANCH   1   2
BRANCH   1   4
ATOM      4  C   UNL     1      -4.174  10.070  22.304  0.00  0.00    +0.175 C 
BRANCH   4   5
ATOM      5  C   UNL     1      -4.194  10.415  23.800  0.00  0.00    +0.176 C 
ATOM      6  O   UNL     1      -2.937   9.969  24.379  0.00  0.00    -0.332 OA
ATOM      7  C   UNL     1      -2.732  10.311  25.789  0.00  0.00    +0.277 C 
ATOM      8  C   UNL     1      -3.914   9.799  26.648  0.00  0.00    +0.110 C 
ATOM      9  C   UNL     1      -5.274  10.222  26.054  0.00  0.00    +0.143 C 
ATOM     10  C   UNL     1      -5.380   9.820  24.583  0.00  0.00    +0.133 C 
BRANCH  10  11
ATOM     11  N   UNL     1      -6.643  10.305  24.005  0.00  0.00    -0.308 N 
ATOM     12  H   UNL     1      -6.836  11.296  24.058  0.00  0.00    +0.149 HD
ATOM     13  C   UNL     1      -7.551   9.523  23.416  0.00  0.00    +0.210 C 
ATOM     14  C   UNL     1      -7.239   8.015  23.374  0.00  0.00    +0.109 C 
ATOM     15  O   UNL     1      -8.594   9.959  22.927  0.00  0.00    -0.276 OA
ENDBRANCH  10  11
BRANCH   7  16
ATOM     16  C   UNL     1      -2.588  11.836  25.967  0.00  0.00    +0.414 C 
ATOM     17  O   UNL     1      -2.146  12.529  25.051  0.00  0.00    -0.240 OA
ATOM     18  O   UNL     1      -2.914  12.375  27.026  0.00  0.00    -0.240 OA
ENDBRANCH   7  16
BRANCH   7  19
ATOM     19  O   UNL     1      -1.521   9.650  26.239  0.00  0.00    -0.343 OA
ATOM     20  C   UNL     1      -1.515   9.269  27.638  0.00  0.00    +0.198 C 
ENDBRANCH   7  19
BRANCH   9  21
ATOM     21  O   UNL     1      -6.333   9.605  26.788  0.00  0.00    -0.390 OA
ATOM     22  H   UNL     1      -7.076   9.442  26.202  0.00  0.00    +0.210 HD
ENDBRANCH   9  21
ENDBRANCH   4   5
BRANCH   4  23
ATOM     23  O   UNL     1      -3.515   8.806  22.094  0.00  0.00    -0.387 OA
ATOM     24  H   UNL     1      -2.817   8.912  21.444  0.00  0.00    +0.210 HD
ENDBRANCH   4  23
ENDBRANCH   1   4
BRANCH   1  25
ATOM     25  C   UNL     1      -4.549  11.915  20.656  0.00  0.00    +0.141 C 
BRANCH  25  28
ATOM     26  C   UNL     1      -5.934  13.263  22.196  0.00  0.00    +0.401 C 
ATOM     27  O   UNL     1      -5.093  14.156  22.321  0.00  0.00    -0.226 OA
ATOM     28  N   UNL     1      -5.761  12.176  21.442  0.00  0.00    -0.279 N 
ATOM     29  H   UNL     1      -6.505  11.494  21.411  0.00  0.00    +0.152 HD
BRANCH  26  30
ATOM     30  O   UNL     1      -7.176  13.376  22.895  0.00  0.00    -0.444 OA
BRANCH  30  31
ATOM     31  C   UNL     1      -7.012  14.237  24.024  0.00  0.00    +0.292 C 
BRANCH  31  33
ATOM     32  N   UNL     1      -8.187  12.467  25.293  0.00  0.00    -0.131 NA
ATOM     33  C   UNL     1      -7.301  13.510  25.273  0.00  0.00    +0.120 A 
ATOM     34  C   UNL     1      -6.806  13.706  26.540  0.00  0.00    +0.137 A 
ATOM     35  N   UNL     1      -7.480  12.795  27.300  0.00  0.00    -0.241 N 
ATOM     36  N   UNL     1      -8.272  12.021  26.541  0.00  0.00    -0.065 NA
BRANCH  35  37
ATOM     37  C   UNL     1      -7.349  12.537  28.717  0.00  0.00    +0.265 C 
BRANCH  37  38
ATOM     38  C   UNL     1      -6.047  13.047  29.263  0.00  0.00    +0.329 C 
ATOM     39  O   UNL     1      -5.799  14.196  29.601  0.00  0.00    -0.249 OA
BRANCH  38  40
ATOM     40  O   UNL     1      -5.125  12.038  29.229  0.00  0.00    -0.464 OA
BRANCH  40  41
ATOM     41  C   UNL     1      -4.367  11.870  30.437  0.00  0.00    +0.229 C 
ATOM     42  C   UNL     1      -3.695  10.509  30.379  0.00  0.00    +0.048 C 
ENDBRANCH  40  41
ENDBRANCH  38  40
ENDBRANCH  37  38
ENDBRANCH  35  37
ENDBRANCH  31  33
ENDBRANCH  30  31
ENDBRANCH  26  30
ENDBRANCH  25  28
ENDBRANCH   1  25
TORSDOF 17
