REMARK VINA RESULT:    -4.185      1.392      1.525
REMARK INTER + INTRA:         -11.719
REMARK INTER:                  -7.755
REMARK INTRA:                  -3.964
REMARK UNBOUND:                -4.108
REMARK  Name = lig_assembled_53.pdb
REMARK  18 active torsions:
REMARK  status: ('A' for Active; 'I' for Inactive)
REMARK    1  A    between atoms: _2  and  _9
REMARK    2  A    between atoms: _4  and  _16
REMARK    3  A    between atoms: _5  and  _9
REMARK    4  A    between atoms: _5  and  _10
REMARK    5  A    between atoms: _6  and  _7
REMARK    6  A    between atoms: _6  and  _16
REMARK    7  A    between atoms: _12  and  _32
REMARK    8  A    between atoms: _14  and  _20
REMARK    9  A    between atoms: _15  and  _19
REMARK   10  A    between atoms: _19  and  _20
REMARK   11  A    between atoms: _22  and  _23
REMARK   12  A    between atoms: _24  and  _25
REMARK   13  A    between atoms: _26  and  _28
REMARK   14  A    between atoms: _28  and  _29
REMARK   15  A    between atoms: _28  and  _30
REMARK   16  A    between atoms: _30  and  _31
REMARK   17  A    between atoms: _30  and  _32
REMARK   18  A    between atoms: _33  and  _35
REMARK                            x       y       z     vdW  Elec       q    Type
REMARK                         _______ _______ _______ _____ _____    ______ ____
ROOT
ATOM      1  C   UNL     1      -4.458  12.305  27.196  0.00  0.00    +0.175 C 
ENDROOT
BRANCH   1   2
ATOM      2  C   UNL     1      -3.758  11.179  27.971  0.00  0.00    +0.176 C 
ATOM      3  O   UNL     1      -4.348   9.916  27.555  0.00  0.00    -0.332 OA
ATOM      4  C   UNL     1      -3.729   8.712  28.116  0.00  0.00    +0.277 C 
ATOM      5  C   UNL     1      -3.697   8.790  29.662  0.00  0.00    +0.110 C 
ATOM      6  C   UNL     1      -3.107  10.129  30.152  0.00  0.00    +0.143 C 
ATOM      7  C   UNL     1      -3.822  11.315  29.503  0.00  0.00    +0.133 C 
BRANCH   7   8
ATOM      8  N   UNL     1      -3.195  12.582  29.911  0.00  0.00    -0.308 N 
ATOM      9  H   UNL     1      -2.240  12.748  29.626  0.00  0.00    +0.149 HD
ATOM     10  C   UNL     1      -3.804  13.526  30.633  0.00  0.00    +0.210 C 
ATOM     11  C   UNL     1      -5.250  13.230  31.074  0.00  0.00    +0.109 C 
ATOM     12  O   UNL     1      -3.259  14.584  30.947  0.00  0.00    -0.276 OA
ENDBRANCH   7   8
BRANCH   4  13
ATOM     13  C   UNL     1      -2.293   8.534  27.580  0.00  0.00    +0.414 C 
ATOM     14  O   UNL     1      -1.380   8.220  28.343  0.00  0.00    -0.240 OA
ATOM     15  O   UNL     1      -2.048   8.703  26.385  0.00  0.00    -0.240 OA
ENDBRANCH   4  13
BRANCH   4  16
ATOM     16  O   UNL     1      -4.538   7.570  27.733  0.00  0.00    -0.343 OA
ATOM     17  C   UNL     1      -4.210   6.332  28.411  0.00  0.00    +0.198 C 
ENDBRANCH   4  16
BRANCH   6  18
ATOM     18  O   UNL     1      -3.236  10.222  31.572  0.00  0.00    -0.390 OA
ATOM     19  H   UNL     1      -4.162  10.156  31.815  0.00  0.00    +0.210 HD
ENDBRANCH   6  18
ENDBRANCH   1   2
BRANCH   1  20
ATOM     20  O   UNL     1      -5.750  12.576  27.773  0.00  0.00    -0.387 OA
ATOM     21  H   UNL     1      -6.434  12.409  27.121  0.00  0.00    +0.210 HD
ENDBRANCH   1  20
BRANCH   1  22
ATOM     22  C   UNL     1      -4.605  11.974  25.700  0.00  0.00    +0.163 C 
BRANCH  22  23
ATOM     23  O   UNL     1      -3.517  11.152  25.247  0.00  0.00    -0.388 OA
ATOM     24  H   UNL     1      -2.796  11.711  24.946  0.00  0.00    +0.210 HD
ENDBRANCH  22  23
BRANCH  22  25
ATOM     25  C   UNL     1      -4.652  13.268  24.895  0.00  0.00    +0.141 C 
BRANCH  25  28
ATOM     26  C   UNL     1      -4.293  13.542  22.465  0.00  0.00    +0.401 C 
ATOM     27  O   UNL     1      -3.322  14.290  22.598  0.00  0.00    -0.226 OA
ATOM     28  N   UNL     1      -4.979  13.023  23.484  0.00  0.00    -0.279 N 
ATOM     29  H   UNL     1      -5.767  12.427  23.274  0.00  0.00    +0.152 HD
BRANCH  26  30
ATOM     30  O   UNL     1      -4.731  13.200  21.148  0.00  0.00    -0.444 OA
BRANCH  30  31
ATOM     31  C   UNL     1      -3.862  12.207  20.598  0.00  0.00    +0.292 C 
BRANCH  31  33
ATOM     32  N   UNL     1      -2.940  10.622  22.263  0.00  0.00    -0.131 NA
ATOM     33  C   UNL     1      -3.935  10.963  21.387  0.00  0.00    +0.120 A 
ATOM     34  C   UNL     1      -4.907   9.989  21.409  0.00  0.00    +0.137 A 
ATOM     35  N   UNL     1      -4.418   9.050  22.267  0.00  0.00    -0.241 N 
ATOM     36  N   UNL     1      -3.256   9.458  22.814  0.00  0.00    -0.065 NA
BRANCH  35  37
ATOM     37  C   UNL     1      -5.020   7.829  22.761  0.00  0.00    +0.265 C 
BRANCH  37  38
ATOM     38  C   UNL     1      -4.692   7.480  24.188  0.00  0.00    +0.326 C 
ATOM     39  O   UNL     1      -4.352   6.387  24.614  0.00  0.00    -0.249 OA
BRANCH  38  40
ATOM     40  O   UNL     1      -4.824   8.543  25.027  0.00  0.00    -0.479 OA
ATOM     41  H   UNL     1      -4.928   8.328  25.973  0.00  0.00    +0.295 HD
ENDBRANCH  38  40
ENDBRANCH  37  38
ENDBRANCH  35  37
ENDBRANCH  31  33
ENDBRANCH  30  31
ENDBRANCH  26  30
ENDBRANCH  25  28
ENDBRANCH  22  25
ENDBRANCH   1  22
TORSDOF 16
