REMARK VINA RESULT:    -5.775      5.915     12.669
REMARK INTER + INTRA:         -13.060
REMARK INTER:                 -11.048
REMARK INTRA:                  -2.012
REMARK UNBOUND:                -2.389
REMARK  Name = lig_assembled_92.pdb
REMARK  18 active torsions:
REMARK  status: ('A' for Active; 'I' for Inactive)
REMARK    1  A    between atoms: _2  and  _11
REMARK    2  A    between atoms: _3  and  _46
REMARK    3  A    between atoms: _6  and  _25
REMARK    4  A    between atoms: _8  and  _9
REMARK    5  A    between atoms: _8  and  _25
REMARK    6  A    between atoms: _14  and  _46
REMARK    7  A    between atoms: _21  and  _41
REMARK    8  A    between atoms: _23  and  _29
REMARK    9  A    between atoms: _24  and  _28
REMARK   10  A    between atoms: _28  and  _29
REMARK   11  A    between atoms: _31  and  _32
REMARK   12  A    between atoms: _33  and  _34
REMARK   13  A    between atoms: _35  and  _37
REMARK   14  A    between atoms: _37  and  _38
REMARK   15  A    between atoms: _37  and  _39
REMARK   16  A    between atoms: _39  and  _40
REMARK   17  A    between atoms: _39  and  _41
REMARK   18  A    between atoms: _42  and  _44
REMARK                            x       y       z     vdW  Elec       q    Type
REMARK                         _______ _______ _______ _____ _____    ______ ____
ROOT
ATOM      1  C   UNL     1      -4.826  14.122  22.551  0.00  0.00    +0.401 C 
ATOM      2  O   UNL     1      -4.121  15.127  22.434  0.00  0.00    -0.226 OA
ATOM      3  N   UNL     1      -4.595  13.148  23.431  0.00  0.00    -0.279 N 
ATOM      4  H   UNL     1      -5.235  12.367  23.458  0.00  0.00    +0.152 HD
ENDROOT
BRANCH   3   5
ATOM      5  C   UNL     1      -3.461  13.146  24.365  0.00  0.00    +0.141 C 
BRANCH   5   6
ATOM      6  C   UNL     1      -3.412  11.869  25.197  0.00  0.00    +0.163 C 
BRANCH   6   7
ATOM      7  O   UNL     1      -2.139  11.224  25.033  0.00  0.00    -0.388 OA
ATOM      8  H   UNL     1      -1.471  11.881  24.826  0.00  0.00    +0.210 HD
ENDBRANCH   6   7
BRANCH   6   9
ATOM      9  C   UNL     1      -3.671  12.208  26.675  0.00  0.00    +0.175 C 
BRANCH   9  10
ATOM     10  C   UNL     1      -3.366  11.023  27.602  0.00  0.00    +0.176 C 
ATOM     11  O   UNL     1      -3.980   9.836  27.028  0.00  0.00    -0.332 OA
ATOM     12  C   UNL     1      -3.703   8.578  27.727  0.00  0.00    +0.277 C 
ATOM     13  C   UNL     1      -4.088   8.694  29.222  0.00  0.00    +0.110 C 
ATOM     14  C   UNL     1      -3.484   9.958  29.869  0.00  0.00    +0.143 C 
ATOM     15  C   UNL     1      -3.831  11.208  29.059  0.00  0.00    +0.133 C 
BRANCH  15  16
ATOM     16  N   UNL     1      -3.179  12.394  29.636  0.00  0.00    -0.308 N 
ATOM     17  H   UNL     1      -2.171  12.443  29.597  0.00  0.00    +0.149 HD
ATOM     18  C   UNL     1      -3.832  13.408  30.208  0.00  0.00    +0.210 C 
ATOM     19  C   UNL     1      -5.367  13.290  30.276  0.00  0.00    +0.109 C 
ATOM     20  O   UNL     1      -3.260  14.396  30.670  0.00  0.00    -0.276 OA
ENDBRANCH  15  16
BRANCH  12  21
ATOM     21  C   UNL     1      -2.212   8.201  27.606  0.00  0.00    +0.414 C 
ATOM     22  O   UNL     1      -1.648   8.243  26.513  0.00  0.00    -0.240 OA
ATOM     23  O   UNL     1      -1.573   7.856  28.601  0.00  0.00    -0.240 OA
ENDBRANCH  12  21
BRANCH  14  24
ATOM     24  O   UNL     1      -3.985  10.105  31.198  0.00  0.00    -0.390 OA
ATOM     25  H   UNL     1      -3.409  10.690  31.696  0.00  0.00    +0.210 HD
ENDBRANCH  14  24
BRANCH  12  26
ATOM     26  O   UNL     1      -4.519   7.540  27.124  0.00  0.00    -0.343 OA
ATOM     27  C   UNL     1      -4.435   6.244  27.768  0.00  0.00    +0.198 C 
ENDBRANCH  12  26
ENDBRANCH   9  10
BRANCH   9  28
ATOM     28  O   UNL     1      -5.035  12.640  26.853  0.00  0.00    -0.387 OA
ATOM     29  H   UNL     1      -5.057  13.594  26.968  0.00  0.00    +0.210 HD
ENDBRANCH   9  28
ENDBRANCH   6   9
ENDBRANCH   5   6
ENDBRANCH   3   5
BRANCH   1  30
ATOM     30  O   UNL     1      -5.968  13.973  21.704  0.00  0.00    -0.444 OA
BRANCH  30  31
ATOM     31  C   UNL     1      -6.198  12.584  21.453  0.00  0.00    +0.292 C 
BRANCH  31  33
ATOM     32  N   UNL     1      -7.181  12.466  19.180  0.00  0.00    -0.131 NA
ATOM     33  C   UNL     1      -6.109  12.301  20.008  0.00  0.00    +0.121 A 
ATOM     34  C   UNL     1      -5.034  11.867  19.268  0.00  0.00    +0.143 A 
ATOM     35  N   UNL     1      -5.493  11.809  17.972  0.00  0.00    -0.220 N 
ATOM     36  N   UNL     1      -6.801  12.159  17.945  0.00  0.00    -0.060 NA
BRANCH  35  37
ATOM     37  C   UNL     1      -4.770  11.483  16.797  0.00  0.00    +0.067 A 
ATOM     38  C   UNL     1      -4.211  12.497  16.003  0.00  0.00    +0.030 A 
ATOM     39  C   UNL     1      -3.553  12.177  14.817  0.00  0.00    +0.031 A 
ATOM     40  C   UNL     1      -3.439  10.842  14.424  0.00  0.00    +0.109 A 
ATOM     41  C   UNL     1      -3.981   9.820  15.208  0.00  0.00    +0.031 A 
ATOM     42  C   UNL     1      -4.639  10.141  16.401  0.00  0.00    +0.030 A 
BRANCH  40  43
ATOM     43  S   UNL     1      -2.731  10.486  12.837  0.00  0.00    +0.074 S 
ATOM     44  O   UNL     1      -1.904  11.617  12.464  0.00  0.00    -0.150 OA
ATOM     45  O   UNL     1      -2.168   9.157  12.872  0.00  0.00    -0.150 OA
BRANCH  43  46
ATOM     46  N   UNL     1      -4.056  10.548  11.792  0.00  0.00    -0.194 N 
ATOM     47  H   UNL     1      -3.788  11.168  11.032  0.00  0.00    +0.176 HD
ATOM     48  C   UNL     1      -4.452   9.266  11.359  0.00  0.00    +0.177 A 
ATOM     49  S   UNL     1      -3.968   8.608   9.858  0.00  0.00    -0.059 S 
ATOM     50  C   UNL     1      -4.965   7.244  10.161  0.00  0.00    +0.068 A 
ATOM     51  C   UNL     1      -5.650   7.430  11.344  0.00  0.00    +0.120 A 
ATOM     52  N   UNL     1      -5.329   8.577  12.046  0.00  0.00    -0.232 NA
ENDBRANCH  43  46
ENDBRANCH  40  43
ENDBRANCH  35  37
ENDBRANCH  31  33
ENDBRANCH  30  31
ENDBRANCH   1  30
TORSDOF 16
