REMARK VINA RESULT:    -5.184      5.689      9.828
REMARK INTER + INTRA:         -12.435
REMARK INTER:                  -9.923
REMARK INTRA:                  -2.512
REMARK UNBOUND:                -2.554
REMARK  Name = lig_assembled_9.pdb
REMARK  20 active torsions:
REMARK  status: ('A' for Active; 'I' for Inactive)
REMARK    1  A    between atoms: _2  and  _9
REMARK    2  A    between atoms: _4  and  _23
REMARK    3  A    between atoms: _6  and  _7
REMARK    4  A    between atoms: _6  and  _23
REMARK    5  A    between atoms: _11  and  _12
REMARK    6  A    between atoms: _12  and  _17
REMARK    7  A    between atoms: _13  and  _14
REMARK    8  A    between atoms: _13  and  _17
REMARK    9  A    between atoms: _19  and  _39
REMARK   10  A    between atoms: _21  and  _27
REMARK   11  A    between atoms: _22  and  _26
REMARK   12  A    between atoms: _26  and  _27
REMARK   13  A    between atoms: _29  and  _30
REMARK   14  A    between atoms: _31  and  _32
REMARK   15  A    between atoms: _33  and  _35
REMARK   16  A    between atoms: _35  and  _36
REMARK   17  A    between atoms: _35  and  _37
REMARK   18  A    between atoms: _37  and  _38
REMARK   19  A    between atoms: _37  and  _39
REMARK   20  A    between atoms: _40  and  _42
REMARK                            x       y       z     vdW  Elec       q    Type
REMARK                         _______ _______ _______ _____ _____    ______ ____
ROOT
ATOM      1  C   UNL     1      -2.983   9.423  14.225  0.00  0.00    +0.163 C 
ENDROOT
BRANCH   1   2
ATOM      2  O   UNL     1      -1.687   9.160  13.662  0.00  0.00    -0.388 OA
ATOM      3  H   UNL     1      -1.036   9.732  14.076  0.00  0.00    +0.210 HD
ENDBRANCH   1   2
BRANCH   1   4
ATOM      4  C   UNL     1      -3.988   9.822  13.131  0.00  0.00    +0.175 C 
BRANCH   4   5
ATOM      5  C   UNL     1      -3.717  11.232  12.584  0.00  0.00    +0.176 C 
ATOM      6  O   UNL     1      -2.443  11.202  11.882  0.00  0.00    -0.332 OA
ATOM      7  C   UNL     1      -2.067  12.442  11.199  0.00  0.00    +0.277 C 
ATOM      8  C   UNL     1      -2.092  13.634  12.187  0.00  0.00    +0.110 C 
ATOM      9  C   UNL     1      -3.414  13.689  12.980  0.00  0.00    +0.143 C 
ATOM     10  C   UNL     1      -3.710  12.345  13.648  0.00  0.00    +0.133 C 
BRANCH  10  11
ATOM     11  N   UNL     1      -5.014  12.384  14.328  0.00  0.00    -0.308 N 
ATOM     12  H   UNL     1      -5.846  12.368  13.754  0.00  0.00    +0.149 HD
ATOM     13  C   UNL     1      -5.171  12.438  15.653  0.00  0.00    +0.210 C 
ATOM     14  C   UNL     1      -3.884  12.487  16.498  0.00  0.00    +0.109 C 
ATOM     15  O   UNL     1      -6.277  12.454  16.195  0.00  0.00    -0.276 OA
ENDBRANCH  10  11
BRANCH   7  16
ATOM     16  C   UNL     1      -3.022  12.730  10.021  0.00  0.00    +0.414 C 
ATOM     17  O   UNL     1      -3.610  13.808   9.949  0.00  0.00    -0.240 OA
ATOM     18  O   UNL     1      -3.204  11.884   9.145  0.00  0.00    -0.240 OA
ENDBRANCH   7  16
BRANCH   7  19
ATOM     19  O   UNL     1      -0.712  12.288  10.702  0.00  0.00    -0.343 OA
ATOM     20  C   UNL     1       0.143  13.445  10.885  0.00  0.00    +0.198 C 
ENDBRANCH   7  19
BRANCH   9  21
ATOM     21  O   UNL     1      -3.334  14.704  13.981  0.00  0.00    -0.390 OA
ATOM     22  H   UNL     1      -2.874  14.361  14.750  0.00  0.00    +0.210 HD
ENDBRANCH   9  21
ENDBRANCH   4   5
BRANCH   4  23
ATOM     23  O   UNL     1      -5.335   9.737  13.638  0.00  0.00    -0.387 OA
ATOM     24  H   UNL     1      -5.316   9.419  14.544  0.00  0.00    +0.210 HD
ENDBRANCH   4  23
ENDBRANCH   1   4
BRANCH   1  25
ATOM     25  C   UNL     1      -3.494   8.186  14.958  0.00  0.00    +0.141 C 
BRANCH  25  28
ATOM     26  C   UNL     1      -4.921   8.545  16.943  0.00  0.00    +0.401 C 
ATOM     27  O   UNL     1      -5.979   8.436  16.319  0.00  0.00    -0.226 OA
ATOM     28  N   UNL     1      -3.713   8.448  16.386  0.00  0.00    -0.279 N 
ATOM     29  H   UNL     1      -2.903   8.562  16.980  0.00  0.00    +0.152 HD
BRANCH  26  30
ATOM     30  O   UNL     1      -4.967   8.794  18.351  0.00  0.00    -0.444 OA
BRANCH  30  31
ATOM     31  C   UNL     1      -5.974   9.770  18.630  0.00  0.00    +0.292 C 
BRANCH  31  33
ATOM     32  N   UNL     1      -5.950  11.942  19.819  0.00  0.00    -0.131 NA
ATOM     33  C   UNL     1      -5.547  10.640  19.742  0.00  0.00    +0.121 A 
ATOM     34  C   UNL     1      -4.748  10.352  20.824  0.00  0.00    +0.143 A 
ATOM     35  N   UNL     1      -4.723  11.513  21.565  0.00  0.00    -0.220 N 
ATOM     36  N   UNL     1      -5.439  12.467  20.924  0.00  0.00    -0.060 NA
BRANCH  35  37
ATOM     37  C   UNL     1      -4.103  11.750  22.819  0.00  0.00    +0.068 A 
ATOM     38  C   UNL     1      -3.688  10.679  23.622  0.00  0.00    +0.042 A 
ATOM     39  C   UNL     1      -3.105  10.919  24.876  0.00  0.00    +0.061 A 
ATOM     40  C   UNL     1      -2.935  12.234  25.321  0.00  0.00    +0.015 A 
ATOM     41  C   UNL     1      -3.335  13.304  24.518  0.00  0.00    +0.003 A 
ATOM     42  C   UNL     1      -3.916  13.066  23.270  0.00  0.00    +0.028 A 
BRANCH  39  43
ATOM     43  C   UNL     1      -2.598   9.814  25.731  0.00  0.00    +0.339 C 
ATOM     44  O   UNL     1      -1.432   9.703  26.074  0.00  0.00    -0.245 OA
BRANCH  43  45
ATOM     45  O   UNL     1      -3.593   8.926  25.972  0.00  0.00    -0.461 OA
BRANCH  45  46
ATOM     46  C   UNL     1      -4.124   8.937  27.304  0.00  0.00    +0.229 C 
ATOM     47  C   UNL     1      -3.483   7.796  28.073  0.00  0.00    +0.048 C 
ENDBRANCH  45  46
ENDBRANCH  43  45
ENDBRANCH  39  43
ENDBRANCH  35  37
ENDBRANCH  31  33
ENDBRANCH  30  31
ENDBRANCH  26  30
ENDBRANCH  25  28
ENDBRANCH   1  25
TORSDOF 17
