REMARK VINA RESULT:    -4.005      2.909      8.448
REMARK INTER + INTRA:         -10.218
REMARK INTER:                  -7.496
REMARK INTRA:                  -2.722
REMARK UNBOUND:                -2.934
REMARK  Name = lig_assembled_72.pdb
REMARK  20 active torsions:
REMARK  status: ('A' for Active; 'I' for Inactive)
REMARK    1  A    between atoms: _2  and  _9
REMARK    2  A    between atoms: _4  and  _17
REMARK    3  A    between atoms: _5  and  _9
REMARK    4  A    between atoms: _5  and  _12
REMARK    5  A    between atoms: _6  and  _7
REMARK    6  A    between atoms: _6  and  _17
REMARK    7  A    between atoms: _9  and  _10
REMARK    8  A    between atoms: _9  and  _11
REMARK    9  A    between atoms: _13  and  _33
REMARK   10  A    between atoms: _15  and  _21
REMARK   11  A    between atoms: _16  and  _20
REMARK   12  A    between atoms: _20  and  _21
REMARK   13  A    between atoms: _23  and  _24
REMARK   14  A    between atoms: _25  and  _26
REMARK   15  A    between atoms: _27  and  _29
REMARK   16  A    between atoms: _29  and  _30
REMARK   17  A    between atoms: _29  and  _31
REMARK   18  A    between atoms: _31  and  _32
REMARK   19  A    between atoms: _31  and  _33
REMARK   20  A    between atoms: _34  and  _36
REMARK                            x       y       z     vdW  Elec       q    Type
REMARK                         _______ _______ _______ _____ _____    ______ ____
ROOT
ATOM      1  C   UNL     1      -3.057  11.271  26.103  0.00  0.00    +0.163 C 
ENDROOT
BRANCH   1   2
ATOM      2  O   UNL     1      -2.020  11.951  25.377  0.00  0.00    -0.388 OA
ATOM      3  H   UNL     1      -2.331  12.160  24.493  0.00  0.00    +0.210 HD
ENDBRANCH   1   2
BRANCH   1   4
ATOM      4  C   UNL     1      -4.043  10.587  25.141  0.00  0.00    +0.175 C 
BRANCH   4   5
ATOM      5  C   UNL     1      -4.955  11.599  24.432  0.00  0.00    +0.176 C 
ATOM      6  O   UNL     1      -4.154  12.311  23.449  0.00  0.00    -0.332 OA
ATOM      7  C   UNL     1      -4.886  13.252  22.596  0.00  0.00    +0.277 C 
ATOM      8  C   UNL     1      -5.676  14.265  23.461  0.00  0.00    +0.110 C 
ATOM      9  C   UNL     1      -6.519  13.555  24.541  0.00  0.00    +0.143 C 
ATOM     10  C   UNL     1      -5.659  12.598  25.368  0.00  0.00    +0.133 C 
BRANCH  10  11
ATOM     11  N   UNL     1      -6.489  11.864  26.336  0.00  0.00    -0.308 N 
ATOM     12  H   UNL     1      -7.154  11.195  25.975  0.00  0.00    +0.149 HD
ATOM     13  C   UNL     1      -6.422  12.025  27.660  0.00  0.00    +0.210 C 
ATOM     14  C   UNL     1      -5.418  13.072  28.177  0.00  0.00    +0.109 C 
ATOM     15  O   UNL     1      -7.120  11.386  28.448  0.00  0.00    -0.276 OA
ENDBRANCH  10  11
BRANCH   7  16
ATOM     16  C   UNL     1      -5.859  12.501  21.663  0.00  0.00    +0.414 C 
ATOM     17  O   UNL     1      -6.718  13.120  21.035  0.00  0.00    -0.240 OA
ATOM     18  O   UNL     1      -5.786  11.278  21.539  0.00  0.00    -0.240 OA
ENDBRANCH   7  16
BRANCH   9  19
ATOM     19  O   UNL     1      -7.108  14.526  25.407  0.00  0.00    -0.390 OA
ATOM     20  H   UNL     1      -6.529  14.680  26.157  0.00  0.00    +0.210 HD
ENDBRANCH   9  19
BRANCH   7  21
ATOM     21  O   UNL     1      -3.918  13.986  21.803  0.00  0.00    -0.343 OA
ATOM     22  C   UNL     1      -3.089  13.168  20.939  0.00  0.00    +0.198 C 
ENDBRANCH   7  21
ENDBRANCH   4   5
BRANCH   4  23
ATOM     23  O   UNL     1      -4.837   9.615  25.851  0.00  0.00    -0.387 OA
ATOM     24  H   UNL     1      -5.525   9.278  25.272  0.00  0.00    +0.210 HD
ENDBRANCH   4  23
ENDBRANCH   1   4
BRANCH   1  25
ATOM     25  C   UNL     1      -2.446  10.228  27.033  0.00  0.00    +0.141 C 
BRANCH  25  28
ATOM     26  C   UNL     1      -3.770   9.653  29.038  0.00  0.00    +0.401 C 
ATOM     27  O   UNL     1      -4.352   8.709  28.499  0.00  0.00    -0.226 OA
ATOM     28  N   UNL     1      -2.868  10.422  28.425  0.00  0.00    -0.279 N 
ATOM     29  H   UNL     1      -2.452  11.179  28.949  0.00  0.00    +0.152 HD
BRANCH  26  30
ATOM     30  O   UNL     1      -4.068   9.965  30.401  0.00  0.00    -0.444 OA
BRANCH  30  31
ATOM     31  C   UNL     1      -2.855  10.263  31.099  0.00  0.00    +0.292 C 
BRANCH  31  33
ATOM     32  N   UNL     1      -1.860  12.131  32.379  0.00  0.00    -0.131 NA
ATOM     33  C   UNL     1      -2.906  11.627  31.655  0.00  0.00    +0.120 A 
ATOM     34  C   UNL     1      -3.898  12.580  31.577  0.00  0.00    +0.137 A 
ATOM     35  N   UNL     1      -3.397  13.646  32.273  0.00  0.00    -0.244 N 
ATOM     36  N   UNL     1      -2.169  13.362  32.752  0.00  0.00    -0.065 NA
BRANCH  35  37
ATOM     37  C   UNL     1      -4.027  14.953  32.514  0.00  0.00    +0.083 C 
ATOM     38  C   UNL     1      -5.530  14.749  32.782  0.00  0.00    +0.038 C 
ATOM     39  C   UNL     1      -3.843  15.852  31.276  0.00  0.00    +0.038 C 
BRANCH  37  40
ATOM     40  C   UNL     1      -3.416  15.663  33.754  0.00  0.00    +0.185 C 
BRANCH  40  41
ATOM     41  O   UNL     1      -2.058  16.048  33.555  0.00  0.00    -0.393 OA
ATOM     42  H   UNL     1      -1.610  15.266  33.165  0.00  0.00    +0.209 HD
ENDBRANCH  40  41
ENDBRANCH  37  40
ENDBRANCH  35  37
ENDBRANCH  31  33
ENDBRANCH  30  31
ENDBRANCH  26  30
ENDBRANCH  25  28
ENDBRANCH   1  25
TORSDOF 16
