REMARK VINA RESULT:    -5.527      2.377      3.748
REMARK INTER + INTRA:         -14.097
REMARK INTER:                  -9.543
REMARK INTRA:                  -4.553
REMARK UNBOUND:                -3.885
REMARK  Name = lig_assembled_79.pdb
REMARK  20 active torsions:
REMARK  status: ('A' for Active; 'I' for Inactive)
REMARK    1  A    between atoms: _2  and  _10
REMARK    2  A    between atoms: _5  and  _26
REMARK    3  A    between atoms: _7  and  _8
REMARK    4  A    between atoms: _7  and  _26
REMARK    5  A    between atoms: _10  and  _11
REMARK    6  A    between atoms: _10  and  _12
REMARK    7  A    between atoms: _10  and  _13
REMARK    8  A    between atoms: _13  and  _14
REMARK    9  A    between atoms: _22  and  _42
REMARK   10  A    between atoms: _24  and  _30
REMARK   11  A    between atoms: _25  and  _29
REMARK   12  A    between atoms: _29  and  _30
REMARK   13  A    between atoms: _32  and  _33
REMARK   14  A    between atoms: _34  and  _35
REMARK   15  A    between atoms: _36  and  _38
REMARK   16  A    between atoms: _38  and  _39
REMARK   17  A    between atoms: _38  and  _40
REMARK   18  A    between atoms: _40  and  _41
REMARK   19  A    between atoms: _40  and  _42
REMARK   20  A    between atoms: _43  and  _45
REMARK                            x       y       z     vdW  Elec       q    Type
REMARK                         _______ _______ _______ _____ _____    ______ ____
ROOT
ATOM      1  C   UNL     1      -2.810   6.645  25.841  0.00  0.00    +0.401 C 
ATOM      2  O   UNL     1      -1.633   6.961  26.032  0.00  0.00    -0.226 OA
ATOM      3  N   UNL     1      -3.670   6.351  26.816  0.00  0.00    -0.279 N 
ATOM      4  H   UNL     1      -4.618   6.112  26.560  0.00  0.00    +0.152 HD
ENDROOT
BRANCH   3   5
ATOM      5  C   UNL     1      -3.318   6.355  28.242  0.00  0.00    +0.141 C 
BRANCH   5   6
ATOM      6  C   UNL     1      -3.775   7.633  28.937  0.00  0.00    +0.163 C 
BRANCH   6   7
ATOM      7  O   UNL     1      -4.668   7.312  30.016  0.00  0.00    -0.388 OA
ATOM      8  H   UNL     1      -4.205   7.401  30.853  0.00  0.00    +0.210 HD
ENDBRANCH   6   7
BRANCH   6   9
ATOM      9  C   UNL     1      -2.548   8.406  29.449  0.00  0.00    +0.175 C 
BRANCH   9  10
ATOM     10  C   UNL     1      -2.879   9.874  29.760  0.00  0.00    +0.176 C 
ATOM     11  O   UNL     1      -3.778   9.897  30.902  0.00  0.00    -0.332 OA
ATOM     12  C   UNL     1      -4.121  11.228  31.412  0.00  0.00    +0.277 C 
ATOM     13  C   UNL     1      -4.694  12.111  30.276  0.00  0.00    +0.110 C 
ATOM     14  C   UNL     1      -3.788  12.092  29.028  0.00  0.00    +0.143 C 
ATOM     15  C   UNL     1      -3.492  10.659  28.586  0.00  0.00    +0.133 C 
BRANCH  15  16
ATOM     16  N   UNL     1      -2.558  10.652  27.449  0.00  0.00    -0.308 N 
ATOM     17  H   UNL     1      -1.594  10.898  27.629  0.00  0.00    +0.149 HD
ATOM     18  C   UNL     1      -2.900  10.342  26.195  0.00  0.00    +0.210 C 
ATOM     19  C   UNL     1      -4.380   9.997  25.949  0.00  0.00    +0.109 C 
ATOM     20  O   UNL     1      -2.092  10.331  25.265  0.00  0.00    -0.276 OA
ENDBRANCH  15  16
BRANCH  12  21
ATOM     21  C   UNL     1      -2.883  11.915  32.024  0.00  0.00    +0.414 C 
ATOM     22  O   UNL     1      -2.874  13.133  32.203  0.00  0.00    -0.240 OA
ATOM     23  O   UNL     1      -1.894  11.253  32.339  0.00  0.00    -0.240 OA
ENDBRANCH  12  21
BRANCH  14  24
ATOM     24  O   UNL     1      -4.425  12.793  27.959  0.00  0.00    -0.390 OA
ATOM     25  H   UNL     1      -4.272  13.735  28.056  0.00  0.00    +0.210 HD
ENDBRANCH  14  24
BRANCH  12  26
ATOM     26  O   UNL     1      -5.144  11.070  32.428  0.00  0.00    -0.343 OA
ATOM     27  C   UNL     1      -6.293  11.942  32.282  0.00  0.00    +0.198 C 
ENDBRANCH  12  26
ENDBRANCH   9  10
BRANCH   9  28
ATOM     28  O   UNL     1      -1.477   8.331  28.487  0.00  0.00    -0.387 OA
ATOM     29  H   UNL     1      -1.651   8.940  27.766  0.00  0.00    +0.210 HD
ENDBRANCH   9  28
ENDBRANCH   6   9
ENDBRANCH   5   6
ENDBRANCH   3   5
BRANCH   1  30
ATOM     30  O   UNL     1      -3.305   6.587  24.501  0.00  0.00    -0.444 OA
BRANCH  30  31
ATOM     31  C   UNL     1      -4.725   6.425  24.522  0.00  0.00    +0.292 C 
BRANCH  31  33
ATOM     32  N   UNL     1      -6.482   8.034  23.883  0.00  0.00    -0.131 NA
ATOM     33  C   UNL     1      -5.355   7.339  23.553  0.00  0.00    +0.120 A 
ATOM     34  C   UNL     1      -4.996   7.649  22.261  0.00  0.00    +0.138 A 
ATOM     35  N   UNL     1      -5.890   8.611  21.877  0.00  0.00    -0.238 N 
ATOM     36  N   UNL     1      -6.829   8.772  22.842  0.00  0.00    -0.064 NA
BRANCH  35  37
ATOM     37  C   UNL     1      -6.080   9.301  20.568  0.00  0.00    +0.122 C 
ATOM     38  C   UNL     1      -7.459  10.000  20.636  0.00  0.00    +0.044 C 
ATOM     39  C   UNL     1      -5.974   8.184  19.511  0.00  0.00    +0.044 C 
BRANCH  37  40
ATOM     40  C   UNL     1      -5.025  10.391  20.287  0.00  0.00    +0.192 C 
ATOM     41  O   UNL     1      -4.652  10.615  19.131  0.00  0.00    -0.289 OA
BRANCH  40  42
ATOM     42  C   UNL     1      -4.395  11.199  21.372  0.00  0.00    +0.045 A 
ATOM     43  C   UNL     1      -3.013  11.202  21.519  0.00  0.00    +0.095 A 
ATOM     44  N   UNL     1      -2.665  11.979  22.581  0.00  0.00    -0.360 N 
ATOM     45  H   UNL     1      -1.720  12.139  22.905  0.00  0.00    +0.165 HD
ATOM     46  C   UNL     1      -3.788  12.509  23.162  0.00  0.00    +0.047 A 
ATOM     47  C   UNL     1      -3.886  13.350  24.280  0.00  0.00    +0.026 A 
ATOM     48  C   UNL     1      -5.154  13.758  24.689  0.00  0.00    +0.002 A 
ATOM     49  C   UNL     1      -6.283  13.341  24.002  0.00  0.00    +0.001 A 
ATOM     50  C   UNL     1      -6.164  12.501  22.887  0.00  0.00    +0.011 A 
ATOM     51  C   UNL     1      -4.897  12.055  22.434  0.00  0.00    +0.010 A 
ENDBRANCH  40  42
ENDBRANCH  37  40
ENDBRANCH  35  37
ENDBRANCH  31  33
ENDBRANCH  30  31
ENDBRANCH   1  30
TORSDOF 16
