REMARK VINA RESULT:    -4.593      4.366      8.202
REMARK INTER + INTRA:         -11.066
REMARK INTER:                  -7.877
REMARK INTRA:                  -3.189
REMARK UNBOUND:                -2.848
REMARK  Name = lig_assembled_63.pdb
REMARK  17 active torsions:
REMARK  status: ('A' for Active; 'I' for Inactive)
REMARK    1  A    between atoms: _2  and  _11
REMARK    2  A    between atoms: _6  and  _20
REMARK    3  A    between atoms: _7  and  _15
REMARK    4  A    between atoms: _8  and  _9
REMARK    5  A    between atoms: _8  and  _20
REMARK    6  A    between atoms: _16  and  _36
REMARK    7  A    between atoms: _18  and  _24
REMARK    8  A    between atoms: _19  and  _23
REMARK    9  A    between atoms: _23  and  _24
REMARK   10  A    between atoms: _26  and  _27
REMARK   11  A    between atoms: _28  and  _29
REMARK   12  A    between atoms: _30  and  _32
REMARK   13  A    between atoms: _32  and  _33
REMARK   14  A    between atoms: _32  and  _34
REMARK   15  A    between atoms: _34  and  _35
REMARK   16  A    between atoms: _34  and  _36
REMARK   17  A    between atoms: _37  and  _39
REMARK                            x       y       z     vdW  Elec       q    Type
REMARK                         _______ _______ _______ _____ _____    ______ ____
ROOT
ATOM      1  C   UNL     1      -2.935  11.697  24.763  0.00  0.00    +0.163 C 
ENDROOT
BRANCH   1   2
ATOM      2  O   UNL     1      -3.149  11.520  26.173  0.00  0.00    -0.388 OA
ATOM      3  H   UNL     1      -4.024  11.840  26.407  0.00  0.00    +0.210 HD
ENDBRANCH   1   2
BRANCH   1   4
ATOM      4  C   UNL     1      -3.218  13.143  24.370  0.00  0.00    +0.141 C 
BRANCH   4   7
ATOM      5  C   UNL     1      -4.197  14.226  22.376  0.00  0.00    +0.401 C 
ATOM      6  O   UNL     1      -3.417  15.181  22.396  0.00  0.00    -0.226 OA
ATOM      7  N   UNL     1      -4.180  13.231  23.264  0.00  0.00    -0.279 N 
ATOM      8  H   UNL     1      -4.867  12.497  23.170  0.00  0.00    +0.152 HD
BRANCH   5   9
ATOM      9  O   UNL     1      -5.192  14.163  21.351  0.00  0.00    -0.444 OA
BRANCH   9  10
ATOM     10  C   UNL     1      -5.865  12.903  21.416  0.00  0.00    +0.292 C 
BRANCH  10  12
ATOM     11  N   UNL     1      -6.911  12.194  19.292  0.00  0.00    -0.131 NA
ATOM     12  C   UNL     1      -5.816  12.225  20.107  0.00  0.00    +0.121 A 
ATOM     13  C   UNL     1      -4.789  11.543  19.500  0.00  0.00    +0.145 A 
ATOM     14  N   UNL     1      -5.321  11.074  18.316  0.00  0.00    -0.200 N 
ATOM     15  N   UNL     1      -6.598  11.500  18.205  0.00  0.00    -0.059 NA
BRANCH  14  16
ATOM     16  C   UNL     1      -4.672  10.223  17.373  0.00  0.00    +0.173 A 
ATOM     17  C   UNL     1      -4.083  10.713  16.205  0.00  0.00    +0.096 A 
ATOM     18  C   UNL     1      -3.557   9.776  15.298  0.00  0.00    +0.024 A 
ATOM     19  C   UNL     1      -3.605   8.414  15.581  0.00  0.00    +0.021 A 
ATOM     20  C   UNL     1      -4.171   8.020  16.776  0.00  0.00    +0.113 A 
ATOM     21  N   UNL     1      -4.703   8.884  17.666  0.00  0.00    -0.235 NA
BRANCH  17  22
ATOM     22  C   UNL     1      -3.949  12.096  15.857  0.00  0.00    +0.103 C 
ATOM     23  N   UNL     1      -3.752  13.220  15.635  0.00  0.00    -0.191 NA
ENDBRANCH  17  22
ENDBRANCH  14  16
ENDBRANCH  10  12
ENDBRANCH   9  10
ENDBRANCH   5   9
ENDBRANCH   4   7
ENDBRANCH   1   4
BRANCH   1  24
ATOM     24  C   UNL     1      -3.838  10.756  23.947  0.00  0.00    +0.175 C 
BRANCH  24  25
ATOM     25  C   UNL     1      -4.215   9.492  24.732  0.00  0.00    +0.176 C 
ATOM     26  O   UNL     1      -2.988   8.899  25.241  0.00  0.00    -0.332 OA
ATOM     27  C   UNL     1      -3.162   7.732  26.111  0.00  0.00    +0.277 C 
ATOM     28  C   UNL     1      -4.011   6.649  25.401  0.00  0.00    +0.110 C 
ATOM     29  C   UNL     1      -5.312   7.239  24.816  0.00  0.00    +0.143 C 
ATOM     30  C   UNL     1      -5.015   8.449  23.930  0.00  0.00    +0.133 C 
BRANCH  30  31
ATOM     31  N   UNL     1      -6.267   9.054  23.449  0.00  0.00    -0.308 N 
ATOM     32  H   UNL     1      -6.886   9.464  24.134  0.00  0.00    +0.149 HD
ATOM     33  C   UNL     1      -6.638   9.097  22.166  0.00  0.00    +0.210 C 
ATOM     34  C   UNL     1      -5.684   8.441  21.150  0.00  0.00    +0.109 C 
ATOM     35  O   UNL     1      -7.686   9.624  21.790  0.00  0.00    -0.276 OA
ENDBRANCH  30  31
BRANCH  27  36
ATOM     36  C   UNL     1      -3.841   8.134  27.436  0.00  0.00    +0.414 C 
ATOM     37  O   UNL     1      -4.607   7.355  28.002  0.00  0.00    -0.240 OA
ATOM     38  O   UNL     1      -3.624   9.237  27.940  0.00  0.00    -0.240 OA
ENDBRANCH  27  36
BRANCH  27  39
ATOM     39  O   UNL     1      -1.849   7.177  26.384  0.00  0.00    -0.343 OA
ATOM     40  C   UNL     1      -1.764   5.732  26.291  0.00  0.00    +0.198 C 
ENDBRANCH  27  39
BRANCH  29  41
ATOM     41  O   UNL     1      -5.987   6.245  24.045  0.00  0.00    -0.390 OA
ATOM     42  H   UNL     1      -6.926   6.268  24.243  0.00  0.00    +0.210 HD
ENDBRANCH  29  41
ENDBRANCH  24  25
BRANCH  24  43
ATOM     43  O   UNL     1      -3.192  10.398  22.709  0.00  0.00    -0.387 OA
ATOM     44  H   UNL     1      -3.640  10.828  21.977  0.00  0.00    +0.210 HD
ENDBRANCH  24  43
ENDBRANCH   1  24
TORSDOF 15
