REMARK VINA RESULT:    -3.769      2.627      7.342
REMARK INTER + INTRA:          -9.788
REMARK INTER:                  -5.913
REMARK INTRA:                  -3.875
REMARK UNBOUND:                -2.934
REMARK  Name = lig_assembled_72.pdb
REMARK  20 active torsions:
REMARK  status: ('A' for Active; 'I' for Inactive)
REMARK    1  A    between atoms: _2  and  _9
REMARK    2  A    between atoms: _4  and  _17
REMARK    3  A    between atoms: _5  and  _9
REMARK    4  A    between atoms: _5  and  _12
REMARK    5  A    between atoms: _6  and  _7
REMARK    6  A    between atoms: _6  and  _17
REMARK    7  A    between atoms: _9  and  _10
REMARK    8  A    between atoms: _9  and  _11
REMARK    9  A    between atoms: _13  and  _33
REMARK   10  A    between atoms: _15  and  _21
REMARK   11  A    between atoms: _16  and  _20
REMARK   12  A    between atoms: _20  and  _21
REMARK   13  A    between atoms: _23  and  _24
REMARK   14  A    between atoms: _25  and  _26
REMARK   15  A    between atoms: _27  and  _29
REMARK   16  A    between atoms: _29  and  _30
REMARK   17  A    between atoms: _29  and  _31
REMARK   18  A    between atoms: _31  and  _32
REMARK   19  A    between atoms: _31  and  _33
REMARK   20  A    between atoms: _34  and  _36
REMARK                            x       y       z     vdW  Elec       q    Type
REMARK                         _______ _______ _______ _____ _____    ______ ____
ROOT
ATOM      1  C   UNL     1      -6.946   8.468  24.886  0.00  0.00    +0.163 C 
ENDROOT
BRANCH   1   2
ATOM      2  O   UNL     1      -7.426   9.699  24.322  0.00  0.00    -0.388 OA
ATOM      3  H   UNL     1      -7.083  10.439  24.828  0.00  0.00    +0.210 HD
ENDBRANCH   1   2
BRANCH   1   4
ATOM      4  C   UNL     1      -5.460   8.581  25.270  0.00  0.00    +0.175 C 
BRANCH   4   5
ATOM      5  C   UNL     1      -4.899   9.985  25.001  0.00  0.00    +0.176 C 
ATOM      6  O   UNL     1      -4.640  10.098  23.574  0.00  0.00    -0.332 OA
ATOM      7  C   UNL     1      -4.196  11.416  23.112  0.00  0.00    +0.277 C 
ATOM      8  C   UNL     1      -2.951  11.877  23.908  0.00  0.00    +0.110 C 
ATOM      9  C   UNL     1      -3.167  11.746  25.431  0.00  0.00    +0.143 C 
ATOM     10  C   UNL     1      -3.630  10.336  25.799  0.00  0.00    +0.133 C 
BRANCH  10  11
ATOM     11  N   UNL     1      -3.916  10.248  27.240  0.00  0.00    -0.308 N 
ATOM     12  H   UNL     1      -4.693  10.784  27.600  0.00  0.00    +0.149 HD
ATOM     13  C   UNL     1      -3.216   9.506  28.102  0.00  0.00    +0.210 C 
ATOM     14  C   UNL     1      -2.022   8.722  27.527  0.00  0.00    +0.109 C 
ATOM     15  O   UNL     1      -3.487   9.440  29.302  0.00  0.00    -0.276 OA
ENDBRANCH  10  11
BRANCH   7  16
ATOM     16  C   UNL     1      -5.323  12.459  23.269  0.00  0.00    +0.414 C 
ATOM     17  O   UNL     1      -5.078  13.571  23.734  0.00  0.00    -0.240 OA
ATOM     18  O   UNL     1      -6.476  12.187  22.931  0.00  0.00    -0.240 OA
ENDBRANCH   7  16
BRANCH   9  19
ATOM     19  O   UNL     1      -1.949  12.036  26.117  0.00  0.00    -0.390 OA
ATOM     20  H   UNL     1      -1.389  11.256  26.119  0.00  0.00    +0.210 HD
ENDBRANCH   9  19
BRANCH   7  21
ATOM     21  O   UNL     1      -3.829  11.302  21.714  0.00  0.00    -0.343 OA
ATOM     22  C   UNL     1      -3.115  12.442  21.172  0.00  0.00    +0.198 C 
ENDBRANCH   7  21
ENDBRANCH   4   5
BRANCH   4  23
ATOM     23  O   UNL     1      -4.687   7.593  24.559  0.00  0.00    -0.387 OA
ATOM     24  H   UNL     1      -4.926   6.716  24.869  0.00  0.00    +0.210 HD
ENDBRANCH   4  23
ENDBRANCH   1   4
BRANCH   1  25
ATOM     25  C   UNL     1      -7.764   8.105  26.121  0.00  0.00    +0.141 C 
BRANCH  25  28
ATOM     26  C   UNL     1      -7.465   9.569  28.089  0.00  0.00    +0.401 C 
ATOM     27  O   UNL     1      -6.587   8.868  28.595  0.00  0.00    -0.226 OA
ATOM     28  N   UNL     1      -8.075   9.285  26.937  0.00  0.00    -0.279 N 
ATOM     29  H   UNL     1      -8.791   9.917  26.608  0.00  0.00    +0.152 HD
BRANCH  26  30
ATOM     30  O   UNL     1      -7.875  10.762  28.762  0.00  0.00    -0.444 OA
BRANCH  30  31
ATOM     31  C   UNL     1      -7.197  11.887  28.196  0.00  0.00    +0.292 C 
BRANCH  31  33
ATOM     32  N   UNL     1      -4.879  12.709  28.457  0.00  0.00    -0.131 NA
ATOM     33  C   UNL     1      -6.038  12.258  29.027  0.00  0.00    +0.120 A 
ATOM     34  C   UNL     1      -5.885  12.236  30.396  0.00  0.00    +0.137 A 
ATOM     35  N   UNL     1      -4.609  12.686  30.601  0.00  0.00    -0.244 N 
ATOM     36  N   UNL     1      -4.014  12.967  29.424  0.00  0.00    -0.065 NA
BRANCH  35  37
ATOM     37  C   UNL     1      -3.905  12.876  31.877  0.00  0.00    +0.083 C 
ATOM     38  C   UNL     1      -4.935  13.155  32.987  0.00  0.00    +0.038 C 
ATOM     39  C   UNL     1      -2.937  14.070  31.762  0.00  0.00    +0.038 C 
BRANCH  37  40
ATOM     40  C   UNL     1      -3.103  11.608  32.282  0.00  0.00    +0.185 C 
BRANCH  40  41
ATOM     41  O   UNL     1      -2.192  11.185  31.269  0.00  0.00    -0.393 OA
ATOM     42  H   UNL     1      -1.341  11.632  31.468  0.00  0.00    +0.209 HD
ENDBRANCH  40  41
ENDBRANCH  37  40
ENDBRANCH  35  37
ENDBRANCH  31  33
ENDBRANCH  30  31
ENDBRANCH  26  30
ENDBRANCH  25  28
ENDBRANCH   1  25
TORSDOF 16
