REMARK VINA RESULT:    -5.061      4.046      9.073
REMARK INTER + INTRA:         -13.245
REMARK INTER:                  -9.477
REMARK INTRA:                  -3.767
REMARK UNBOUND:                -3.302
REMARK  Name = lig_assembled_84.pdb
REMARK  21 active torsions:
REMARK  status: ('A' for Active; 'I' for Inactive)
REMARK    1  A    between atoms: _2  and  _11
REMARK    2  A    between atoms: _3  and  _14
REMARK    3  A    between atoms: _4  and  _17
REMARK    4  A    between atoms: _6  and  _28
REMARK    5  A    between atoms: _8  and  _9
REMARK    6  A    between atoms: _8  and  _28
REMARK    7  A    between atoms: _11  and  _12
REMARK    8  A    between atoms: _12  and  _13
REMARK    9  A    between atoms: _12  and  _14
REMARK   10  A    between atoms: _24  and  _44
REMARK   11  A    between atoms: _26  and  _32
REMARK   12  A    between atoms: _27  and  _31
REMARK   13  A    between atoms: _31  and  _32
REMARK   14  A    between atoms: _34  and  _35
REMARK   15  A    between atoms: _36  and  _37
REMARK   16  A    between atoms: _38  and  _40
REMARK   17  A    between atoms: _40  and  _41
REMARK   18  A    between atoms: _40  and  _42
REMARK   19  A    between atoms: _42  and  _43
REMARK   20  A    between atoms: _42  and  _44
REMARK   21  A    between atoms: _45  and  _47
REMARK                            x       y       z     vdW  Elec       q    Type
REMARK                         _______ _______ _______ _____ _____    ______ ____
ROOT
ATOM      1  C   UNL     1      -2.579  13.994  32.679  0.00  0.00    +0.401 C 
ATOM      2  O   UNL     1      -1.399  14.038  32.325  0.00  0.00    -0.226 OA
ATOM      3  N   UNL     1      -3.353  12.915  32.561  0.00  0.00    -0.279 N 
ATOM      4  H   UNL     1      -4.307  12.974  32.889  0.00  0.00    +0.152 HD
ENDROOT
BRANCH   1   5
ATOM      5  O   UNL     1      -3.174  15.159  33.256  0.00  0.00    -0.444 OA
BRANCH   5   6
ATOM      6  C   UNL     1      -4.534  15.264  32.827  0.00  0.00    +0.292 C 
BRANCH   6   8
ATOM      7  N   UNL     1      -4.731  17.663  32.233  0.00  0.00    -0.131 NA
ATOM      8  C   UNL     1      -4.689  16.350  31.840  0.00  0.00    +0.120 A 
ATOM      9  C   UNL     1      -4.847  16.284  30.474  0.00  0.00    +0.137 A 
ATOM     10  N   UNL     1      -5.046  17.581  30.104  0.00  0.00    -0.251 N 
ATOM     11  N   UNL     1      -4.953  18.409  31.158  0.00  0.00    -0.065 NA
BRANCH  10  12
ATOM     12  C   UNL     1      -5.461  18.079  28.807  0.00  0.00    +0.149 C 
BRANCH  12  13
ATOM     13  C   UNL     1      -6.709  17.387  28.232  0.00  0.00    +0.021 C 
ATOM     14  C   UNL     1      -7.945  17.656  29.102  0.00  0.00    +0.010 C 
BRANCH  13  15
ATOM     15  C   UNL     1      -7.001  17.866  26.789  0.00  0.00    +0.089 C 
BRANCH  15  16
ATOM     16  N   UNL     1      -7.433  16.823  25.848  0.00  0.00    -0.299 NA
ATOM     17  C   UNL     1      -6.829  15.517  26.224  0.00  0.00    +0.103 C 
ATOM     18  C   UNL     1      -7.325  14.375  25.313  0.00  0.00    +0.120 C 
ATOM     19  N   UNL     1      -7.005  14.685  23.914  0.00  0.00    -0.327 N 
ATOM     20  C   UNL     1      -7.508  15.987  23.452  0.00  0.00    +0.120 C 
ATOM     21  C   UNL     1      -7.069  17.110  24.437  0.00  0.00    +0.103 C 
BRANCH  19  22
ATOM     22  C   UNL     1      -6.339  13.805  23.093  0.00  0.00    +0.030 A 
ATOM     23  C   UNL     1      -5.264  14.226  22.289  0.00  0.00    +0.024 A 
ATOM     24  C   UNL     1      -4.591  13.351  21.429  0.00  0.00    +0.022 A 
ATOM     25  C   UNL     1      -4.979  12.023  21.361  0.00  0.00    +0.041 A 
ATOM     26 CL   UNL     1      -4.161  10.943  20.302  0.00  0.00    -0.084 Cl
ATOM     27  C   UNL     1      -6.035  11.566  22.142  0.00  0.00    +0.022 A 
ATOM     28  C   UNL     1      -6.705  12.454  22.995  0.00  0.00    +0.024 A 
ENDBRANCH  19  22
ENDBRANCH  15  16
ENDBRANCH  13  15
ENDBRANCH  12  13
ENDBRANCH  10  12
ENDBRANCH   6   8
ENDBRANCH   5   6
ENDBRANCH   1   5
BRANCH   3  29
ATOM     29  C   UNL     1      -2.898  11.645  31.982  0.00  0.00    +0.141 C 
BRANCH  29  30
ATOM     30  C   UNL     1      -3.929  11.053  31.027  0.00  0.00    +0.163 C 
BRANCH  30  31
ATOM     31  O   UNL     1      -5.175  10.849  31.714  0.00  0.00    -0.388 OA
ATOM     32  H   UNL     1      -5.410  11.647  32.195  0.00  0.00    +0.210 HD
ENDBRANCH  30  31
BRANCH  30  33
ATOM     33  C   UNL     1      -4.112  11.991  29.822  0.00  0.00    +0.175 C 
BRANCH  33  34
ATOM     34  C   UNL     1      -4.078  11.231  28.488  0.00  0.00    +0.176 C 
ATOM     35  O   UNL     1      -3.121  11.897  27.619  0.00  0.00    -0.332 OA
ATOM     36  C   UNL     1      -2.875  11.245  26.329  0.00  0.00    +0.277 C 
ATOM     37  C   UNL     1      -4.207  11.027  25.570  0.00  0.00    +0.110 C 
ATOM     38  C   UNL     1      -5.267  10.350  26.464  0.00  0.00    +0.143 C 
ATOM     39  C   UNL     1      -5.440  11.109  27.781  0.00  0.00    +0.133 C 
BRANCH  39  40
ATOM     40  N   UNL     1      -6.389  10.406  28.659  0.00  0.00    -0.308 N 
ATOM     41  H   UNL     1      -6.146   9.475  28.967  0.00  0.00    +0.149 HD
ATOM     42  C   UNL     1      -7.549  10.919  29.077  0.00  0.00    +0.210 C 
ATOM     43  C   UNL     1      -7.902  12.330  28.570  0.00  0.00    +0.109 C 
ATOM     44  O   UNL     1      -8.317  10.313  29.825  0.00  0.00    -0.276 OA
ENDBRANCH  39  40
BRANCH  36  45
ATOM     45  C   UNL     1      -2.167   9.889  26.528  0.00  0.00    +0.414 C 
ATOM     46  O   UNL     1      -2.493   8.914  25.853  0.00  0.00    -0.240 OA
ATOM     47  O   UNL     1      -1.269   9.770  27.363  0.00  0.00    -0.240 OA
ENDBRANCH  36  45
BRANCH  36  48
ATOM     48  O   UNL     1      -2.035  12.123  25.536  0.00  0.00    -0.343 OA
ATOM     49  C   UNL     1      -2.714  12.805  24.452  0.00  0.00    +0.198 C 
ENDBRANCH  36  48
BRANCH  38  50
ATOM     50  O   UNL     1      -6.519  10.306  25.778  0.00  0.00    -0.390 OA
ATOM     51  H   UNL     1      -7.137  10.907  26.200  0.00  0.00    +0.210 HD
ENDBRANCH  38  50
ENDBRANCH  33  34
BRANCH  33  52
ATOM     52  O   UNL     1      -3.102  13.019  29.835  0.00  0.00    -0.387 OA
ATOM     53  H   UNL     1      -2.806  13.189  28.937  0.00  0.00    +0.210 HD
ENDBRANCH  33  52
ENDBRANCH  30  33
ENDBRANCH  29  30
ENDBRANCH   3  29
TORSDOF 18
