REMARK VINA RESULT:    -4.363      3.055      6.916
REMARK INTER + INTRA:         -10.487
REMARK INTER:                  -7.221
REMARK INTRA:                  -3.266
REMARK UNBOUND:                -2.299
REMARK  Name = lig_assembled_32.pdb
REMARK  19 active torsions:
REMARK  status: ('A' for Active; 'I' for Inactive)
REMARK    1  A    between atoms: _2  and  _9
REMARK    2  A    between atoms: _4  and  _17
REMARK    3  A    between atoms: _5  and  _10
REMARK    4  A    between atoms: _5  and  _11
REMARK    5  A    between atoms: _6  and  _7
REMARK    6  A    between atoms: _6  and  _17
REMARK    7  A    between atoms: _9  and  _10
REMARK    8  A    between atoms: _13  and  _33
REMARK    9  A    between atoms: _15  and  _21
REMARK   10  A    between atoms: _16  and  _20
REMARK   11  A    between atoms: _20  and  _21
REMARK   12  A    between atoms: _23  and  _24
REMARK   13  A    between atoms: _25  and  _26
REMARK   14  A    between atoms: _27  and  _29
REMARK   15  A    between atoms: _29  and  _30
REMARK   16  A    between atoms: _29  and  _31
REMARK   17  A    between atoms: _31  and  _32
REMARK   18  A    between atoms: _31  and  _33
REMARK   19  A    between atoms: _34  and  _36
REMARK                            x       y       z     vdW  Elec       q    Type
REMARK                         _______ _______ _______ _____ _____    ______ ____
ROOT
ATOM      1  C   UNL     1      -2.788  10.590  28.105  0.00  0.00    +0.163 C 
ENDROOT
BRANCH   1   2
ATOM      2  O   UNL     1      -3.030  10.785  26.702  0.00  0.00    -0.388 OA
ATOM      3  H   UNL     1      -2.879   9.961  26.233  0.00  0.00    +0.210 HD
ENDBRANCH   1   2
BRANCH   1   4
ATOM      4  C   UNL     1      -4.052  10.891  28.928  0.00  0.00    +0.175 C 
BRANCH   4   5
ATOM      5  C   UNL     1      -3.976  10.296  30.342  0.00  0.00    +0.176 C 
ATOM      6  O   UNL     1      -5.062   9.339  30.483  0.00  0.00    -0.332 OA
ATOM      7  C   UNL     1      -5.085   8.588  31.742  0.00  0.00    +0.277 C 
ATOM      8  C   UNL     1      -5.081   9.557  32.950  0.00  0.00    +0.110 C 
ATOM      9  C   UNL     1      -3.963  10.613  32.829  0.00  0.00    +0.143 C 
ATOM     10  C   UNL     1      -4.031  11.331  31.480  0.00  0.00    +0.133 C 
BRANCH  10  11
ATOM     11  N   UNL     1      -2.909  12.274  31.342  0.00  0.00    -0.308 N 
ATOM     12  H   UNL     1      -1.972  11.897  31.361  0.00  0.00    +0.149 HD
ATOM     13  C   UNL     1      -3.049  13.594  31.192  0.00  0.00    +0.210 C 
ATOM     14  C   UNL     1      -4.489  14.139  31.192  0.00  0.00    +0.109 C 
ATOM     15  O   UNL     1      -2.091  14.357  31.063  0.00  0.00    -0.276 OA
ENDBRANCH  10  11
BRANCH   7  16
ATOM     16  C   UNL     1      -3.871   7.641  31.836  0.00  0.00    +0.414 C 
ATOM     17  O   UNL     1      -3.284   7.491  32.907  0.00  0.00    -0.240 OA
ATOM     18  O   UNL     1      -3.479   7.027  30.843  0.00  0.00    -0.240 OA
ENDBRANCH   7  16
BRANCH   7  19
ATOM     19  O   UNL     1      -6.312   7.814  31.780  0.00  0.00    -0.343 OA
ATOM     20  C   UNL     1      -6.954   7.748  33.079  0.00  0.00    +0.198 C 
ENDBRANCH   7  19
BRANCH   9  21
ATOM     21  O   UNL     1      -4.090  11.572  33.879  0.00  0.00    -0.390 OA
ATOM     22  H   UNL     1      -3.825  12.437  33.558  0.00  0.00    +0.210 HD
ENDBRANCH   9  21
ENDBRANCH   4   5
BRANCH   4  23
ATOM     23  O   UNL     1      -5.220  10.396  28.243  0.00  0.00    -0.387 OA
ATOM     24  H   UNL     1      -5.823  11.123  28.071  0.00  0.00    +0.210 HD
ENDBRANCH   4  23
ENDBRANCH   1   4
BRANCH   1  25
ATOM     25  C   UNL     1      -2.341   9.155  28.363  0.00  0.00    +0.141 C 
BRANCH  25  28
ATOM     26  C   UNL     1      -2.792   7.379  26.705  0.00  0.00    +0.401 C 
ATOM     27  O   UNL     1      -1.643   7.375  26.257  0.00  0.00    -0.226 OA
ATOM     28  N   UNL     1      -3.207   8.182  27.685  0.00  0.00    -0.279 N 
ATOM     29  H   UNL     1      -4.172   8.118  27.978  0.00  0.00    +0.152 HD
BRANCH  26  30
ATOM     30  O   UNL     1      -3.756   6.478  26.153  0.00  0.00    -0.444 OA
BRANCH  30  31
ATOM     31  C   UNL     1      -3.949   6.776  24.767  0.00  0.00    +0.292 C 
BRANCH  31  33
ATOM     32  N   UNL     1      -5.235   8.733  25.569  0.00  0.00    -0.131 NA
ATOM     33  C   UNL     1      -4.455   8.152  24.604  0.00  0.00    +0.120 A 
ATOM     34  C   UNL     1      -4.282   9.043  23.568  0.00  0.00    +0.137 A 
ATOM     35  N   UNL     1      -4.988  10.139  23.960  0.00  0.00    -0.251 N 
ATOM     36  N   UNL     1      -5.559   9.952  25.162  0.00  0.00    -0.065 NA
BRANCH  35  37
ATOM     37  C   UNL     1      -5.163  11.390  23.258  0.00  0.00    +0.156 C 
BRANCH  37  38
ATOM     38  C   UNL     1      -3.840  12.110  23.037  0.00  0.00    +0.143 C 
BRANCH  38  39
ATOM     39  C   UNL     1      -3.385  12.762  24.311  0.00  0.00    +0.306 C 
ATOM     40  O   UNL     1      -4.119  13.329  25.104  0.00  0.00    -0.251 OA
BRANCH  39  41
ATOM     41  O   UNL     1      -2.049  12.672  24.496  0.00  0.00    -0.481 OA
ATOM     42  H   UNL     1      -1.685  13.330  25.120  0.00  0.00    +0.295 HD
ENDBRANCH  39  41
ENDBRANCH  38  39
ENDBRANCH  37  38
ENDBRANCH  35  37
ENDBRANCH  31  33
ENDBRANCH  30  31
ENDBRANCH  26  30
ENDBRANCH  25  28
ENDBRANCH   1  25
TORSDOF 17
