REMARK VINA RESULT:    -5.514      3.212      8.326
REMARK INTER + INTRA:         -12.577
REMARK INTER:                  -8.902
REMARK INTRA:                  -3.675
REMARK UNBOUND:                -2.389
REMARK  Name = lig_assembled_92.pdb
REMARK  18 active torsions:
REMARK  status: ('A' for Active; 'I' for Inactive)
REMARK    1  A    between atoms: _2  and  _11
REMARK    2  A    between atoms: _3  and  _46
REMARK    3  A    between atoms: _6  and  _25
REMARK    4  A    between atoms: _8  and  _9
REMARK    5  A    between atoms: _8  and  _25
REMARK    6  A    between atoms: _14  and  _46
REMARK    7  A    between atoms: _21  and  _41
REMARK    8  A    between atoms: _23  and  _29
REMARK    9  A    between atoms: _24  and  _28
REMARK   10  A    between atoms: _28  and  _29
REMARK   11  A    between atoms: _31  and  _32
REMARK   12  A    between atoms: _33  and  _34
REMARK   13  A    between atoms: _35  and  _37
REMARK   14  A    between atoms: _37  and  _38
REMARK   15  A    between atoms: _37  and  _39
REMARK   16  A    between atoms: _39  and  _40
REMARK   17  A    between atoms: _39  and  _41
REMARK   18  A    between atoms: _42  and  _44
REMARK                            x       y       z     vdW  Elec       q    Type
REMARK                         _______ _______ _______ _____ _____    ______ ____
ROOT
ATOM      1  C   UNL     1      -2.546  12.669  33.138  0.00  0.00    +0.401 C 
ATOM      2  O   UNL     1      -1.610  13.056  32.435  0.00  0.00    -0.226 OA
ATOM      3  N   UNL     1      -3.143  11.485  32.999  0.00  0.00    -0.279 N 
ATOM      4  H   UNL     1      -3.897  11.253  33.631  0.00  0.00    +0.152 HD
ENDROOT
BRANCH   3   5
ATOM      5  C   UNL     1      -2.767  10.498  31.979  0.00  0.00    +0.141 C 
BRANCH   5   6
ATOM      6  C   UNL     1      -3.595  10.650  30.708  0.00  0.00    +0.163 C 
BRANCH   6   7
ATOM      7  O   UNL     1      -2.975  11.602  29.828  0.00  0.00    -0.388 OA
ATOM      8  H   UNL     1      -3.084  11.316  28.918  0.00  0.00    +0.210 HD
ENDBRANCH   6   7
BRANCH   6   9
ATOM      9  C   UNL     1      -3.741   9.281  30.022  0.00  0.00    +0.175 C 
BRANCH   9  10
ATOM     10  C   UNL     1      -3.248   9.308  28.568  0.00  0.00    +0.176 C 
ATOM     11  O   UNL     1      -4.266   9.962  27.763  0.00  0.00    -0.332 OA
ATOM     12  C   UNL     1      -3.921  10.174  26.354  0.00  0.00    +0.277 C 
ATOM     13  C   UNL     1      -3.509   8.837  25.691  0.00  0.00    +0.110 C 
ATOM     14  C   UNL     1      -2.450   8.089  26.528  0.00  0.00    +0.143 C 
ATOM     15  C   UNL     1      -2.911   7.926  27.977  0.00  0.00    +0.133 C 
BRANCH  15  16
ATOM     16  N   UNL     1      -1.858   7.290  28.784  0.00  0.00    -0.308 N 
ATOM     17  H   UNL     1      -0.957   7.745  28.827  0.00  0.00    +0.149 HD
ATOM     18  C   UNL     1      -2.014   6.150  29.462  0.00  0.00    +0.210 C 
ATOM     19  C   UNL     1      -3.391   5.467  29.354  0.00  0.00    +0.109 C 
ATOM     20  O   UNL     1      -1.119   5.648  30.142  0.00  0.00    -0.276 OA
ENDBRANCH  15  16
BRANCH  12  21
ATOM     21  C   UNL     1      -2.770  11.192  26.220  0.00  0.00    +0.414 C 
ATOM     22  O   UNL     1      -1.995  11.130  25.266  0.00  0.00    -0.240 OA
ATOM     23  O   UNL     1      -2.616  12.076  27.064  0.00  0.00    -0.240 OA
ENDBRANCH  12  21
BRANCH  14  24
ATOM     24  O   UNL     1      -2.212   6.799  25.962  0.00  0.00    -0.390 OA
ATOM     25  H   UNL     1      -1.271   6.686  25.806  0.00  0.00    +0.210 HD
ENDBRANCH  14  24
BRANCH  12  26
ATOM     26  O   UNL     1      -5.100  10.677  25.674  0.00  0.00    -0.343 OA
ATOM     27  C   UNL     1      -6.338  10.004  26.015  0.00  0.00    +0.198 C 
ENDBRANCH  12  26
ENDBRANCH   9  10
BRANCH   9  28
ATOM     28  O   UNL     1      -5.113   8.843  30.074  0.00  0.00    -0.387 OA
ATOM     29  H   UNL     1      -5.215   8.189  30.770  0.00  0.00    +0.210 HD
ENDBRANCH   9  28
ENDBRANCH   6   9
ENDBRANCH   5   6
ENDBRANCH   3   5
BRANCH   1  30
ATOM     30  O   UNL     1      -3.035  13.524  34.175  0.00  0.00    -0.444 OA
BRANCH  30  31
ATOM     31  C   UNL     1      -4.450  13.684  34.035  0.00  0.00    +0.292 C 
BRANCH  31  33
ATOM     32  N   UNL     1      -4.361  15.596  32.460  0.00  0.00    -0.131 NA
ATOM     33  C   UNL     1      -4.769  14.325  32.746  0.00  0.00    +0.121 A 
ATOM     34  C   UNL     1      -5.463  13.824  31.670  0.00  0.00    +0.143 A 
ATOM     35  N   UNL     1      -5.429  14.824  30.726  0.00  0.00    -0.220 N 
ATOM     36  N   UNL     1      -4.771  15.895  31.232  0.00  0.00    -0.060 NA
BRANCH  35  37
ATOM     37  C   UNL     1      -5.939  14.804  29.403  0.00  0.00    +0.067 A 
ATOM     38  C   UNL     1      -5.837  13.644  28.620  0.00  0.00    +0.030 A 
ATOM     39  C   UNL     1      -6.286  13.646  27.301  0.00  0.00    +0.031 A 
ATOM     40  C   UNL     1      -6.850  14.803  26.761  0.00  0.00    +0.109 A 
ATOM     41  C   UNL     1      -6.969  15.964  27.530  0.00  0.00    +0.031 A 
ATOM     42  C   UNL     1      -6.521  15.960  28.856  0.00  0.00    +0.030 A 
BRANCH  40  43
ATOM     43  S   UNL     1      -7.269  14.815  25.038  0.00  0.00    +0.074 S 
ATOM     44  O   UNL     1      -8.708  14.665  24.937  0.00  0.00    -0.150 OA
ATOM     45  O   UNL     1      -6.612  15.937  24.410  0.00  0.00    -0.150 OA
BRANCH  43  46
ATOM     46  N   UNL     1      -6.637  13.356  24.469  0.00  0.00    -0.194 N 
ATOM     47  H   UNL     1      -7.394  12.893  23.973  0.00  0.00    +0.176 HD
ATOM     48  C   UNL     1      -5.484  13.548  23.680  0.00  0.00    +0.177 A 
ATOM     49  S   UNL     1      -5.530  13.586  21.972  0.00  0.00    -0.059 S 
ATOM     50  C   UNL     1      -3.818  13.706  21.953  0.00  0.00    +0.068 A 
ATOM     51  C   UNL     1      -3.337  13.629  23.243  0.00  0.00    +0.120 A 
ATOM     52  N   UNL     1      -4.298  13.571  24.236  0.00  0.00    -0.232 NA
ENDBRANCH  43  46
ENDBRANCH  40  43
ENDBRANCH  35  37
ENDBRANCH  31  33
ENDBRANCH  30  31
ENDBRANCH   1  30
TORSDOF 16
