REMARK VINA RESULT:    -4.454      2.652      7.227
REMARK INTER + INTRA:         -10.202
REMARK INTER:                  -7.969
REMARK INTRA:                  -2.233
REMARK UNBOUND:                -2.233
REMARK  Name = lig_assembled_61.pdb
REMARK  17 active torsions:
REMARK  status: ('A' for Active; 'I' for Inactive)
REMARK    1  A    between atoms: _2  and  _9
REMARK    2  A    between atoms: _4  and  _17
REMARK    3  A    between atoms: _6  and  _7
REMARK    4  A    between atoms: _6  and  _17
REMARK    5  A    between atoms: _9  and  _10
REMARK    6  A    between atoms: _13  and  _33
REMARK    7  A    between atoms: _15  and  _21
REMARK    8  A    between atoms: _16  and  _20
REMARK    9  A    between atoms: _20  and  _21
REMARK   10  A    between atoms: _23  and  _24
REMARK   11  A    between atoms: _25  and  _26
REMARK   12  A    between atoms: _27  and  _29
REMARK   13  A    between atoms: _29  and  _30
REMARK   14  A    between atoms: _29  and  _31
REMARK   15  A    between atoms: _31  and  _32
REMARK   16  A    between atoms: _31  and  _33
REMARK   17  A    between atoms: _34  and  _36
REMARK                            x       y       z     vdW  Elec       q    Type
REMARK                         _______ _______ _______ _____ _____    ______ ____
ROOT
ATOM      1  C   UNL     1      -4.313  11.531  28.101  0.00  0.00    +0.163 C 
ENDROOT
BRANCH   1   2
ATOM      2  O   UNL     1      -4.740  12.687  28.840  0.00  0.00    -0.388 OA
ATOM      3  H   UNL     1      -5.584  12.992  28.499  0.00  0.00    +0.210 HD
ENDBRANCH   1   2
BRANCH   1   4
ATOM      4  C   UNL     1      -3.701  10.504  29.048  0.00  0.00    +0.141 C 
BRANCH   4   7
ATOM      5  C   UNL     1      -2.879  10.754  31.365  0.00  0.00    +0.401 C 
ATOM      6  O   UNL     1      -3.573   9.838  31.810  0.00  0.00    -0.226 OA
ATOM      7  N   UNL     1      -2.880  11.137  30.087  0.00  0.00    -0.279 N 
ATOM      8  H   UNL     1      -2.283  11.907  29.819  0.00  0.00    +0.152 HD
BRANCH   5   9
ATOM      9  O   UNL     1      -2.016  11.467  32.254  0.00  0.00    -0.444 OA
BRANCH   9  10
ATOM     10  C   UNL     1      -2.800  12.271  33.139  0.00  0.00    +0.292 C 
BRANCH  10  12
ATOM     11  N   UNL     1      -2.385  14.028  31.446  0.00  0.00    -0.131 NA
ATOM     12  C   UNL     1      -3.110  13.572  32.516  0.00  0.00    +0.120 A 
ATOM     13  C   UNL     1      -4.078  14.499  32.835  0.00  0.00    +0.137 A 
ATOM     14  N   UNL     1      -3.852  15.521  31.960  0.00  0.00    -0.247 N 
ATOM     15  N   UNL     1      -2.862  15.217  31.100  0.00  0.00    -0.065 NA
BRANCH  14  16
ATOM     16  C   UNL     1      -4.554  16.788  31.856  0.00  0.00    +0.180 C 
BRANCH  16  17
ATOM     17  C   UNL     1      -5.274  16.921  30.544  0.00  0.00    -0.019 A 
ATOM     18  C   UNL     1      -5.100  18.012  29.626  0.00  0.00    +0.013 A 
ATOM     19  C   UNL     1      -5.909  17.911  28.515  0.00  0.00    +0.045 A 
ATOM     20  S   UNL     1      -6.876  16.504  28.554  0.00  0.00    -0.105 S 
ATOM     21  C   UNL     1      -6.223  16.034  30.061  0.00  0.00    +0.050 A 
ENDBRANCH  16  17
ENDBRANCH  14  16
ENDBRANCH  10  12
ENDBRANCH   9  10
ENDBRANCH   5   9
ENDBRANCH   4   7
ENDBRANCH   1   4
BRANCH   1  22
ATOM     22  C   UNL     1      -3.283  11.915  27.025  0.00  0.00    +0.175 C 
BRANCH  22  23
ATOM     23  C   UNL     1      -3.820  11.687  25.604  0.00  0.00    +0.176 C 
ATOM     24  O   UNL     1      -4.941  12.590  25.399  0.00  0.00    -0.332 OA
ATOM     25  C   UNL     1      -5.519  12.589  24.052  0.00  0.00    +0.277 C 
ATOM     26  C   UNL     1      -5.922  11.152  23.638  0.00  0.00    +0.110 C 
ATOM     27  C   UNL     1      -4.771  10.149  23.868  0.00  0.00    +0.143 C 
ATOM     28  C   UNL     1      -4.244  10.238  25.300  0.00  0.00    +0.133 C 
BRANCH  28  29
ATOM     29  N   UNL     1      -3.092   9.341  25.481  0.00  0.00    -0.308 N 
ATOM     30  H   UNL     1      -2.215   9.608  25.056  0.00  0.00    +0.149 HD
ATOM     31  C   UNL     1      -3.129   8.198  26.171  0.00  0.00    +0.210 C 
ATOM     32  C   UNL     1      -4.487   7.807  26.785  0.00  0.00    +0.109 C 
ATOM     33  O   UNL     1      -2.144   7.474  26.319  0.00  0.00    -0.276 OA
ENDBRANCH  28  29
BRANCH  25  34
ATOM     34  C   UNL     1      -4.518  13.159  23.027  0.00  0.00    +0.414 C 
ATOM     35  O   UNL     1      -3.750  14.065  23.348  0.00  0.00    -0.240 OA
ATOM     36  O   UNL     1      -4.477  12.714  21.879  0.00  0.00    -0.240 OA
ENDBRANCH  25  34
BRANCH  25  37
ATOM     37  O   UNL     1      -6.715  13.410  24.076  0.00  0.00    -0.343 OA
ATOM     38  C   UNL     1      -7.661  13.085  25.126  0.00  0.00    +0.198 C 
ENDBRANCH  25  37
BRANCH  27  39
ATOM     39  O   UNL     1      -5.233   8.821  23.618  0.00  0.00    -0.390 OA
ATOM     40  H   UNL     1      -5.023   8.574  22.714  0.00  0.00    +0.210 HD
ENDBRANCH  27  39
ENDBRANCH  22  23
BRANCH  22  41
ATOM     41  O   UNL     1      -2.062  11.175  27.219  0.00  0.00    -0.387 OA
ATOM     42  H   UNL     1      -1.445  11.383  26.513  0.00  0.00    +0.210 HD
ENDBRANCH  22  41
ENDBRANCH   1  22
TORSDOF 15
