REMARK VINA RESULT:    -4.582      7.436     13.868
REMARK INTER + INTRA:         -12.351
REMARK INTER:                  -8.464
REMARK INTRA:                  -3.888
REMARK UNBOUND:                -3.885
REMARK  Name = lig_assembled_79.pdb
REMARK  20 active torsions:
REMARK  status: ('A' for Active; 'I' for Inactive)
REMARK    1  A    between atoms: _2  and  _10
REMARK    2  A    between atoms: _5  and  _26
REMARK    3  A    between atoms: _7  and  _8
REMARK    4  A    between atoms: _7  and  _26
REMARK    5  A    between atoms: _10  and  _11
REMARK    6  A    between atoms: _10  and  _12
REMARK    7  A    between atoms: _10  and  _13
REMARK    8  A    between atoms: _13  and  _14
REMARK    9  A    between atoms: _22  and  _42
REMARK   10  A    between atoms: _24  and  _30
REMARK   11  A    between atoms: _25  and  _29
REMARK   12  A    between atoms: _29  and  _30
REMARK   13  A    between atoms: _32  and  _33
REMARK   14  A    between atoms: _34  and  _35
REMARK   15  A    between atoms: _36  and  _38
REMARK   16  A    between atoms: _38  and  _39
REMARK   17  A    between atoms: _38  and  _40
REMARK   18  A    between atoms: _40  and  _41
REMARK   19  A    between atoms: _40  and  _42
REMARK   20  A    between atoms: _43  and  _45
REMARK                            x       y       z     vdW  Elec       q    Type
REMARK                         _______ _______ _______ _____ _____    ______ ____
ROOT
ATOM      1  C   UNL     1      -6.681  10.297  12.445  0.00  0.00    +0.401 C 
ATOM      2  O   UNL     1      -6.802  11.472  12.090  0.00  0.00    -0.226 OA
ATOM      3  N   UNL     1      -6.019   9.372  11.748  0.00  0.00    -0.279 N 
ATOM      4  H   UNL     1      -5.967   8.437  12.126  0.00  0.00    +0.152 HD
ENDROOT
BRANCH   3   5
ATOM      5  C   UNL     1      -5.363   9.637  10.462  0.00  0.00    +0.141 C 
BRANCH   5   6
ATOM      6  C   UNL     1      -3.851   9.452  10.546  0.00  0.00    +0.163 C 
BRANCH   6   7
ATOM      7  O   UNL     1      -3.306   9.252   9.232  0.00  0.00    -0.388 OA
ATOM      8  H   UNL     1      -3.522   8.368   8.926  0.00  0.00    +0.210 HD
ENDBRANCH   6   7
BRANCH   6   9
ATOM      9  C   UNL     1      -3.220  10.681  11.223  0.00  0.00    +0.175 C 
BRANCH   9  10
ATOM     10  C   UNL     1      -2.876  10.416  12.696  0.00  0.00    +0.176 C 
ATOM     11  O   UNL     1      -3.527   9.178  13.092  0.00  0.00    -0.332 OA
ATOM     12  C   UNL     1      -3.224   8.707  14.447  0.00  0.00    +0.277 C 
ATOM     13  C   UNL     1      -3.528   9.814  15.486  0.00  0.00    +0.110 C 
ATOM     14  C   UNL     1      -2.882  11.159  15.091  0.00  0.00    +0.143 C 
ATOM     15  C   UNL     1      -3.262  11.551  13.662  0.00  0.00    +0.133 C 
BRANCH  15  16
ATOM     16  N   UNL     1      -2.571  12.789  13.267  0.00  0.00    -0.308 N 
ATOM     17  H   UNL     1      -1.594  12.725  13.017  0.00  0.00    +0.149 HD
ATOM     18  C   UNL     1      -3.150  13.991  13.218  0.00  0.00    +0.210 C 
ATOM     19  C   UNL     1      -4.633  14.060  13.630  0.00  0.00    +0.109 C 
ATOM     20  O   UNL     1      -2.550  15.009  12.869  0.00  0.00    -0.276 OA
ENDBRANCH  15  16
BRANCH  12  21
ATOM     21  C   UNL     1      -1.744   8.286  14.561  0.00  0.00    +0.414 C 
ATOM     22  O   UNL     1      -1.228   8.128  15.667  0.00  0.00    -0.240 OA
ATOM     23  O   UNL     1      -1.067   8.105  13.548  0.00  0.00    -0.240 OA
ENDBRANCH  12  21
BRANCH  14  24
ATOM     24  O   UNL     1      -3.311  12.182  15.990  0.00  0.00    -0.390 OA
ATOM     25  H   UNL     1      -4.220  12.421  15.793  0.00  0.00    +0.210 HD
ENDBRANCH  14  24
BRANCH  12  26
ATOM     26  O   UNL     1      -4.078   7.569  14.728  0.00  0.00    -0.343 OA
ATOM     27  C   UNL     1      -5.053   7.780  15.781  0.00  0.00    +0.198 C 
ENDBRANCH  12  26
ENDBRANCH   9  10
BRANCH   9  28
ATOM     28  O   UNL     1      -4.103  11.815  11.116  0.00  0.00    -0.387 OA
ATOM     29  H   UNL     1      -3.593  12.599  10.898  0.00  0.00    +0.210 HD
ENDBRANCH   9  28
ENDBRANCH   6   9
ENDBRANCH   5   6
ENDBRANCH   3   5
BRANCH   1  30
ATOM     30  O   UNL     1      -7.274   9.878  13.677  0.00  0.00    -0.444 OA
BRANCH  30  31
ATOM     31  C   UNL     1      -7.848  11.009  14.339  0.00  0.00    +0.292 C 
BRANCH  31  33
ATOM     32  N   UNL     1      -6.347  12.082  15.976  0.00  0.00    -0.131 NA
ATOM     33  C   UNL     1      -7.291  11.138  15.697  0.00  0.00    +0.120 A 
ATOM     34  C   UNL     1      -7.560  10.418  16.840  0.00  0.00    +0.138 A 
ATOM     35  N   UNL     1      -6.816  11.027  17.813  0.00  0.00    -0.238 N 
ATOM     36  N   UNL     1      -6.028  11.980  17.255  0.00  0.00    -0.064 NA
BRANCH  35  37
ATOM     37  C   UNL     1      -6.613  10.678  19.249  0.00  0.00    +0.122 C 
ATOM     38  C   UNL     1      -7.461   9.412  19.517  0.00  0.00    +0.044 C 
ATOM     39  C   UNL     1      -7.060  11.930  20.030  0.00  0.00    +0.044 C 
BRANCH  37  40
ATOM     40  C   UNL     1      -5.150  10.335  19.598  0.00  0.00    +0.192 C 
ATOM     41  O   UNL     1      -4.556   9.444  18.984  0.00  0.00    -0.289 OA
BRANCH  40  42
ATOM     42  C   UNL     1      -4.399  11.029  20.685  0.00  0.00    +0.045 A 
ATOM     43  C   UNL     1      -3.779  12.246  20.429  0.00  0.00    +0.095 A 
ATOM     44  N   UNL     1      -3.133  12.678  21.548  0.00  0.00    -0.360 N 
ATOM     45  H   UNL     1      -2.597  13.532  21.622  0.00  0.00    +0.165 HD
ATOM     46  C   UNL     1      -3.306  11.775  22.565  0.00  0.00    +0.047 A 
ATOM     47  C   UNL     1      -2.806  11.822  23.875  0.00  0.00    +0.026 A 
ATOM     48  C   UNL     1      -3.116  10.771  24.737  0.00  0.00    +0.002 A 
ATOM     49  C   UNL     1      -3.900   9.714  24.303  0.00  0.00    +0.001 A 
ATOM     50  C   UNL     1      -4.390   9.686  22.991  0.00  0.00    +0.011 A 
ATOM     51  C   UNL     1      -4.099  10.729  22.074  0.00  0.00    +0.010 A 
ENDBRANCH  40  42
ENDBRANCH  37  40
ENDBRANCH  35  37
ENDBRANCH  31  33
ENDBRANCH  30  31
ENDBRANCH   1  30
TORSDOF 16
