REMARK VINA RESULT:    -4.926      3.898      6.001
REMARK INTER + INTRA:         -10.912
REMARK INTER:                  -8.815
REMARK INTRA:                  -2.096
REMARK UNBOUND:                -1.954
REMARK  Name = lig_assembled_60.pdb
REMARK  18 active torsions:
REMARK  status: ('A' for Active; 'I' for Inactive)
REMARK    1  A    between atoms: _2  and  _10
REMARK    2  A    between atoms: _3  and  _41
REMARK    3  A    between atoms: _5  and  _21
REMARK    4  A    between atoms: _7  and  _8
REMARK    5  A    between atoms: _7  and  _21
REMARK    6  A    between atoms: _13  and  _41
REMARK    7  A    between atoms: _17  and  _37
REMARK    8  A    between atoms: _19  and  _25
REMARK    9  A    between atoms: _20  and  _24
REMARK   10  A    between atoms: _24  and  _25
REMARK   11  A    between atoms: _27  and  _28
REMARK   12  A    between atoms: _29  and  _30
REMARK   13  A    between atoms: _31  and  _33
REMARK   14  A    between atoms: _33  and  _34
REMARK   15  A    between atoms: _33  and  _35
REMARK   16  A    between atoms: _35  and  _36
REMARK   17  A    between atoms: _35  and  _37
REMARK   18  A    between atoms: _38  and  _40
REMARK                            x       y       z     vdW  Elec       q    Type
REMARK                         _______ _______ _______ _____ _____    ______ ____
ROOT
ATOM      1  C   UNL     1      -6.537  10.873  17.651  0.00  0.00    +0.141 C 
ENDROOT
BRANCH   1   4
ATOM      2  C   UNL     1      -4.841  10.502  19.410  0.00  0.00    +0.401 C 
ATOM      3  O   UNL     1      -4.972   9.275  19.408  0.00  0.00    -0.226 OA
ATOM      4  N   UNL     1      -5.536  11.326  18.626  0.00  0.00    -0.279 N 
ATOM      5  H   UNL     1      -5.365  12.319  18.706  0.00  0.00    +0.152 HD
BRANCH   2   6
ATOM      6  O   UNL     1      -3.895  11.098  20.301  0.00  0.00    -0.444 OA
BRANCH   6   7
ATOM      7  C   UNL     1      -4.590  11.812  21.327  0.00  0.00    +0.292 C 
BRANCH   7   9
ATOM      8  N   UNL     1      -3.124  10.470  22.803  0.00  0.00    -0.131 NA
ATOM      9  C   UNL     1      -4.166  11.339  22.658  0.00  0.00    +0.121 A 
ATOM     10  C   UNL     1      -4.666  11.652  23.901  0.00  0.00    +0.143 A 
ATOM     11  N   UNL     1      -3.865  10.970  24.789  0.00  0.00    -0.220 N 
ATOM     12  N   UNL     1      -2.953  10.243  24.098  0.00  0.00    -0.060 NA
BRANCH  11  13
ATOM     13  C   UNL     1      -3.889  11.002  26.207  0.00  0.00    +0.067 A 
ATOM     14  C   UNL     1      -4.059  12.216  26.892  0.00  0.00    +0.030 A 
ATOM     15  C   UNL     1      -4.011  12.245  28.287  0.00  0.00    +0.030 A 
ATOM     16  C   UNL     1      -3.808  11.061  29.000  0.00  0.00    +0.105 A 
ATOM     17  C   UNL     1      -3.653   9.845  28.330  0.00  0.00    +0.030 A 
ATOM     18  C   UNL     1      -3.701   9.815  26.933  0.00  0.00    +0.030 A 
BRANCH  16  19
ATOM     19  S   UNL     1      -3.670  11.125  30.762  0.00  0.00    +0.056 S 
ATOM     20  O   UNL     1      -4.990  11.222  31.340  0.00  0.00    -0.153 OA
ATOM     21  O   UNL     1      -2.702  10.144  31.196  0.00  0.00    -0.153 OA
BRANCH  19  22
ATOM     22  N   UNL     1      -2.950  12.621  30.994  0.00  0.00    -0.204 NA
ATOM     23  H   UNL     1      -3.206  13.250  30.233  0.00  0.00    +0.144 HD
ATOM     24  H   UNL     1      -1.943  12.505  31.112  0.00  0.00    +0.144 HD
ENDBRANCH  19  22
ENDBRANCH  16  19
ENDBRANCH  11  13
ENDBRANCH   7   9
ENDBRANCH   6   7
ENDBRANCH   2   6
ENDBRANCH   1   4
BRANCH   1  25
ATOM     25  C   UNL     1      -5.981  10.858  16.231  0.00  0.00    +0.163 C 
BRANCH  25  26
ATOM     26  O   UNL     1      -5.137  12.002  16.021  0.00  0.00    -0.388 OA
ATOM     27  H   UNL     1      -5.271  12.634  16.732  0.00  0.00    +0.210 HD
ENDBRANCH  25  26
BRANCH  25  28
ATOM     28  C   UNL     1      -5.205   9.551  15.997  0.00  0.00    +0.175 C 
BRANCH  28  29
ATOM     29  C   UNL     1      -4.143   9.698  14.897  0.00  0.00    +0.176 C 
ATOM     30  O   UNL     1      -4.781  10.303  13.738  0.00  0.00    -0.332 OA
ATOM     31  C   UNL     1      -3.890  10.619  12.618  0.00  0.00    +0.277 C 
ATOM     32  C   UNL     1      -3.099   9.360  12.183  0.00  0.00    +0.110 C 
ATOM     33  C   UNL     1      -2.430   8.665  13.387  0.00  0.00    +0.143 C 
ATOM     34  C   UNL     1      -3.446   8.385  14.494  0.00  0.00    +0.133 C 
BRANCH  34  35
ATOM     35  N   UNL     1      -2.780   7.801  15.670  0.00  0.00    -0.308 N 
ATOM     36  H   UNL     1      -2.122   8.379  16.174  0.00  0.00    +0.149 HD
ATOM     37  C   UNL     1      -2.989   6.559  16.113  0.00  0.00    +0.210 C 
ATOM     38  C   UNL     1      -3.979   5.696  15.308  0.00  0.00    +0.109 C 
ATOM     39  O   UNL     1      -2.428   6.102  17.110  0.00  0.00    -0.276 OA
ENDBRANCH  34  35
BRANCH  31  40
ATOM     40  C   UNL     1      -2.902  11.740  13.004  0.00  0.00    +0.414 C 
ATOM     41  O   UNL     1      -3.220  12.585  13.840  0.00  0.00    -0.240 OA
ATOM     42  O   UNL     1      -1.790  11.800  12.479  0.00  0.00    -0.240 OA
ENDBRANCH  31  40
BRANCH  33  43
ATOM     43  O   UNL     1      -1.842   7.433  12.966  0.00  0.00    -0.390 OA
ATOM     44  H   UNL     1      -2.239   6.706  13.451  0.00  0.00    +0.210 HD
ENDBRANCH  33  43
BRANCH  31  45
ATOM     45  O   UNL     1      -4.709  11.052  11.502  0.00  0.00    -0.343 OA
ATOM     46  C   UNL     1      -6.019  11.557  11.864  0.00  0.00    +0.198 C 
ENDBRANCH  31  45
ENDBRANCH  28  29
BRANCH  28  47
ATOM     47  O   UNL     1      -6.117   8.484  15.667  0.00  0.00    -0.387 OA
ATOM     48  H   UNL     1      -6.997   8.706  15.981  0.00  0.00    +0.210 HD
ENDBRANCH  28  47
ENDBRANCH  25  28
ENDBRANCH   1  25
TORSDOF 16
