REMARK VINA RESULT:    -4.941      4.195     10.897
REMARK INTER + INTRA:         -10.932
REMARK INTER:                  -8.230
REMARK INTRA:                  -2.702
REMARK UNBOUND:                -2.381
REMARK  Name = lig_assembled_7.pdb
REMARK  19 active torsions:
REMARK  status: ('A' for Active; 'I' for Inactive)
REMARK    1  A    between atoms: _2  and  _9
REMARK    2  A    between atoms: _4  and  _21
REMARK    3  A    between atoms: _5  and  _16
REMARK    4  A    between atoms: _6  and  _7
REMARK    5  A    between atoms: _6  and  _21
REMARK    6  A    between atoms: _10  and  _11
REMARK    7  A    between atoms: _13  and  _14
REMARK    8  A    between atoms: _17  and  _37
REMARK    9  A    between atoms: _19  and  _25
REMARK   10  A    between atoms: _20  and  _24
REMARK   11  A    between atoms: _24  and  _25
REMARK   12  A    between atoms: _27  and  _28
REMARK   13  A    between atoms: _29  and  _30
REMARK   14  A    between atoms: _31  and  _33
REMARK   15  A    between atoms: _33  and  _34
REMARK   16  A    between atoms: _33  and  _35
REMARK   17  A    between atoms: _35  and  _36
REMARK   18  A    between atoms: _35  and  _37
REMARK   19  A    between atoms: _38  and  _40
REMARK                            x       y       z     vdW  Elec       q    Type
REMARK                         _______ _______ _______ _____ _____    ______ ____
ROOT
ATOM      1  C   UNL     1      -2.907   7.473  26.369  0.00  0.00    +0.163 C 
ENDROOT
BRANCH   1   2
ATOM      2  O   UNL     1      -3.757   6.932  25.344  0.00  0.00    -0.388 OA
ATOM      3  H   UNL     1      -4.548   6.563  25.744  0.00  0.00    +0.210 HD
ENDBRANCH   1   2
BRANCH   1   4
ATOM      4  C   UNL     1      -3.307   6.909  27.729  0.00  0.00    +0.141 C 
BRANCH   4   7
ATOM      5  C   UNL     1      -3.534   7.953  29.957  0.00  0.00    +0.401 C 
ATOM      6  O   UNL     1      -2.919   7.058  30.543  0.00  0.00    -0.226 OA
ATOM      7  N   UNL     1      -3.767   7.961  28.644  0.00  0.00    -0.279 N 
ATOM      8  H   UNL     1      -4.289   8.735  28.257  0.00  0.00    +0.152 HD
BRANCH   5   9
ATOM      9  O   UNL     1      -4.041   9.056  30.712  0.00  0.00    -0.444 OA
BRANCH   9  10
ATOM     10  C   UNL     1      -2.951   9.788  31.279  0.00  0.00    +0.292 C 
BRANCH  10  12
ATOM     11  N   UNL     1      -4.545  11.214  32.505  0.00  0.00    -0.131 NA
ATOM     12  C   UNL     1      -3.412  11.103  31.759  0.00  0.00    +0.121 A 
ATOM     13  C   UNL     1      -2.866  12.361  31.591  0.00  0.00    +0.143 A 
ATOM     14  N   UNL     1      -3.738  13.225  32.220  0.00  0.00    -0.219 N 
ATOM     15  N   UNL     1      -4.719  12.491  32.802  0.00  0.00    -0.060 NA
BRANCH  14  16
ATOM     16  C   UNL     1      -3.698  14.655  32.312  0.00  0.00    +0.073 A 
ATOM     17  C   UNL     1      -4.397  15.438  31.344  0.00  0.00    -0.024 A 
ATOM     18  C   UNL     1      -4.365  16.847  31.428  0.00  0.00    +0.008 A 
ATOM     19  C   UNL     1      -3.673  17.501  32.444  0.00  0.00    -0.050 A 
ATOM     20  C   UNL     1      -3.661  18.999  32.505  0.00  0.00    +0.044 C 
ATOM     21  C   UNL     1      -2.995  16.733  33.387  0.00  0.00    +0.008 A 
ATOM     22  C   UNL     1      -5.240  14.867  30.225  0.00  0.00    +0.046 C 
ATOM     23  C   UNL     1      -2.972  15.319  33.334  0.00  0.00    -0.024 A 
ATOM     24  C   UNL     1      -2.079  14.689  34.372  0.00  0.00    +0.046 C 
ENDBRANCH  14  16
ENDBRANCH  10  12
ENDBRANCH   9  10
ENDBRANCH   5   9
ENDBRANCH   4   7
ENDBRANCH   1   4
BRANCH   1  25
ATOM     25  C   UNL     1      -2.996   9.009  26.403  0.00  0.00    +0.175 C 
BRANCH  25  26
ATOM     26  C   UNL     1      -3.974   9.554  25.352  0.00  0.00    +0.176 C 
ATOM     27  O   UNL     1      -3.268   9.634  24.083  0.00  0.00    -0.332 OA
ATOM     28  C   UNL     1      -4.080  10.038  22.931  0.00  0.00    +0.277 C 
ATOM     29  C   UNL     1      -4.795  11.381  23.217  0.00  0.00    +0.110 C 
ATOM     30  C   UNL     1      -5.534  11.355  24.572  0.00  0.00    +0.143 C 
ATOM     31  C   UNL     1      -4.597  10.919  25.699  0.00  0.00    +0.133 C 
BRANCH  31  32
ATOM     32  N   UNL     1      -5.333  10.815  26.969  0.00  0.00    -0.308 N 
ATOM     33  H   UNL     1      -6.181  10.265  26.979  0.00  0.00    +0.149 HD
ATOM     34  C   UNL     1      -4.955  11.399  28.109  0.00  0.00    +0.210 C 
ATOM     35  C   UNL     1      -3.673  12.251  28.054  0.00  0.00    +0.109 C 
ATOM     36  O   UNL     1      -5.583  11.282  29.161  0.00  0.00    -0.276 OA
ENDBRANCH  31  32
BRANCH  28  37
ATOM     37  C   UNL     1      -5.128   8.957  22.594  0.00  0.00    +0.414 C 
ATOM     38  O   UNL     1      -6.233   9.279  22.161  0.00  0.00    -0.240 OA
ATOM     39  O   UNL     1      -4.868   7.764  22.755  0.00  0.00    -0.240 OA
ENDBRANCH  28  37
BRANCH  30  40
ATOM     40  O   UNL     1      -6.049  12.655  24.864  0.00  0.00    -0.390 OA
ATOM     41  H   UNL     1      -5.543  13.316  24.384  0.00  0.00    +0.210 HD
ENDBRANCH  30  40
BRANCH  28  42
ATOM     42  O   UNL     1      -3.190  10.225  21.800  0.00  0.00    -0.343 OA
ATOM     43  C   UNL     1      -3.131  11.579  21.285  0.00  0.00    +0.198 C 
ENDBRANCH  28  42
ENDBRANCH  25  26
BRANCH  25  44
ATOM     44  O   UNL     1      -1.689   9.586  26.213  0.00  0.00    -0.387 OA
ATOM     45  H   UNL     1      -1.781  10.503  25.942  0.00  0.00    +0.210 HD
ENDBRANCH  25  44
ENDBRANCH   1  25
TORSDOF 14
