REMARK VINA RESULT:    -5.377      3.274     10.638
REMARK INTER + INTRA:         -12.804
REMARK INTER:                 -10.192
REMARK INTRA:                  -2.612
REMARK UNBOUND:                -2.554
REMARK  Name = lig_assembled_9.pdb
REMARK  20 active torsions:
REMARK  status: ('A' for Active; 'I' for Inactive)
REMARK    1  A    between atoms: _2  and  _9
REMARK    2  A    between atoms: _4  and  _23
REMARK    3  A    between atoms: _6  and  _7
REMARK    4  A    between atoms: _6  and  _23
REMARK    5  A    between atoms: _11  and  _12
REMARK    6  A    between atoms: _12  and  _17
REMARK    7  A    between atoms: _13  and  _14
REMARK    8  A    between atoms: _13  and  _17
REMARK    9  A    between atoms: _19  and  _39
REMARK   10  A    between atoms: _21  and  _27
REMARK   11  A    between atoms: _22  and  _26
REMARK   12  A    between atoms: _26  and  _27
REMARK   13  A    between atoms: _29  and  _30
REMARK   14  A    between atoms: _31  and  _32
REMARK   15  A    between atoms: _33  and  _35
REMARK   16  A    between atoms: _35  and  _36
REMARK   17  A    between atoms: _35  and  _37
REMARK   18  A    between atoms: _37  and  _38
REMARK   19  A    between atoms: _37  and  _39
REMARK   20  A    between atoms: _40  and  _42
REMARK                            x       y       z     vdW  Elec       q    Type
REMARK                         _______ _______ _______ _____ _____    ______ ____
ROOT
ATOM      1  C   UNL     1      -3.260  11.767  25.170  0.00  0.00    +0.163 C 
ENDROOT
BRANCH   1   2
ATOM      2  O   UNL     1      -2.086  10.942  25.096  0.00  0.00    -0.388 OA
ATOM      3  H   UNL     1      -2.138  10.380  24.319  0.00  0.00    +0.210 HD
ENDBRANCH   1   2
BRANCH   1   4
ATOM      4  C   UNL     1      -3.581  12.138  26.629  0.00  0.00    +0.175 C 
BRANCH   4   5
ATOM      5  C   UNL     1      -3.345  10.963  27.589  0.00  0.00    +0.176 C 
ATOM      6  O   UNL     1      -3.972   9.783  27.014  0.00  0.00    -0.332 OA
ATOM      7  C   UNL     1      -3.758   8.532  27.747  0.00  0.00    +0.277 C 
ATOM      8  C   UNL     1      -4.194   8.688  29.224  0.00  0.00    +0.110 C 
ATOM      9  C   UNL     1      -3.577   9.948  29.869  0.00  0.00    +0.143 C 
ATOM     10  C   UNL     1      -3.857  11.190  29.023  0.00  0.00    +0.133 C 
BRANCH  10  11
ATOM     11  N   UNL     1      -3.191  12.368  29.602  0.00  0.00    -0.308 N 
ATOM     12  H   UNL     1      -2.181  12.390  29.595  0.00  0.00    +0.149 HD
ATOM     13  C   UNL     1      -3.835  13.410  30.136  0.00  0.00    +0.210 C 
ATOM     14  C   UNL     1      -5.373  13.334  30.155  0.00  0.00    +0.109 C 
ATOM     15  O   UNL     1      -3.251  14.390  30.600  0.00  0.00    -0.276 OA
ENDBRANCH  10  11
BRANCH   7  16
ATOM     16  C   UNL     1      -2.276   8.110  27.688  0.00  0.00    +0.414 C 
ATOM     17  O   UNL     1      -1.624   8.275  26.658  0.00  0.00    -0.240 OA
ATOM     18  O   UNL     1      -1.731   7.604  28.671  0.00  0.00    -0.240 OA
ENDBRANCH   7  16
BRANCH   7  19
ATOM     19  O   UNL     1      -4.582   7.507  27.134  0.00  0.00    -0.343 OA
ATOM     20  C   UNL     1      -4.894   6.378  27.989  0.00  0.00    +0.198 C 
ENDBRANCH   7  19
BRANCH   9  21
ATOM     21  O   UNL     1      -4.122  10.136  31.176  0.00  0.00    -0.390 OA
ATOM     22  H   UNL     1      -4.042   9.320  31.677  0.00  0.00    +0.210 HD
ENDBRANCH   9  21
ENDBRANCH   4   5
BRANCH   4  23
ATOM     23  O   UNL     1      -4.942  12.602  26.735  0.00  0.00    -0.387 OA
ATOM     24  H   UNL     1      -5.168  13.114  25.956  0.00  0.00    +0.210 HD
ENDBRANCH   4  23
ENDBRANCH   1   4
BRANCH   1  25
ATOM     25  C   UNL     1      -3.056  13.040  24.354  0.00  0.00    +0.141 C 
BRANCH  25  28
ATOM     26  C   UNL     1      -5.155  13.432  23.111  0.00  0.00    +0.401 C 
ATOM     27  O   UNL     1      -5.782  13.809  24.103  0.00  0.00    -0.226 OA
ATOM     28  N   UNL     1      -3.878  13.048  23.138  0.00  0.00    -0.279 N 
ATOM     29  H   UNL     1      -3.452  12.745  22.273  0.00  0.00    +0.152 HD
BRANCH  26  30
ATOM     30  O   UNL     1      -5.817  13.391  21.844  0.00  0.00    -0.444 OA
BRANCH  30  31
ATOM     31  C   UNL     1      -6.339  12.079  21.620  0.00  0.00    +0.292 C 
BRANCH  31  33
ATOM     32  N   UNL     1      -5.352  10.155  20.416  0.00  0.00    -0.131 NA
ATOM     33  C   UNL     1      -5.705  11.473  20.434  0.00  0.00    +0.121 A 
ATOM     34  C   UNL     1      -5.380  12.042  19.226  0.00  0.00    +0.143 A 
ATOM     35  N   UNL     1      -4.860  11.011  18.476  0.00  0.00    -0.220 N 
ATOM     36  N   UNL     1      -4.832   9.884  19.226  0.00  0.00    -0.060 NA
BRANCH  35  37
ATOM     37  C   UNL     1      -4.430  11.027  17.124  0.00  0.00    +0.068 A 
ATOM     38  C   UNL     1      -4.262   9.829  16.416  0.00  0.00    +0.042 A 
ATOM     39  C   UNL     1      -3.806   9.849  15.089  0.00  0.00    +0.061 A 
ATOM     40  C   UNL     1      -3.522  11.072  14.472  0.00  0.00    +0.015 A 
ATOM     41  C   UNL     1      -3.700  12.268  15.171  0.00  0.00    +0.003 A 
ATOM     42  C   UNL     1      -4.153  12.248  16.491  0.00  0.00    +0.028 A 
BRANCH  39  43
ATOM     43  C   UNL     1      -3.672   8.606  14.285  0.00  0.00    +0.339 C 
ATOM     44  O   UNL     1      -4.175   8.454  13.183  0.00  0.00    -0.245 OA
BRANCH  43  45
ATOM     45  O   UNL     1      -3.009   7.665  15.001  0.00  0.00    -0.461 OA
BRANCH  45  46
ATOM     46  C   UNL     1      -1.690   7.349  14.535  0.00  0.00    +0.229 C 
ATOM     47  C   UNL     1      -0.699   7.801  15.591  0.00  0.00    +0.048 C 
ENDBRANCH  45  46
ENDBRANCH  43  45
ENDBRANCH  39  43
ENDBRANCH  35  37
ENDBRANCH  31  33
ENDBRANCH  30  31
ENDBRANCH  26  30
ENDBRANCH  25  28
ENDBRANCH   1  25
TORSDOF 17
