REMARK VINA RESULT:    -5.436      2.909      9.918
REMARK INTER + INTRA:         -11.221
REMARK INTER:                  -8.627
REMARK INTRA:                  -2.594
REMARK UNBOUND:                -1.813
REMARK  Name = lig_assembled_40.pdb
REMARK  17 active torsions:
REMARK  status: ('A' for Active; 'I' for Inactive)
REMARK    1  A    between atoms: _2  and  _9
REMARK    2  A    between atoms: _4  and  _19
REMARK    3  A    between atoms: _6  and  _7
REMARK    4  A    between atoms: _6  and  _19
REMARK    5  A    between atoms: _12  and  _13
REMARK    6  A    between atoms: _15  and  _35
REMARK    7  A    between atoms: _17  and  _23
REMARK    8  A    between atoms: _18  and  _22
REMARK    9  A    between atoms: _22  and  _23
REMARK   10  A    between atoms: _25  and  _26
REMARK   11  A    between atoms: _27  and  _28
REMARK   12  A    between atoms: _29  and  _31
REMARK   13  A    between atoms: _31  and  _32
REMARK   14  A    between atoms: _31  and  _33
REMARK   15  A    between atoms: _33  and  _34
REMARK   16  A    between atoms: _33  and  _35
REMARK   17  A    between atoms: _36  and  _38
REMARK                            x       y       z     vdW  Elec       q    Type
REMARK                         _______ _______ _______ _____ _____    ______ ____
ROOT
ATOM      1  C   UNL     1      -5.672   8.443  25.069  0.00  0.00    +0.163 C 
ENDROOT
BRANCH   1   2
ATOM      2  O   UNL     1      -6.088   9.191  26.224  0.00  0.00    -0.388 OA
ATOM      3  H   UNL     1      -6.268  10.099  25.969  0.00  0.00    +0.210 HD
ENDBRANCH   1   2
BRANCH   1   4
ATOM      4  C   UNL     1      -4.222   7.999  25.229  0.00  0.00    +0.141 C 
BRANCH   4   7
ATOM      5  C   UNL     1      -2.486   7.945  26.987  0.00  0.00    +0.401 C 
ATOM      6  O   UNL     1      -1.669   7.336  26.292  0.00  0.00    -0.226 OA
ATOM      7  N   UNL     1      -3.706   8.290  26.572  0.00  0.00    -0.279 N 
ATOM      8  H   UNL     1      -4.308   8.779  27.219  0.00  0.00    +0.152 HD
BRANCH   5   9
ATOM      9  O   UNL     1      -2.128   8.309  28.322  0.00  0.00    -0.444 OA
BRANCH   9  10
ATOM     10  C   UNL     1      -3.309   8.417  29.121  0.00  0.00    +0.292 C 
BRANCH  10  12
ATOM     11  N   UNL     1      -2.687   9.959  30.954  0.00  0.00    -0.131 NA
ATOM     12  C   UNL     1      -3.359   9.731  29.789  0.00  0.00    +0.121 A 
ATOM     13  C   UNL     1      -4.009  10.882  29.413  0.00  0.00    +0.143 A 
ATOM     14  N   UNL     1      -3.676  11.812  30.373  0.00  0.00    -0.220 N 
ATOM     15  N   UNL     1      -2.891  11.221  31.309  0.00  0.00    -0.060 NA
BRANCH  14  16
ATOM     16  C   UNL     1      -4.016  13.188  30.427  0.00  0.00    +0.067 A 
ATOM     17  C   UNL     1      -3.245  14.088  31.171  0.00  0.00    +0.028 A 
ATOM     18  C   UNL     1      -3.631  15.428  31.272  0.00  0.00    +0.005 A 
ATOM     19  C   UNL     1      -4.789  15.885  30.634  0.00  0.00    -0.050 A 
ATOM     20  C   UNL     1      -5.539  14.991  29.861  0.00  0.00    +0.005 A 
ATOM     21  C   UNL     1      -5.232  17.311  30.779  0.00  0.00    +0.044 C 
ATOM     22  C   UNL     1      -5.158  13.651  29.755  0.00  0.00    +0.028 A 
ENDBRANCH  14  16
ENDBRANCH  10  12
ENDBRANCH   9  10
ENDBRANCH   5   9
ENDBRANCH   4   7
ENDBRANCH   1   4
BRANCH   1  23
ATOM     23  C   UNL     1      -5.815   9.283  23.789  0.00  0.00    +0.175 C 
BRANCH  23  24
ATOM     24  C   UNL     1      -4.857  10.483  23.775  0.00  0.00    +0.176 C 
ATOM     25  O   UNL     1      -5.229  11.364  24.871  0.00  0.00    -0.332 OA
ATOM     26  C   UNL     1      -4.352  12.520  25.081  0.00  0.00    +0.277 C 
ATOM     27  C   UNL     1      -4.216  13.339  23.774  0.00  0.00    +0.110 C 
ATOM     28  C   UNL     1      -3.852  12.440  22.574  0.00  0.00    +0.143 C 
ATOM     29  C   UNL     1      -4.826  11.268  22.451  0.00  0.00    +0.133 C 
BRANCH  29  30
ATOM     30  N   UNL     1      -4.419  10.372  21.358  0.00  0.00    -0.308 N 
ATOM     31  H   UNL     1      -3.534   9.892  21.446  0.00  0.00    +0.149 HD
ATOM     32  C   UNL     1      -5.141  10.151  20.256  0.00  0.00    +0.210 C 
ATOM     33  C   UNL     1      -6.473  10.916  20.140  0.00  0.00    +0.109 C 
ATOM     34  O   UNL     1      -4.782   9.383  19.363  0.00  0.00    -0.276 OA
ENDBRANCH  29  30
BRANCH  26  35
ATOM     35  C   UNL     1      -2.955  12.068  25.555  0.00  0.00    +0.414 C 
ATOM     36  O   UNL     1      -2.845  11.204  26.423  0.00  0.00    -0.240 OA
ATOM     37  O   UNL     1      -1.940  12.568  25.069  0.00  0.00    -0.240 OA
ENDBRANCH  26  35
BRANCH  28  38
ATOM     38  O   UNL     1      -3.885  13.208  21.370  0.00  0.00    -0.390 OA
ATOM     39  H   UNL     1      -3.578  12.669  20.637  0.00  0.00    +0.210 HD
ENDBRANCH  28  38
BRANCH  26  40
ATOM     40  O   UNL     1      -4.960  13.367  26.090  0.00  0.00    -0.343 OA
ATOM     41  C   UNL     1      -6.407  13.295  26.160  0.00  0.00    +0.198 C 
ENDBRANCH  26  40
ENDBRANCH  23  24
BRANCH  23  42
ATOM     42  O   UNL     1      -7.176   9.732  23.638  0.00  0.00    -0.387 OA
ATOM     43  H   UNL     1      -7.733   9.291  24.284  0.00  0.00    +0.210 HD
ENDBRANCH  23  42
ENDBRANCH   1  23
TORSDOF 14
