REMARK VINA RESULT:    -5.039      4.367     10.607
REMARK INTER + INTRA:         -11.562
REMARK INTER:                  -9.584
REMARK INTRA:                  -1.978
REMARK UNBOUND:                -2.841
REMARK  Name = lig_assembled_86.pdb
REMARK  17 active torsions:
REMARK  status: ('A' for Active; 'I' for Inactive)
REMARK    1  A    between atoms: _2  and  _10
REMARK    2  A    between atoms: _3  and  _13
REMARK    3  A    between atoms: _5  and  _21
REMARK    4  A    between atoms: _7  and  _8
REMARK    5  A    between atoms: _7  and  _21
REMARK    6  A    between atoms: _17  and  _37
REMARK    7  A    between atoms: _19  and  _25
REMARK    8  A    between atoms: _20  and  _24
REMARK    9  A    between atoms: _24  and  _25
REMARK   10  A    between atoms: _27  and  _28
REMARK   11  A    between atoms: _29  and  _30
REMARK   12  A    between atoms: _31  and  _33
REMARK   13  A    between atoms: _33  and  _34
REMARK   14  A    between atoms: _33  and  _35
REMARK   15  A    between atoms: _35  and  _36
REMARK   16  A    between atoms: _35  and  _37
REMARK   17  A    between atoms: _38  and  _40
REMARK                            x       y       z     vdW  Elec       q    Type
REMARK                         _______ _______ _______ _____ _____    ______ ____
ROOT
ATOM      1  C   UNL     1      -4.858  11.384  21.174  0.00  0.00    +0.163 C 
ENDROOT
BRANCH   1   2
ATOM      2  O   UNL     1      -5.051   9.994  20.867  0.00  0.00    -0.388 OA
ATOM      3  H   UNL     1      -4.718   9.811  19.985  0.00  0.00    +0.210 HD
ENDBRANCH   1   2
BRANCH   1   4
ATOM      4  C   UNL     1      -4.912  12.213  19.895  0.00  0.00    +0.141 C 
BRANCH   4   7
ATOM      5  C   UNL     1      -4.708  11.583  17.514  0.00  0.00    +0.401 C 
ATOM      6  O   UNL     1      -5.714  12.205  17.166  0.00  0.00    -0.226 OA
ATOM      7  N   UNL     1      -4.263  11.527  18.771  0.00  0.00    -0.279 N 
ATOM      8  H   UNL     1      -3.433  10.983  18.959  0.00  0.00    +0.152 HD
BRANCH   5   9
ATOM      9  O   UNL     1      -3.958  10.867  16.529  0.00  0.00    -0.444 OA
BRANCH   9  10
ATOM     10  C   UNL     1      -4.604  10.984  15.259  0.00  0.00    +0.292 C 
BRANCH  10  12
ATOM     11  N   UNL     1      -2.733  10.569  13.685  0.00  0.00    -0.131 NA
ATOM     12  C   UNL     1      -3.640  11.435  14.237  0.00  0.00    +0.120 A 
ATOM     13  C   UNL     1      -3.474  12.676  13.670  0.00  0.00    +0.137 A 
ATOM     14  N   UNL     1      -2.479  12.494  12.759  0.00  0.00    -0.248 N 
ATOM     15  N   UNL     1      -2.013  11.234  12.791  0.00  0.00    -0.065 NA
BRANCH  14  16
ATOM     16  C   UNL     1      -1.942  13.477  11.830  0.00  0.00    +0.112 C 
ATOM     17  C   UNL     1      -3.059  14.205  11.054  0.00  0.00    +0.045 C 
ATOM     18  C   UNL     1      -2.898  15.726  10.981  0.00  0.00    +0.059 C 
ATOM     19  C   UNL     1      -3.286  16.388  12.308  0.00  0.00    +0.020 C 
ATOM     20  C   UNL     1      -1.970  16.519  13.071  0.00  0.00    +0.020 C 
ATOM     21  C   UNL     1      -0.933  15.850  12.166  0.00  0.00    +0.059 C 
ATOM     22  N   UNL     1      -1.502  16.142  10.850  0.00  0.00    -0.299 NA
ATOM     23  C   UNL     1      -0.772  15.633   9.704  0.00  0.00    +0.105 C 
ATOM     24  C   UNL     1      -0.827  14.347  12.455  0.00  0.00    +0.045 C 
ENDBRANCH  14  16
ENDBRANCH  10  12
ENDBRANCH   9  10
ENDBRANCH   5   9
ENDBRANCH   4   7
ENDBRANCH   1   4
BRANCH   1  25
ATOM     25  C   UNL     1      -3.509  11.611  21.877  0.00  0.00    +0.175 C 
BRANCH  25  26
ATOM     26  C   UNL     1      -3.676  11.851  23.385  0.00  0.00    +0.176 C 
ATOM     27  O   UNL     1      -4.076  10.594  23.997  0.00  0.00    -0.332 OA
ATOM     28  C   UNL     1      -4.181  10.606  25.459  0.00  0.00    +0.277 C 
ATOM     29  C   UNL     1      -5.129  11.739  25.924  0.00  0.00    +0.110 C 
ATOM     30  C   UNL     1      -4.762  13.090  25.274  0.00  0.00    +0.143 C 
ATOM     31  C   UNL     1      -4.677  12.962  23.753  0.00  0.00    +0.133 C 
BRANCH  31  32
ATOM     32  N   UNL     1      -4.243  14.234  23.152  0.00  0.00    -0.308 N 
ATOM     33  H   UNL     1      -3.282  14.516  23.288  0.00  0.00    +0.149 HD
ATOM     34  C   UNL     1      -5.035  15.039  22.440  0.00  0.00    +0.210 C 
ATOM     35  C   UNL     1      -6.500  14.594  22.273  0.00  0.00    +0.109 C 
ATOM     36  O   UNL     1      -4.640  16.091  21.937  0.00  0.00    -0.276 OA
ENDBRANCH  31  32
BRANCH  28  37
ATOM     37  C   UNL     1      -2.793  10.797  26.106  0.00  0.00    +0.414 C 
ATOM     38  O   UNL     1      -1.783  10.382  25.539  0.00  0.00    -0.240 OA
ATOM     39  O   UNL     1      -2.684  11.364  27.193  0.00  0.00    -0.240 OA
ENDBRANCH  28  37
BRANCH  30  40
ATOM     40  O   UNL     1      -5.747  14.069  25.609  0.00  0.00    -0.390 OA
ATOM     41  H   UNL     1      -6.347  13.707  26.266  0.00  0.00    +0.210 HD
ENDBRANCH  30  40
BRANCH  28  42
ATOM     42  O   UNL     1      -4.745   9.337  25.878  0.00  0.00    -0.343 OA
ATOM     43  C   UNL     1      -4.806   8.322  24.844  0.00  0.00    +0.198 C 
ENDBRANCH  28  42
ENDBRANCH  25  26
BRANCH  25  44
ATOM     44  O   UNL     1      -2.813  12.718  21.271  0.00  0.00    -0.387 OA
ATOM     45  H   UNL     1      -2.428  12.438  20.438  0.00  0.00    +0.210 HD
ENDBRANCH  25  44
ENDBRANCH   1  25
TORSDOF 14
