REMARK VINA RESULT:    -4.087      4.090      9.659
REMARK INTER + INTRA:         -10.987
REMARK INTER:                  -8.265
REMARK INTRA:                  -2.722
REMARK UNBOUND:                -3.914
REMARK  Name = lig_assembled_20.pdb
REMARK  16 active torsions:
REMARK  status: ('A' for Active; 'I' for Inactive)
REMARK    1  A    between atoms: _2  and  _11
REMARK    2  A    between atoms: _6  and  _21
REMARK    3  A    between atoms: _8  and  _9
REMARK    4  A    between atoms: _8  and  _21
REMARK    5  A    between atoms: _17  and  _37
REMARK    6  A    between atoms: _19  and  _25
REMARK    7  A    between atoms: _20  and  _24
REMARK    8  A    between atoms: _24  and  _25
REMARK    9  A    between atoms: _27  and  _28
REMARK   10  A    between atoms: _29  and  _30
REMARK   11  A    between atoms: _31  and  _33
REMARK   12  A    between atoms: _33  and  _34
REMARK   13  A    between atoms: _33  and  _35
REMARK   14  A    between atoms: _35  and  _36
REMARK   15  A    between atoms: _35  and  _37
REMARK   16  A    between atoms: _38  and  _40
REMARK                            x       y       z     vdW  Elec       q    Type
REMARK                         _______ _______ _______ _____ _____    ______ ____
ROOT
ATOM      1  C   UNL     1      -6.533   9.034  23.483  0.00  0.00    +0.163 C 
ENDROOT
BRANCH   1   2
ATOM      2  O   UNL     1      -7.219   9.085  24.745  0.00  0.00    -0.388 OA
ATOM      3  H   UNL     1      -7.653   9.936  24.839  0.00  0.00    +0.210 HD
ENDBRANCH   1   2
BRANCH   1   4
ATOM      4  C   UNL     1      -7.402   8.334  22.444  0.00  0.00    +0.141 C 
BRANCH   4   7
ATOM      5  C   UNL     1      -7.024   8.846  20.057  0.00  0.00    +0.401 C 
ATOM      6  O   UNL     1      -6.309   7.860  19.861  0.00  0.00    -0.226 OA
ATOM      7  N   UNL     1      -7.573   9.148  21.234  0.00  0.00    -0.279 N 
ATOM      8  H   UNL     1      -8.137   9.983  21.298  0.00  0.00    +0.152 HD
BRANCH   5   9
ATOM      9  O   UNL     1      -7.293   9.736  18.970  0.00  0.00    -0.444 OA
BRANCH   9  10
ATOM     10  C   UNL     1      -6.633   9.264  17.792  0.00  0.00    +0.292 C 
BRANCH  10  12
ATOM     11  N   UNL     1      -6.317  11.686  17.363  0.00  0.00    -0.131 NA
ATOM     12  C   UNL     1      -6.035  10.388  17.047  0.00  0.00    +0.121 A 
ATOM     13  C   UNL     1      -5.159  10.364  15.989  0.00  0.00    +0.143 A 
ATOM     14  N   UNL     1      -4.927  11.685  15.683  0.00  0.00    -0.220 N 
ATOM     15  N   UNL     1      -5.641  12.469  16.530  0.00  0.00    -0.060 NA
BRANCH  14  16
ATOM     16  C   UNL     1      -4.094  12.224  14.669  0.00  0.00    +0.068 A 
ATOM     17  C   UNL     1      -3.525  11.372  13.707  0.00  0.00    +0.030 A 
ATOM     18  C   UNL     1      -2.702  11.872  12.688  0.00  0.00    +0.030 A 
ATOM     19  C   UNL     1      -2.473  13.251  12.671  0.00  0.00    +0.066 A 
ATOM     20  C   UNL     1      -3.018  14.119  13.609  0.00  0.00    +0.021 A 
ATOM     21  C   UNL     1      -2.543  15.394  13.234  0.00  0.00    +0.142 A 
ATOM     22  N   UNL     1      -1.762  15.355  12.152  0.00  0.00    -0.181 NA
ATOM     23  N   UNL     1      -1.738  14.049  11.832  0.00  0.00    -0.277 N 
ATOM     24  H   UNL     1      -1.196  13.761  11.026  0.00  0.00    +0.189 HD
ATOM     25  C   UNL     1      -3.842  13.608  14.627  0.00  0.00    +0.039 A 
ENDBRANCH  14  16
ENDBRANCH  10  12
ENDBRANCH   9  10
ENDBRANCH   5   9
ENDBRANCH   4   7
ENDBRANCH   1   4
BRANCH   1  26
ATOM     26  C   UNL     1      -5.192   8.292  23.616  0.00  0.00    +0.175 C 
BRANCH  26  27
ATOM     27  C   UNL     1      -4.090   9.188  24.199  0.00  0.00    +0.176 C 
ATOM     28  O   UNL     1      -4.388   9.405  25.606  0.00  0.00    -0.332 OA
ATOM     29  C   UNL     1      -3.380  10.158  26.358  0.00  0.00    +0.277 C 
ATOM     30  C   UNL     1      -3.092  11.515  25.670  0.00  0.00    +0.110 C 
ATOM     31  C   UNL     1      -2.801  11.339  24.164  0.00  0.00    +0.143 C 
ATOM     32  C   UNL     1      -3.911  10.539  23.481  0.00  0.00    +0.133 C 
BRANCH  32  33
ATOM     33  N   UNL     1      -3.580  10.303  22.067  0.00  0.00    -0.308 N 
ATOM     34  H   UNL     1      -2.835   9.654  21.858  0.00  0.00    +0.149 HD
ATOM     35  C   UNL     1      -4.200  10.892  21.040  0.00  0.00    +0.210 C 
ATOM     36  C   UNL     1      -5.314  11.896  21.392  0.00  0.00    +0.109 C 
ATOM     37  O   UNL     1      -3.912  10.664  19.865  0.00  0.00    -0.276 OA
ENDBRANCH  32  33
BRANCH  29  38
ATOM     38  C   UNL     1      -2.070   9.352  26.476  0.00  0.00    +0.414 C 
ATOM     39  O   UNL     1      -0.987   9.933  26.529  0.00  0.00    -0.240 OA
ATOM     40  O   UNL     1      -2.096   8.121  26.519  0.00  0.00    -0.240 OA
ENDBRANCH  29  38
BRANCH  31  41
ATOM     41  O   UNL     1      -2.692  12.619  23.542  0.00  0.00    -0.390 OA
ATOM     42  H   UNL     1      -1.774  12.790  23.318  0.00  0.00    +0.210 HD
ENDBRANCH  31  41
BRANCH  29  43
ATOM     43  O   UNL     1      -3.912  10.421  27.682  0.00  0.00    -0.343 OA
ATOM     44  C   UNL     1      -3.945  11.820  28.062  0.00  0.00    +0.198 C 
ENDBRANCH  29  43
ENDBRANCH  26  27
BRANCH  26  45
ATOM     45  O   UNL     1      -4.783   7.772  22.335  0.00  0.00    -0.387 OA
ATOM     46  H   UNL     1      -4.684   8.496  21.712  0.00  0.00    +0.210 HD
ENDBRANCH  26  45
ENDBRANCH   1  26
TORSDOF 14
