REMARK VINA RESULT:    -4.737      6.351     11.911
REMARK INTER + INTRA:         -12.113
REMARK INTER:                  -9.979
REMARK INTRA:                  -2.134
REMARK UNBOUND:                -3.914
REMARK  Name = lig_assembled_20.pdb
REMARK  16 active torsions:
REMARK  status: ('A' for Active; 'I' for Inactive)
REMARK    1  A    between atoms: _2  and  _11
REMARK    2  A    between atoms: _6  and  _21
REMARK    3  A    between atoms: _8  and  _9
REMARK    4  A    between atoms: _8  and  _21
REMARK    5  A    between atoms: _17  and  _37
REMARK    6  A    between atoms: _19  and  _25
REMARK    7  A    between atoms: _20  and  _24
REMARK    8  A    between atoms: _24  and  _25
REMARK    9  A    between atoms: _27  and  _28
REMARK   10  A    between atoms: _29  and  _30
REMARK   11  A    between atoms: _31  and  _33
REMARK   12  A    between atoms: _33  and  _34
REMARK   13  A    between atoms: _33  and  _35
REMARK   14  A    between atoms: _35  and  _36
REMARK   15  A    between atoms: _35  and  _37
REMARK   16  A    between atoms: _38  and  _40
REMARK                            x       y       z     vdW  Elec       q    Type
REMARK                         _______ _______ _______ _____ _____    ______ ____
ROOT
ATOM      1  C   UNL     1      -5.830  10.607  19.621  0.00  0.00    +0.163 C 
ENDROOT
BRANCH   1   2
ATOM      2  O   UNL     1      -4.937   9.522  19.317  0.00  0.00    -0.388 OA
ATOM      3  H   UNL     1      -5.227   8.731  19.777  0.00  0.00    +0.210 HD
ENDBRANCH   1   2
BRANCH   1   4
ATOM      4  C   UNL     1      -6.457  11.141  18.337  0.00  0.00    +0.141 C 
BRANCH   4   7
ATOM      5  C   UNL     1      -4.684  11.756  16.729  0.00  0.00    +0.401 C 
ATOM      6  O   UNL     1      -4.494  10.598  16.352  0.00  0.00    -0.226 OA
ATOM      7  N   UNL     1      -5.578  12.101  17.657  0.00  0.00    -0.279 N 
ATOM      8  H   UNL     1      -5.654  13.077  17.907  0.00  0.00    +0.152 HD
BRANCH   5   9
ATOM      9  O   UNL     1      -3.909  12.810  16.153  0.00  0.00    -0.444 OA
BRANCH   9  10
ATOM     10  C   UNL     1      -4.333  13.034  14.805  0.00  0.00    +0.292 C 
BRANCH  10  12
ATOM     11  N   UNL     1      -2.676  11.842  13.397  0.00  0.00    -0.131 NA
ATOM     12  C   UNL     1      -3.177  13.012  13.888  0.00  0.00    +0.121 A 
ATOM     13  C   UNL     1      -2.441  14.060  13.390  0.00  0.00    +0.143 A 
ATOM     14  N   UNL     1      -1.487  13.480  12.586  0.00  0.00    -0.220 N 
ATOM     15  N   UNL     1      -1.649  12.133  12.606  0.00  0.00    -0.060 NA
BRANCH  14  16
ATOM     16  C   UNL     1      -0.469  14.113  11.828  0.00  0.00    +0.068 A 
ATOM     17  C   UNL     1      -0.189  13.668  10.525  0.00  0.00    +0.030 A 
ATOM     18  C   UNL     1       0.807  14.275   9.747  0.00  0.00    +0.030 A 
ATOM     19  C   UNL     1       1.508  15.339  10.322  0.00  0.00    +0.066 A 
ATOM     20  C   UNL     1       1.257  15.800  11.608  0.00  0.00    +0.021 A 
ATOM     21  C   UNL     1       2.169  16.862  11.791  0.00  0.00    +0.142 A 
ATOM     22  N   UNL     1       2.939  17.069  10.720  0.00  0.00    -0.181 NA
ATOM     23  N   UNL     1       2.517  16.137   9.848  0.00  0.00    -0.277 N 
ATOM     24  H   UNL     1       2.962  16.091   8.939  0.00  0.00    +0.189 HD
ATOM     25  C   UNL     1       0.256  15.185  12.381  0.00  0.00    +0.039 A 
ENDBRANCH  14  16
ENDBRANCH  10  12
ENDBRANCH   9  10
ENDBRANCH   5   9
ENDBRANCH   4   7
ENDBRANCH   1   4
BRANCH   1  26
ATOM     26  C   UNL     1      -5.088  11.744  20.343  0.00  0.00    +0.175 C 
BRANCH  26  27
ATOM     27  C   UNL     1      -4.618  11.329  21.745  0.00  0.00    +0.176 C 
ATOM     28  O   UNL     1      -5.636  10.464  22.320  0.00  0.00    -0.332 OA
ATOM     29  C   UNL     1      -5.309   9.881  23.624  0.00  0.00    +0.277 C 
ATOM     30  C   UNL     1      -4.936  10.992  24.636  0.00  0.00    +0.110 C 
ATOM     31  C   UNL     1      -3.879  11.957  24.057  0.00  0.00    +0.143 C 
ATOM     32  C   UNL     1      -4.320  12.502  22.698  0.00  0.00    +0.133 C 
BRANCH  32  33
ATOM     33  N   UNL     1      -3.267  13.351  22.118  0.00  0.00    -0.308 N 
ATOM     34  H   UNL     1      -2.420  12.901  21.801  0.00  0.00    +0.149 HD
ATOM     35  C   UNL     1      -3.359  14.676  21.982  0.00  0.00    +0.210 C 
ATOM     36  C   UNL     1      -4.652  15.335  22.498  0.00  0.00    +0.109 C 
ATOM     37  O   UNL     1      -2.467  15.360  21.479  0.00  0.00    -0.276 OA
ENDBRANCH  32  33
BRANCH  29  38
ATOM     38  C   UNL     1      -4.139   8.883  23.500  0.00  0.00    +0.414 C 
ATOM     39  O   UNL     1      -3.482   8.570  24.492  0.00  0.00    -0.240 OA
ATOM     40  O   UNL     1      -3.853   8.390  22.408  0.00  0.00    -0.240 OA
ENDBRANCH  29  38
BRANCH  31  41
ATOM     41  O   UNL     1      -3.677  13.046  24.958  0.00  0.00    -0.390 OA
ATOM     42  H   UNL     1      -2.786  13.008  25.313  0.00  0.00    +0.210 HD
ENDBRANCH  31  41
BRANCH  29  43
ATOM     43  O   UNL     1      -6.488   9.192  24.116  0.00  0.00    -0.343 OA
ATOM     44  C   UNL     1      -7.408   8.743  23.089  0.00  0.00    +0.198 C 
ENDBRANCH  29  43
ENDBRANCH  26  27
BRANCH  26  45
ATOM     45  O   UNL     1      -5.930  12.912  20.427  0.00  0.00    -0.387 OA
ATOM     46  H   UNL     1      -5.405  13.666  20.705  0.00  0.00    +0.210 HD
ENDBRANCH  26  45
ENDBRANCH   1  26
TORSDOF 14
