REMARK VINA RESULT:    -4.649      2.877      7.484
REMARK INTER + INTRA:         -10.057
REMARK INTER:                  -7.180
REMARK INTRA:                  -2.877
REMARK UNBOUND:                -2.010
REMARK  Name = lig_assembled_49.pdb
REMARK  16 active torsions:
REMARK  status: ('A' for Active; 'I' for Inactive)
REMARK    1  A    between atoms: _2  and  _9
REMARK    2  A    between atoms: _4  and  _17
REMARK    3  A    between atoms: _6  and  _7
REMARK    4  A    between atoms: _6  and  _17
REMARK    5  A    between atoms: _13  and  _33
REMARK    6  A    between atoms: _15  and  _21
REMARK    7  A    between atoms: _16  and  _20
REMARK    8  A    between atoms: _20  and  _21
REMARK    9  A    between atoms: _23  and  _24
REMARK   10  A    between atoms: _25  and  _26
REMARK   11  A    between atoms: _27  and  _29
REMARK   12  A    between atoms: _29  and  _30
REMARK   13  A    between atoms: _29  and  _31
REMARK   14  A    between atoms: _31  and  _32
REMARK   15  A    between atoms: _31  and  _33
REMARK   16  A    between atoms: _34  and  _36
REMARK                            x       y       z     vdW  Elec       q    Type
REMARK                         _______ _______ _______ _____ _____    ______ ____
ROOT
ATOM      1  C   UNL     1      -3.322  11.015  27.334  0.00  0.00    +0.175 C 
ENDROOT
BRANCH   1   2
ATOM      2  C   UNL     1      -4.152  11.441  26.114  0.00  0.00    +0.176 C 
ATOM      3  O   UNL     1      -3.364  12.393  25.347  0.00  0.00    -0.332 OA
ATOM      4  C   UNL     1      -3.957  12.833  24.081  0.00  0.00    +0.277 C 
ATOM      5  C   UNL     1      -5.378  13.401  24.318  0.00  0.00    +0.110 C 
ATOM      6  C   UNL     1      -6.244  12.437  25.156  0.00  0.00    +0.143 C 
ATOM      7  C   UNL     1      -5.529  12.041  26.449  0.00  0.00    +0.133 C 
BRANCH   7   8
ATOM      8  N   UNL     1      -6.326  11.056  27.197  0.00  0.00    -0.308 N 
ATOM      9  H   UNL     1      -6.500  10.161  26.761  0.00  0.00    +0.149 HD
ATOM     10  C   UNL     1      -6.834  11.266  28.415  0.00  0.00    +0.210 C 
ATOM     11  C   UNL     1      -6.573  12.649  29.041  0.00  0.00    +0.109 C 
ATOM     12  O   UNL     1      -7.485  10.417  29.024  0.00  0.00    -0.276 OA
ENDBRANCH   7   8
BRANCH   4  13
ATOM     13  C   UNL     1      -4.029  11.666  23.076  0.00  0.00    +0.414 C 
ATOM     14  O   UNL     1      -5.045  11.488  22.404  0.00  0.00    -0.240 OA
ATOM     15  O   UNL     1      -3.073  10.902  22.936  0.00  0.00    -0.240 OA
ENDBRANCH   4  13
BRANCH   6  16
ATOM     16  O   UNL     1      -7.487  13.062  25.478  0.00  0.00    -0.390 OA
ATOM     17  H   UNL     1      -7.971  13.247  24.670  0.00  0.00    +0.210 HD
ENDBRANCH   6  16
BRANCH   4  18
ATOM     18  O   UNL     1      -3.126  13.893  23.541  0.00  0.00    -0.343 OA
ATOM     19  C   UNL     1      -3.751  14.693  22.506  0.00  0.00    +0.198 C 
ENDBRANCH   4  18
ENDBRANCH   1   2
BRANCH   1  20
ATOM     20  O   UNL     1      -2.982  12.167  28.131  0.00  0.00    -0.387 OA
ATOM     21  H   UNL     1      -3.404  12.097  28.990  0.00  0.00    +0.210 HD
ENDBRANCH   1  20
BRANCH   1  22
ATOM     22  C   UNL     1      -2.046  10.255  26.930  0.00  0.00    +0.163 C 
BRANCH  22  23
ATOM     23  O   UNL     1      -1.994  10.059  25.507  0.00  0.00    -0.388 OA
ATOM     24  H   UNL     1      -2.195  10.886  25.062  0.00  0.00    +0.210 HD
ENDBRANCH  22  23
BRANCH  22  25
ATOM     25  C   UNL     1      -2.008   8.908  27.643  0.00  0.00    +0.141 C 
BRANCH  25  28
ATOM     26  C   UNL     1      -3.055   8.223  29.774  0.00  0.00    +0.401 C 
ATOM     27  O   UNL     1      -3.664   7.272  29.278  0.00  0.00    -0.226 OA
ATOM     28  N   UNL     1      -2.264   9.044  29.083  0.00  0.00    -0.279 N 
ATOM     29  H   UNL     1      -1.815   9.802  29.577  0.00  0.00    +0.152 HD
BRANCH  26  30
ATOM     30  O   UNL     1      -3.195   8.482  31.173  0.00  0.00    -0.444 OA
BRANCH  30  31
ATOM     31  C   UNL     1      -4.389   9.234  31.403  0.00  0.00    +0.292 C 
BRANCH  31  33
ATOM     32  N   UNL     1      -3.708  11.518  30.742  0.00  0.00    -0.131 NA
ATOM     33  C   UNL     1      -4.061  10.635  31.727  0.00  0.00    +0.120 A 
ATOM     34  C   UNL     1      -4.031  11.280  32.943  0.00  0.00    +0.137 A 
ATOM     35  N   UNL     1      -3.647  12.551  32.631  0.00  0.00    -0.248 N 
ATOM     36  N   UNL     1      -3.457  12.690  31.308  0.00  0.00    -0.065 NA
BRANCH  35  37
ATOM     37  C   UNL     1      -3.427  13.654  33.536  0.00  0.00    +0.109 C 
ATOM     38  C   UNL     1      -1.949  13.961  33.789  0.00  0.00    +0.027 C 
ATOM     39  C   UNL     1      -1.990  15.364  34.371  0.00  0.00    +0.002 C 
ATOM     40  C   UNL     1      -3.062  16.076  33.556  0.00  0.00    +0.002 C 
ATOM     41  C   UNL     1      -4.025  14.989  33.072  0.00  0.00    +0.027 C 
ENDBRANCH  35  37
ENDBRANCH  31  33
ENDBRANCH  30  31
ENDBRANCH  26  30
ENDBRANCH  25  28
ENDBRANCH  22  25
ENDBRANCH   1  22
TORSDOF 14
