REMARK VINA RESULT:    -5.740      4.910      7.913
REMARK INTER + INTRA:         -14.170
REMARK INTER:                  -9.356
REMARK INTRA:                  -4.814
REMARK UNBOUND:                -3.396
REMARK  Name = lig_assembled_34.pdb
REMARK  19 active torsions:
REMARK  status: ('A' for Active; 'I' for Inactive)
REMARK    1  A    between atoms: _2  and  _9
REMARK    2  A    between atoms: _4  and  _37
REMARK    3  A    between atoms: _6  and  _7
REMARK    4  A    between atoms: _6  and  _37
REMARK    5  A    between atoms: _11  and  _12
REMARK    6  A    between atoms: _13  and  _14
REMARK    7  A    between atoms: _18  and  _31
REMARK    8  A    between atoms: _33  and  _53
REMARK    9  A    between atoms: _35  and  _41
REMARK   10  A    between atoms: _36  and  _40
REMARK   11  A    between atoms: _40  and  _41
REMARK   12  A    between atoms: _43  and  _44
REMARK   13  A    between atoms: _45  and  _46
REMARK   14  A    between atoms: _47  and  _49
REMARK   15  A    between atoms: _49  and  _50
REMARK   16  A    between atoms: _49  and  _51
REMARK   17  A    between atoms: _51  and  _52
REMARK   18  A    between atoms: _51  and  _53
REMARK   19  A    between atoms: _54  and  _56
REMARK                            x       y       z     vdW  Elec       q    Type
REMARK                         _______ _______ _______ _____ _____    ______ ____
ROOT
ATOM      1  N   UNL     1      -1.004   9.141  27.416  0.00  0.00    -0.131 NA
ATOM      2  C   UNL     1      -2.099   8.695  28.100  0.00  0.00    +0.121 A 
ATOM      3  C   UNL     1      -3.223   9.281  27.572  0.00  0.00    +0.143 A 
ATOM      4  N   UNL     1      -2.775  10.069  26.533  0.00  0.00    -0.220 N 
ATOM      5  N   UNL     1      -1.418   9.987  26.475  0.00  0.00    -0.060 NA
ENDROOT
BRANCH   4   6
ATOM      6  C   UNL     1      -3.548  10.823  25.611  0.00  0.00    +0.068 A 
ATOM      7  C   UNL     1      -4.807  11.300  25.991  0.00  0.00    +0.038 A 
ATOM      8  C   UNL     1      -5.684  11.947  25.087  0.00  0.00    +0.007 A 
ATOM      9  C   UNL     1      -5.238  12.185  23.771  0.00  0.00    -0.008 A 
ATOM     10  C   UNL     1      -3.942  11.743  23.408  0.00  0.00    +0.011 A 
ATOM     11  C   UNL     1      -3.110  11.055  24.307  0.00  0.00    +0.028 A 
BRANCH   9  12
ATOM     12  C   UNL     1      -6.069  12.807  22.688  0.00  0.00    +0.004 A 
ATOM     13  C   UNL     1      -6.116  14.155  22.487  0.00  0.00    +0.026 A 
ATOM     14  C   UNL     1      -5.409  15.111  23.349  0.00  0.00    +0.016 A 
ATOM     15  C   UNL     1      -5.618  16.432  23.251  0.00  0.00    +0.051 A 
ATOM     16  C   UNL     1      -6.553  16.975  22.236  0.00  0.00    +0.183 A 
ATOM     17  O   UNL     1      -6.803  18.176  22.178  0.00  0.00    -0.288 OA
ATOM     18  C   UNL     1      -7.113  16.029  21.250  0.00  0.00    +0.097 A 
ATOM     19  C   UNL     1      -6.876  14.715  21.354  0.00  0.00    +0.140 A 
ATOM     20  O   UNL     1      -7.306  13.886  20.329  0.00  0.00    -0.455 OA
ATOM     21  C   UNL     1      -7.299  12.532  20.535  0.00  0.00    +0.140 A 
ATOM     22  C   UNL     1      -7.828  11.748  19.509  0.00  0.00    +0.092 A 
ATOM     23  C   UNL     1      -7.905  10.374  19.676  0.00  0.00    +0.120 A 
ATOM     24  C   UNL     1      -7.536   9.787  20.882  0.00  0.00    +0.046 A 
ATOM     25  C   UNL     1      -6.997  10.585  21.895  0.00  0.00    +0.016 A 
ATOM     26  C   UNL     1      -6.812  11.963  21.710  0.00  0.00    +0.026 A 
BRANCH  23  27
ATOM     27  O   UNL     1      -8.341   9.620  18.627  0.00  0.00    -0.507 OA
ATOM     28  H   UNL     1      -8.922  10.179  18.085  0.00  0.00    +0.292 HD
ENDBRANCH  23  27
ENDBRANCH   9  12
BRANCH   8  29
ATOM     29  C   UNL     1      -7.075  12.262  25.602  0.00  0.00    +0.072 C 
ATOM     30  O   UNL     1      -7.208  13.373  26.208  0.00  0.00    -0.545 OA
ATOM     31  O   UNL     1      -7.978  11.385  25.467  0.00  0.00    -0.545 OA
ENDBRANCH   8  29
ENDBRANCH   4   6
BRANCH   2  32
ATOM     32  C   UNL     1      -1.998   7.733  29.215  0.00  0.00    +0.292 C 
BRANCH  32  33
ATOM     33  O   UNL     1      -3.283   7.193  29.536  0.00  0.00    -0.444 OA
BRANCH  33  34
ATOM     34  C   UNL     1      -3.442   7.150  30.957  0.00  0.00    +0.401 C 
ATOM     35  O   UNL     1      -2.928   6.224  31.589  0.00  0.00    -0.226 OA
ATOM     36  N   UNL     1      -4.145   8.135  31.516  0.00  0.00    -0.279 N 
ATOM     37  H   UNL     1      -4.520   8.855  30.915  0.00  0.00    +0.152 HD
BRANCH  36  38
ATOM     38  C   UNL     1      -4.407   8.232  32.958  0.00  0.00    +0.141 C 
BRANCH  38  39
ATOM     39  C   UNL     1      -4.497   9.681  33.423  0.00  0.00    +0.163 C 
BRANCH  39  40
ATOM     40  O   UNL     1      -3.196  10.290  33.389  0.00  0.00    -0.388 OA
ATOM     41  H   UNL     1      -2.828  10.211  32.506  0.00  0.00    +0.210 HD
ENDBRANCH  39  40
BRANCH  39  42
ATOM     42  C   UNL     1      -5.487  10.448  32.529  0.00  0.00    +0.175 C 
BRANCH  42  43
ATOM     43  C   UNL     1      -4.806  11.591  31.761  0.00  0.00    +0.176 C 
ATOM     44  O   UNL     1      -4.653  12.713  32.673  0.00  0.00    -0.332 OA
ATOM     45  C   UNL     1      -3.922  13.867  32.141  0.00  0.00    +0.277 C 
ATOM     46  C   UNL     1      -4.564  14.351  30.818  0.00  0.00    +0.110 C 
ATOM     47  C   UNL     1      -4.776  13.186  29.828  0.00  0.00    +0.143 C 
ATOM     48  C   UNL     1      -5.544  12.039  30.486  0.00  0.00    +0.133 C 
BRANCH  48  49
ATOM     49  N   UNL     1      -5.663  10.902  29.561  0.00  0.00    -0.308 N 
ATOM     50  H   UNL     1      -4.822  10.391  29.330  0.00  0.00    +0.149 HD
ATOM     51  C   UNL     1      -6.810  10.499  29.007  0.00  0.00    +0.210 C 
ATOM     52  C   UNL     1      -8.069  11.313  29.359  0.00  0.00    +0.109 C 
ATOM     53  O   UNL     1      -6.882   9.533  28.247  0.00  0.00    -0.276 OA
ENDBRANCH  48  49
BRANCH  45  54
ATOM     54  C   UNL     1      -2.442  13.510  31.895  0.00  0.00    +0.414 C 
ATOM     55  O   UNL     1      -1.736  14.239  31.199  0.00  0.00    -0.240 OA
ATOM     56  O   UNL     1      -1.953  12.496  32.394  0.00  0.00    -0.240 OA
ENDBRANCH  45  54
BRANCH  47  57
ATOM     57  O   UNL     1      -5.504  13.648  28.690  0.00  0.00    -0.390 OA
ATOM     58  H   UNL     1      -4.973  14.284  28.205  0.00  0.00    +0.210 HD
ENDBRANCH  47  57
BRANCH  45  59
ATOM     59  O   UNL     1      -4.011  14.941  33.113  0.00  0.00    -0.343 OA
ATOM     60  C   UNL     1      -4.430  16.221  32.574  0.00  0.00    +0.198 C 
ENDBRANCH  45  59
ENDBRANCH  42  43
BRANCH  42  61
ATOM     61  O   UNL     1      -6.577  10.961  33.321  0.00  0.00    -0.387 OA
ATOM     62  H   UNL     1      -6.268  11.700  33.850  0.00  0.00    +0.210 HD
ENDBRANCH  42  61
ENDBRANCH  39  42
ENDBRANCH  38  39
ENDBRANCH  36  38
ENDBRANCH  33  34
ENDBRANCH  32  33
ENDBRANCH   2  32
TORSDOF 17
