REMARK VINA RESULT:    -4.590      3.444      8.727
REMARK INTER + INTRA:         -11.859
REMARK INTER:                  -9.054
REMARK INTRA:                  -2.805
REMARK UNBOUND:                -3.914
REMARK  Name = lig_assembled_20.pdb
REMARK  16 active torsions:
REMARK  status: ('A' for Active; 'I' for Inactive)
REMARK    1  A    between atoms: _2  and  _11
REMARK    2  A    between atoms: _6  and  _21
REMARK    3  A    between atoms: _8  and  _9
REMARK    4  A    between atoms: _8  and  _21
REMARK    5  A    between atoms: _17  and  _37
REMARK    6  A    between atoms: _19  and  _25
REMARK    7  A    between atoms: _20  and  _24
REMARK    8  A    between atoms: _24  and  _25
REMARK    9  A    between atoms: _27  and  _28
REMARK   10  A    between atoms: _29  and  _30
REMARK   11  A    between atoms: _31  and  _33
REMARK   12  A    between atoms: _33  and  _34
REMARK   13  A    between atoms: _33  and  _35
REMARK   14  A    between atoms: _35  and  _36
REMARK   15  A    between atoms: _35  and  _37
REMARK   16  A    between atoms: _38  and  _40
REMARK                            x       y       z     vdW  Elec       q    Type
REMARK                         _______ _______ _______ _____ _____    ______ ____
ROOT
ATOM      1  C   UNL     1      -5.287   7.413  24.179  0.00  0.00    +0.163 C 
ENDROOT
BRANCH   1   2
ATOM      2  O   UNL     1      -4.148   6.904  24.893  0.00  0.00    -0.388 OA
ATOM      3  H   UNL     1      -3.689   7.629  25.323  0.00  0.00    +0.210 HD
ENDBRANCH   1   2
BRANCH   1   4
ATOM      4  C   UNL     1      -5.742   6.401  23.133  0.00  0.00    +0.141 C 
BRANCH   4   7
ATOM      5  C   UNL     1      -7.305   6.650  21.236  0.00  0.00    +0.401 C 
ATOM      6  O   UNL     1      -7.994   5.678  21.553  0.00  0.00    -0.226 OA
ATOM      7  N   UNL     1      -6.231   7.056  21.914  0.00  0.00    -0.279 N 
ATOM      8  H   UNL     1      -5.725   7.860  21.569  0.00  0.00    +0.152 HD
BRANCH   5   9
ATOM      9  O   UNL     1      -7.659   7.401  20.071  0.00  0.00    -0.444 OA
BRANCH   9  10
ATOM     10  C   UNL     1      -7.120   8.722  20.173  0.00  0.00    +0.292 C 
BRANCH  10  12
ATOM     11  N   UNL     1      -5.259   8.033  18.685  0.00  0.00    -0.131 NA
ATOM     12  C   UNL     1      -6.163   8.977  19.079  0.00  0.00    +0.121 A 
ATOM     13  C   UNL     1      -6.001  10.102  18.308  0.00  0.00    +0.143 A 
ATOM     14  N   UNL     1      -4.974   9.802  17.443  0.00  0.00    -0.220 N 
ATOM     15  N   UNL     1      -4.540   8.541  17.691  0.00  0.00    -0.060 NA
BRANCH  14  16
ATOM     16  C   UNL     1      -4.406  10.617  16.431  0.00  0.00    +0.068 A 
ATOM     17  C   UNL     1      -4.494  12.016  16.528  0.00  0.00    +0.030 A 
ATOM     18  C   UNL     1      -3.939  12.851  15.548  0.00  0.00    +0.030 A 
ATOM     19  C   UNL     1      -3.295  12.232  14.472  0.00  0.00    +0.066 A 
ATOM     20  C   UNL     1      -3.194  10.853  14.345  0.00  0.00    +0.021 A 
ATOM     21  C   UNL     1      -2.485  10.656  13.140  0.00  0.00    +0.142 A 
ATOM     22  N   UNL     1      -2.157  11.804  12.543  0.00  0.00    -0.181 NA
ATOM     23  N   UNL     1      -2.657  12.740  13.370  0.00  0.00    -0.277 N 
ATOM     24  H   UNL     1      -2.533  13.715  13.125  0.00  0.00    +0.189 HD
ATOM     25  C   UNL     1      -3.754  10.023  15.333  0.00  0.00    +0.039 A 
ENDBRANCH  14  16
ENDBRANCH  10  12
ENDBRANCH   9  10
ENDBRANCH   5   9
ENDBRANCH   4   7
ENDBRANCH   1   4
BRANCH   1  26
ATOM     26  C   UNL     1      -4.954   8.748  23.492  0.00  0.00    +0.175 C 
BRANCH  26  27
ATOM     27  C   UNL     1      -3.855   9.522  24.235  0.00  0.00    +0.176 C 
ATOM     28  O   UNL     1      -4.201   9.543  25.648  0.00  0.00    -0.332 OA
ATOM     29  C   UNL     1      -3.206  10.153  26.535  0.00  0.00    +0.277 C 
ATOM     30  C   UNL     1      -2.863  11.586  26.059  0.00  0.00    +0.110 C 
ATOM     31  C   UNL     1      -2.520  11.620  24.554  0.00  0.00    +0.143 C 
ATOM     32  C   UNL     1      -3.620  10.956  23.726  0.00  0.00    +0.133 C 
BRANCH  32  33
ATOM     33  N   UNL     1      -3.242  10.917  22.304  0.00  0.00    -0.308 N 
ATOM     34  H   UNL     1      -2.453  10.343  22.042  0.00  0.00    +0.149 HD
ATOM     35  C   UNL     1      -3.873  11.590  21.338  0.00  0.00    +0.210 C 
ATOM     36  C   UNL     1      -5.056  12.476  21.774  0.00  0.00    +0.109 C 
ATOM     37  O   UNL     1      -3.543  11.526  20.154  0.00  0.00    -0.276 OA
ENDBRANCH  32  33
BRANCH  29  38
ATOM     38  C   UNL     1      -1.919   9.304  26.580  0.00  0.00    +0.414 C 
ATOM     39  O   UNL     1      -0.820   9.847  26.685  0.00  0.00    -0.240 OA
ATOM     40  O   UNL     1      -1.979   8.075  26.511  0.00  0.00    -0.240 OA
ENDBRANCH  29  38
BRANCH  31  41
ATOM     41  O   UNL     1      -2.360  12.973  24.127  0.00  0.00    -0.390 OA
ATOM     42  H   UNL     1      -1.871  12.993  23.301  0.00  0.00    +0.210 HD
ENDBRANCH  31  41
BRANCH  29  43
ATOM     43  O   UNL     1      -3.781  10.238  27.864  0.00  0.00    -0.343 OA
ATOM     44  C   UNL     1      -4.968   9.431  28.070  0.00  0.00    +0.198 C 
ENDBRANCH  29  43
ENDBRANCH  26  27
BRANCH  26  45
ATOM     45  O   UNL     1      -6.141   9.557  23.377  0.00  0.00    -0.387 OA
ATOM     46  H   UNL     1      -6.088  10.294  23.991  0.00  0.00    +0.210 HD
ENDBRANCH  26  45
ENDBRANCH   1  26
TORSDOF 14
