REMARK VINA RESULT:    -4.220     12.390     15.248
REMARK INTER + INTRA:         -10.372
REMARK INTER:                  -6.747
REMARK INTRA:                  -3.625
REMARK UNBOUND:                -3.067
REMARK  Name = lig_assembled_8.pdb
REMARK  16 active torsions:
REMARK  status: ('A' for Active; 'I' for Inactive)
REMARK    1  A    between atoms: _2  and  _9
REMARK    2  A    between atoms: _4  and  _18
REMARK    3  A    between atoms: _6  and  _7
REMARK    4  A    between atoms: _6  and  _18
REMARK    5  A    between atoms: _14  and  _34
REMARK    6  A    between atoms: _16  and  _22
REMARK    7  A    between atoms: _17  and  _21
REMARK    8  A    between atoms: _21  and  _22
REMARK    9  A    between atoms: _24  and  _25
REMARK   10  A    between atoms: _26  and  _27
REMARK   11  A    between atoms: _28  and  _30
REMARK   12  A    between atoms: _30  and  _31
REMARK   13  A    between atoms: _30  and  _32
REMARK   14  A    between atoms: _32  and  _33
REMARK   15  A    between atoms: _32  and  _34
REMARK   16  A    between atoms: _35  and  _37
REMARK                            x       y       z     vdW  Elec       q    Type
REMARK                         _______ _______ _______ _____ _____    ______ ____
ROOT
ATOM      1  C   UNL     1      -5.984   8.499  11.070  0.00  0.00    +0.163 C 
ENDROOT
BRANCH   1   2
ATOM      2  O   UNL     1      -4.681   7.916  10.909  0.00  0.00    -0.388 OA
ATOM      3  H   UNL     1      -4.740   7.154  10.327  0.00  0.00    +0.210 HD
ENDBRANCH   1   2
BRANCH   1   4
ATOM      4  C   UNL     1      -6.391   9.227   9.793  0.00  0.00    +0.141 C 
BRANCH   4   7
ATOM      5  C   UNL     1      -4.985  11.170   9.201  0.00  0.00    +0.401 C 
ATOM      6  O   UNL     1      -5.687  11.983   9.808  0.00  0.00    -0.226 OA
ATOM      7  N   UNL     1      -5.243   9.864   9.136  0.00  0.00    -0.279 N 
ATOM      8  H   UNL     1      -4.613   9.279   8.605  0.00  0.00    +0.152 HD
BRANCH   5   9
ATOM      9  O   UNL     1      -3.820  11.636   8.514  0.00  0.00    -0.444 OA
BRANCH   9  10
ATOM     10  C   UNL     1      -2.650  11.233   9.230  0.00  0.00    +0.292 C 
BRANCH  10  12
ATOM     11  N   UNL     1      -1.706  11.891  11.412  0.00  0.00    -0.131 NA
ATOM     12  C   UNL     1      -2.295  12.246  10.241  0.00  0.00    +0.121 A 
ATOM     13  C   UNL     1      -2.456  13.612  10.219  0.00  0.00    +0.143 A 
ATOM     14  N   UNL     1      -1.921  14.066  11.412  0.00  0.00    -0.219 N 
ATOM     15  N   UNL     1      -1.490  12.995  12.113  0.00  0.00    -0.060 NA
BRANCH  14  16
ATOM     16  C   UNL     1      -1.802  15.416  11.867  0.00  0.00    +0.081 A 
ATOM     17  C   UNL     1      -2.962  16.059  12.353  0.00  0.00    +0.029 A 
ATOM     18  C   UNL     1      -2.935  17.384  12.795  0.00  0.00    +0.002 A 
ATOM     19  C   UNL     1      -1.749  18.101  12.764  0.00  0.00    +0.001 A 
ATOM     20  C   UNL     1      -0.590  17.488  12.296  0.00  0.00    +0.017 A 
ATOM     21  C   UNL     1      -0.599  16.152  11.849  0.00  0.00    +0.043 A 
ATOM     22 BR   UNL     1       1.105  15.534  11.263  0.00  0.00    -0.048 Br
ENDBRANCH  14  16
ENDBRANCH  10  12
ENDBRANCH   9  10
ENDBRANCH   5   9
ENDBRANCH   4   7
ENDBRANCH   1   4
BRANCH   1  23
ATOM     23  C   UNL     1      -6.004   9.483  12.252  0.00  0.00    +0.175 C 
BRANCH  23  24
ATOM     24  C   UNL     1      -4.634   9.593  12.936  0.00  0.00    +0.176 C 
ATOM     25  O   UNL     1      -4.448   8.407  13.756  0.00  0.00    -0.332 OA
ATOM     26  C   UNL     1      -3.140   8.286  14.408  0.00  0.00    +0.277 C 
ATOM     27  C   UNL     1      -2.832   9.554  15.243  0.00  0.00    +0.110 C 
ATOM     28  C   UNL     1      -3.047  10.842  14.421  0.00  0.00    +0.143 C 
ATOM     29  C   UNL     1      -4.437  10.862  13.785  0.00  0.00    +0.133 C 
BRANCH  29  30
ATOM     30  N   UNL     1      -4.598  12.053  12.936  0.00  0.00    -0.308 N 
ATOM     31  H   UNL     1      -4.048  12.106  12.090  0.00  0.00    +0.149 HD
ATOM     32  C   UNL     1      -5.424  13.066  13.208  0.00  0.00    +0.210 C 
ATOM     33  C   UNL     1      -6.230  12.966  14.517  0.00  0.00    +0.109 C 
ATOM     34  O   UNL     1      -5.549  14.044  12.470  0.00  0.00    -0.276 OA
ENDBRANCH  29  30
BRANCH  26  35
ATOM     35  C   UNL     1      -2.025   8.074  13.363  0.00  0.00    +0.414 C 
ATOM     36  O   UNL     1      -2.229   7.371  12.374  0.00  0.00    -0.240 OA
ATOM     37  O   UNL     1      -0.924   8.605  13.508  0.00  0.00    -0.240 OA
ENDBRANCH  26  35
BRANCH  28  38
ATOM     38  O   UNL     1      -2.900  11.983  15.268  0.00  0.00    -0.390 OA
ATOM     39  H   UNL     1      -3.763  12.263  15.581  0.00  0.00    +0.210 HD
ENDBRANCH  28  38
BRANCH  26  40
ATOM     40  O   UNL     1      -3.190   7.148  15.307  0.00  0.00    -0.343 OA
ATOM     41  C   UNL     1      -4.158   7.258  16.381  0.00  0.00    +0.198 C 
ENDBRANCH  26  40
ENDBRANCH  23  24
BRANCH  23  42
ATOM     42  O   UNL     1      -7.007   9.090  13.209  0.00  0.00    -0.387 OA
ATOM     43  H   UNL     1      -6.583   8.832  14.030  0.00  0.00    +0.210 HD
ENDBRANCH  23  42
ENDBRANCH   1  23
TORSDOF 14
