REMARK VINA RESULT:    -4.676      3.106      6.164
REMARK INTER + INTRA:         -11.235
REMARK INTER:                  -7.389
REMARK INTRA:                  -3.846
REMARK UNBOUND:                -2.869
REMARK  Name = lig_assembled_71.pdb
REMARK  17 active torsions:
REMARK  status: ('A' for Active; 'I' for Inactive)
REMARK    1  A    between atoms: _2  and  _12
REMARK    2  A    between atoms: _7  and  _22
REMARK    3  A    between atoms: _9  and  _10
REMARK    4  A    between atoms: _9  and  _22
REMARK    5  A    between atoms: _12  and  _13
REMARK    6  A    between atoms: _18  and  _38
REMARK    7  A    between atoms: _20  and  _26
REMARK    8  A    between atoms: _21  and  _25
REMARK    9  A    between atoms: _25  and  _26
REMARK   10  A    between atoms: _28  and  _29
REMARK   11  A    between atoms: _30  and  _31
REMARK   12  A    between atoms: _32  and  _34
REMARK   13  A    between atoms: _34  and  _35
REMARK   14  A    between atoms: _34  and  _36
REMARK   15  A    between atoms: _36  and  _37
REMARK   16  A    between atoms: _36  and  _38
REMARK   17  A    between atoms: _39  and  _41
REMARK                            x       y       z     vdW  Elec       q    Type
REMARK                         _______ _______ _______ _____ _____    ______ ____
ROOT
ATOM      1  C   UNL     1      -2.999  11.483  25.927  0.00  0.00    +0.163 C 
ENDROOT
BRANCH   1   2
ATOM      2  O   UNL     1      -2.019  12.194  25.153  0.00  0.00    -0.388 OA
ATOM      3  H   UNL     1      -1.514  12.773  25.729  0.00  0.00    +0.210 HD
ENDBRANCH   1   2
BRANCH   1   4
ATOM      4  C   UNL     1      -2.338  10.330  26.675  0.00  0.00    +0.141 C 
BRANCH   4   7
ATOM      5  C   UNL     1      -3.410   9.296  28.647  0.00  0.00    +0.401 C 
ATOM      6  O   UNL     1      -3.791   8.297  28.033  0.00  0.00    -0.226 OA
ATOM      7  N   UNL     1      -2.729  10.299  28.090  0.00  0.00    -0.279 N 
ATOM      8  H   UNL     1      -2.469  11.081  28.674  0.00  0.00    +0.152 HD
BRANCH   5   9
ATOM      9  O   UNL     1      -3.707   9.411  30.041  0.00  0.00    -0.444 OA
BRANCH   9  10
ATOM     10  C   UNL     1      -2.679  10.164  30.689  0.00  0.00    +0.292 C 
BRANCH  10  12
ATOM     11  N   UNL     1      -4.570  11.263  31.862  0.00  0.00    -0.131 NA
ATOM     12  C   UNL     1      -3.264  11.286  31.446  0.00  0.00    +0.120 A 
ATOM     13  C   UNL     1      -2.686  12.464  31.856  0.00  0.00    +0.137 A 
ATOM     14  N   UNL     1      -3.690  13.124  32.501  0.00  0.00    -0.242 N 
ATOM     15  N   UNL     1      -4.818  12.392  32.516  0.00  0.00    -0.065 NA
BRANCH  14  16
ATOM     16  C   UNL     1      -3.632  14.381  33.221  0.00  0.00    +0.241 C 
BRANCH  16  17
ATOM     17  C   UNL     1      -3.902  15.555  32.317  0.00  0.00    +0.241 C 
ATOM     18  O   UNL     1      -3.262  16.597  32.452  0.00  0.00    -0.273 OA
ATOM     19  N   UNL     1      -4.941  15.367  31.430  0.00  0.00    -0.253 N 
ATOM     20  H   UNL     1      -5.565  14.578  31.492  0.00  0.00    +0.158 HD
ATOM     21  C   UNL     1      -5.340  16.314  30.493  0.00  0.00    +0.221 A 
ATOM     22  N   UNL     1      -6.532  16.088  29.920  0.00  0.00    -0.223 NA
ATOM     23  C   UNL     1      -6.970  17.036  29.064  0.00  0.00    +0.116 A 
ATOM     24  C   UNL     1      -6.256  18.166  28.743  0.00  0.00    +0.039 A 
ATOM     25  C   UNL     1      -5.032  18.274  29.348  0.00  0.00    +0.116 A 
ATOM     26  N   UNL     1      -4.563  17.366  30.218  0.00  0.00    -0.223 NA
ENDBRANCH  16  17
ENDBRANCH  14  16
ENDBRANCH  10  12
ENDBRANCH   9  10
ENDBRANCH   5   9
ENDBRANCH   4   7
ENDBRANCH   1   4
BRANCH   1  27
ATOM     27  C   UNL     1      -4.120  10.935  25.027  0.00  0.00    +0.175 C 
BRANCH  27  28
ATOM     28  C   UNL     1      -5.157  12.012  24.674  0.00  0.00    +0.176 C 
ATOM     29  O   UNL     1      -4.561  12.901  23.690  0.00  0.00    -0.332 OA
ATOM     30  C   UNL     1      -5.448  13.938  23.153  0.00  0.00    +0.277 C 
ATOM     31  C   UNL     1      -6.066  14.770  24.303  0.00  0.00    +0.110 C 
ATOM     32  C   UNL     1      -6.684  13.867  25.391  0.00  0.00    +0.143 C 
ATOM     33  C   UNL     1      -5.677  12.824  25.876  0.00  0.00    +0.133 C 
BRANCH  33  34
ATOM     34  N   UNL     1      -6.304  11.915  26.848  0.00  0.00    -0.308 N 
ATOM     35  H   UNL     1      -6.994  11.261  26.506  0.00  0.00    +0.149 HD
ATOM     36  C   UNL     1      -6.020  11.897  28.153  0.00  0.00    +0.210 C 
ATOM     37  C   UNL     1      -4.983  12.922  28.648  0.00  0.00    +0.109 C 
ATOM     38  O   UNL     1      -6.551  11.114  28.942  0.00  0.00    -0.276 OA
ENDBRANCH  33  34
BRANCH  30  39
ATOM     39  C   UNL     1      -6.575  13.309  22.307  0.00  0.00    +0.414 C 
ATOM     40  O   UNL     1      -7.698  13.812  22.299  0.00  0.00    -0.240 OA
ATOM     41  O   UNL     1      -6.362  12.300  21.634  0.00  0.00    -0.240 OA
ENDBRANCH  30  39
BRANCH  30  42
ATOM     42  O   UNL     1      -4.652  14.824  22.324  0.00  0.00    -0.343 OA
ATOM     43  C   UNL     1      -5.106  16.200  22.288  0.00  0.00    +0.198 C 
ENDBRANCH  30  42
BRANCH  32  44
ATOM     44  O   UNL     1      -7.105  14.665  26.498  0.00  0.00    -0.390 OA
ATOM     45  H   UNL     1      -6.767  14.286  27.313  0.00  0.00    +0.210 HD
ENDBRANCH  32  44
ENDBRANCH  27  28
BRANCH  27  46
ATOM     46  O   UNL     1      -4.765   9.814  25.663  0.00  0.00    -0.387 OA
ATOM     47  H   UNL     1      -5.452  10.133  26.253  0.00  0.00    +0.210 HD
ENDBRANCH  27  46
ENDBRANCH   1  27
TORSDOF 15
