REMARK VINA RESULT:    -3.843      2.364      4.056
REMARK INTER + INTRA:         -12.385
REMARK INTER:                  -8.038
REMARK INTRA:                  -4.347
REMARK UNBOUND:                -4.498
REMARK  Name = lig_assembled_33.pdb
REMARK  22 active torsions:
REMARK  status: ('A' for Active; 'I' for Inactive)
REMARK    1  A    between atoms: _2  and  _9
REMARK    2  A    between atoms: _4  and  _20
REMARK    3  A    between atoms: _5  and  _13
REMARK    4  A    between atoms: _5  and  _14
REMARK    5  A    between atoms: _6  and  _7
REMARK    6  A    between atoms: _6  and  _20
REMARK    7  A    between atoms: _9  and  _10
REMARK    8  A    between atoms: _10  and  _11
REMARK    9  A    between atoms: _11  and  _12
REMARK   10  A    between atoms: _12  and  _13
REMARK   11  A    between atoms: _16  and  _36
REMARK   12  A    between atoms: _18  and  _24
REMARK   13  A    between atoms: _19  and  _23
REMARK   14  A    between atoms: _23  and  _24
REMARK   15  A    between atoms: _26  and  _27
REMARK   16  A    between atoms: _28  and  _29
REMARK   17  A    between atoms: _30  and  _32
REMARK   18  A    between atoms: _32  and  _33
REMARK   19  A    between atoms: _32  and  _34
REMARK   20  A    between atoms: _34  and  _35
REMARK   21  A    between atoms: _34  and  _36
REMARK   22  A    between atoms: _37  and  _39
REMARK                            x       y       z     vdW  Elec       q    Type
REMARK                         _______ _______ _______ _____ _____    ______ ____
ROOT
ATOM      1  C   UNL     1      -4.050  10.453  29.804  0.00  0.00    +0.163 C 
ENDROOT
BRANCH   1   2
ATOM      2  O   UNL     1      -2.912  11.108  30.386  0.00  0.00    -0.388 OA
ATOM      3  H   UNL     1      -3.102  11.329  31.301  0.00  0.00    +0.210 HD
ENDBRANCH   1   2
BRANCH   1   4
ATOM      4  C   UNL     1      -5.158  11.467  29.471  0.00  0.00    +0.175 C 
BRANCH   4   5
ATOM      5  C   UNL     1      -4.910  12.831  30.130  0.00  0.00    +0.176 C 
ATOM      6  O   UNL     1      -4.998  12.654  31.571  0.00  0.00    -0.332 OA
ATOM      7  C   UNL     1      -4.683  13.838  32.376  0.00  0.00    +0.277 C 
ATOM      8  C   UNL     1      -5.561  15.037  31.941  0.00  0.00    +0.110 C 
ATOM      9  C   UNL     1      -5.524  15.246  30.413  0.00  0.00    +0.143 C 
ATOM     10  C   UNL     1      -5.864  13.951  29.674  0.00  0.00    +0.133 C 
BRANCH  10  11
ATOM     11  N   UNL     1      -5.741  14.139  28.220  0.00  0.00    -0.308 N 
ATOM     12  H   UNL     1      -4.835  14.391  27.852  0.00  0.00    +0.149 HD
ATOM     13  C   UNL     1      -6.749  13.999  27.355  0.00  0.00    +0.210 C 
ATOM     14  C   UNL     1      -8.124  13.640  27.950  0.00  0.00    +0.109 C 
ATOM     15  O   UNL     1      -6.614  14.149  26.140  0.00  0.00    -0.276 OA
ENDBRANCH  10  11
BRANCH   7  16
ATOM     16  C   UNL     1      -3.193  14.213  32.237  0.00  0.00    +0.414 C 
ATOM     17  O   UNL     1      -2.846  15.394  32.257  0.00  0.00    -0.240 OA
ATOM     18  O   UNL     1      -2.338  13.336  32.105  0.00  0.00    -0.240 OA
ENDBRANCH   7  16
BRANCH   9  19
ATOM     19  O   UNL     1      -6.460  16.259  30.042  0.00  0.00    -0.390 OA
ATOM     20  H   UNL     1      -6.276  16.554  29.147  0.00  0.00    +0.210 HD
ENDBRANCH   9  19
BRANCH   7  21
ATOM     21  O   UNL     1      -4.982  13.531  33.762  0.00  0.00    -0.343 OA
ATOM     22  C   UNL     1      -4.966  12.120  34.094  0.00  0.00    +0.198 C 
ENDBRANCH   7  21
ENDBRANCH   4   5
BRANCH   4  23
ATOM     23  O   UNL     1      -6.442  10.948  29.869  0.00  0.00    -0.387 OA
ATOM     24  H   UNL     1      -6.995  11.668  30.184  0.00  0.00    +0.210 HD
ENDBRANCH   4  23
ENDBRANCH   1   4
BRANCH   1  25
ATOM     25  C   UNL     1      -3.636   9.715  28.536  0.00  0.00    +0.141 C 
BRANCH  25  28
ATOM     26  C   UNL     1      -5.134   9.067  26.681  0.00  0.00    +0.401 C 
ATOM     27  O   UNL     1      -4.986   7.856  26.859  0.00  0.00    -0.226 OA
ATOM     28  N   UNL     1      -4.536  10.007  27.413  0.00  0.00    -0.279 N 
ATOM     29  H   UNL     1      -4.712  10.975  27.184  0.00  0.00    +0.152 HD
BRANCH  26  30
ATOM     30  O   UNL     1      -5.990   9.514  25.627  0.00  0.00    -0.444 OA
BRANCH  30  31
ATOM     31  C   UNL     1      -5.851   8.647  24.498  0.00  0.00    +0.292 C 
BRANCH  31  33
ATOM     32  N   UNL     1      -3.718   8.869  23.266  0.00  0.00    -0.131 NA
ATOM     33  C   UNL     1      -5.010   9.278  23.464  0.00  0.00    +0.120 A 
ATOM     34  C   UNL     1      -5.300  10.297  22.582  0.00  0.00    +0.137 A 
ATOM     35  N   UNL     1      -4.147  10.451  21.873  0.00  0.00    -0.251 N 
ATOM     36  N   UNL     1      -3.194   9.605  22.297  0.00  0.00    -0.065 NA
BRANCH  35  37
ATOM     37  C   UNL     1      -3.874  11.382  20.797  0.00  0.00    +0.145 C 
BRANCH  37  38
ATOM     38  C   UNL     1      -3.238  12.675  21.304  0.00  0.00    +0.023 C 
BRANCH  38  39
ATOM     39  C   UNL     1      -4.272  13.671  21.835  0.00  0.00    +0.002 C 
BRANCH  39  40
ATOM     40  C   UNL     1      -4.131  13.808  23.353  0.00  0.00    +0.011 C 
BRANCH  40  41
ATOM     41  C   UNL     1      -2.846  13.181  23.887  0.00  0.00    +0.120 C 
BRANCH  41  42
ATOM     42  C   UNL     1      -3.140  12.165  24.970  0.00  0.00    +0.305 C 
ATOM     43  O   UNL     1      -2.337  11.369  25.429  0.00  0.00    -0.251 OA
BRANCH  42  44
ATOM     44  O   UNL     1      -4.421  12.229  25.401  0.00  0.00    -0.481 OA
ATOM     45  H   UNL     1      -4.714  11.437  25.887  0.00  0.00    +0.295 HD
ENDBRANCH  42  44
ENDBRANCH  41  42
ENDBRANCH  40  41
ENDBRANCH  39  40
ENDBRANCH  38  39
ENDBRANCH  37  38
ENDBRANCH  35  37
ENDBRANCH  31  33
ENDBRANCH  30  31
ENDBRANCH  26  30
ENDBRANCH  25  28
ENDBRANCH   1  25
TORSDOF 20
