REMARK VINA RESULT:    -4.842      2.823     10.312
REMARK INTER + INTRA:         -13.583
REMARK INTER:                  -9.887
REMARK INTRA:                  -3.697
REMARK UNBOUND:                -3.788
REMARK  Name = lig_assembled_81.pdb
REMARK  22 active torsions:
REMARK  status: ('A' for Active; 'I' for Inactive)
REMARK    1  A    between atoms: _2  and  _12
REMARK    2  A    between atoms: _7  and  _30
REMARK    3  A    between atoms: _8  and  _24
REMARK    4  A    between atoms: _9  and  _10
REMARK    5  A    between atoms: _9  and  _30
REMARK    6  A    between atoms: _14  and  _15
REMARK    7  A    between atoms: _21  and  _22
REMARK    8  A    between atoms: _22  and  _23
REMARK    9  A    between atoms: _23  and  _25
REMARK   10  A    between atoms: _24  and  _25
REMARK   11  A    between atoms: _26  and  _46
REMARK   12  A    between atoms: _28  and  _34
REMARK   13  A    between atoms: _29  and  _33
REMARK   14  A    between atoms: _33  and  _34
REMARK   15  A    between atoms: _36  and  _37
REMARK   16  A    between atoms: _38  and  _39
REMARK   17  A    between atoms: _40  and  _42
REMARK   18  A    between atoms: _42  and  _43
REMARK   19  A    between atoms: _42  and  _44
REMARK   20  A    between atoms: _44  and  _45
REMARK   21  A    between atoms: _44  and  _46
REMARK   22  A    between atoms: _47  and  _49
REMARK                            x       y       z     vdW  Elec       q    Type
REMARK                         _______ _______ _______ _____ _____    ______ ____
ROOT
ATOM      1  C   UNL     1      -2.911  10.135  25.921  0.00  0.00    +0.401 C 
ATOM      2  O   UNL     1      -1.955  10.770  25.471  0.00  0.00    -0.226 OA
ATOM      3  N   UNL     1      -3.678  10.555  26.927  0.00  0.00    -0.279 N 
ATOM      4  H   UNL     1      -4.446   9.967  27.220  0.00  0.00    +0.152 HD
ENDROOT
BRANCH   1   5
ATOM      5  O   UNL     1      -3.237   8.869  25.342  0.00  0.00    -0.444 OA
BRANCH   5   6
ATOM      6  C   UNL     1      -4.657   8.696  25.340  0.00  0.00    +0.289 C 
BRANCH   6   8
ATOM      7  N   UNL     1      -6.144  10.137  24.026  0.00  0.00    -0.130 NA
ATOM      8  C   UNL     1      -5.225   9.132  24.048  0.00  0.00    +0.100 C 
ATOM      9  C   UNL     1      -5.030   8.683  22.755  0.00  0.00    +0.124 C 
ATOM     10  N   UNL     1      -5.762   9.558  21.965  0.00  0.00    -0.187 N 
ATOM     11  N   UNL     1      -6.555  10.284  22.778  0.00  0.00    -0.010 NA
BRANCH  10  12
ATOM     12  C   UNL     1      -5.868   9.581  20.533  0.00  0.00    +0.150 A 
ATOM     13  C   UNL     1      -5.094  10.384  19.660  0.00  0.00    +0.022 A 
ATOM     14  C   UNL     1      -5.473  10.257  18.298  0.00  0.00    +0.081 A 
ATOM     15  N   UNL     1      -6.530   9.488  17.919  0.00  0.00    -0.214 NA
ATOM     16  C   UNL     1      -7.197   8.804  18.833  0.00  0.00    +0.215 A 
ATOM     17  N   UNL     1      -8.315   8.108  18.441  0.00  0.00    -0.327 N 
ATOM     18  H   UNL     1      -8.293   7.906  17.453  0.00  0.00    +0.145 HD
ATOM     19  H   UNL     1      -8.540   7.366  19.086  0.00  0.00    +0.145 HD
ATOM     20  N   UNL     1      -6.853   8.744  20.105  0.00  0.00    -0.198 NA
BRANCH  14  21
ATOM     21  C   UNL     1      -4.845  10.918  17.091  0.00  0.00    +0.001 A 
ATOM     22  C   UNL     1      -5.103  12.234  16.666  0.00  0.00    +0.010 A 
ATOM     23  C   UNL     1      -4.478  12.799  15.541  0.00  0.00    +0.001 A 
ATOM     24  C   UNL     1      -3.526  12.089  14.834  0.00  0.00    +0.000 A 
ATOM     25  C   UNL     1      -3.195  10.801  15.249  0.00  0.00    +0.001 A 
ATOM     26  C   UNL     1      -3.856  10.231  16.348  0.00  0.00    +0.010 A 
ENDBRANCH  14  21
BRANCH  13  27
ATOM     27  C   UNL     1      -3.873  11.250  19.988  0.00  0.00    +0.069 C 
BRANCH  27  28
ATOM     28  C   UNL     1      -4.011  12.526  20.796  0.00  0.00    +0.164 C 
BRANCH  28  29
ATOM     29  O   UNL     1      -3.695  12.433  22.190  0.00  0.00    -0.380 OA
BRANCH  29  30
ATOM     30  C   UNL     1      -4.510  13.418  22.855  0.00  0.00    +0.156 C 
ATOM     31  C   UNL     1      -4.357  13.349  24.357  0.00  0.00    +0.034 C 
ENDBRANCH  29  30
ENDBRANCH  28  29
ENDBRANCH  27  28
ENDBRANCH  13  27
ENDBRANCH  10  12
ENDBRANCH   6   8
ENDBRANCH   5   6
ENDBRANCH   1   5
BRANCH   3  32
ATOM     32  C   UNL     1      -3.471  11.825  27.634  0.00  0.00    +0.141 C 
BRANCH  32  33
ATOM     33  C   UNL     1      -4.762  12.349  28.253  0.00  0.00    +0.163 C 
BRANCH  33  34
ATOM     34  O   UNL     1      -5.853  11.470  27.933  0.00  0.00    -0.388 OA
ATOM     35  H   UNL     1      -6.483  11.932  27.374  0.00  0.00    +0.210 HD
ENDBRANCH  33  34
BRANCH  33  36
ATOM     36  C   UNL     1      -4.587  12.475  29.777  0.00  0.00    +0.175 C 
BRANCH  36  37
ATOM     37  C   UNL     1      -4.184  11.143  30.424  0.00  0.00    +0.176 C 
ATOM     38  O   UNL     1      -5.357  10.285  30.449  0.00  0.00    -0.332 OA
ATOM     39  C   UNL     1      -5.136   8.921  30.941  0.00  0.00    +0.277 C 
ATOM     40  C   UNL     1      -4.480   8.952  32.344  0.00  0.00    +0.110 C 
ATOM     41  C   UNL     1      -3.245   9.878  32.375  0.00  0.00    +0.143 C 
ATOM     42  C   UNL     1      -3.588  11.268  31.839  0.00  0.00    +0.133 C 
BRANCH  42  43
ATOM     43  N   UNL     1      -2.385  12.113  31.792  0.00  0.00    -0.308 N 
ATOM     44  H   UNL     1      -1.611  11.801  31.223  0.00  0.00    +0.149 HD
ATOM     45  C   UNL     1      -2.249  13.266  32.453  0.00  0.00    +0.210 C 
ATOM     46  C   UNL     1      -3.436  13.702  33.332  0.00  0.00    +0.109 C 
ATOM     47  O   UNL     1      -1.234  13.961  32.384  0.00  0.00    -0.276 OA
ENDBRANCH  42  43
BRANCH  39  48
ATOM     48  C   UNL     1      -4.237   8.129  29.969  0.00  0.00    +0.414 C 
ATOM     49  O   UNL     1      -3.540   7.204  30.384  0.00  0.00    -0.240 OA
ATOM     50  O   UNL     1      -4.210   8.413  28.771  0.00  0.00    -0.240 OA
ENDBRANCH  39  48
BRANCH  39  51
ATOM     51  O   UNL     1      -6.427   8.270  31.054  0.00  0.00    -0.343 OA
ATOM     52  C   UNL     1      -7.569   9.162  31.012  0.00  0.00    +0.198 C 
ENDBRANCH  39  51
BRANCH  41  53
ATOM     53  O   UNL     1      -2.765   9.995  33.715  0.00  0.00    -0.390 OA
ATOM     54  H   UNL     1      -3.502  10.167  34.306  0.00  0.00    +0.210 HD
ENDBRANCH  41  53
ENDBRANCH  36  37
BRANCH  36  55
ATOM     55  O   UNL     1      -5.800  12.973  30.376  0.00  0.00    -0.387 OA
ATOM     56  H   UNL     1      -6.140  13.702  29.854  0.00  0.00    +0.210 HD
ENDBRANCH  36  55
ENDBRANCH  33  36
ENDBRANCH  32  33
ENDBRANCH   3  32
TORSDOF 19
