REMARK VINA RESULT:    -4.452      3.864      8.782
REMARK INTER + INTRA:         -12.053
REMARK INTER:                  -8.740
REMARK INTRA:                  -3.314
REMARK UNBOUND:                -2.785
REMARK  Name = lig_assembled_54.pdb
REMARK  24 active torsions:
REMARK  status: ('A' for Active; 'I' for Inactive)
REMARK    1  A    between atoms: _2  and  _9
REMARK    2  A    between atoms: _4  and  _21
REMARK    3  A    between atoms: _5  and  _14
REMARK    4  A    between atoms: _6  and  _7
REMARK    5  A    between atoms: _6  and  _21
REMARK    6  A    between atoms: _9  and  _10
REMARK    7  A    between atoms: _10  and  _11
REMARK    8  A    between atoms: _11  and  _15
REMARK    9  A    between atoms: _11  and  _16
REMARK   10  A    between atoms: _12  and  _13
REMARK   11  A    between atoms: _12  and  _16
REMARK   12  A    between atoms: _14  and  _15
REMARK   13  A    between atoms: _17  and  _37
REMARK   14  A    between atoms: _19  and  _25
REMARK   15  A    between atoms: _20  and  _24
REMARK   16  A    between atoms: _24  and  _25
REMARK   17  A    between atoms: _27  and  _28
REMARK   18  A    between atoms: _29  and  _30
REMARK   19  A    between atoms: _31  and  _33
REMARK   20  A    between atoms: _33  and  _34
REMARK   21  A    between atoms: _33  and  _35
REMARK   22  A    between atoms: _35  and  _36
REMARK   23  A    between atoms: _35  and  _37
REMARK   24  A    between atoms: _38  and  _40
REMARK                            x       y       z     vdW  Elec       q    Type
REMARK                         _______ _______ _______ _____ _____    ______ ____
ROOT
ATOM      1  C   UNL     1      -4.879   7.287  23.657  0.00  0.00    +0.163 C 
ENDROOT
BRANCH   1   2
ATOM      2  O   UNL     1      -3.599   6.963  24.225  0.00  0.00    -0.388 OA
ATOM      3  H   UNL     1      -3.099   6.428  23.604  0.00  0.00    +0.210 HD
ENDBRANCH   1   2
BRANCH   1   4
ATOM      4  C   UNL     1      -5.001   8.798  23.400  0.00  0.00    +0.175 C 
BRANCH   4   5
ATOM      5  C   UNL     1      -3.934   9.601  24.159  0.00  0.00    +0.176 C 
ATOM      6  O   UNL     1      -4.269   9.565  25.573  0.00  0.00    -0.332 OA
ATOM      7  C   UNL     1      -3.297  10.195  26.472  0.00  0.00    +0.277 C 
ATOM      8  C   UNL     1      -3.025  11.656  26.035  0.00  0.00    +0.110 C 
ATOM      9  C   UNL     1      -2.695  11.749  24.531  0.00  0.00    +0.143 C 
ATOM     10  C   UNL     1      -3.770  11.059  23.690  0.00  0.00    +0.133 C 
BRANCH  10  11
ATOM     11  N   UNL     1      -3.401  11.078  22.265  0.00  0.00    -0.308 N 
ATOM     12  H   UNL     1      -2.599  10.535  21.979  0.00  0.00    +0.149 HD
ATOM     13  C   UNL     1      -4.057  11.766  21.327  0.00  0.00    +0.210 C 
ATOM     14  C   UNL     1      -5.259  12.605  21.801  0.00  0.00    +0.109 C 
ATOM     15  O   UNL     1      -3.734  11.752  20.139  0.00  0.00    -0.276 OA
ENDBRANCH  10  11
BRANCH   7  16
ATOM     16  C   UNL     1      -1.971   9.406  26.484  0.00  0.00    +0.414 C 
ATOM     17  O   UNL     1      -1.980   8.178  26.399  0.00  0.00    -0.240 OA
ATOM     18  O   UNL     1      -0.894   9.995  26.578  0.00  0.00    -0.240 OA
ENDBRANCH   7  16
BRANCH   9  19
ATOM     19  O   UNL     1      -2.601  13.120  24.142  0.00  0.00    -0.390 OA
ATOM     20  H   UNL     1      -3.138  13.269  23.360  0.00  0.00    +0.210 HD
ENDBRANCH   9  19
BRANCH   7  21
ATOM     21  O   UNL     1      -3.866  10.215  27.806  0.00  0.00    -0.343 OA
ATOM     22  C   UNL     1      -3.866  11.513  28.452  0.00  0.00    +0.198 C 
ENDBRANCH   7  21
ENDBRANCH   4   5
BRANCH   4  23
ATOM     23  O   UNL     1      -6.319   9.259  23.761  0.00  0.00    -0.387 OA
ATOM     24  H   UNL     1      -6.694   8.671  24.421  0.00  0.00    +0.210 HD
ENDBRANCH   4  23
ENDBRANCH   1   4
BRANCH   1  25
ATOM     25  C   UNL     1      -5.074   6.530  22.347  0.00  0.00    +0.141 C 
BRANCH  25  28
ATOM     26  C   UNL     1      -5.918   7.063  20.086  0.00  0.00    +0.401 C 
ATOM     27  O   UNL     1      -5.214   6.222  19.523  0.00  0.00    -0.226 OA
ATOM     28  N   UNL     1      -5.913   7.279  21.402  0.00  0.00    -0.279 N 
ATOM     29  H   UNL     1      -6.520   7.997  21.770  0.00  0.00    +0.152 HD
BRANCH  26  30
ATOM     30  O   UNL     1      -6.800   7.870  19.301  0.00  0.00    -0.444 OA
BRANCH  30  31
ATOM     31  C   UNL     1      -6.985   9.136  19.939  0.00  0.00    +0.292 C 
BRANCH  31  33
ATOM     32  N   UNL     1      -7.227  11.482  19.183  0.00  0.00    -0.131 NA
ATOM     33  C   UNL     1      -6.714  10.228  18.984  0.00  0.00    +0.120 A 
ATOM     34  C   UNL     1      -5.957  10.228  17.832  0.00  0.00    +0.137 A 
ATOM     35  N   UNL     1      -6.018  11.518  17.400  0.00  0.00    -0.251 N 
ATOM     36  N   UNL     1      -6.787  12.268  18.210  0.00  0.00    -0.065 NA
BRANCH  35  37
ATOM     37  C   UNL     1      -5.333  12.123  16.275  0.00  0.00    +0.150 C 
BRANCH  37  38
ATOM     38  C   UNL     1      -3.829  11.911  16.350  0.00  0.00    +0.084 C 
BRANCH  38  39
ATOM     39  C   UNL     1      -3.253  11.186  15.128  0.00  0.00    +0.252 C 
BRANCH  39  40
ATOM     40  O   UNL     1      -2.877  12.133  14.125  0.00  0.00    -0.352 OA
BRANCH  40  41
ATOM     41  C   UNL     1      -3.512  11.930  12.864  0.00  0.00    +0.159 C 
ATOM     42  C   UNL     1      -4.490  13.063  12.621  0.00  0.00    +0.034 C 
ENDBRANCH  40  41
ENDBRANCH  39  40
BRANCH  39  43
ATOM     43  O   UNL     1      -4.272  10.318  14.618  0.00  0.00    -0.352 OA
BRANCH  43  44
ATOM     44  C   UNL     1      -3.978   8.937  14.843  0.00  0.00    +0.159 C 
ATOM     45  C   UNL     1      -2.485   8.776  15.050  0.00  0.00    +0.034 C 
ENDBRANCH  43  44
ENDBRANCH  39  43
ENDBRANCH  38  39
ENDBRANCH  37  38
ENDBRANCH  35  37
ENDBRANCH  31  33
ENDBRANCH  30  31
ENDBRANCH  26  30
ENDBRANCH  25  28
ENDBRANCH   1  25
TORSDOF 20
