REMARK VINA RESULT:    -3.590      2.199      6.312
REMARK INTER + INTRA:         -10.735
REMARK INTER:                  -6.420
REMARK INTRA:                  -4.315
REMARK UNBOUND:                -3.997
REMARK  Name = lig_assembled_68.pdb
REMARK  19 active torsions:
REMARK  status: ('A' for Active; 'I' for Inactive)
REMARK    1  A    between atoms: _2  and  _9
REMARK    2  A    between atoms: _4  and  _21
REMARK    3  A    between atoms: _6  and  _7
REMARK    4  A    between atoms: _6  and  _21
REMARK    5  A    between atoms: _9  and  _10
REMARK    6  A    between atoms: _10  and  _11
REMARK    7  A    between atoms: _10  and  _16
REMARK    8  A    between atoms: _17  and  _37
REMARK    9  A    between atoms: _19  and  _25
REMARK   10  A    between atoms: _20  and  _24
REMARK   11  A    between atoms: _24  and  _25
REMARK   12  A    between atoms: _27  and  _28
REMARK   13  A    between atoms: _29  and  _30
REMARK   14  A    between atoms: _31  and  _33
REMARK   15  A    between atoms: _33  and  _34
REMARK   16  A    between atoms: _33  and  _35
REMARK   17  A    between atoms: _35  and  _36
REMARK   18  A    between atoms: _35  and  _37
REMARK   19  A    between atoms: _38  and  _40
REMARK                            x       y       z     vdW  Elec       q    Type
REMARK                         _______ _______ _______ _____ _____    ______ ____
ROOT
ATOM      1  C   UNL     1      -3.667  10.958  29.815  0.00  0.00    +0.163 C 
ENDROOT
BRANCH   1   2
ATOM      2  O   UNL     1      -3.347  11.054  28.417  0.00  0.00    -0.388 OA
ATOM      3  H   UNL     1      -3.938  11.682  27.996  0.00  0.00    +0.210 HD
ENDBRANCH   1   2
BRANCH   1   4
ATOM      4  C   UNL     1      -5.189  10.890  30.027  0.00  0.00    +0.175 C 
BRANCH   4   5
ATOM      5  C   UNL     1      -5.858  12.263  29.861  0.00  0.00    +0.176 C 
ATOM      6  O   UNL     1      -5.863  12.589  28.444  0.00  0.00    -0.332 OA
ATOM      7  C   UNL     1      -6.561  13.826  28.080  0.00  0.00    +0.277 C 
ATOM      8  C   UNL     1      -6.001  15.021  28.890  0.00  0.00    +0.110 C 
ATOM      9  C   UNL     1      -5.947  14.709  30.400  0.00  0.00    +0.143 C 
ATOM     10  C   UNL     1      -5.201  13.401  30.664  0.00  0.00    +0.133 C 
BRANCH  10  11
ATOM     11  N   UNL     1      -5.231  13.070  32.098  0.00  0.00    -0.308 N 
ATOM     12  H   UNL     1      -6.117  12.795  32.500  0.00  0.00    +0.149 HD
ATOM     13  C   UNL     1      -4.166  13.111  32.902  0.00  0.00    +0.210 C 
ATOM     14  C   UNL     1      -2.837  13.559  32.265  0.00  0.00    +0.109 C 
ATOM     15  O   UNL     1      -4.218  12.815  34.097  0.00  0.00    -0.276 OA
ENDBRANCH  10  11
BRANCH   7  16
ATOM     16  C   UNL     1      -8.076  13.694  28.336  0.00  0.00    +0.414 C 
ATOM     17  O   UNL     1      -8.685  12.694  27.956  0.00  0.00    -0.240 OA
ATOM     18  O   UNL     1      -8.690  14.586  28.922  0.00  0.00    -0.240 OA
ENDBRANCH   7  16
BRANCH   7  19
ATOM     19  O   UNL     1      -6.324  14.077  26.671  0.00  0.00    -0.343 OA
ATOM     20  C   UNL     1      -7.000  15.242  26.134  0.00  0.00    +0.198 C 
ENDBRANCH   7  19
BRANCH   9  21
ATOM     21  O   UNL     1      -5.287  15.773  31.088  0.00  0.00    -0.390 OA
ATOM     22  H   UNL     1      -5.520  15.746  32.019  0.00  0.00    +0.210 HD
ENDBRANCH   9  21
ENDBRANCH   4   5
BRANCH   4  23
ATOM     23  O   UNL     1      -5.486  10.348  31.330  0.00  0.00    -0.387 OA
ATOM     24  H   UNL     1      -4.927   9.585  31.494  0.00  0.00    +0.210 HD
ENDBRANCH   4  23
ENDBRANCH   1   4
BRANCH   1  25
ATOM     25  C   UNL     1      -3.013   9.717  30.416  0.00  0.00    +0.141 C 
BRANCH  25  28
ATOM     26  C   UNL     1      -3.809   7.589  29.446  0.00  0.00    +0.401 C 
ATOM     27  O   UNL     1      -4.735   7.459  30.251  0.00  0.00    -0.226 OA
ATOM     28  N   UNL     1      -2.952   8.610  29.453  0.00  0.00    -0.279 N 
ATOM     29  H   UNL     1      -2.220   8.624  28.758  0.00  0.00    +0.152 HD
BRANCH  26  30
ATOM     30  O   UNL     1      -3.622   6.593  28.437  0.00  0.00    -0.444 OA
BRANCH  30  31
ATOM     31  C   UNL     1      -2.540   6.975  27.584  0.00  0.00    +0.292 C 
BRANCH  31  33
ATOM     32  N   UNL     1      -2.263   9.124  26.378  0.00  0.00    -0.131 NA
ATOM     33  C   UNL     1      -2.986   7.980  26.603  0.00  0.00    +0.120 A 
ATOM     34  C   UNL     1      -4.104   7.991  25.802  0.00  0.00    +0.137 A 
ATOM     35  N   UNL     1      -3.999   9.160  25.107  0.00  0.00    -0.249 N 
ATOM     36  N   UNL     1      -2.898   9.844  25.462  0.00  0.00    -0.065 NA
BRANCH  35  37
ATOM     37  C   UNL     1      -4.953   9.727  24.176  0.00  0.00    +0.181 C 
BRANCH  37  38
ATOM     38  C   UNL     1      -5.659  10.961  24.752  0.00  0.00    +0.166 C 
BRANCH  38  39
ATOM     39  C   UNL     1      -5.395  12.249  23.985  0.00  0.00    -0.017 A 
ATOM     40  C   UNL     1      -6.420  12.786  23.185  0.00  0.00    +0.006 A 
ATOM     41  C   UNL     1      -6.230  13.980  22.485  0.00  0.00    +0.000 A 
ATOM     42  C   UNL     1      -5.018  14.657  22.577  0.00  0.00    +0.000 A 
ATOM     43  C   UNL     1      -3.999  14.151  23.376  0.00  0.00    +0.000 A 
ATOM     44  C   UNL     1      -4.187  12.957  24.079  0.00  0.00    +0.006 A 
ENDBRANCH  38  39
BRANCH  38  45
ATOM     45  O   UNL     1      -5.228  11.157  26.103  0.00  0.00    -0.385 OA
ATOM     46  H   UNL     1      -4.401  11.666  26.088  0.00  0.00    +0.210 HD
ENDBRANCH  38  45
ENDBRANCH  37  38
ENDBRANCH  35  37
ENDBRANCH  31  33
ENDBRANCH  30  31
ENDBRANCH  26  30
ENDBRANCH  25  28
ENDBRANCH   1  25
TORSDOF 17
