REMARK VINA RESULT:    -4.442      3.009      8.892
REMARK INTER + INTRA:         -11.626
REMARK INTER:                  -8.242
REMARK INTRA:                  -3.384
REMARK UNBOUND:                -3.679
REMARK  Name = lig_assembled_0.pdb
REMARK  17 active torsions:
REMARK  status: ('A' for Active; 'I' for Inactive)
REMARK    1  A    between atoms: _2  and  _10
REMARK    2  A    between atoms: _5  and  _21
REMARK    3  A    between atoms: _7  and  _8
REMARK    4  A    between atoms: _7  and  _21
REMARK    5  A    between atoms: _11  and  _12
REMARK    6  A    between atoms: _17  and  _37
REMARK    7  A    between atoms: _19  and  _25
REMARK    8  A    between atoms: _20  and  _24
REMARK    9  A    between atoms: _24  and  _25
REMARK   10  A    between atoms: _27  and  _28
REMARK   11  A    between atoms: _29  and  _30
REMARK   12  A    between atoms: _31  and  _33
REMARK   13  A    between atoms: _33  and  _34
REMARK   14  A    between atoms: _33  and  _35
REMARK   15  A    between atoms: _35  and  _36
REMARK   16  A    between atoms: _35  and  _37
REMARK   17  A    between atoms: _38  and  _40
REMARK                            x       y       z     vdW  Elec       q    Type
REMARK                         _______ _______ _______ _____ _____    ______ ____
ROOT
ATOM      1  C   UNL     1      -2.976  11.812  24.508  0.00  0.00    +0.163 C 
ENDROOT
BRANCH   1   2
ATOM      2  O   UNL     1      -3.208  11.825  25.926  0.00  0.00    -0.388 OA
ATOM      3  H   UNL     1      -3.024  12.701  26.273  0.00  0.00    +0.210 HD
ENDBRANCH   1   2
BRANCH   1   4
ATOM      4  C   UNL     1      -3.106  13.224  23.945  0.00  0.00    +0.141 C 
BRANCH   4   7
ATOM      5  C   UNL     1      -5.035  14.251  22.791  0.00  0.00    +0.401 C 
ATOM      6  O   UNL     1      -5.157  15.166  23.609  0.00  0.00    -0.226 OA
ATOM      7  N   UNL     1      -4.107  13.296  22.874  0.00  0.00    -0.279 N 
ATOM      8  H   UNL     1      -4.093  12.582  22.159  0.00  0.00    +0.152 HD
BRANCH   5   9
ATOM      9  O   UNL     1      -5.933  14.187  21.681  0.00  0.00    -0.444 OA
BRANCH   9  10
ATOM     10  C   UNL     1      -6.382  12.841  21.505  0.00  0.00    +0.292 C 
BRANCH  10  12
ATOM     11  N   UNL     1      -7.198  12.399  19.220  0.00  0.00    -0.131 NA
ATOM     12  C   UNL     1      -6.169  12.406  20.112  0.00  0.00    +0.121 A 
ATOM     13  C   UNL     1      -5.020  11.990  19.479  0.00  0.00    +0.143 A 
ATOM     14  N   UNL     1      -5.416  11.642  18.207  0.00  0.00    -0.219 N 
ATOM     15  N   UNL     1      -6.725  11.985  18.055  0.00  0.00    -0.060 NA
BRANCH  14  16
ATOM     16  C   UNL     1      -4.670  11.137  17.105  0.00  0.00    +0.079 A 
ATOM     17  C   UNL     1      -4.512   9.770  16.800  0.00  0.00    +0.062 A 
ATOM     18  C   UNL     1      -3.708   9.408  15.697  0.00  0.00    +0.015 A 
ATOM     19  C   UNL     1      -3.063  10.371  14.920  0.00  0.00    +0.001 A 
ATOM     20  C   UNL     1      -3.231  11.716  15.212  0.00  0.00    +0.002 A 
ATOM     21  C   UNL     1      -4.035  12.098  16.285  0.00  0.00    +0.028 A 
BRANCH  17  22
ATOM     22  C   UNL     1      -5.286   8.675  17.448  0.00  0.00    +0.244 C 
ATOM     23  O   UNL     1      -4.744   7.748  18.029  0.00  0.00    -0.270 OA
ATOM     24  N   UNL     1      -6.653   8.755  17.411  0.00  0.00    -0.325 N 
ATOM     25  H   UNL     1      -7.170   8.033  17.898  0.00  0.00    +0.145 HD
ATOM     26  H   UNL     1      -7.175   9.494  16.964  0.00  0.00    +0.145 HD
ENDBRANCH  17  22
ENDBRANCH  14  16
ENDBRANCH  10  12
ENDBRANCH   9  10
ENDBRANCH   5   9
ENDBRANCH   4   7
ENDBRANCH   1   4
BRANCH   1  27
ATOM     27  C   UNL     1      -3.973  10.881  23.796  0.00  0.00    +0.175 C 
BRANCH  27  28
ATOM     28  C   UNL     1      -4.325   9.652  24.647  0.00  0.00    +0.176 C 
ATOM     29  O   UNL     1      -3.081   9.063  25.118  0.00  0.00    -0.332 OA
ATOM     30  C   UNL     1      -3.224   7.932  26.039  0.00  0.00    +0.277 C 
ATOM     31  C   UNL     1      -4.120   6.834  25.413  0.00  0.00    +0.110 C 
ATOM     32  C   UNL     1      -5.441   7.418  24.870  0.00  0.00    +0.143 C 
ATOM     33  C   UNL     1      -5.175   8.590  23.925  0.00  0.00    +0.133 C 
BRANCH  33  34
ATOM     34  N   UNL     1      -6.442   9.193  23.482  0.00  0.00    -0.308 N 
ATOM     35  H   UNL     1      -7.022   9.638  24.179  0.00  0.00    +0.149 HD
ATOM     36  C   UNL     1      -6.876   9.190  22.218  0.00  0.00    +0.210 C 
ATOM     37  C   UNL     1      -5.982   8.482  21.184  0.00  0.00    +0.109 C 
ATOM     38  O   UNL     1      -7.935   9.716  21.874  0.00  0.00    -0.276 OA
ENDBRANCH  33  34
BRANCH  30  39
ATOM     39  C   UNL     1      -3.834   8.392  27.379  0.00  0.00    +0.414 C 
ATOM     40  O   UNL     1      -4.588   7.648  28.006  0.00  0.00    -0.240 OA
ATOM     41  O   UNL     1      -3.572   9.507  27.834  0.00  0.00    -0.240 OA
ENDBRANCH  30  39
BRANCH  32  42
ATOM     42  O   UNL     1      -6.164   6.404  24.170  0.00  0.00    -0.390 OA
ATOM     43  H   UNL     1      -5.671   5.581  24.200  0.00  0.00    +0.210 HD
ENDBRANCH  32  42
BRANCH  30  44
ATOM     44  O   UNL     1      -1.906   7.371  26.269  0.00  0.00    -0.343 OA
ATOM     45  C   UNL     1      -1.867   5.926  26.382  0.00  0.00    +0.198 C 
ENDBRANCH  30  44
ENDBRANCH  27  28
BRANCH  27  46
ATOM     46  O   UNL     1      -3.442  10.468  22.521  0.00  0.00    -0.387 OA
ATOM     47  H   UNL     1      -2.661  10.986  22.316  0.00  0.00    +0.210 HD
ENDBRANCH  27  46
ENDBRANCH   1  27
TORSDOF 15
