REMARK VINA RESULT:    -5.161      4.080      5.970
REMARK INTER + INTRA:         -11.238
REMARK INTER:                  -7.951
REMARK INTRA:                  -3.287
REMARK UNBOUND:                -2.004
REMARK  Name = lig_assembled_6.pdb
REMARK  17 active torsions:
REMARK  status: ('A' for Active; 'I' for Inactive)
REMARK    1  A    between atoms: _2  and  _10
REMARK    2  A    between atoms: _3  and  _13
REMARK    3  A    between atoms: _5  and  _21
REMARK    4  A    between atoms: _7  and  _8
REMARK    5  A    between atoms: _7  and  _21
REMARK    6  A    between atoms: _17  and  _37
REMARK    7  A    between atoms: _19  and  _25
REMARK    8  A    between atoms: _20  and  _24
REMARK    9  A    between atoms: _24  and  _25
REMARK   10  A    between atoms: _27  and  _28
REMARK   11  A    between atoms: _29  and  _30
REMARK   12  A    between atoms: _31  and  _33
REMARK   13  A    between atoms: _33  and  _34
REMARK   14  A    between atoms: _33  and  _35
REMARK   15  A    between atoms: _35  and  _36
REMARK   16  A    between atoms: _35  and  _37
REMARK   17  A    between atoms: _38  and  _40
REMARK                            x       y       z     vdW  Elec       q    Type
REMARK                         _______ _______ _______ _____ _____    ______ ____
ROOT
ATOM      1  C   UNL     1      -4.147   6.891  25.894  0.00  0.00    +0.163 C 
ENDROOT
BRANCH   1   2
ATOM      2  O   UNL     1      -3.498   6.236  26.996  0.00  0.00    -0.388 OA
ATOM      3  H   UNL     1      -4.148   6.021  27.669  0.00  0.00    +0.210 HD
ENDBRANCH   1   2
BRANCH   1   4
ATOM      4  C   UNL     1      -3.707   6.257  24.578  0.00  0.00    +0.141 C 
BRANCH   4   7
ATOM      5  C   UNL     1      -4.834   6.706  22.426  0.00  0.00    +0.401 C 
ATOM      6  O   UNL     1      -5.355   5.590  22.359  0.00  0.00    -0.226 OA
ATOM      7  N   UNL     1      -4.044   7.101  23.425  0.00  0.00    -0.279 N 
ATOM      8  H   UNL     1      -3.655   8.032  23.386  0.00  0.00    +0.152 HD
BRANCH   5   9
ATOM      9  O   UNL     1      -5.074   7.649  21.378  0.00  0.00    -0.444 OA
BRANCH   9  10
ATOM     10  C   UNL     1      -5.969   8.662  21.843  0.00  0.00    +0.292 C 
BRANCH  10  12
ATOM     11  N   UNL     1      -3.897   9.979  22.159  0.00  0.00    -0.131 NA
ATOM     12  C   UNL     1      -5.253   9.940  22.014  0.00  0.00    +0.121 A 
ATOM     13  C   UNL     1      -5.745  11.225  22.046  0.00  0.00    +0.143 A 
ATOM     14  N   UNL     1      -4.635  12.027  22.183  0.00  0.00    -0.220 N 
ATOM     15  N   UNL     1      -3.529  11.249  22.270  0.00  0.00    -0.060 NA
BRANCH  14  16
ATOM     16  C   UNL     1      -4.560  13.446  22.197  0.00  0.00    +0.067 A 
ATOM     17  C   UNL     1      -5.717  14.221  22.369  0.00  0.00    +0.034 A 
ATOM     18  C   UNL     1      -5.640  15.617  22.319  0.00  0.00    +0.086 A 
ATOM     19  C   UNL     1      -4.405  16.239  22.101  0.00  0.00    +0.273 A 
ATOM     20  C   UNL     1      -3.241  15.475  21.956  0.00  0.00    +0.086 A 
ATOM     21  C   UNL     1      -3.321  14.079  22.006  0.00  0.00    +0.034 A 
BRANCH  19  22
ATOM     22  N   UNL     1      -4.338  17.704  22.007  0.00  0.00    +0.080 N 
ATOM     23  O   UNL     1      -4.775  18.362  22.962  0.00  0.00    +0.041 OA
ATOM     24  O   UNL     1      -3.855  18.194  20.977  0.00  0.00    -0.576 OA
ENDBRANCH  19  22
ENDBRANCH  14  16
ENDBRANCH  10  12
ENDBRANCH   9  10
ENDBRANCH   5   9
ENDBRANCH   4   7
ENDBRANCH   1   4
BRANCH   1  25
ATOM     25  C   UNL     1      -3.817   8.394  25.876  0.00  0.00    +0.175 C 
BRANCH  25  26
ATOM     26  C   UNL     1      -3.617   8.959  27.290  0.00  0.00    +0.176 C 
ATOM     27  O   UNL     1      -4.621   8.362  28.156  0.00  0.00    -0.332 OA
ATOM     28  C   UNL     1      -4.517   8.706  29.577  0.00  0.00    +0.277 C 
ATOM     29  C   UNL     1      -4.513  10.243  29.763  0.00  0.00    +0.110 C 
ATOM     30  C   UNL     1      -3.482  10.926  28.839  0.00  0.00    +0.143 C 
ATOM     31  C   UNL     1      -3.679  10.495  27.385  0.00  0.00    +0.133 C 
BRANCH  31  32
ATOM     32  N   UNL     1      -2.638  11.083  26.527  0.00  0.00    -0.308 N 
ATOM     33  H   UNL     1      -1.701  10.713  26.603  0.00  0.00    +0.149 HD
ATOM     34  C   UNL     1      -2.851  12.073  25.656  0.00  0.00    +0.210 C 
ATOM     35  C   UNL     1      -4.285  12.632  25.584  0.00  0.00    +0.109 C 
ATOM     36  O   UNL     1      -1.963  12.536  24.940  0.00  0.00    -0.276 OA
ENDBRANCH  31  32
BRANCH  28  37
ATOM     37  C   UNL     1      -3.235   8.109  30.192  0.00  0.00    +0.414 C 
ATOM     38  O   UNL     1      -2.640   7.195  29.621  0.00  0.00    -0.240 OA
ATOM     39  O   UNL     1      -2.794   8.540  31.259  0.00  0.00    -0.240 OA
ENDBRANCH  28  37
BRANCH  30  40
ATOM     40  O   UNL     1      -3.617  12.344  28.931  0.00  0.00    -0.390 OA
ATOM     41  H   UNL     1      -4.434  12.617  28.507  0.00  0.00    +0.210 HD
ENDBRANCH  30  40
BRANCH  28  42
ATOM     42  O   UNL     1      -5.681   8.167  30.256  0.00  0.00    -0.343 OA
ATOM     43  C   UNL     1      -6.211   6.945  29.684  0.00  0.00    +0.198 C 
ENDBRANCH  28  42
ENDBRANCH  25  26
BRANCH  25  44
ATOM     44  O   UNL     1      -4.857   9.122  25.193  0.00  0.00    -0.387 OA
ATOM     45  H   UNL     1      -4.648   9.178  24.257  0.00  0.00    +0.210 HD
ENDBRANCH  25  44
ENDBRANCH   1  25
TORSDOF 15
