REMARK VINA RESULT:    -5.424      0.000      0.000
REMARK INTER + INTRA:         -13.996
REMARK INTER:                  -9.692
REMARK INTRA:                  -4.304
REMARK UNBOUND:                -3.181
REMARK  Name = lig_assembled_76.pdb
REMARK  21 active torsions:
REMARK  status: ('A' for Active; 'I' for Inactive)
REMARK    1  A    between atoms: _2  and  _9
REMARK    2  A    between atoms: _4  and  _23
REMARK    3  A    between atoms: _6  and  _7
REMARK    4  A    between atoms: _6  and  _23
REMARK    5  A    between atoms: _9  and  _10
REMARK    6  A    between atoms: _10  and  _11
REMARK    7  A    between atoms: _10  and  _18
REMARK    8  A    between atoms: _11  and  _12
REMARK    9  A    between atoms: _12  and  _13
REMARK   10  A    between atoms: _19  and  _39
REMARK   11  A    between atoms: _21  and  _27
REMARK   12  A    between atoms: _22  and  _26
REMARK   13  A    between atoms: _26  and  _27
REMARK   14  A    between atoms: _29  and  _30
REMARK   15  A    between atoms: _31  and  _32
REMARK   16  A    between atoms: _33  and  _35
REMARK   17  A    between atoms: _35  and  _36
REMARK   18  A    between atoms: _35  and  _37
REMARK   19  A    between atoms: _37  and  _38
REMARK   20  A    between atoms: _37  and  _39
REMARK   21  A    between atoms: _40  and  _42
REMARK                            x       y       z     vdW  Elec       q    Type
REMARK                         _______ _______ _______ _____ _____    ______ ____
ROOT
ATOM      1  C   UNL     1      -6.543   7.392  23.356  0.00  0.00    +0.141 C 
ENDROOT
BRANCH   1   4
ATOM      2  C   UNL     1      -4.105   6.989  23.379  0.00  0.00    +0.401 C 
ATOM      3  O   UNL     1      -3.918   7.486  22.266  0.00  0.00    -0.226 OA
ATOM      4  N   UNL     1      -5.301   6.897  23.962  0.00  0.00    -0.279 N 
ATOM      5  H   UNL     1      -5.355   6.463  24.873  0.00  0.00    +0.152 HD
BRANCH   2   6
ATOM      6  O   UNL     1      -2.989   6.468  24.104  0.00  0.00    -0.444 OA
BRANCH   6   7
ATOM      7  C   UNL     1      -3.452   5.808  25.285  0.00  0.00    +0.292 C 
BRANCH   7   9
ATOM      8  N   UNL     1      -1.747   6.781  26.800  0.00  0.00    -0.131 NA
ATOM      9  C   UNL     1      -3.064   6.569  26.485  0.00  0.00    +0.120 A 
ATOM     10  C   UNL     1      -3.858   7.154  27.446  0.00  0.00    +0.137 A 
ATOM     11  N   UNL     1      -2.965   7.707  28.312  0.00  0.00    -0.249 N 
ATOM     12  N   UNL     1      -1.699   7.475  27.930  0.00  0.00    -0.065 NA
BRANCH  11  13
ATOM     13  C   UNL     1      -3.242   8.346  29.578  0.00  0.00    +0.176 C 
BRANCH  13  14
ATOM     14  C   UNL     1      -2.718   9.785  29.648  0.00  0.00    +0.136 C 
BRANCH  14  15
ATOM     15  O   UNL     1      -2.244  10.201  28.359  0.00  0.00    -0.390 OA
ATOM     16  H   UNL     1      -2.034  11.150  28.389  0.00  0.00    +0.210 HD
ENDBRANCH  14  15
BRANCH  14  17
ATOM     17  C   UNL     1      -3.801  10.784  30.085  0.00  0.00    +0.038 C 
BRANCH  17  18
ATOM     18  C   UNL     1      -3.917  11.998  29.163  0.00  0.00    +0.038 C 
BRANCH  18  19
ATOM     19  C   UNL     1      -4.016  13.289  29.935  0.00  0.00    -0.047 A 
ATOM     20  C   UNL     1      -3.023  13.635  30.863  0.00  0.00    +0.003 A 
ATOM     21  C   UNL     1      -3.102  14.838  31.566  0.00  0.00    +0.000 A 
ATOM     22  C   UNL     1      -4.175  15.701  31.352  0.00  0.00    +0.000 A 
ATOM     23  C   UNL     1      -5.172  15.359  30.439  0.00  0.00    +0.000 A 
ATOM     24  C   UNL     1      -5.095  14.156  29.736  0.00  0.00    +0.003 A 
ENDBRANCH  18  19
ENDBRANCH  17  18
ENDBRANCH  14  17
ENDBRANCH  13  14
ENDBRANCH  11  13
ENDBRANCH   7   9
ENDBRANCH   6   7
ENDBRANCH   2   6
ENDBRANCH   1   4
BRANCH   1  25
ATOM     25  C   UNL     1      -7.034   8.670  24.027  0.00  0.00    +0.163 C 
BRANCH  25  26
ATOM     26  O   UNL     1      -6.372   8.848  25.290  0.00  0.00    -0.388 OA
ATOM     27  H   UNL     1      -7.019   9.072  25.963  0.00  0.00    +0.210 HD
ENDBRANCH  25  26
BRANCH  25  28
ATOM     28  C   UNL     1      -6.778   9.869  23.098  0.00  0.00    +0.175 C 
BRANCH  28  29
ATOM     29  C   UNL     1      -5.391  10.489  23.323  0.00  0.00    +0.176 C 
ATOM     30  O   UNL     1      -5.526  11.535  24.324  0.00  0.00    -0.332 OA
ATOM     31  C   UNL     1      -4.275  12.173  24.747  0.00  0.00    +0.277 C 
ATOM     32  C   UNL     1      -3.503  12.718  23.520  0.00  0.00    +0.110 C 
ATOM     33  C   UNL     1      -3.363  11.649  22.415  0.00  0.00    +0.143 C 
ATOM     34  C   UNL     1      -4.723  11.050  22.055  0.00  0.00    +0.133 C 
BRANCH  34  35
ATOM     35  N   UNL     1      -4.566   9.973  21.064  0.00  0.00    -0.308 N 
ATOM     36  H   UNL     1      -4.079   9.136  21.352  0.00  0.00    +0.149 HD
ATOM     37  C   UNL     1      -5.024  10.031  19.811  0.00  0.00    +0.210 C 
ATOM     38  C   UNL     1      -5.737  11.331  19.396  0.00  0.00    +0.109 C 
ATOM     39  O   UNL     1      -4.890   9.107  19.007  0.00  0.00    -0.276 OA
ENDBRANCH  34  35
BRANCH  31  40
ATOM     40  C   UNL     1      -3.384  11.174  25.514  0.00  0.00    +0.414 C 
ATOM     41  O   UNL     1      -3.885  10.196  26.069  0.00  0.00    -0.240 OA
ATOM     42  O   UNL     1      -2.166  11.344  25.577  0.00  0.00    -0.240 OA
ENDBRANCH  31  40
BRANCH  33  43
ATOM     43  O   UNL     1      -2.783  12.235  21.249  0.00  0.00    -0.390 OA
ATOM     44  H   UNL     1      -2.326  13.044  21.490  0.00  0.00    +0.210 HD
ENDBRANCH  33  43
BRANCH  31  45
ATOM     45  O   UNL     1      -4.610  13.290  25.609  0.00  0.00    -0.343 OA
ATOM     46  C   UNL     1      -5.929  13.228  26.208  0.00  0.00    +0.198 C 
ENDBRANCH  31  45
ENDBRANCH  28  29
BRANCH  28  47
ATOM     47  O   UNL     1      -7.803  10.866  23.281  0.00  0.00    -0.387 OA
ATOM     48  H   UNL     1      -7.494  11.710  22.942  0.00  0.00    +0.210 HD
ENDBRANCH  28  47
ENDBRANCH  25  28
ENDBRANCH   1  25
TORSDOF 19
