REMARK VINA RESULT:    -4.967      2.410      7.837
REMARK INTER + INTRA:         -11.789
REMARK INTER:                  -8.797
REMARK INTRA:                  -2.992
REMARK UNBOUND:                -2.903
REMARK  Name = lig_assembled_69.pdb
REMARK  18 active torsions:
REMARK  status: ('A' for Active; 'I' for Inactive)
REMARK    1  A    between atoms: _2  and  _9
REMARK    2  A    between atoms: _4  and  _21
REMARK    3  A    between atoms: _6  and  _7
REMARK    4  A    between atoms: _6  and  _21
REMARK    5  A    between atoms: _11  and  _16
REMARK    6  A    between atoms: _14  and  _15
REMARK    7  A    between atoms: _17  and  _37
REMARK    8  A    between atoms: _19  and  _25
REMARK    9  A    between atoms: _20  and  _24
REMARK   10  A    between atoms: _24  and  _25
REMARK   11  A    between atoms: _27  and  _28
REMARK   12  A    between atoms: _29  and  _30
REMARK   13  A    between atoms: _31  and  _33
REMARK   14  A    between atoms: _33  and  _34
REMARK   15  A    between atoms: _33  and  _35
REMARK   16  A    between atoms: _35  and  _36
REMARK   17  A    between atoms: _35  and  _37
REMARK   18  A    between atoms: _38  and  _40
REMARK                            x       y       z     vdW  Elec       q    Type
REMARK                         _______ _______ _______ _____ _____    ______ ____
ROOT
ATOM      1  C   UNL     1      -2.214   9.791  27.104  0.00  0.00    +0.163 C 
ENDROOT
BRANCH   1   2
ATOM      2  O   UNL     1      -1.053   9.832  26.257  0.00  0.00    -0.388 OA
ATOM      3  H   UNL     1      -1.325   9.768  25.338  0.00  0.00    +0.210 HD
ENDBRANCH   1   2
BRANCH   1   4
ATOM      4  C   UNL     1      -3.405   9.146  26.375  0.00  0.00    +0.175 C 
BRANCH   4   5
ATOM      5  C   UNL     1      -4.128  10.142  25.456  0.00  0.00    +0.176 C 
ATOM      6  O   UNL     1      -3.280  10.381  24.299  0.00  0.00    -0.332 OA
ATOM      7  C   UNL     1      -3.857  11.232  23.255  0.00  0.00    +0.277 C 
ATOM      8  C   UNL     1      -4.320  12.583  23.852  0.00  0.00    +0.110 C 
ATOM      9  C   UNL     1      -5.199  12.381  25.104  0.00  0.00    +0.143 C 
ATOM     10  C   UNL     1      -4.504  11.478  26.123  0.00  0.00    +0.133 C 
BRANCH  10  11
ATOM     11  N   UNL     1      -5.386  11.222  27.272  0.00  0.00    -0.308 N 
ATOM     12  H   UNL     1      -6.221  10.676  27.114  0.00  0.00    +0.149 HD
ATOM     13  C   UNL     1      -5.157  11.666  28.511  0.00  0.00    +0.210 C 
ATOM     14  C   UNL     1      -3.890  12.518  28.715  0.00  0.00    +0.109 C 
ATOM     15  O   UNL     1      -5.906  11.424  29.458  0.00  0.00    -0.276 OA
ENDBRANCH  10  11
BRANCH   7  16
ATOM     16  C   UNL     1      -5.053  10.531  22.577  0.00  0.00    +0.414 C 
ATOM     17  O   UNL     1      -4.936   9.385  22.145  0.00  0.00    -0.240 OA
ATOM     18  O   UNL     1      -6.133  11.111  22.463  0.00  0.00    -0.240 OA
ENDBRANCH   7  16
BRANCH   7  19
ATOM     19  O   UNL     1      -2.825  11.497  22.270  0.00  0.00    -0.343 OA
ATOM     20  C   UNL     1      -3.214  12.396  21.202  0.00  0.00    +0.198 C 
ENDBRANCH   7  19
BRANCH   9  21
ATOM     21  O   UNL     1      -5.477  13.645  25.707  0.00  0.00    -0.390 OA
ATOM     22  H   UNL     1      -6.307  13.596  26.188  0.00  0.00    +0.210 HD
ENDBRANCH   9  21
ENDBRANCH   4   5
BRANCH   4  23
ATOM     23  O   UNL     1      -4.329   8.589  27.330  0.00  0.00    -0.387 OA
ATOM     24  H   UNL     1      -4.349   7.634  27.238  0.00  0.00    +0.210 HD
ENDBRANCH   4  23
ENDBRANCH   1   4
BRANCH   1  25
ATOM     25  C   UNL     1      -1.906   9.003  28.373  0.00  0.00    +0.141 C 
BRANCH  25  28
ATOM     26  C   UNL     1      -3.270   9.068  30.432  0.00  0.00    +0.401 C 
ATOM     27  O   UNL     1      -3.679   7.911  30.310  0.00  0.00    -0.226 OA
ATOM     28  N   UNL     1      -2.443   9.661  29.570  0.00  0.00    -0.279 N 
ATOM     29  H   UNL     1      -2.171  10.617  29.751  0.00  0.00    +0.152 HD
BRANCH  26  30
ATOM     30  O   UNL     1      -3.698   9.841  31.556  0.00  0.00    -0.444 OA
BRANCH  30  31
ATOM     31  C   UNL     1      -2.568  10.482  32.154  0.00  0.00    +0.292 C 
BRANCH  31  33
ATOM     32  N   UNL     1      -1.744  12.811  32.192  0.00  0.00    -0.131 NA
ATOM     33  C   UNL     1      -2.794  11.935  32.254  0.00  0.00    +0.120 A 
ATOM     34  C   UNL     1      -3.963  12.644  32.421  0.00  0.00    +0.137 A 
ATOM     35  N   UNL     1      -3.555  13.944  32.466  0.00  0.00    -0.248 N 
ATOM     36  N   UNL     1      -2.221  14.039  32.328  0.00  0.00    -0.065 NA
BRANCH  35  37
ATOM     37  C   UNL     1      -4.371  15.137  32.689  0.00  0.00    +0.114 C 
ATOM     38  C   UNL     1      -5.495  15.252  31.652  0.00  0.00    +0.062 C 
ATOM     39  C   UNL     1      -5.123  15.909  30.321  0.00  0.00    +0.139 C 
ATOM     40  C   UNL     1      -4.858  17.388  30.357  0.00  0.00    +0.002 C 
ATOM     41  C   UNL     1      -4.519  18.155  31.405  0.00  0.00    +0.002 C 
ATOM     42  C   UNL     1      -4.171  17.711  32.793  0.00  0.00    +0.139 C 
ATOM     43  C   UNL     1      -3.464  16.363  32.866  0.00  0.00    +0.062 C 
BRANCH  39  44
ATOM     44  O   UNL     1      -6.244  15.742  29.444  0.00  0.00    -0.388 OA
ATOM     45  H   UNL     1      -5.962  16.023  28.557  0.00  0.00    +0.210 HD
ENDBRANCH  39  44
BRANCH  42  46
ATOM     46  O   UNL     1      -5.344  17.700  33.591  0.00  0.00    -0.388 OA
ATOM     47  H   UNL     1      -5.160  17.147  34.370  0.00  0.00    +0.210 HD
ENDBRANCH  42  46
ENDBRANCH  35  37
ENDBRANCH  31  33
ENDBRANCH  30  31
ENDBRANCH  26  30
ENDBRANCH  25  28
ENDBRANCH   1  25
TORSDOF 16
