REMARK VINA RESULT:    -5.262      1.617      2.515
REMARK INTER + INTRA:         -14.287
REMARK INTER:                  -9.205
REMARK INTRA:                  -5.081
REMARK UNBOUND:                -3.487
REMARK  Name = lig_assembled_90.pdb
REMARK  22 active torsions:
REMARK  status: ('A' for Active; 'I' for Inactive)
REMARK    1  A    between atoms: _2  and  _13
REMARK    2  A    between atoms: _3  and  _15
REMARK    3  A    between atoms: _4  and  _17
REMARK    4  A    between atoms: _8  and  _28
REMARK    5  A    between atoms: _10  and  _11
REMARK    6  A    between atoms: _10  and  _28
REMARK    7  A    between atoms: _13  and  _14
REMARK    8  A    between atoms: _15  and  _16
REMARK    9  A    between atoms: _16  and  _17
REMARK   10  A    between atoms: _16  and  _22
REMARK   11  A    between atoms: _24  and  _44
REMARK   12  A    between atoms: _26  and  _32
REMARK   13  A    between atoms: _27  and  _31
REMARK   14  A    between atoms: _31  and  _32
REMARK   15  A    between atoms: _34  and  _35
REMARK   16  A    between atoms: _36  and  _37
REMARK   17  A    between atoms: _38  and  _40
REMARK   18  A    between atoms: _40  and  _41
REMARK   19  A    between atoms: _40  and  _42
REMARK   20  A    between atoms: _42  and  _43
REMARK   21  A    between atoms: _42  and  _44
REMARK   22  A    between atoms: _45  and  _47
REMARK                            x       y       z     vdW  Elec       q    Type
REMARK                         _______ _______ _______ _____ _____    ______ ____
ROOT
ATOM      1  C   UNL     1      -4.044   7.038  23.581  0.00  0.00    +0.401 C 
ATOM      2  O   UNL     1      -3.911   7.412  22.413  0.00  0.00    -0.226 OA
ATOM      3  N   UNL     1      -5.213   6.990  24.220  0.00  0.00    -0.279 N 
ATOM      4  H   UNL     1      -5.222   6.660  25.175  0.00  0.00    +0.152 HD
ENDROOT
BRANCH   3   5
ATOM      5  C   UNL     1      -6.489   7.389  23.614  0.00  0.00    +0.141 C 
BRANCH   5   6
ATOM      6  C   UNL     1      -6.960   8.747  24.123  0.00  0.00    +0.163 C 
BRANCH   6   7
ATOM      7  O   UNL     1      -6.360   9.030  25.397  0.00  0.00    -0.388 OA
ATOM      8  H   UNL     1      -6.084   8.208  25.811  0.00  0.00    +0.210 HD
ENDBRANCH   6   7
BRANCH   6   9
ATOM      9  C   UNL     1      -6.603   9.833  23.093  0.00  0.00    +0.175 C 
BRANCH   9  10
ATOM     10  C   UNL     1      -5.240  10.478  23.383  0.00  0.00    +0.176 C 
ATOM     11  O   UNL     1      -5.422  11.450  24.448  0.00  0.00    -0.332 OA
ATOM     12  C   UNL     1      -4.198  12.095  24.934  0.00  0.00    +0.277 C 
ATOM     13  C   UNL     1      -3.425  12.744  23.759  0.00  0.00    +0.110 C 
ATOM     14  C   UNL     1      -3.235  11.757  22.588  0.00  0.00    +0.143 C 
ATOM     15  C   UNL     1      -4.570  11.143  22.166  0.00  0.00    +0.133 C 
BRANCH  15  16
ATOM     16  N   UNL     1      -4.365  10.141  21.109  0.00  0.00    -0.308 N 
ATOM     17  H   UNL     1      -3.819   9.322  21.335  0.00  0.00    +0.149 HD
ATOM     18  C   UNL     1      -4.853  10.243  19.869  0.00  0.00    +0.210 C 
ATOM     19  C   UNL     1      -5.659  11.515  19.548  0.00  0.00    +0.109 C 
ATOM     20  O   UNL     1      -4.677   9.380  19.008  0.00  0.00    -0.276 OA
ENDBRANCH  15  16
BRANCH  12  21
ATOM     21  C   UNL     1      -3.288  11.074  25.648  0.00  0.00    +0.414 C 
ATOM     22  O   UNL     1      -2.077  11.275  25.734  0.00  0.00    -0.240 OA
ATOM     23  O   UNL     1      -3.764  10.049  26.138  0.00  0.00    -0.240 OA
ENDBRANCH  12  21
BRANCH  14  24
ATOM     24  O   UNL     1      -2.656  12.437  21.474  0.00  0.00    -0.390 OA
ATOM     25  H   UNL     1      -2.741  11.894  20.687  0.00  0.00    +0.210 HD
ENDBRANCH  14  24
BRANCH  12  26
ATOM     26  O   UNL     1      -4.580  13.141  25.864  0.00  0.00    -0.343 OA
ATOM     27  C   UNL     1      -5.650  14.006  25.405  0.00  0.00    +0.198 C 
ENDBRANCH  12  26
ENDBRANCH   9  10
BRANCH   9  28
ATOM     28  O   UNL     1      -7.632  10.842  23.059  0.00  0.00    -0.387 OA
ATOM     29  H   UNL     1      -7.272  11.678  23.365  0.00  0.00    +0.210 HD
ENDBRANCH   9  28
ENDBRANCH   6   9
ENDBRANCH   5   6
ENDBRANCH   3   5
BRANCH   1  30
ATOM     30  O   UNL     1      -2.887   6.624  24.313  0.00  0.00    -0.444 OA
BRANCH  30  31
ATOM     31  C   UNL     1      -3.279   5.733  25.361  0.00  0.00    +0.292 C 
BRANCH  31  33
ATOM     32  N   UNL     1      -2.054   7.371  26.764  0.00  0.00    -0.131 NA
ATOM     33  C   UNL     1      -2.718   6.176  26.652  0.00  0.00    +0.120 A 
ATOM     34  C   UNL     1      -2.736   5.556  27.881  0.00  0.00    +0.137 A 
ATOM     35  N   UNL     1      -2.088   6.430  28.701  0.00  0.00    -0.242 N 
ATOM     36  N   UNL     1      -1.662   7.512  28.024  0.00  0.00    -0.065 NA
BRANCH  35  37
ATOM     37  C   UNL     1      -1.745   6.264  30.092  0.00  0.00    +0.240 C 
BRANCH  37  38
ATOM     38  C   UNL     1      -2.651   7.081  30.985  0.00  0.00    +0.235 C 
ATOM     39  O   UNL     1      -3.234   6.601  31.955  0.00  0.00    -0.274 OA
ATOM     40  N   UNL     1      -2.734   8.424  30.668  0.00  0.00    -0.311 N 
ATOM     41  H   UNL     1      -2.473   8.720  29.731  0.00  0.00    +0.149 HD
BRANCH  40  42
ATOM     42  C   UNL     1      -3.639   9.300  31.399  0.00  0.00    +0.137 C 
BRANCH  42  43
ATOM     43  C   UNL     1      -3.445  10.767  30.987  0.00  0.00    +0.151 C 
BRANCH  43  44
ATOM     44  O   UNL     1      -2.145  11.195  31.413  0.00  0.00    -0.388 OA
ATOM     45  H   UNL     1      -2.243  11.783  32.189  0.00  0.00    +0.210 HD
ENDBRANCH  43  44
BRANCH  43  46
ATOM     46  C   UNL     1      -3.629  10.961  29.477  0.00  0.00    +0.162 C 
BRANCH  46  47
ATOM     47  N   UNL     1      -4.838  11.708  29.156  0.00  0.00    -0.269 N 
ATOM     48  C   UNL     1      -4.943  13.072  29.320  0.00  0.00    +0.113 A 
ATOM     49  C   UNL     1      -6.229  13.394  28.956  0.00  0.00    +0.137 A 
ATOM     50  N   UNL     1      -6.919  12.272  28.577  0.00  0.00    -0.172 NA
ATOM     51  C   UNL     1      -6.056  11.274  28.694  0.00  0.00    +0.450 A 
ATOM     52  N   UNL     1      -6.405   9.911  28.374  0.00  0.00    +0.120 N 
ATOM     53  O   UNL     1      -5.503   9.063  28.411  0.00  0.00    +0.045 OA
ATOM     54  O   UNL     1      -7.588   9.679  28.094  0.00  0.00    -0.573 OA
ENDBRANCH  46  47
ENDBRANCH  43  46
ENDBRANCH  42  43
ENDBRANCH  40  42
ENDBRANCH  37  38
ENDBRANCH  35  37
ENDBRANCH  31  33
ENDBRANCH  30  31
ENDBRANCH   1  30
TORSDOF 20
