REMARK VINA RESULT:    -4.693      3.027      8.766
REMARK INTER + INTRA:         -10.700
REMARK INTER:                  -7.573
REMARK INTRA:                  -3.127
REMARK UNBOUND:                -2.303
REMARK  Name = lig_assembled_4.pdb
REMARK  19 active torsions:
REMARK  status: ('A' for Active; 'I' for Inactive)
REMARK    1  A    between atoms: _2  and  _9
REMARK    2  A    between atoms: _4  and  _21
REMARK    3  A    between atoms: _6  and  _7
REMARK    4  A    between atoms: _6  and  _21
REMARK    5  A    between atoms: _10  and  _11
REMARK    6  A    between atoms: _11  and  _12
REMARK    7  A    between atoms: _11  and  _13
REMARK    8  A    between atoms: _17  and  _37
REMARK    9  A    between atoms: _19  and  _25
REMARK   10  A    between atoms: _20  and  _24
REMARK   11  A    between atoms: _24  and  _25
REMARK   12  A    between atoms: _27  and  _28
REMARK   13  A    between atoms: _29  and  _30
REMARK   14  A    between atoms: _31  and  _33
REMARK   15  A    between atoms: _33  and  _34
REMARK   16  A    between atoms: _33  and  _35
REMARK   17  A    between atoms: _35  and  _36
REMARK   18  A    between atoms: _35  and  _37
REMARK   19  A    between atoms: _38  and  _40
REMARK                            x       y       z     vdW  Elec       q    Type
REMARK                         _______ _______ _______ _____ _____    ______ ____
ROOT
ATOM      1  C   UNL     1      -5.138   7.268  23.991  0.00  0.00    +0.163 C 
ENDROOT
BRANCH   1   2
ATOM      2  O   UNL     1      -3.943   6.875  24.686  0.00  0.00    -0.388 OA
ATOM      3  H   UNL     1      -4.168   6.260  25.388  0.00  0.00    +0.210 HD
ENDBRANCH   1   2
BRANCH   1   4
ATOM      4  C   UNL     1      -5.451   6.266  22.885  0.00  0.00    +0.141 C 
BRANCH   4   7
ATOM      5  C   UNL     1      -7.030   6.588  21.011  0.00  0.00    +0.401 C 
ATOM      6  O   UNL     1      -7.779   5.674  21.362  0.00  0.00    -0.226 OA
ATOM      7  N   UNL     1      -5.916   6.929  21.660  0.00  0.00    -0.279 N 
ATOM      8  H   UNL     1      -5.361   7.687  21.289  0.00  0.00    +0.152 HD
BRANCH   5   9
ATOM      9  O   UNL     1      -7.351   7.338  19.837  0.00  0.00    -0.444 OA
BRANCH   9  10
ATOM     10  C   UNL     1      -6.178   7.499  19.036  0.00  0.00    +0.292 C 
BRANCH  10  12
ATOM     11  N   UNL     1      -6.797   9.887  19.094  0.00  0.00    -0.131 NA
ATOM     12  C   UNL     1      -6.078   8.880  18.530  0.00  0.00    +0.121 A 
ATOM     13  C   UNL     1      -5.352   9.381  17.473  0.00  0.00    +0.143 A 
ATOM     14  N   UNL     1      -5.768  10.694  17.347  0.00  0.00    -0.219 N 
ATOM     15  N   UNL     1      -6.581  10.988  18.385  0.00  0.00    -0.060 NA
BRANCH  14  16
ATOM     16  C   UNL     1      -5.443  11.612  16.304  0.00  0.00    +0.070 A 
ATOM     17  C   UNL     1      -6.268  11.821  15.165  0.00  0.00    -0.019 A 
ATOM     18  C   UNL     1      -5.811  12.738  14.191  0.00  0.00    +0.006 A 
ATOM     19  C   UNL     1      -4.594  13.410  14.317  0.00  0.00    +0.000 A 
ATOM     20  C   UNL     1      -3.803  13.203  15.436  0.00  0.00    +0.002 A 
ATOM     21  C   UNL     1      -4.221  12.310  16.421  0.00  0.00    +0.028 A 
BRANCH  17  22
ATOM     22  C   UNL     1      -7.603  11.115  14.924  0.00  0.00    +0.015 C 
ATOM     23  C   UNL     1      -7.504   9.763  14.200  0.00  0.00    +0.012 C 
ATOM     24  C   UNL     1      -8.555  12.042  14.164  0.00  0.00    +0.012 C 
ENDBRANCH  17  22
ENDBRANCH  14  16
ENDBRANCH  10  12
ENDBRANCH   9  10
ENDBRANCH   5   9
ENDBRANCH   4   7
ENDBRANCH   1   4
BRANCH   1  25
ATOM     25  C   UNL     1      -4.985   8.673  23.384  0.00  0.00    +0.175 C 
BRANCH  25  26
ATOM     26  C   UNL     1      -3.929   9.509  24.121  0.00  0.00    +0.176 C 
ATOM     27  O   UNL     1      -4.267   9.510  25.535  0.00  0.00    -0.332 OA
ATOM     28  C   UNL     1      -3.304  10.177  26.417  0.00  0.00    +0.277 C 
ATOM     29  C   UNL     1      -3.048  11.627  25.939  0.00  0.00    +0.110 C 
ATOM     30  C   UNL     1      -2.716  11.681  24.433  0.00  0.00    +0.143 C 
ATOM     31  C   UNL     1      -3.780  10.955  23.610  0.00  0.00    +0.133 C 
BRANCH  31  32
ATOM     32  N   UNL     1      -3.409  10.937  22.187  0.00  0.00    -0.308 N 
ATOM     33  H   UNL     1      -2.565  10.445  21.926  0.00  0.00    +0.149 HD
ATOM     34  C   UNL     1      -4.112  11.528  21.218  0.00  0.00    +0.210 C 
ATOM     35  C   UNL     1      -5.378  12.292  21.652  0.00  0.00    +0.109 C 
ATOM     36  O   UNL     1      -3.784  11.485  20.031  0.00  0.00    -0.276 OA
ENDBRANCH  31  32
BRANCH  28  37
ATOM     37  C   UNL     1      -1.970   9.403  26.454  0.00  0.00    +0.414 C 
ATOM     38  O   UNL     1      -1.965   8.173  26.420  0.00  0.00    -0.240 OA
ATOM     39  O   UNL     1      -0.899  10.008  26.519  0.00  0.00    -0.240 OA
ENDBRANCH  28  37
BRANCH  30  40
ATOM     40  O   UNL     1      -2.637  13.041  24.005  0.00  0.00    -0.390 OA
ATOM     41  H   UNL     1      -2.912  13.619  24.721  0.00  0.00    +0.210 HD
ENDBRANCH  30  40
BRANCH  28  42
ATOM     42  O   UNL     1      -3.876  10.229  27.749  0.00  0.00    -0.343 OA
ATOM     43  C   UNL     1      -5.028   9.372  27.954  0.00  0.00    +0.198 C 
ENDBRANCH  28  42
ENDBRANCH  25  26
BRANCH  25  44
ATOM     44  O   UNL     1      -6.254   9.357  23.389  0.00  0.00    -0.387 OA
ATOM     45  H   UNL     1      -6.692   9.228  22.545  0.00  0.00    +0.210 HD
ENDBRANCH  25  44
ENDBRANCH   1  25
TORSDOF 15
