REMARK VINA RESULT:    -5.261      2.051      5.130
REMARK INTER + INTRA:         -13.637
REMARK INTER:                 -10.145
REMARK INTRA:                  -3.492
REMARK UNBOUND:                -3.302
REMARK  Name = lig_assembled_84.pdb
REMARK  21 active torsions:
REMARK  status: ('A' for Active; 'I' for Inactive)
REMARK    1  A    between atoms: _2  and  _11
REMARK    2  A    between atoms: _3  and  _14
REMARK    3  A    between atoms: _4  and  _17
REMARK    4  A    between atoms: _6  and  _28
REMARK    5  A    between atoms: _8  and  _9
REMARK    6  A    between atoms: _8  and  _28
REMARK    7  A    between atoms: _11  and  _12
REMARK    8  A    between atoms: _12  and  _13
REMARK    9  A    between atoms: _12  and  _14
REMARK   10  A    between atoms: _24  and  _44
REMARK   11  A    between atoms: _26  and  _32
REMARK   12  A    between atoms: _27  and  _31
REMARK   13  A    between atoms: _31  and  _32
REMARK   14  A    between atoms: _34  and  _35
REMARK   15  A    between atoms: _36  and  _37
REMARK   16  A    between atoms: _38  and  _40
REMARK   17  A    between atoms: _40  and  _41
REMARK   18  A    between atoms: _40  and  _42
REMARK   19  A    between atoms: _42  and  _43
REMARK   20  A    between atoms: _42  and  _44
REMARK   21  A    between atoms: _45  and  _47
REMARK                            x       y       z     vdW  Elec       q    Type
REMARK                         _______ _______ _______ _____ _____    ______ ____
ROOT
ATOM      1  C   UNL     1      -3.429  12.397  25.106  0.00  0.00    +0.401 C 
ATOM      2  O   UNL     1      -2.259  12.406  24.718  0.00  0.00    -0.226 OA
ATOM      3  N   UNL     1      -4.419  13.055  24.501  0.00  0.00    -0.279 N 
ATOM      4  H   UNL     1      -5.349  12.979  24.889  0.00  0.00    +0.152 HD
ENDROOT
BRANCH   1   5
ATOM      5  O   UNL     1      -3.771  11.638  26.269  0.00  0.00    -0.444 OA
BRANCH   5   6
ATOM      6  C   UNL     1      -2.590  11.380  27.034  0.00  0.00    +0.292 C 
BRANCH   6   8
ATOM      7  N   UNL     1      -1.681   9.217  26.232  0.00  0.00    -0.131 NA
ATOM      8  C   UNL     1      -2.370   9.929  27.180  0.00  0.00    +0.120 A 
ATOM      9  C   UNL     1      -2.793   9.068  28.168  0.00  0.00    +0.137 A 
ATOM     10  N   UNL     1      -2.390   7.842  27.730  0.00  0.00    -0.251 N 
ATOM     11  N   UNL     1      -1.702   7.937  26.580  0.00  0.00    -0.065 NA
BRANCH  10  12
ATOM     12  C   UNL     1      -2.740   6.545  28.278  0.00  0.00    +0.149 C 
BRANCH  12  13
ATOM     13  C   UNL     1      -4.212   6.412  28.703  0.00  0.00    +0.021 C 
ATOM     14  C   UNL     1      -4.890   5.227  28.000  0.00  0.00    +0.010 C 
BRANCH  13  15
ATOM     15  C   UNL     1      -4.340   6.224  30.234  0.00  0.00    +0.089 C 
BRANCH  15  16
ATOM     16  N   UNL     1      -4.753   7.415  30.989  0.00  0.00    -0.299 NA
ATOM     17  C   UNL     1      -5.540   8.324  30.114  0.00  0.00    +0.103 C 
ATOM     18  C   UNL     1      -6.068   9.549  30.889  0.00  0.00    +0.120 C 
ATOM     19  N   UNL     1      -4.942  10.282  31.480  0.00  0.00    -0.327 N 
ATOM     20  C   UNL     1      -4.061   9.461  32.323  0.00  0.00    +0.120 C 
ATOM     21  C   UNL     1      -3.614   8.187  31.548  0.00  0.00    +0.103 C 
BRANCH  19  22
ATOM     22  C   UNL     1      -4.762  11.634  31.302  0.00  0.00    +0.030 A 
ATOM     23  C   UNL     1      -4.795  12.526  32.390  0.00  0.00    +0.024 A 
ATOM     24  C   UNL     1      -4.640  13.907  32.225  0.00  0.00    +0.022 A 
ATOM     25  C   UNL     1      -4.438  14.427  30.958  0.00  0.00    +0.041 A 
ATOM     26 CL   UNL     1      -4.251  16.124  30.746  0.00  0.00    -0.084 Cl
ATOM     27  C   UNL     1      -4.395  13.580  29.856  0.00  0.00    +0.022 A 
ATOM     28  C   UNL     1      -4.559  12.199  30.034  0.00  0.00    +0.024 A 
ENDBRANCH  19  22
ENDBRANCH  15  16
ENDBRANCH  13  15
ENDBRANCH  12  13
ENDBRANCH  10  12
ENDBRANCH   6   8
ENDBRANCH   5   6
ENDBRANCH   1   5
BRANCH   3  29
ATOM     29  C   UNL     1      -4.234  13.885  23.304  0.00  0.00    +0.141 C 
BRANCH  29  30
ATOM     30  C   UNL     1      -4.906  13.274  22.079  0.00  0.00    +0.163 C 
BRANCH  30  31
ATOM     31  O   UNL     1      -5.858  14.198  21.529  0.00  0.00    -0.388 OA
ATOM     32  H   UNL     1      -6.149  14.805  22.214  0.00  0.00    +0.210 HD
ENDBRANCH  30  31
BRANCH  30  33
ATOM     33  C   UNL     1      -3.836  12.902  21.038  0.00  0.00    +0.175 C 
BRANCH  33  34
ATOM     34  C   UNL     1      -4.337  11.841  20.048  0.00  0.00    +0.176 C 
ATOM     35  O   UNL     1      -5.288  12.479  19.152  0.00  0.00    -0.332 OA
ATOM     36  C   UNL     1      -5.797  11.638  18.064  0.00  0.00    +0.277 C 
ATOM     37  C   UNL     1      -6.407  10.332  18.630  0.00  0.00    +0.110 C 
ATOM     38  C   UNL     1      -5.444   9.634  19.613  0.00  0.00    +0.143 C 
ATOM     39  C   UNL     1      -4.974  10.600  20.701  0.00  0.00    +0.133 C 
BRANCH  39  40
ATOM     40  N   UNL     1      -3.991   9.948  21.580  0.00  0.00    -0.308 N 
ATOM     41  H   UNL     1      -3.066   9.781  21.211  0.00  0.00    +0.149 HD
ATOM     42  C   UNL     1      -4.242   9.561  22.834  0.00  0.00    +0.210 C 
ATOM     43  C   UNL     1      -5.670   9.805  23.358  0.00  0.00    +0.109 C 
ATOM     44  O   UNL     1      -3.394   9.030  23.552  0.00  0.00    -0.276 OA
ENDBRANCH  39  40
BRANCH  36  45
ATOM     45  C   UNL     1      -4.671  11.293  17.067  0.00  0.00    +0.414 C 
ATOM     46  O   UNL     1      -4.463  10.123  16.748  0.00  0.00    -0.240 OA
ATOM     47  O   UNL     1      -3.971  12.183  16.583  0.00  0.00    -0.240 OA
ENDBRANCH  36  45
BRANCH  36  48
ATOM     48  O   UNL     1      -6.845  12.374  17.381  0.00  0.00    -0.343 OA
ATOM     49  C   UNL     1      -7.844  11.551  16.728  0.00  0.00    +0.198 C 
ENDBRANCH  36  48
BRANCH  38  50
ATOM     50  O   UNL     1      -6.101   8.522  20.222  0.00  0.00    -0.390 OA
ATOM     51  H   UNL     1      -5.481   7.795  20.318  0.00  0.00    +0.210 HD
ENDBRANCH  38  50
ENDBRANCH  33  34
BRANCH  33  52
ATOM     52  O   UNL     1      -2.640  12.440  21.698  0.00  0.00    -0.387 OA
ATOM     53  H   UNL     1      -1.923  13.055  21.529  0.00  0.00    +0.210 HD
ENDBRANCH  33  52
ENDBRANCH  30  33
ENDBRANCH  29  30
ENDBRANCH   3  29
TORSDOF 18
