REMARK VINA RESULT:    -3.432      3.813      9.760
REMARK INTER + INTRA:         -11.252
REMARK INTER:                  -8.289
REMARK INTRA:                  -2.963
REMARK UNBOUND:                -4.711
REMARK  Name = lig_assembled_62.pdb
REMARK  20 active torsions:
REMARK  status: ('A' for Active; 'I' for Inactive)
REMARK    1  A    between atoms: _2  and  _10
REMARK    2  A    between atoms: _5  and  _19
REMARK    3  A    between atoms: _6  and  _10
REMARK    4  A    between atoms: _7  and  _8
REMARK    5  A    between atoms: _7  and  _19
REMARK    6  A    between atoms: _10  and  _11
REMARK    7  A    between atoms: _11  and  _14
REMARK    8  A    between atoms: _12  and  _14
REMARK    9  A    between atoms: _15  and  _35
REMARK   10  A    between atoms: _17  and  _23
REMARK   11  A    between atoms: _18  and  _22
REMARK   12  A    between atoms: _22  and  _23
REMARK   13  A    between atoms: _25  and  _26
REMARK   14  A    between atoms: _27  and  _28
REMARK   15  A    between atoms: _29  and  _31
REMARK   16  A    between atoms: _31  and  _32
REMARK   17  A    between atoms: _31  and  _33
REMARK   18  A    between atoms: _33  and  _34
REMARK   19  A    between atoms: _33  and  _35
REMARK   20  A    between atoms: _36  and  _38
REMARK                            x       y       z     vdW  Elec       q    Type
REMARK                         _______ _______ _______ _____ _____    ______ ____
ROOT
ATOM      1  C   UNL     1      -6.729   9.661  23.780  0.00  0.00    +0.163 C 
ENDROOT
BRANCH   1   2
ATOM      2  O   UNL     1      -7.356   9.567  25.070  0.00  0.00    -0.388 OA
ATOM      3  H   UNL     1      -6.683   9.551  25.754  0.00  0.00    +0.210 HD
ENDBRANCH   1   2
BRANCH   1   4
ATOM      4  C   UNL     1      -5.449   8.809  23.727  0.00  0.00    +0.175 C 
BRANCH   4   5
ATOM      5  C   UNL     1      -4.239   9.545  24.319  0.00  0.00    +0.176 C 
ATOM      6  O   UNL     1      -4.447   9.667  25.753  0.00  0.00    -0.332 OA
ATOM      7  C   UNL     1      -3.336  10.255  26.508  0.00  0.00    +0.277 C 
ATOM      8  C   UNL     1      -2.950  11.633  25.916  0.00  0.00    +0.110 C 
ATOM      9  C   UNL     1      -2.749  11.561  24.388  0.00  0.00    +0.143 C 
ATOM     10  C   UNL     1      -3.963  10.930  23.704  0.00  0.00    +0.133 C 
BRANCH  10  11
ATOM     11  N   UNL     1      -3.724  10.787  22.259  0.00  0.00    -0.308 N 
ATOM     12  H   UNL     1      -3.095  10.058  21.955  0.00  0.00    +0.149 HD
ATOM     13  C   UNL     1      -4.285  11.558  21.324  0.00  0.00    +0.210 C 
ATOM     14  C   UNL     1      -5.220  12.677  21.822  0.00  0.00    +0.109 C 
ATOM     15  O   UNL     1      -4.078  11.406  20.120  0.00  0.00    -0.276 OA
ENDBRANCH  10  11
BRANCH   7  16
ATOM     16  C   UNL     1      -2.106   9.323  26.487  0.00  0.00    +0.414 C 
ATOM     17  O   UNL     1      -0.970   9.795  26.480  0.00  0.00    -0.240 OA
ATOM     18  O   UNL     1      -2.251   8.099  26.477  0.00  0.00    -0.240 OA
ENDBRANCH   7  16
BRANCH   7  19
ATOM     19  O   UNL     1      -3.776  10.452  27.876  0.00  0.00    -0.343 OA
ATOM     20  C   UNL     1      -3.853  11.836  28.301  0.00  0.00    +0.198 C 
ENDBRANCH   7  19
BRANCH   9  21
ATOM     21  O   UNL     1      -2.546  12.874  23.866  0.00  0.00    -0.390 OA
ATOM     22  H   UNL     1      -2.125  12.816  23.005  0.00  0.00    +0.210 HD
ENDBRANCH   9  21
ENDBRANCH   4   5
BRANCH   4  23
ATOM     23  O   UNL     1      -5.174   8.411  22.370  0.00  0.00    -0.387 OA
ATOM     24  H   UNL     1      -5.839   8.782  21.786  0.00  0.00    +0.210 HD
ENDBRANCH   4  23
ENDBRANCH   1   4
BRANCH   1  25
ATOM     25  C   UNL     1      -7.695   9.199  22.695  0.00  0.00    +0.141 C 
BRANCH  25  28
ATOM     26  C   UNL     1      -7.383  10.051  20.397  0.00  0.00    +0.401 C 
ATOM     27  O   UNL     1      -6.762   9.058  20.012  0.00  0.00    -0.226 OA
ATOM     28  N   UNL     1      -7.851  10.204  21.636  0.00  0.00    -0.279 N 
ATOM     29  H   UNL     1      -8.340  11.059  21.859  0.00  0.00    +0.152 HD
BRANCH  26  30
ATOM     30  O   UNL     1      -7.624  11.119  19.476  0.00  0.00    -0.444 OA
BRANCH  30  31
ATOM     31  C   UNL     1      -7.761  10.589  18.155  0.00  0.00    +0.292 C 
BRANCH  31  33
ATOM     32  N   UNL     1      -6.600  12.263  16.747  0.00  0.00    -0.131 NA
ATOM     33  C   UNL     1      -6.630  11.016  17.311  0.00  0.00    +0.120 A 
ATOM     34  C   UNL     1      -5.489  10.334  16.951  0.00  0.00    +0.138 A 
ATOM     35  N   UNL     1      -4.811  11.212  16.156  0.00  0.00    -0.237 N 
ATOM     36  N   UNL     1      -5.482  12.375  16.043  0.00  0.00    -0.065 NA
BRANCH  35  37
ATOM     37  C   UNL     1      -3.527  11.061  15.494  0.00  0.00    +0.219 C 
BRANCH  37  38
ATOM     38  C   UNL     1      -3.495  11.874  14.210  0.00  0.00    +0.237 C 
ATOM     39  O   UNL     1      -3.847  11.449  13.112  0.00  0.00    -0.274 OA
ATOM     40  N   UNL     1      -3.101  13.180  14.335  0.00  0.00    -0.328 N 
ATOM     41  H   UNL     1      -2.886  13.620  15.220  0.00  0.00    +0.145 HD
ATOM     42  H   UNL     1      -3.080  13.747  13.497  0.00  0.00    +0.145 HD
ENDBRANCH  37  38
BRANCH  37  43
ATOM     43  C   UNL     1      -3.231   9.589  15.216  0.00  0.00    +0.195 C 
BRANCH  43  44
ATOM     44  O   UNL     1      -1.836   9.431  14.924  0.00  0.00    -0.380 OA
ATOM     45  C   UNL     1      -1.628   8.630  13.767  0.00  0.00    +0.194 C 
ENDBRANCH  43  44
ENDBRANCH  37  43
ENDBRANCH  35  37
ENDBRANCH  31  33
ENDBRANCH  30  31
ENDBRANCH  26  30
ENDBRANCH  25  28
ENDBRANCH   1  25
TORSDOF 17
