REMARK VINA RESULT:    -5.261      3.164     10.759
REMARK INTER + INTRA:         -11.581
REMARK INTER:                  -7.975
REMARK INTRA:                  -3.607
REMARK UNBOUND:                -2.475
REMARK  Name = lig_assembled_25.pdb
REMARK  16 active torsions:
REMARK  status: ('A' for Active; 'I' for Inactive)
REMARK    1  A    between atoms: _2  and  _9
REMARK    2  A    between atoms: _4  and  _25
REMARK    3  A    between atoms: _6  and  _7
REMARK    4  A    between atoms: _6  and  _25
REMARK    5  A    between atoms: _21  and  _41
REMARK    6  A    between atoms: _23  and  _29
REMARK    7  A    between atoms: _24  and  _28
REMARK    8  A    between atoms: _28  and  _29
REMARK    9  A    between atoms: _31  and  _32
REMARK   10  A    between atoms: _33  and  _34
REMARK   11  A    between atoms: _35  and  _37
REMARK   12  A    between atoms: _37  and  _38
REMARK   13  A    between atoms: _37  and  _39
REMARK   14  A    between atoms: _39  and  _40
REMARK   15  A    between atoms: _39  and  _41
REMARK   16  A    between atoms: _42  and  _44
REMARK                            x       y       z     vdW  Elec       q    Type
REMARK                         _______ _______ _______ _____ _____    ______ ____
ROOT
ATOM      1  C   UNL     1      -5.366   7.778  25.654  0.00  0.00    +0.141 C 
ENDROOT
BRANCH   1   4
ATOM      2  C   UNL     1      -3.228   7.472  26.856  0.00  0.00    +0.401 C 
ATOM      3  O   UNL     1      -2.610   7.101  25.855  0.00  0.00    -0.226 OA
ATOM      4  N   UNL     1      -4.520   7.802  26.854  0.00  0.00    -0.279 N 
ATOM      5  H   UNL     1      -4.941   8.085  27.728  0.00  0.00    +0.152 HD
BRANCH   2   6
ATOM      6  O   UNL     1      -2.539   7.556  28.106  0.00  0.00    -0.444 OA
BRANCH   6   7
ATOM      7  C   UNL     1      -1.854   8.809  28.191  0.00  0.00    +0.292 C 
BRANCH   7   9
ATOM      8  N   UNL     1      -2.977  10.895  27.494  0.00  0.00    -0.131 NA
ATOM      9  C   UNL     1      -2.814   9.905  28.424  0.00  0.00    +0.120 A 
ATOM     10  C   UNL     1      -3.636  10.158  29.500  0.00  0.00    +0.138 A 
ATOM     11  N   UNL     1      -4.263  11.327  29.175  0.00  0.00    -0.240 N 
ATOM     12  N   UNL     1      -3.868  11.759  27.958  0.00  0.00    -0.064 NA
BRANCH  11  13
ATOM     13  C   UNL     1      -5.171  12.149  29.958  0.00  0.00    +0.170 C 
ATOM     14  C   UNL     1      -6.315  12.710  29.124  0.00  0.00    -0.011 A 
ATOM     15  C   UNL     1      -6.348  14.118  29.235  0.00  0.00    -0.012 A 
ATOM     16  C   UNL     1      -5.262  14.547  30.094  0.00  0.00    -0.012 A 
ATOM     17  C   UNL     1      -4.910  15.815  30.527  0.00  0.00    +0.009 A 
ATOM     18  C   UNL     1      -3.820  15.943  31.392  0.00  0.00    +0.001 A 
ATOM     19  C   UNL     1      -3.094  14.815  31.808  0.00  0.00    +0.000 A 
ATOM     20  C   UNL     1      -3.446  13.535  31.373  0.00  0.00    +0.006 A 
ATOM     21  C   UNL     1      -7.322  14.851  28.579  0.00  0.00    +0.009 A 
ATOM     22  C   UNL     1      -8.267  14.164  27.810  0.00  0.00    +0.001 A 
ATOM     23  C   UNL     1      -8.232  12.764  27.706  0.00  0.00    +0.000 A 
ATOM     24  C   UNL     1      -7.254  12.022  28.368  0.00  0.00    +0.006 A 
ATOM     25  C   UNL     1      -4.530  13.414  30.515  0.00  0.00    -0.011 A 
ENDBRANCH  11  13
ENDBRANCH   7   9
ENDBRANCH   6   7
ENDBRANCH   2   6
ENDBRANCH   1   4
BRANCH   1  26
ATOM     26  C   UNL     1      -5.698   9.184  25.165  0.00  0.00    +0.163 C 
BRANCH  26  27
ATOM     27  O   UNL     1      -5.687  10.104  26.269  0.00  0.00    -0.388 OA
ATOM     28  H   UNL     1      -6.443   9.934  26.836  0.00  0.00    +0.210 HD
ENDBRANCH  26  27
BRANCH  26  29
ATOM     29  C   UNL     1      -4.685   9.606  24.087  0.00  0.00    +0.175 C 
BRANCH  29  30
ATOM     30  C   UNL     1      -5.369  10.257  22.875  0.00  0.00    +0.176 C 
ATOM     31  O   UNL     1      -4.889   9.587  21.677  0.00  0.00    -0.332 OA
ATOM     32  C   UNL     1      -5.517  10.008  20.421  0.00  0.00    +0.277 C 
ATOM     33  C   UNL     1      -5.399  11.542  20.245  0.00  0.00    +0.110 C 
ATOM     34  C   UNL     1      -5.867  12.297  21.506  0.00  0.00    +0.143 C 
ATOM     35  C   UNL     1      -5.153  11.778  22.754  0.00  0.00    +0.133 C 
BRANCH  35  36
ATOM     36  N   UNL     1      -5.671  12.445  23.959  0.00  0.00    -0.308 N 
ATOM     37  H   UNL     1      -6.660  12.370  24.152  0.00  0.00    +0.149 HD
ATOM     38  C   UNL     1      -4.919  13.142  24.815  0.00  0.00    +0.210 C 
ATOM     39  C   UNL     1      -3.420  13.259  24.480  0.00  0.00    +0.109 C 
ATOM     40  O   UNL     1      -5.377  13.678  25.825  0.00  0.00    -0.276 OA
ENDBRANCH  35  36
BRANCH  32  41
ATOM     41  C   UNL     1      -7.004   9.598  20.388  0.00  0.00    +0.414 C 
ATOM     42  O   UNL     1      -7.817  10.267  19.752  0.00  0.00    -0.240 OA
ATOM     43  O   UNL     1      -7.390   8.599  20.997  0.00  0.00    -0.240 OA
ENDBRANCH  32  41
BRANCH  34  44
ATOM     44  O   UNL     1      -5.600  13.693  21.358  0.00  0.00    -0.390 OA
ATOM     45  H   UNL     1      -6.403  14.146  21.088  0.00  0.00    +0.210 HD
ENDBRANCH  34  44
BRANCH  32  46
ATOM     46  O   UNL     1      -4.809   9.366  19.329  0.00  0.00    -0.343 OA
ATOM     47  C   UNL     1      -4.775  10.123  18.093  0.00  0.00    +0.198 C 
ENDBRANCH  32  46
ENDBRANCH  29  30
BRANCH  29  48
ATOM     48  O   UNL     1      -3.906   8.469  23.665  0.00  0.00    -0.387 OA
ATOM     49  H   UNL     1      -2.999   8.742  23.511  0.00  0.00    +0.210 HD
ENDBRANCH  29  48
ENDBRANCH  26  29
ENDBRANCH   1  26
TORSDOF 14
