REMARK VINA RESULT:    -4.560      3.302      8.774
REMARK INTER + INTRA:         -10.951
REMARK INTER:                  -7.793
REMARK INTRA:                  -3.158
REMARK UNBOUND:                -2.792
REMARK  Name = lig_assembled_5.pdb
REMARK  18 active torsions:
REMARK  status: ('A' for Active; 'I' for Inactive)
REMARK    1  A    between atoms: _2  and  _9
REMARK    2  A    between atoms: _4  and  _20
REMARK    3  A    between atoms: _6  and  _7
REMARK    4  A    between atoms: _6  and  _20
REMARK    5  A    between atoms: _12  and  _15
REMARK    6  A    between atoms: _13  and  _15
REMARK    7  A    between atoms: _16  and  _36
REMARK    8  A    between atoms: _18  and  _24
REMARK    9  A    between atoms: _19  and  _23
REMARK   10  A    between atoms: _23  and  _24
REMARK   11  A    between atoms: _26  and  _27
REMARK   12  A    between atoms: _28  and  _29
REMARK   13  A    between atoms: _30  and  _32
REMARK   14  A    between atoms: _32  and  _33
REMARK   15  A    between atoms: _32  and  _34
REMARK   16  A    between atoms: _34  and  _35
REMARK   17  A    between atoms: _34  and  _36
REMARK   18  A    between atoms: _37  and  _39
REMARK                            x       y       z     vdW  Elec       q    Type
REMARK                         _______ _______ _______ _____ _____    ______ ____
ROOT
ATOM      1  C   UNL     1      -4.134  12.976  30.094  0.00  0.00    +0.163 C 
ENDROOT
BRANCH   1   2
ATOM      2  O   UNL     1      -2.801  12.705  30.558  0.00  0.00    -0.388 OA
ATOM      3  H   UNL     1      -2.220  12.575  29.805  0.00  0.00    +0.210 HD
ENDBRANCH   1   2
BRANCH   1   4
ATOM      4  C   UNL     1      -4.973  13.556  31.228  0.00  0.00    +0.141 C 
BRANCH   4   7
ATOM      5  C   UNL     1      -6.842  15.029  30.563  0.00  0.00    +0.401 C 
ATOM      6  O   UNL     1      -6.186  16.068  30.671  0.00  0.00    -0.226 OA
ATOM      7  N   UNL     1      -6.357  13.812  30.809  0.00  0.00    -0.279 N 
ATOM      8  H   UNL     1      -6.976  13.021  30.702  0.00  0.00    +0.152 HD
BRANCH   5   9
ATOM      9  O   UNL     1      -8.210  15.112  30.154  0.00  0.00    -0.444 OA
BRANCH   9  10
ATOM     10  C   UNL     1      -8.299  15.838  28.925  0.00  0.00    +0.292 C 
BRANCH  10  12
ATOM     11  N   UNL     1      -8.170  13.756  27.593  0.00  0.00    -0.131 NA
ATOM     12  C   UNL     1      -7.750  15.035  27.815  0.00  0.00    +0.121 A 
ATOM     13  C   UNL     1      -6.809  15.369  26.870  0.00  0.00    +0.143 A 
ATOM     14  N   UNL     1      -6.704  14.259  26.062  0.00  0.00    -0.220 N 
ATOM     15  N   UNL     1      -7.526  13.288  26.532  0.00  0.00    -0.060 NA
BRANCH  14  16
ATOM     16  C   UNL     1      -5.920  14.082  24.893  0.00  0.00    +0.067 A 
ATOM     17  C   UNL     1      -5.100  12.957  24.744  0.00  0.00    +0.031 A 
ATOM     18  C   UNL     1      -4.289  12.831  23.613  0.00  0.00    +0.048 A 
ATOM     19  C   UNL     1      -4.299  13.805  22.612  0.00  0.00    +0.120 A 
ATOM     20  C   UNL     1      -5.127  14.917  22.749  0.00  0.00    +0.048 A 
ATOM     21  C   UNL     1      -5.935  15.059  23.886  0.00  0.00    +0.031 A 
BRANCH  19  22
ATOM     22  O   UNL     1      -3.414  13.589  21.592  0.00  0.00    -0.495 OA
ATOM     23  C   UNL     1      -3.114  12.233  21.294  0.00  0.00    +0.277 C 
ENDBRANCH  19  22
ENDBRANCH  14  16
ENDBRANCH  10  12
ENDBRANCH   9  10
ENDBRANCH   5   9
ENDBRANCH   4   7
ENDBRANCH   1   4
BRANCH   1  24
ATOM     24  C   UNL     1      -4.802  11.696  29.563  0.00  0.00    +0.175 C 
BRANCH  24  25
ATOM     25  C   UNL     1      -3.788  10.738  28.922  0.00  0.00    +0.176 C 
ATOM     26  O   UNL     1      -4.283  10.380  27.603  0.00  0.00    -0.332 OA
ATOM     27  C   UNL     1      -3.387   9.548  26.794  0.00  0.00    +0.277 C 
ATOM     28  C   UNL     1      -2.991   8.267  27.569  0.00  0.00    +0.110 C 
ATOM     29  C   UNL     1      -2.488   8.595  28.991  0.00  0.00    +0.143 C 
ATOM     30  C   UNL     1      -3.495   9.467  29.742  0.00  0.00    +0.133 C 
BRANCH  30  31
ATOM     31  N   UNL     1      -2.967   9.844  31.062  0.00  0.00    -0.308 N 
ATOM     32  H   UNL     1      -2.112  10.382  31.092  0.00  0.00    +0.149 HD
ATOM     33  C   UNL     1      -3.543   9.523  32.223  0.00  0.00    +0.210 C 
ATOM     34  C   UNL     1      -4.831   8.682  32.145  0.00  0.00    +0.109 C 
ATOM     35  O   UNL     1      -3.086   9.866  33.314  0.00  0.00    -0.276 OA
ENDBRANCH  30  31
BRANCH  27  36
ATOM     36  C   UNL     1      -2.115  10.330  26.407  0.00  0.00    +0.414 C 
ATOM     37  O   UNL     1      -1.022   9.765  26.384  0.00  0.00    -0.240 OA
ATOM     38  O   UNL     1      -2.181  11.525  26.117  0.00  0.00    -0.240 OA
ENDBRANCH  27  36
BRANCH  27  39
ATOM     39  O   UNL     1      -4.102   9.154  25.594  0.00  0.00    -0.343 OA
ATOM     40  C   UNL     1      -4.055   7.736  25.292  0.00  0.00    +0.198 C 
ENDBRANCH  27  39
BRANCH  29  41
ATOM     41  O   UNL     1      -2.280   7.384  29.719  0.00  0.00    -0.390 OA
ATOM     42  H   UNL     1      -2.976   6.759  29.508  0.00  0.00    +0.210 HD
ENDBRANCH  29  41
ENDBRANCH  24  25
BRANCH  24  43
ATOM     43  O   UNL     1      -5.836  12.032  28.616  0.00  0.00    -0.387 OA
ATOM     44  H   UNL     1      -6.079  12.955  28.721  0.00  0.00    +0.210 HD
ENDBRANCH  24  43
ENDBRANCH   1  24
TORSDOF 15
