REMARK VINA RESULT:    -4.981      5.889     11.502
REMARK INTER + INTRA:         -13.112
REMARK INTER:                 -10.701
REMARK INTRA:                  -2.411
REMARK UNBOUND:                -3.181
REMARK  Name = lig_assembled_76.pdb
REMARK  21 active torsions:
REMARK  status: ('A' for Active; 'I' for Inactive)
REMARK    1  A    between atoms: _2  and  _9
REMARK    2  A    between atoms: _4  and  _23
REMARK    3  A    between atoms: _6  and  _7
REMARK    4  A    between atoms: _6  and  _23
REMARK    5  A    between atoms: _9  and  _10
REMARK    6  A    between atoms: _10  and  _11
REMARK    7  A    between atoms: _10  and  _18
REMARK    8  A    between atoms: _11  and  _12
REMARK    9  A    between atoms: _12  and  _13
REMARK   10  A    between atoms: _19  and  _39
REMARK   11  A    between atoms: _21  and  _27
REMARK   12  A    between atoms: _22  and  _26
REMARK   13  A    between atoms: _26  and  _27
REMARK   14  A    between atoms: _29  and  _30
REMARK   15  A    between atoms: _31  and  _32
REMARK   16  A    between atoms: _33  and  _35
REMARK   17  A    between atoms: _35  and  _36
REMARK   18  A    between atoms: _35  and  _37
REMARK   19  A    between atoms: _37  and  _38
REMARK   20  A    between atoms: _37  and  _39
REMARK   21  A    between atoms: _40  and  _42
REMARK                            x       y       z     vdW  Elec       q    Type
REMARK                         _______ _______ _______ _____ _____    ______ ____
ROOT
ATOM      1  C   UNL     1      -4.682  11.949  19.673  0.00  0.00    +0.141 C 
ENDROOT
BRANCH   1   4
ATOM      2  C   UNL     1      -5.725  11.013  17.638  0.00  0.00    +0.401 C 
ATOM      3  O   UNL     1      -6.398  12.020  17.405  0.00  0.00    -0.226 OA
ATOM      4  N   UNL     1      -4.901  10.891  18.679  0.00  0.00    -0.279 N 
ATOM      5  H   UNL     1      -4.399  10.021  18.791  0.00  0.00    +0.152 HD
BRANCH   2   6
ATOM      6  O   UNL     1      -5.822   9.894  16.753  0.00  0.00    -0.444 OA
BRANCH   6   7
ATOM      7  C   UNL     1      -4.516   9.365  16.507  0.00  0.00    +0.292 C 
BRANCH   7   9
ATOM      8  N   UNL     1      -2.623   9.854  14.981  0.00  0.00    -0.131 NA
ATOM      9  C   UNL     1      -3.965   9.919  15.259  0.00  0.00    +0.120 A 
ATOM     10  C   UNL     1      -4.609  10.562  14.225  0.00  0.00    +0.137 A 
ATOM     11  N   UNL     1      -3.607  10.856  13.352  0.00  0.00    -0.249 N 
ATOM     12  N   UNL     1      -2.415  10.441  13.810  0.00  0.00    -0.065 NA
BRANCH  11  13
ATOM     13  C   UNL     1      -3.693  11.641  12.141  0.00  0.00    +0.176 C 
BRANCH  13  14
ATOM     14  C   UNL     1      -3.264  13.098  12.342  0.00  0.00    +0.136 C 
BRANCH  14  15
ATOM     15  O   UNL     1      -2.624  13.254  13.616  0.00  0.00    -0.390 OA
ATOM     16  H   UNL     1      -2.433  14.197  13.763  0.00  0.00    +0.210 HD
ENDBRANCH  14  15
BRANCH  14  17
ATOM     17  C   UNL     1      -2.271  13.572  11.268  0.00  0.00    +0.038 C 
BRANCH  17  18
ATOM     18  C   UNL     1      -0.855  13.033  11.468  0.00  0.00    +0.038 C 
BRANCH  18  19
ATOM     19  C   UNL     1       0.179  14.128  11.437  0.00  0.00    -0.047 A 
ATOM     20  C   UNL     1       1.194  14.114  10.470  0.00  0.00    +0.003 A 
ATOM     21  C   UNL     1       2.143  15.137  10.426  0.00  0.00    +0.000 A 
ATOM     22  C   UNL     1       2.089  16.177  11.351  0.00  0.00    +0.000 A 
ATOM     23  C   UNL     1       1.089  16.193  12.323  0.00  0.00    +0.000 A 
ATOM     24  C   UNL     1       0.140  15.171  12.369  0.00  0.00    +0.003 A 
ENDBRANCH  18  19
ENDBRANCH  17  18
ENDBRANCH  14  17
ENDBRANCH  13  14
ENDBRANCH  11  13
ENDBRANCH   7   9
ENDBRANCH   6   7
ENDBRANCH   2   6
ENDBRANCH   1   4
BRANCH   1  25
ATOM     25  C   UNL     1      -4.723  11.408  21.098  0.00  0.00    +0.163 C 
BRANCH  25  26
ATOM     26  O   UNL     1      -4.897   9.982  21.078  0.00  0.00    -0.388 OA
ATOM     27  H   UNL     1      -4.307   9.578  21.719  0.00  0.00    +0.210 HD
ENDBRANCH  25  26
BRANCH  25  28
ATOM     28  C   UNL     1      -3.426  11.794  21.831  0.00  0.00    +0.175 C 
BRANCH  28  29
ATOM     29  C   UNL     1      -3.650  11.988  23.338  0.00  0.00    +0.176 C 
ATOM     30  O   UNL     1      -3.929  10.685  23.920  0.00  0.00    -0.332 OA
ATOM     31  C   UNL     1      -4.067  10.660  25.380  0.00  0.00    +0.277 C 
ATOM     32  C   UNL     1      -5.138  11.678  25.840  0.00  0.00    +0.110 C 
ATOM     33  C   UNL     1      -4.902  13.072  25.221  0.00  0.00    +0.143 C 
ATOM     34  C   UNL     1      -4.770  12.981  23.700  0.00  0.00    +0.133 C 
BRANCH  34  35
ATOM     35  N   UNL     1      -4.459  14.302  23.130  0.00  0.00    -0.308 N 
ATOM     36  H   UNL     1      -3.554  14.702  23.334  0.00  0.00    +0.149 HD
ATOM     37  C   UNL     1      -5.295  15.006  22.362  0.00  0.00    +0.210 C 
ATOM     38  C   UNL     1      -6.676  14.381  22.093  0.00  0.00    +0.109 C 
ATOM     39  O   UNL     1      -5.002  16.104  21.887  0.00  0.00    -0.276 OA
ENDBRANCH  34  35
BRANCH  31  40
ATOM     40  C   UNL     1      -2.721  10.982  26.062  0.00  0.00    +0.414 C 
ATOM     41  O   UNL     1      -2.688  11.706  27.056  0.00  0.00    -0.240 OA
ATOM     42  O   UNL     1      -1.669  10.519  25.619  0.00  0.00    -0.240 OA
ENDBRANCH  31  40
BRANCH  33  43
ATOM     43  O   UNL     1      -5.991  13.936  25.549  0.00  0.00    -0.390 OA
ATOM     44  H   UNL     1      -5.724  14.538  26.247  0.00  0.00    +0.210 HD
ENDBRANCH  33  43
BRANCH  31  45
ATOM     45  O   UNL     1      -4.503   9.331  25.766  0.00  0.00    -0.343 OA
ATOM     46  C   UNL     1      -4.373   8.320  24.735  0.00  0.00    +0.198 C 
ENDBRANCH  31  45
ENDBRANCH  28  29
BRANCH  28  47
ATOM     47  O   UNL     1      -2.866  12.990  21.254  0.00  0.00    -0.387 OA
ATOM     48  H   UNL     1      -1.947  13.073  21.517  0.00  0.00    +0.210 HD
ENDBRANCH  28  47
ENDBRANCH  25  28
ENDBRANCH   1  25
TORSDOF 19
