REMARK VINA RESULT:    -6.023      2.434      4.445
REMARK INTER + INTRA:         -14.145
REMARK INTER:                 -11.001
REMARK INTRA:                  -3.143
REMARK UNBOUND:                -2.840
REMARK  Name = lig_assembled_77.pdb
REMARK  19 active torsions:
REMARK  status: ('A' for Active; 'I' for Inactive)
REMARK    1  A    between atoms: _2  and  _10
REMARK    2  A    between atoms: _3  and  _17
REMARK    3  A    between atoms: _5  and  _27
REMARK    4  A    between atoms: _7  and  _8
REMARK    5  A    between atoms: _7  and  _27
REMARK    6  A    between atoms: _13  and  _47
REMARK    7  A    between atoms: _14  and  _47
REMARK    8  A    between atoms: _23  and  _43
REMARK    9  A    between atoms: _25  and  _31
REMARK   10  A    between atoms: _26  and  _30
REMARK   11  A    between atoms: _30  and  _31
REMARK   12  A    between atoms: _33  and  _34
REMARK   13  A    between atoms: _35  and  _36
REMARK   14  A    between atoms: _37  and  _39
REMARK   15  A    between atoms: _39  and  _40
REMARK   16  A    between atoms: _39  and  _41
REMARK   17  A    between atoms: _41  and  _42
REMARK   18  A    between atoms: _41  and  _43
REMARK   19  A    between atoms: _44  and  _46
REMARK                            x       y       z     vdW  Elec       q    Type
REMARK                         _______ _______ _______ _____ _____    ______ ____
ROOT
ATOM      1  C   UNL     1      -7.089   7.047  20.730  0.00  0.00    +0.401 C 
ATOM      2  O   UNL     1      -7.667   5.964  20.843  0.00  0.00    -0.226 OA
ATOM      3  N   UNL     1      -5.992   7.381  21.410  0.00  0.00    -0.279 N 
ATOM      4  H   UNL     1      -5.585   8.290  21.242  0.00  0.00    +0.152 HD
ENDROOT
BRANCH   3   5
ATOM      5  C   UNL     1      -5.342   6.502  22.390  0.00  0.00    +0.141 C 
BRANCH   5   6
ATOM      6  C   UNL     1      -4.964   7.250  23.664  0.00  0.00    +0.163 C 
BRANCH   6   7
ATOM      7  O   UNL     1      -3.639   6.877  24.078  0.00  0.00    -0.388 OA
ATOM      8  H   UNL     1      -3.497   7.157  24.986  0.00  0.00    +0.210 HD
ENDBRANCH   6   7
BRANCH   6   9
ATOM      9  C   UNL     1      -5.056   8.766  23.416  0.00  0.00    +0.175 C 
BRANCH   9  10
ATOM     10  C   UNL     1      -3.978   9.544  24.184  0.00  0.00    +0.176 C 
ATOM     11  O   UNL     1      -4.312   9.494  25.598  0.00  0.00    -0.332 OA
ATOM     12  C   UNL     1      -3.331  10.099  26.503  0.00  0.00    +0.277 C 
ATOM     13  C   UNL     1      -3.039  11.561  26.086  0.00  0.00    +0.110 C 
ATOM     14  C   UNL     1      -2.708  11.669  24.582  0.00  0.00    +0.143 C 
ATOM     15  C   UNL     1      -3.793  11.005  23.733  0.00  0.00    +0.133 C 
BRANCH  15  16
ATOM     16  N   UNL     1      -3.425  11.037  22.309  0.00  0.00    -0.308 N 
ATOM     17  H   UNL     1      -2.631  10.485  22.015  0.00  0.00    +0.149 HD
ATOM     18  C   UNL     1      -4.070  11.748  21.381  0.00  0.00    +0.210 C 
ATOM     19  C   UNL     1      -5.259  12.599  21.866  0.00  0.00    +0.109 C 
ATOM     20  O   UNL     1      -3.748  11.744  20.192  0.00  0.00    -0.276 OA
ENDBRANCH  15  16
BRANCH  12  21
ATOM     21  C   UNL     1      -2.017   9.291  26.505  0.00  0.00    +0.414 C 
ATOM     22  O   UNL     1      -0.932   9.870  26.537  0.00  0.00    -0.240 OA
ATOM     23  O   UNL     1      -2.041   8.060  26.474  0.00  0.00    -0.240 OA
ENDBRANCH  12  21
BRANCH  14  24
ATOM     24  O   UNL     1      -2.595  13.043  24.211  0.00  0.00    -0.390 OA
ATOM     25  H   UNL     1      -1.670  13.268  24.092  0.00  0.00    +0.210 HD
ENDBRANCH  14  24
BRANCH  12  26
ATOM     26  O   UNL     1      -3.899  10.110  27.839  0.00  0.00    -0.343 OA
ATOM     27  C   UNL     1      -4.119  11.428  28.400  0.00  0.00    +0.198 C 
ENDBRANCH  12  26
ENDBRANCH   9  10
BRANCH   9  28
ATOM     28  O   UNL     1      -6.366   9.248  23.773  0.00  0.00    -0.387 OA
ATOM     29  H   UNL     1      -6.557  10.051  23.282  0.00  0.00    +0.210 HD
ENDBRANCH   9  28
ENDBRANCH   6   9
ENDBRANCH   5   6
ENDBRANCH   3   5
BRANCH   1  30
ATOM     30  O   UNL     1      -7.607   8.019  19.818  0.00  0.00    -0.444 OA
BRANCH  30  31
ATOM     31  C   UNL     1      -7.348   9.333  20.321  0.00  0.00    +0.292 C 
BRANCH  31  33
ATOM     32  N   UNL     1      -7.352  11.522  19.172  0.00  0.00    -0.131 NA
ATOM     33  C   UNL     1      -6.921  10.229  19.229  0.00  0.00    +0.121 A 
ATOM     34  C   UNL     1      -6.090   9.983  18.161  0.00  0.00    +0.143 A 
ATOM     35  N   UNL     1      -6.034  11.175  17.473  0.00  0.00    -0.220 N 
ATOM     36  N   UNL     1      -6.817  12.087  18.099  0.00  0.00    -0.060 NA
BRANCH  35  37
ATOM     37  C   UNL     1      -5.258  11.509  16.331  0.00  0.00    +0.067 A 
ATOM     38  C   UNL     1      -5.808  12.266  15.284  0.00  0.00    +0.030 A 
ATOM     39  C   UNL     1      -5.071  12.482  14.116  0.00  0.00    +0.029 A 
ATOM     40  C   UNL     1      -3.786  11.947  13.997  0.00  0.00    +0.094 A 
ATOM     41  C   UNL     1      -3.196  11.271  15.069  0.00  0.00    +0.029 A 
ATOM     42  C   UNL     1      -3.937  11.042  16.231  0.00  0.00    +0.030 A 
BRANCH  40  43
ATOM     43  S   UNL     1      -2.877  12.165  12.481  0.00  0.00    +0.025 S 
ATOM     44  O   UNL     1      -1.857  11.130  12.470  0.00  0.00    -0.164 OA
ATOM     45  O   UNL     1      -3.845  12.261  11.405  0.00  0.00    -0.164 OA
BRANCH  43  46
ATOM     46  C   UNL     1      -2.031  13.731  12.536  0.00  0.00    +0.094 A 
ATOM     47  C   UNL     1      -2.584  14.824  13.204  0.00  0.00    +0.029 A 
ATOM     48  C   UNL     1      -1.921  16.057  13.174  0.00  0.00    +0.024 A 
ATOM     49  C   UNL     1      -0.688  16.199  12.525  0.00  0.00    +0.025 A 
ATOM     50  C   UNL     1      -0.164  15.101  11.836  0.00  0.00    +0.024 A 
ATOM     51  C   UNL     1      -0.816  13.865  11.856  0.00  0.00    +0.029 A 
BRANCH  49  52
ATOM     52  N   UNL     1      -0.124  17.467  12.357  0.00  0.00    -0.358 N 
ATOM     53  H   UNL     1       0.866  17.465  12.132  0.00  0.00    +0.142 HD
ATOM     54  H   UNL     1      -0.657  18.087  11.757  0.00  0.00    +0.142 HD
ENDBRANCH  49  52
ENDBRANCH  43  46
ENDBRANCH  40  43
ENDBRANCH  35  37
ENDBRANCH  31  33
ENDBRANCH  30  31
ENDBRANCH   1  30
TORSDOF 17
