REMARK VINA RESULT:    -5.066      3.627      5.781
REMARK INTER + INTRA:         -10.604
REMARK INTER:                  -8.325
REMARK INTRA:                  -2.279
REMARK UNBOUND:                -1.837
REMARK  Name = lig_assembled_2.pdb
REMARK  16 active torsions:
REMARK  status: ('A' for Active; 'I' for Inactive)
REMARK    1  A    between atoms: _2  and  _9
REMARK    2  A    between atoms: _4  and  _18
REMARK    3  A    between atoms: _6  and  _7
REMARK    4  A    between atoms: _6  and  _18
REMARK    5  A    between atoms: _14  and  _34
REMARK    6  A    between atoms: _16  and  _22
REMARK    7  A    between atoms: _17  and  _21
REMARK    8  A    between atoms: _21  and  _22
REMARK    9  A    between atoms: _24  and  _25
REMARK   10  A    between atoms: _26  and  _27
REMARK   11  A    between atoms: _28  and  _30
REMARK   12  A    between atoms: _30  and  _31
REMARK   13  A    between atoms: _30  and  _32
REMARK   14  A    between atoms: _32  and  _33
REMARK   15  A    between atoms: _32  and  _34
REMARK   16  A    between atoms: _35  and  _37
REMARK                            x       y       z     vdW  Elec       q    Type
REMARK                         _______ _______ _______ _____ _____    ______ ____
ROOT
ATOM      1  C   UNL     1      -5.854  10.552  16.536  0.00  0.00    +0.163 C 
ENDROOT
BRANCH   1   2
ATOM      2  O   UNL     1      -5.021  11.701  16.309  0.00  0.00    -0.388 OA
ATOM      3  H   UNL     1      -4.812  12.117  17.149  0.00  0.00    +0.210 HD
ENDBRANCH   1   2
BRANCH   1   4
ATOM      4  C   UNL     1      -6.523  10.655  17.903  0.00  0.00    +0.141 C 
BRANCH   4   7
ATOM      5  C   UNL     1      -4.806  10.919  19.660  0.00  0.00    +0.401 C 
ATOM      6  O   UNL     1      -4.649  12.125  19.457  0.00  0.00    -0.226 OA
ATOM      7  N   UNL     1      -5.657  10.153  18.976  0.00  0.00    -0.279 N 
ATOM      8  H   UNL     1      -5.708   9.171  19.210  0.00  0.00    +0.152 HD
BRANCH   5   9
ATOM      9  O   UNL     1      -4.037  10.281  20.683  0.00  0.00    -0.444 OA
BRANCH   9  10
ATOM     10  C   UNL     1      -3.237  11.256  21.357  0.00  0.00    +0.292 C 
BRANCH  10  12
ATOM     11  N   UNL     1      -2.998  10.072  23.517  0.00  0.00    -0.131 NA
ATOM     12  C   UNL     1      -3.434  11.159  22.816  0.00  0.00    +0.121 A 
ATOM     13  C   UNL     1      -4.024  12.048  23.686  0.00  0.00    +0.143 A 
ATOM     14  N   UNL     1      -3.898  11.467  24.927  0.00  0.00    -0.220 N 
ATOM     15  N   UNL     1      -3.289  10.263  24.797  0.00  0.00    -0.060 NA
BRANCH  14  16
ATOM     16  C   UNL     1      -4.282  11.984  26.192  0.00  0.00    +0.067 A 
ATOM     17  C   UNL     1      -5.396  12.826  26.319  0.00  0.00    +0.029 A 
ATOM     18  C   UNL     1      -5.735  13.354  27.569  0.00  0.00    +0.022 A 
ATOM     19  C   UNL     1      -4.968  13.044  28.691  0.00  0.00    +0.041 A 
ATOM     20 CL   UNL     1      -5.380  13.717  30.219  0.00  0.00    -0.084 Cl
ATOM     21  C   UNL     1      -3.868  12.197  28.578  0.00  0.00    +0.022 A 
ATOM     22  C   UNL     1      -3.524  11.664  27.332  0.00  0.00    +0.029 A 
ENDBRANCH  14  16
ENDBRANCH  10  12
ENDBRANCH   9  10
ENDBRANCH   5   9
ENDBRANCH   4   7
ENDBRANCH   1   4
BRANCH   1  23
ATOM     23  C   UNL     1      -5.032   9.254  16.463  0.00  0.00    +0.175 C 
BRANCH  23  24
ATOM     24  C   UNL     1      -4.051   9.256  15.281  0.00  0.00    +0.176 C 
ATOM     25  O   UNL     1      -4.728   9.849  14.139  0.00  0.00    -0.332 OA
ATOM     26  C   UNL     1      -3.906  10.032  12.940  0.00  0.00    +0.277 C 
ATOM     27  C   UNL     1      -3.251   8.693  12.522  0.00  0.00    +0.110 C 
ATOM     28  C   UNL     1      -2.545   8.009  13.712  0.00  0.00    +0.143 C 
ATOM     29  C   UNL     1      -3.490   7.872  14.906  0.00  0.00    +0.133 C 
BRANCH  29  30
ATOM     30  N   UNL     1      -2.782   7.299  16.061  0.00  0.00    -0.308 N 
ATOM     31  H   UNL     1      -2.043   7.846  16.480  0.00  0.00    +0.149 HD
ATOM     32  C   UNL     1      -3.051   6.103  16.592  0.00  0.00    +0.210 C 
ATOM     33  C   UNL     1      -4.165   5.283  15.915  0.00  0.00    +0.109 C 
ATOM     34  O   UNL     1      -2.451   5.655  17.570  0.00  0.00    -0.276 OA
ENDBRANCH  29  30
BRANCH  26  35
ATOM     35  C   UNL     1      -2.808  11.088  13.185  0.00  0.00    +0.414 C 
ATOM     36  O   UNL     1      -1.778  11.081  12.512  0.00  0.00    -0.240 OA
ATOM     37  O   UNL     1      -2.952  11.948  14.056  0.00  0.00    -0.240 OA
ENDBRANCH  26  35
BRANCH  28  38
ATOM     38  O   UNL     1      -2.088   6.713  13.322  0.00  0.00    -0.390 OA
ATOM     39  H   UNL     1      -1.491   6.369  13.990  0.00  0.00    +0.210 HD
ENDBRANCH  28  38
BRANCH  26  40
ATOM     40  O   UNL     1      -4.774  10.472  11.863  0.00  0.00    -0.343 OA
ATOM     41  C   UNL     1      -5.645   9.447  11.322  0.00  0.00    +0.198 C 
ENDBRANCH  26  40
ENDBRANCH  23  24
BRANCH  23  42
ATOM     42  O   UNL     1      -5.910   8.114  16.377  0.00  0.00    -0.387 OA
ATOM     43  H   UNL     1      -5.499   7.359  16.804  0.00  0.00    +0.210 HD
ENDBRANCH  23  42
ENDBRANCH   1  23
TORSDOF 14
