REMARK VINA RESULT:    -4.865      3.769      6.626
REMARK INTER + INTRA:         -11.334
REMARK INTER:                  -7.912
REMARK INTRA:                  -3.422
REMARK UNBOUND:                -2.913
REMARK  Name = lig_assembled_93.pdb
REMARK  16 active torsions:
REMARK  status: ('A' for Active; 'I' for Inactive)
REMARK    1  A    between atoms: _2  and  _9
REMARK    2  A    between atoms: _4  and  _18
REMARK    3  A    between atoms: _6  and  _7
REMARK    4  A    between atoms: _6  and  _18
REMARK    5  A    between atoms: _14  and  _34
REMARK    6  A    between atoms: _16  and  _22
REMARK    7  A    between atoms: _17  and  _21
REMARK    8  A    between atoms: _21  and  _22
REMARK    9  A    between atoms: _24  and  _25
REMARK   10  A    between atoms: _26  and  _27
REMARK   11  A    between atoms: _28  and  _30
REMARK   12  A    between atoms: _30  and  _31
REMARK   13  A    between atoms: _30  and  _32
REMARK   14  A    between atoms: _32  and  _33
REMARK   15  A    between atoms: _32  and  _34
REMARK   16  A    between atoms: _35  and  _37
REMARK                            x       y       z     vdW  Elec       q    Type
REMARK                         _______ _______ _______ _____ _____    ______ ____
ROOT
ATOM      1  C   UNL     1      -3.160  10.889  21.630  0.00  0.00    +0.163 C 
ENDROOT
BRANCH   1   2
ATOM      2  O   UNL     1      -2.887  12.075  22.394  0.00  0.00    -0.388 OA
ATOM      3  H   UNL     1      -2.667  12.796  21.799  0.00  0.00    +0.210 HD
ENDBRANCH   1   2
BRANCH   1   4
ATOM      4  C   UNL     1      -3.823  11.261  20.308  0.00  0.00    +0.141 C 
BRANCH   4   7
ATOM      5  C   UNL     1      -6.051  12.326  20.211  0.00  0.00    +0.401 C 
ATOM      6  O   UNL     1      -6.625  11.306  19.821  0.00  0.00    -0.226 OA
ATOM      7  N   UNL     1      -4.742  12.396  20.457  0.00  0.00    -0.279 N 
ATOM      8  H   UNL     1      -4.362  13.281  20.763  0.00  0.00    +0.152 HD
BRANCH   5   9
ATOM      9  O   UNL     1      -6.814  13.518  20.413  0.00  0.00    -0.444 OA
BRANCH   9  10
ATOM     10  C   UNL     1      -7.768  13.304  21.456  0.00  0.00    +0.292 C 
BRANCH  10  12
ATOM     11  N   UNL     1      -5.893  13.234  23.058  0.00  0.00    -0.131 NA
ATOM     12  C   UNL     1      -7.167  13.605  22.769  0.00  0.00    +0.121 A 
ATOM     13  C   UNL     1      -7.698  14.258  23.857  0.00  0.00    +0.143 A 
ATOM     14  N   UNL     1      -6.689  14.281  24.806  0.00  0.00    -0.219 N 
ATOM     15  N   UNL     1      -5.618  13.640  24.288  0.00  0.00    -0.060 NA
BRANCH  14  16
ATOM     16  C   UNL     1      -6.713  14.874  26.107  0.00  0.00    +0.080 A 
ATOM     17  C   UNL     1      -6.598  14.010  27.223  0.00  0.00    +0.029 A 
ATOM     18  C   UNL     1      -6.630  14.493  28.534  0.00  0.00    +0.002 A 
ATOM     19  C   UNL     1      -6.775  15.849  28.769  0.00  0.00    +0.001 A 
ATOM     20  C   UNL     1      -6.884  16.724  27.691  0.00  0.00    +0.016 A 
ATOM     21  C   UNL     1      -6.852  16.255  26.360  0.00  0.00    +0.039 A 
ATOM     22  I   UNL     1      -7.034  17.822  24.949  0.00  0.00    -0.042 I 
ENDBRANCH  14  16
ENDBRANCH  10  12
ENDBRANCH   9  10
ENDBRANCH   5   9
ENDBRANCH   4   7
ENDBRANCH   1   4
BRANCH   1  23
ATOM     23  C   UNL     1      -4.075   9.929  22.411  0.00  0.00    +0.175 C 
BRANCH  23  24
ATOM     24  C   UNL     1      -4.158  10.295  23.900  0.00  0.00    +0.176 C 
ATOM     25  O   UNL     1      -2.988   9.741  24.563  0.00  0.00    -0.332 OA
ATOM     26  C   UNL     1      -2.842  10.082  25.981  0.00  0.00    +0.277 C 
ATOM     27  C   UNL     1      -4.120   9.693  26.765  0.00  0.00    +0.110 C 
ATOM     28  C   UNL     1      -5.394  10.233  26.081  0.00  0.00    +0.143 C 
ATOM     29  C   UNL     1      -5.442   9.823  24.609  0.00  0.00    +0.133 C 
BRANCH  29  30
ATOM     30  N   UNL     1      -6.614  10.415  23.947  0.00  0.00    -0.308 N 
ATOM     31  H   UNL     1      -6.692  11.423  23.937  0.00  0.00    +0.149 HD
ATOM     32  C   UNL     1      -7.583   9.709  23.358  0.00  0.00    +0.210 C 
ATOM     33  C   UNL     1      -7.450   8.176  23.413  0.00  0.00    +0.109 C 
ATOM     34  O   UNL     1      -8.547  10.233  22.798  0.00  0.00    -0.276 OA
ENDBRANCH  29  30
BRANCH  26  35
ATOM     35  C   UNL     1      -2.568  11.590  26.156  0.00  0.00    +0.414 C 
ATOM     36  O   UNL     1      -2.031  12.231  25.254  0.00  0.00    -0.240 OA
ATOM     37  O   UNL     1      -2.884  12.164  27.199  0.00  0.00    -0.240 OA
ENDBRANCH  26  35
BRANCH  28  38
ATOM     38  O   UNL     1      -6.550   9.727  26.748  0.00  0.00    -0.390 OA
ATOM     39  H   UNL     1      -6.854  10.369  27.394  0.00  0.00    +0.210 HD
ENDBRANCH  28  38
BRANCH  26  40
ATOM     40  O   UNL     1      -1.729   9.318  26.514  0.00  0.00    -0.343 OA
ATOM     41  C   UNL     1      -1.998   8.635  27.764  0.00  0.00    +0.198 C 
ENDBRANCH  26  40
ENDBRANCH  23  24
BRANCH  23  42
ATOM     42  O   UNL     1      -3.616   8.571  22.257  0.00  0.00    -0.387 OA
ATOM     43  H   UNL     1      -2.931   8.539  21.586  0.00  0.00    +0.210 HD
ENDBRANCH  23  42
ENDBRANCH   1  23
TORSDOF 14
