REMARK VINA RESULT:    -5.159      2.709      8.298
REMARK INTER + INTRA:         -12.099
REMARK INTER:                  -7.396
REMARK INTRA:                  -4.703
REMARK UNBOUND:                -2.869
REMARK  Name = lig_assembled_71.pdb
REMARK  17 active torsions:
REMARK  status: ('A' for Active; 'I' for Inactive)
REMARK    1  A    between atoms: _2  and  _12
REMARK    2  A    between atoms: _7  and  _22
REMARK    3  A    between atoms: _9  and  _10
REMARK    4  A    between atoms: _9  and  _22
REMARK    5  A    between atoms: _12  and  _13
REMARK    6  A    between atoms: _18  and  _38
REMARK    7  A    between atoms: _20  and  _26
REMARK    8  A    between atoms: _21  and  _25
REMARK    9  A    between atoms: _25  and  _26
REMARK   10  A    between atoms: _28  and  _29
REMARK   11  A    between atoms: _30  and  _31
REMARK   12  A    between atoms: _32  and  _34
REMARK   13  A    between atoms: _34  and  _35
REMARK   14  A    between atoms: _34  and  _36
REMARK   15  A    between atoms: _36  and  _37
REMARK   16  A    between atoms: _36  and  _38
REMARK   17  A    between atoms: _39  and  _41
REMARK                            x       y       z     vdW  Elec       q    Type
REMARK                         _______ _______ _______ _____ _____    ______ ____
ROOT
ATOM      1  C   UNL     1      -6.307  12.310  26.130  0.00  0.00    +0.163 C 
ENDROOT
BRANCH   1   2
ATOM      2  O   UNL     1      -5.417  11.894  25.081  0.00  0.00    -0.388 OA
ATOM      3  H   UNL     1      -5.451  12.529  24.362  0.00  0.00    +0.210 HD
ENDBRANCH   1   2
BRANCH   1   4
ATOM      4  C   UNL     1      -7.048  13.576  25.714  0.00  0.00    +0.141 C 
BRANCH   4   7
ATOM      5  C   UNL     1      -6.730  15.218  23.896  0.00  0.00    +0.401 C 
ATOM      6  O   UNL     1      -6.978  16.195  24.607  0.00  0.00    -0.226 OA
ATOM      7  N   UNL     1      -6.746  13.957  24.329  0.00  0.00    -0.279 N 
ATOM      8  H   UNL     1      -6.538  13.223  23.667  0.00  0.00    +0.152 HD
BRANCH   5   9
ATOM      9  O   UNL     1      -6.408  15.426  22.518  0.00  0.00    -0.444 OA
BRANCH   9  10
ATOM     10  C   UNL     1      -4.996  15.606  22.380  0.00  0.00    +0.292 C 
BRANCH  10  12
ATOM     11  N   UNL     1      -3.678  13.884  23.590  0.00  0.00    -0.131 NA
ATOM     12  C   UNL     1      -4.304  14.305  22.444  0.00  0.00    +0.120 A 
ATOM     13  C   UNL     1      -4.159  13.340  21.476  0.00  0.00    +0.137 A 
ATOM     14  N   UNL     1      -3.424  12.364  22.083  0.00  0.00    -0.242 N 
ATOM     15  N   UNL     1      -3.150  12.689  23.360  0.00  0.00    -0.065 NA
BRANCH  14  16
ATOM     16  C   UNL     1      -3.046  11.063  21.569  0.00  0.00    +0.241 C 
BRANCH  16  17
ATOM     17  C   UNL     1      -4.199  10.093  21.600  0.00  0.00    +0.241 C 
ATOM     18  O   UNL     1      -4.618   9.601  20.554  0.00  0.00    -0.273 OA
ATOM     19  N   UNL     1      -4.748   9.896  22.849  0.00  0.00    -0.253 N 
ATOM     20  H   UNL     1      -4.504  10.472  23.640  0.00  0.00    +0.158 HD
ATOM     21  C   UNL     1      -5.802   9.026  23.104  0.00  0.00    +0.221 A 
ATOM     22  N   UNL     1      -6.393   9.175  24.299  0.00  0.00    -0.223 NA
ATOM     23  C   UNL     1      -7.466   8.389  24.534  0.00  0.00    +0.116 A 
ATOM     24  C   UNL     1      -7.941   7.457  23.643  0.00  0.00    +0.039 A 
ATOM     25  C   UNL     1      -7.235   7.355  22.473  0.00  0.00    +0.116 A 
ATOM     26  N   UNL     1      -6.173   8.124  22.190  0.00  0.00    -0.223 NA
ENDBRANCH  16  17
ENDBRANCH  14  16
ENDBRANCH  10  12
ENDBRANCH   9  10
ENDBRANCH   5   9
ENDBRANCH   4   7
ENDBRANCH   1   4
BRANCH   1  27
ATOM     27  C   UNL     1      -5.535  12.571  27.435  0.00  0.00    +0.175 C 
BRANCH  27  28
ATOM     28  C   UNL     1      -4.424  11.536  27.667  0.00  0.00    +0.176 C 
ATOM     29  O   UNL     1      -4.919  10.242  27.224  0.00  0.00    -0.332 OA
ATOM     30  C   UNL     1      -3.951   9.143  27.271  0.00  0.00    +0.277 C 
ATOM     31  C   UNL     1      -3.348   9.014  28.692  0.00  0.00    +0.110 C 
ATOM     32  C   UNL     1      -2.836  10.372  29.218  0.00  0.00    +0.143 C 
ATOM     33  C   UNL     1      -3.923  11.443  29.120  0.00  0.00    +0.133 C 
BRANCH  33  34
ATOM     34  N   UNL     1      -3.397  12.750  29.543  0.00  0.00    -0.308 N 
ATOM     35  H   UNL     1      -2.720  13.202  28.944  0.00  0.00    +0.149 HD
ATOM     36  C   UNL     1      -3.756  13.379  30.665  0.00  0.00    +0.210 C 
ATOM     37  C   UNL     1      -4.771  12.652  31.568  0.00  0.00    +0.109 C 
ATOM     38  O   UNL     1      -3.310  14.481  30.987  0.00  0.00    -0.276 OA
ENDBRANCH  33  34
BRANCH  30  39
ATOM     39  C   UNL     1      -2.818   9.367  26.248  0.00  0.00    +0.414 C 
ATOM     40  O   UNL     1      -3.028  10.011  25.221  0.00  0.00    -0.240 OA
ATOM     41  O   UNL     1      -1.694   8.905  26.450  0.00  0.00    -0.240 OA
ENDBRANCH  30  39
BRANCH  30  42
ATOM     42  O   UNL     1      -4.653   7.912  26.960  0.00  0.00    -0.343 OA
ATOM     43  C   UNL     1      -5.006   7.101  28.109  0.00  0.00    +0.198 C 
ENDBRANCH  30  42
BRANCH  32  44
ATOM     44  O   UNL     1      -2.430  10.237  30.581  0.00  0.00    -0.390 OA
ATOM     45  H   UNL     1      -2.473  11.093  31.014  0.00  0.00    +0.210 HD
ENDBRANCH  32  44
ENDBRANCH  27  28
BRANCH  27  46
ATOM     46  O   UNL     1      -6.443  12.584  28.555  0.00  0.00    -0.387 OA
ATOM     47  H   UNL     1      -7.017  13.351  28.493  0.00  0.00    +0.210 HD
ENDBRANCH  27  46
ENDBRANCH   1  27
TORSDOF 15
