REMARK VINA RESULT:    -3.804      2.334      8.126
REMARK INTER + INTRA:         -11.024
REMARK INTER:                  -8.662
REMARK INTRA:                  -2.363
REMARK UNBOUND:                -4.108
REMARK  Name = lig_assembled_53.pdb
REMARK  18 active torsions:
REMARK  status: ('A' for Active; 'I' for Inactive)
REMARK    1  A    between atoms: _2  and  _9
REMARK    2  A    between atoms: _4  and  _16
REMARK    3  A    between atoms: _5  and  _9
REMARK    4  A    between atoms: _5  and  _10
REMARK    5  A    between atoms: _6  and  _7
REMARK    6  A    between atoms: _6  and  _16
REMARK    7  A    between atoms: _12  and  _32
REMARK    8  A    between atoms: _14  and  _20
REMARK    9  A    between atoms: _15  and  _19
REMARK   10  A    between atoms: _19  and  _20
REMARK   11  A    between atoms: _22  and  _23
REMARK   12  A    between atoms: _24  and  _25
REMARK   13  A    between atoms: _26  and  _28
REMARK   14  A    between atoms: _28  and  _29
REMARK   15  A    between atoms: _28  and  _30
REMARK   16  A    between atoms: _30  and  _31
REMARK   17  A    between atoms: _30  and  _32
REMARK   18  A    between atoms: _33  and  _35
REMARK                            x       y       z     vdW  Elec       q    Type
REMARK                         _______ _______ _______ _____ _____    ______ ____
ROOT
ATOM      1  C   UNL     1      -5.625   9.477  23.271  0.00  0.00    +0.175 C 
ENDROOT
BRANCH   1   2
ATOM      2  C   UNL     1      -5.515  10.633  22.266  0.00  0.00    +0.176 C 
ATOM      3  O   UNL     1      -5.099  10.077  20.989  0.00  0.00    -0.332 OA
ATOM      4  C   UNL     1      -5.042  11.026  19.872  0.00  0.00    +0.277 C 
ATOM      5  C   UNL     1      -4.145  12.235  20.234  0.00  0.00    +0.110 C 
ATOM      6  C   UNL     1      -4.530  12.840  21.601  0.00  0.00    +0.143 C 
ATOM      7  C   UNL     1      -4.561  11.766  22.688  0.00  0.00    +0.133 C 
BRANCH   7   8
ATOM      8  N   UNL     1      -5.013  12.339  23.966  0.00  0.00    -0.308 N 
ATOM      9  H   UNL     1      -5.974  12.642  24.033  0.00  0.00    +0.149 HD
ATOM     10  C   UNL     1      -4.236  12.484  25.042  0.00  0.00    +0.210 C 
ATOM     11  C   UNL     1      -2.769  12.036  24.900  0.00  0.00    +0.109 C 
ATOM     12  O   UNL     1      -4.645  12.954  26.104  0.00  0.00    -0.276 OA
ENDBRANCH   7   8
BRANCH   4  13
ATOM     13  C   UNL     1      -6.456  11.524  19.506  0.00  0.00    +0.414 C 
ATOM     14  O   UNL     1      -7.446  11.030  20.044  0.00  0.00    -0.240 OA
ATOM     15  O   UNL     1      -6.606  12.419  18.674  0.00  0.00    -0.240 OA
ENDBRANCH   4  13
BRANCH   4  16
ATOM     16  O   UNL     1      -4.455  10.345  18.734  0.00  0.00    -0.343 OA
ATOM     17  C   UNL     1      -5.204   9.202  18.250  0.00  0.00    +0.198 C 
ENDBRANCH   4  16
BRANCH   6  18
ATOM     18  O   UNL     1      -3.587  13.850  21.963  0.00  0.00    -0.390 OA
ATOM     19  H   UNL     1      -3.064  14.091  21.194  0.00  0.00    +0.210 HD
ENDBRANCH   6  18
ENDBRANCH   1   2
BRANCH   1  20
ATOM     20  O   UNL     1      -6.315   9.915  24.458  0.00  0.00    -0.387 OA
ATOM     21  H   UNL     1      -6.016   9.400  25.211  0.00  0.00    +0.210 HD
ENDBRANCH   1  20
BRANCH   1  22
ATOM     22  C   UNL     1      -4.247   8.900  23.642  0.00  0.00    +0.163 C 
BRANCH  22  23
ATOM     23  O   UNL     1      -3.681   8.173  22.539  0.00  0.00    -0.388 OA
ATOM     24  H   UNL     1      -4.118   7.322  22.459  0.00  0.00    +0.210 HD
ENDBRANCH  22  23
BRANCH  22  25
ATOM     25  C   UNL     1      -4.388   7.985  24.853  0.00  0.00    +0.141 C 
BRANCH  25  28
ATOM     26  C   UNL     1      -2.795   8.550  26.656  0.00  0.00    +0.401 C 
ATOM     27  O   UNL     1      -1.882   7.862  26.193  0.00  0.00    -0.226 OA
ATOM     28  N   UNL     1      -4.001   8.660  26.098  0.00  0.00    -0.279 N 
ATOM     29  H   UNL     1      -4.688   9.242  26.558  0.00  0.00    +0.152 HD
BRANCH  26  30
ATOM     30  O   UNL     1      -2.570   9.279  27.865  0.00  0.00    -0.444 OA
BRANCH  30  31
ATOM     31  C   UNL     1      -3.703  10.107  28.141  0.00  0.00    +0.292 C 
BRANCH  31  33
ATOM     32  N   UNL     1      -2.918  10.144  30.490  0.00  0.00    -0.131 NA
ATOM     33  C   UNL     1      -3.553  10.769  29.450  0.00  0.00    +0.120 A 
ATOM     34  C   UNL     1      -3.971  12.014  29.862  0.00  0.00    +0.137 A 
ATOM     35  N   UNL     1      -3.621  12.064  31.178  0.00  0.00    -0.241 N 
ATOM     36  N   UNL     1      -2.946  10.955  31.538  0.00  0.00    -0.065 NA
BRANCH  35  37
ATOM     37  C   UNL     1      -3.727  13.147  32.134  0.00  0.00    +0.265 C 
BRANCH  37  38
ATOM     38  C   UNL     1      -2.514  14.032  32.241  0.00  0.00    +0.326 C 
ATOM     39  O   UNL     1      -2.465  15.148  32.738  0.00  0.00    -0.249 OA
BRANCH  38  40
ATOM     40  O   UNL     1      -1.406  13.465  31.694  0.00  0.00    -0.479 OA
ATOM     41  H   UNL     1      -1.513  12.552  31.365  0.00  0.00    +0.295 HD
ENDBRANCH  38  40
ENDBRANCH  37  38
ENDBRANCH  35  37
ENDBRANCH  31  33
ENDBRANCH  30  31
ENDBRANCH  26  30
ENDBRANCH  25  28
ENDBRANCH  22  25
ENDBRANCH   1  22
TORSDOF 16
