REMARK VINA RESULT:    -4.974      0.000      0.000
REMARK INTER + INTRA:         -15.407
REMARK INTER:                  -9.870
REMARK INTRA:                  -5.537
REMARK UNBOUND:                -3.746
REMARK  Name = lig_assembled_30.pdb
REMARK  27 active torsions:
REMARK  status: ('A' for Active; 'I' for Inactive)
REMARK    1  A    between atoms: _2  and  _9
REMARK    2  A    between atoms: _4  and  _25
REMARK    3  A    between atoms: _5  and  _18
REMARK    4  A    between atoms: _5  and  _19
REMARK    5  A    between atoms: _6  and  _7
REMARK    6  A    between atoms: _6  and  _25
REMARK    7  A    between atoms: _9  and  _10
REMARK    8  A    between atoms: _10  and  _11
REMARK    9  A    between atoms: _11  and  _12
REMARK   10  A    between atoms: _12  and  _13
REMARK   11  A    between atoms: _13  and  _14
REMARK   12  A    between atoms: _14  and  _15
REMARK   13  A    between atoms: _15  and  _16
REMARK   14  A    between atoms: _16  and  _17
REMARK   15  A    between atoms: _17  and  _18
REMARK   16  A    between atoms: _21  and  _41
REMARK   17  A    between atoms: _23  and  _29
REMARK   18  A    between atoms: _24  and  _28
REMARK   19  A    between atoms: _28  and  _29
REMARK   20  A    between atoms: _31  and  _32
REMARK   21  A    between atoms: _33  and  _34
REMARK   22  A    between atoms: _35  and  _37
REMARK   23  A    between atoms: _37  and  _38
REMARK   24  A    between atoms: _37  and  _39
REMARK   25  A    between atoms: _39  and  _40
REMARK   26  A    between atoms: _39  and  _41
REMARK   27  A    between atoms: _42  and  _44
REMARK                            x       y       z     vdW  Elec       q    Type
REMARK                         _______ _______ _______ _____ _____    ______ ____
ROOT
ATOM      1  C   UNL     1      -3.917   6.932  23.436  0.00  0.00    +0.401 C 
ATOM      2  O   UNL     1      -3.686   7.536  22.386  0.00  0.00    -0.226 OA
ATOM      3  N   UNL     1      -5.134   6.795  23.964  0.00  0.00    -0.279 N 
ATOM      4  H   UNL     1      -5.225   6.273  24.824  0.00  0.00    +0.152 HD
ENDROOT
BRANCH   1   5
ATOM      5  O   UNL     1      -2.831   6.331  24.145  0.00  0.00    -0.444 OA
BRANCH   5   6
ATOM      6  C   UNL     1      -3.320   5.728  25.346  0.00  0.00    +0.292 C 
BRANCH   6   8
ATOM      7  N   UNL     1      -1.820   7.384  26.411  0.00  0.00    -0.131 NA
ATOM      8  C   UNL     1      -2.830   6.465  26.525  0.00  0.00    +0.120 A 
ATOM      9  C   UNL     1      -3.231   6.395  27.841  0.00  0.00    +0.137 A 
ATOM     10  N   UNL     1      -2.426   7.293  28.473  0.00  0.00    -0.251 N 
ATOM     11  N   UNL     1      -1.579   7.886  27.616  0.00  0.00    -0.065 NA
BRANCH  10  12
ATOM     12  C   UNL     1      -2.379   7.606  29.885  0.00  0.00    +0.145 C 
BRANCH  12  13
ATOM     13  C   UNL     1      -2.991   8.973  30.169  0.00  0.00    +0.023 C 
BRANCH  13  14
ATOM     14  C   UNL     1      -3.875   8.958  31.414  0.00  0.00    +0.002 C 
BRANCH  14  15
ATOM     15  C   UNL     1      -3.898  10.342  32.061  0.00  0.00    +0.000 C 
BRANCH  15  16
ATOM     16  C   UNL     1      -2.524  11.005  32.031  0.00  0.00    +0.000 C 
BRANCH  16  17
ATOM     17  C   UNL     1      -2.651  12.522  32.177  0.00  0.00    +0.000 C 
BRANCH  17  18
ATOM     18  C   UNL     1      -2.960  13.175  30.832  0.00  0.00    +0.000 C 
BRANCH  18  19
ATOM     19  C   UNL     1      -4.295  13.918  30.860  0.00  0.00    +0.001 C 
BRANCH  19  20
ATOM     20  C   UNL     1      -5.148  13.529  29.653  0.00  0.00    +0.011 C 
BRANCH  20  21
ATOM     21  C   UNL     1      -4.650  12.245  28.993  0.00  0.00    +0.120 C 
BRANCH  21  22
ATOM     22  C   UNL     1      -5.768  11.244  28.818  0.00  0.00    +0.305 C 
ATOM     23  O   UNL     1      -6.473  10.805  29.714  0.00  0.00    -0.251 OA
BRANCH  22  24
ATOM     24  O   UNL     1      -5.922  10.864  27.529  0.00  0.00    -0.481 OA
ATOM     25  H   UNL     1      -5.096  10.893  27.011  0.00  0.00    +0.295 HD
ENDBRANCH  22  24
ENDBRANCH  21  22
ENDBRANCH  20  21
ENDBRANCH  19  20
ENDBRANCH  18  19
ENDBRANCH  17  18
ENDBRANCH  16  17
ENDBRANCH  15  16
ENDBRANCH  14  15
ENDBRANCH  13  14
ENDBRANCH  12  13
ENDBRANCH  10  12
ENDBRANCH   6   8
ENDBRANCH   5   6
ENDBRANCH   1   5
BRANCH   3  26
ATOM     26  C   UNL     1      -6.350   7.359  23.365  0.00  0.00    +0.141 C 
BRANCH  26  27
ATOM     27  C   UNL     1      -6.773   8.654  24.051  0.00  0.00    +0.163 C 
BRANCH  27  28
ATOM     28  O   UNL     1      -6.036   8.827  25.272  0.00  0.00    -0.388 OA
ATOM     29  H   UNL     1      -6.093   8.025  25.797  0.00  0.00    +0.210 HD
ENDBRANCH  27  28
BRANCH  27  30
ATOM     30  C   UNL     1      -6.544   9.839  23.097  0.00  0.00    +0.175 C 
BRANCH  30  31
ATOM     31  C   UNL     1      -5.194  10.529  23.347  0.00  0.00    +0.176 C 
ATOM     32  O   UNL     1      -5.375  11.486  24.427  0.00  0.00    -0.332 OA
ATOM     33  C   UNL     1      -4.159  12.170  24.878  0.00  0.00    +0.277 C 
ATOM     34  C   UNL     1      -3.449  12.855  23.685  0.00  0.00    +0.110 C 
ATOM     35  C   UNL     1      -3.264  11.885  22.499  0.00  0.00    +0.143 C 
ATOM     36  C   UNL     1      -4.590  11.228  22.115  0.00  0.00    +0.133 C 
BRANCH  36  37
ATOM     37  N   UNL     1      -4.385  10.242  21.042  0.00  0.00    -0.308 N 
ATOM     38  H   UNL     1      -3.841   9.418  21.256  0.00  0.00    +0.149 HD
ATOM     39  C   UNL     1      -4.871  10.365  19.804  0.00  0.00    +0.210 C 
ATOM     40  C   UNL     1      -5.674  11.644  19.502  0.00  0.00    +0.109 C 
ATOM     41  O   UNL     1      -4.695   9.516  18.929  0.00  0.00    -0.276 OA
ENDBRANCH  36  37
BRANCH  33  42
ATOM     42  C   UNL     1      -3.190  11.175  25.552  0.00  0.00    +0.414 C 
ATOM     43  O   UNL     1      -3.622  10.156  26.089  0.00  0.00    -0.240 OA
ATOM     44  O   UNL     1      -1.978  11.392  25.558  0.00  0.00    -0.240 OA
ENDBRANCH  33  42
BRANCH  35  45
ATOM     45  O   UNL     1      -2.747  12.595  21.372  0.00  0.00    -0.390 OA
ATOM     46  H   UNL     1      -3.083  13.494  21.378  0.00  0.00    +0.210 HD
ENDBRANCH  35  45
BRANCH  33  47
ATOM     47  O   UNL     1      -4.547  13.194  25.829  0.00  0.00    -0.343 OA
ATOM     48  C   UNL     1      -5.869  13.752  25.623  0.00  0.00    +0.198 C 
ENDBRANCH  33  47
ENDBRANCH  30  31
BRANCH  30  49
ATOM     49  O   UNL     1      -7.619  10.792  23.220  0.00  0.00    -0.387 OA
ATOM     50  H   UNL     1      -8.334  10.403  23.731  0.00  0.00    +0.210 HD
ENDBRANCH  30  49
ENDBRANCH  27  30
ENDBRANCH  26  27
ENDBRANCH   3  26
TORSDOF 25
