REMARK VINA RESULT:    -4.820      4.333      7.741
REMARK INTER + INTRA:         -11.379
REMARK INTER:                  -8.873
REMARK INTRA:                  -2.506
REMARK UNBOUND:                -2.756
REMARK  Name = lig_assembled_41.pdb
REMARK  18 active torsions:
REMARK  status: ('A' for Active; 'I' for Inactive)
REMARK    1  A    between atoms: _2  and  _9
REMARK    2  A    between atoms: _4  and  _21
REMARK    3  A    between atoms: _6  and  _7
REMARK    4  A    between atoms: _6  and  _21
REMARK    5  A    between atoms: _10  and  _11
REMARK    6  A    between atoms: _11  and  _12
REMARK    7  A    between atoms: _17  and  _37
REMARK    8  A    between atoms: _19  and  _25
REMARK    9  A    between atoms: _20  and  _24
REMARK   10  A    between atoms: _24  and  _25
REMARK   11  A    between atoms: _27  and  _28
REMARK   12  A    between atoms: _29  and  _30
REMARK   13  A    between atoms: _31  and  _33
REMARK   14  A    between atoms: _33  and  _34
REMARK   15  A    between atoms: _33  and  _35
REMARK   16  A    between atoms: _35  and  _36
REMARK   17  A    between atoms: _35  and  _37
REMARK   18  A    between atoms: _38  and  _40
REMARK                            x       y       z     vdW  Elec       q    Type
REMARK                         _______ _______ _______ _____ _____    ______ ____
ROOT
ATOM      1  C   UNL     1      -5.558  10.915  16.850  0.00  0.00    +0.163 C 
ENDROOT
BRANCH   1   2
ATOM      2  O   UNL     1      -4.653  11.999  16.583  0.00  0.00    -0.388 OA
ATOM      3  H   UNL     1      -4.612  12.156  15.637  0.00  0.00    +0.210 HD
ENDBRANCH   1   2
BRANCH   1   4
ATOM      4  C   UNL     1      -6.092  11.020  18.275  0.00  0.00    +0.141 C 
BRANCH   4   7
ATOM      5  C   UNL     1      -4.588  10.925  20.233  0.00  0.00    +0.401 C 
ATOM      6  O   UNL     1      -4.636  12.138  20.448  0.00  0.00    -0.226 OA
ATOM      7  N   UNL     1      -5.232  10.318  19.236  0.00  0.00    -0.279 N 
ATOM      8  H   UNL     1      -5.123   9.319  19.135  0.00  0.00    +0.152 HD
BRANCH   5   9
ATOM      9  O   UNL     1      -3.796  10.099  21.091  0.00  0.00    -0.444 OA
BRANCH   9  10
ATOM     10  C   UNL     1      -4.596   9.638  22.182  0.00  0.00    +0.292 C 
BRANCH  10  12
ATOM     11  N   UNL     1      -2.818  10.717  23.508  0.00  0.00    -0.131 NA
ATOM     12  C   UNL     1      -4.028  10.092  23.464  0.00  0.00    +0.121 A 
ATOM     13  C   UNL     1      -4.540  10.015  24.741  0.00  0.00    +0.143 A 
ATOM     14  N   UNL     1      -3.550  10.515  25.556  0.00  0.00    -0.219 N 
ATOM     15  N   UNL     1      -2.558  11.019  24.771  0.00  0.00    -0.060 NA
BRANCH  14  16
ATOM     16  C   UNL     1      -3.496  10.661  26.972  0.00  0.00    +0.077 A 
ATOM     17  C   UNL     1      -3.246   9.610  27.879  0.00  0.00    +0.043 A 
ATOM     18  C   UNL     1      -3.271   9.887  29.262  0.00  0.00    +0.013 A 
ATOM     19  C   UNL     1      -3.544  11.171  29.741  0.00  0.00    +0.001 A 
ATOM     20  C   UNL     1      -3.765  12.209  28.848  0.00  0.00    +0.002 A 
ATOM     21  C   UNL     1      -3.730  11.960  27.477  0.00  0.00    +0.028 A 
BRANCH  17  22
ATOM     22  C   UNL     1      -2.748   8.260  27.474  0.00  0.00    +0.162 C 
ATOM     23  O   UNL     1      -1.603   8.145  27.043  0.00  0.00    -0.292 OA
ATOM     24  C   UNL     1      -3.642   7.050  27.597  0.00  0.00    +0.091 C 
ENDBRANCH  17  22
ENDBRANCH  14  16
ENDBRANCH  10  12
ENDBRANCH   9  10
ENDBRANCH   5   9
ENDBRANCH   4   7
ENDBRANCH   1   4
BRANCH   1  25
ATOM     25  C   UNL     1      -4.860   9.557  16.663  0.00  0.00    +0.175 C 
BRANCH  25  26
ATOM     26  C   UNL     1      -3.990   9.524  15.398  0.00  0.00    +0.176 C 
ATOM     27  O   UNL     1      -4.731  10.175  14.329  0.00  0.00    -0.332 OA
ATOM     28  C   UNL     1      -4.009  10.332  13.062  0.00  0.00    +0.277 C 
ATOM     29  C   UNL     1      -3.473   8.965  12.571  0.00  0.00    +0.110 C 
ATOM     30  C   UNL     1      -2.705   8.221  13.684  0.00  0.00    +0.143 C 
ATOM     31  C   UNL     1      -3.547   8.117  14.956  0.00  0.00    +0.133 C 
BRANCH  31  32
ATOM     32  N   UNL     1      -2.773   7.484  16.036  0.00  0.00    -0.308 N 
ATOM     33  H   UNL     1      -1.995   8.000  16.423  0.00  0.00    +0.149 HD
ATOM     34  C   UNL     1      -3.031   6.273  16.537  0.00  0.00    +0.210 C 
ATOM     35  C   UNL     1      -4.206   5.502  15.907  0.00  0.00    +0.109 C 
ATOM     36  O   UNL     1      -2.374   5.774  17.451  0.00  0.00    -0.276 OA
ENDBRANCH  31  32
BRANCH  28  37
ATOM     37  C   UNL     1      -2.834  11.319  13.221  0.00  0.00    +0.414 C 
ATOM     38  O   UNL     1      -2.867  12.187  14.092  0.00  0.00    -0.240 OA
ATOM     39  O   UNL     1      -1.854  11.248  12.478  0.00  0.00    -0.240 OA
ENDBRANCH  28  37
BRANCH  30  40
ATOM     40  O   UNL     1      -2.362   6.909  13.238  0.00  0.00    -0.390 OA
ATOM     41  H   UNL     1      -1.453   6.902  12.930  0.00  0.00    +0.210 HD
ENDBRANCH  30  40
BRANCH  28  42
ATOM     42  O   UNL     1      -4.943  10.839  12.074  0.00  0.00    -0.343 OA
ATOM     43  C   UNL     1      -6.026  11.641  12.609  0.00  0.00    +0.198 C 
ENDBRANCH  28  42
ENDBRANCH  25  26
BRANCH  25  44
ATOM     44  O   UNL     1      -5.837   8.498  16.621  0.00  0.00    -0.387 OA
ATOM     45  H   UNL     1      -5.391   7.655  16.512  0.00  0.00    +0.210 HD
ENDBRANCH  25  44
ENDBRANCH   1  25
TORSDOF 15
