REMARK VINA RESULT:    -4.643      0.000      0.000
REMARK INTER + INTRA:         -12.015
REMARK INTER:                  -8.054
REMARK INTRA:                  -3.961
REMARK UNBOUND:                -2.894
REMARK  Name = lig_assembled_17.pdb
REMARK  22 active torsions:
REMARK  status: ('A' for Active; 'I' for Inactive)
REMARK    1  A    between atoms: _2  and  _10
REMARK    2  A    between atoms: _3  and  _11
REMARK    3  A    between atoms: _3  and  _12
REMARK    4  A    between atoms: _3  and  _14
REMARK    5  A    between atoms: _5  and  _19
REMARK    6  A    between atoms: _6  and  _14
REMARK    7  A    between atoms: _7  and  _8
REMARK    8  A    between atoms: _7  and  _19
REMARK    9  A    between atoms: _10  and  _11
REMARK   10  A    between atoms: _12  and  _13
REMARK   11  A    between atoms: _15  and  _35
REMARK   12  A    between atoms: _17  and  _23
REMARK   13  A    between atoms: _18  and  _22
REMARK   14  A    between atoms: _22  and  _23
REMARK   15  A    between atoms: _25  and  _26
REMARK   16  A    between atoms: _27  and  _28
REMARK   17  A    between atoms: _29  and  _31
REMARK   18  A    between atoms: _31  and  _32
REMARK   19  A    between atoms: _31  and  _33
REMARK   20  A    between atoms: _33  and  _34
REMARK   21  A    between atoms: _33  and  _35
REMARK   22  A    between atoms: _36  and  _38
REMARK                            x       y       z     vdW  Elec       q    Type
REMARK                         _______ _______ _______ _____ _____    ______ ____
ROOT
ATOM      1  C   UNL     1      -2.948  11.293  23.116  0.00  0.00    +0.163 C 
ENDROOT
BRANCH   1   2
ATOM      2  O   UNL     1      -2.392  11.840  24.323  0.00  0.00    -0.388 OA
ATOM      3  H   UNL     1      -3.099  12.183  24.875  0.00  0.00    +0.210 HD
ENDBRANCH   1   2
BRANCH   1   4
ATOM      4  C   UNL     1      -3.865  10.097  23.425  0.00  0.00    +0.175 C 
BRANCH   4   5
ATOM      5  C   UNL     1      -3.852   9.729  24.916  0.00  0.00    +0.176 C 
ATOM      6  O   UNL     1      -2.882   8.662  25.104  0.00  0.00    -0.332 OA
ATOM      7  C   UNL     1      -2.655   8.249  26.493  0.00  0.00    +0.277 C 
ATOM      8  C   UNL     1      -3.994   7.865  27.169  0.00  0.00    +0.110 C 
ATOM      9  C   UNL     1      -5.067   8.956  26.969  0.00  0.00    +0.143 C 
ATOM     10  C   UNL     1      -5.219   9.311  25.489  0.00  0.00    +0.133 C 
BRANCH  10  11
ATOM     11  N   UNL     1      -6.180  10.412  25.319  0.00  0.00    -0.308 N 
ATOM     12  H   UNL     1      -5.976  11.290  25.774  0.00  0.00    +0.149 HD
ATOM     13  C   UNL     1      -7.305  10.325  24.603  0.00  0.00    +0.210 C 
ATOM     14  C   UNL     1      -7.600   8.965  23.944  0.00  0.00    +0.109 C 
ATOM     15  O   UNL     1      -8.084  11.269  24.467  0.00  0.00    -0.276 OA
ENDBRANCH  10  11
BRANCH   7  16
ATOM     16  C   UNL     1      -1.977   9.379  27.295  0.00  0.00    +0.414 C 
ATOM     17  O   UNL     1      -1.209  10.161  26.737  0.00  0.00    -0.240 OA
ATOM     18  O   UNL     1      -2.199   9.509  28.500  0.00  0.00    -0.240 OA
ENDBRANCH   7  16
BRANCH   9  19
ATOM     19  O   UNL     1      -6.321   8.497  27.474  0.00  0.00    -0.390 OA
ATOM     20  H   UNL     1      -6.230   8.274  28.403  0.00  0.00    +0.210 HD
ENDBRANCH   9  19
BRANCH   7  21
ATOM     21  O   UNL     1      -1.798   7.079  26.479  0.00  0.00    -0.343 OA
ATOM     22  C   UNL     1      -2.166   6.038  27.419  0.00  0.00    +0.198 C 
ENDBRANCH   7  21
ENDBRANCH   4   5
BRANCH   4  23
ATOM     23  O   UNL     1      -3.483   8.958  22.629  0.00  0.00    -0.387 OA
ATOM     24  H   UNL     1      -4.130   8.258  22.740  0.00  0.00    +0.210 HD
ENDBRANCH   4  23
ENDBRANCH   1   4
BRANCH   1  25
ATOM     25  C   UNL     1      -3.739  12.364  22.374  0.00  0.00    +0.141 C 
BRANCH  25  28
ATOM     26  C   UNL     1      -5.422  13.960  23.228  0.00  0.00    +0.401 C 
ATOM     27  O   UNL     1      -4.827  14.956  22.809  0.00  0.00    -0.226 OA
ATOM     28  N   UNL     1      -4.982  12.710  23.074  0.00  0.00    -0.279 N 
ATOM     29  H   UNL     1      -5.536  11.959  23.461  0.00  0.00    +0.152 HD
BRANCH  26  30
ATOM     30  O   UNL     1      -6.657  14.131  23.927  0.00  0.00    -0.444 OA
BRANCH  30  31
ATOM     31  C   UNL     1      -6.417  14.807  25.164  0.00  0.00    +0.292 C 
BRANCH  31  33
ATOM     32  N   UNL     1      -4.852  13.178  26.169  0.00  0.00    -0.131 NA
ATOM     33  C   UNL     1      -6.052  13.838  26.212  0.00  0.00    +0.120 A 
ATOM     34  C   UNL     1      -6.745  13.441  27.335  0.00  0.00    +0.137 A 
ATOM     35  N   UNL     1      -5.903  12.557  27.939  0.00  0.00    -0.250 N 
ATOM     36  N   UNL     1      -4.772  12.392  27.231  0.00  0.00    -0.065 NA
BRANCH  35  37
ATOM     37  C   UNL     1      -6.076  11.864  29.200  0.00  0.00    +0.160 C 
BRANCH  37  38
ATOM     38  C   UNL     1      -4.717  11.607  29.866  0.00  0.00    +0.107 C 
BRANCH  38  39
ATOM     39  N   UNL     1      -4.440  12.382  31.101  0.00  0.00    -0.301 NA
BRANCH  39  40
ATOM     40  C   UNL     1      -3.830  11.573  32.172  0.00  0.00    +0.081 C 
ATOM     41  C   UNL     1      -2.554  10.818  31.812  0.00  0.00    +0.020 C 
ENDBRANCH  39  40
BRANCH  39  42
ATOM     42  C   UNL     1      -3.647  13.577  30.745  0.00  0.00    +0.081 C 
ATOM     43  C   UNL     1      -4.459  14.856  30.570  0.00  0.00    +0.020 C 
ENDBRANCH  39  42
ENDBRANCH  38  39
ENDBRANCH  37  38
ENDBRANCH  35  37
ENDBRANCH  31  33
ENDBRANCH  30  31
ENDBRANCH  26  30
ENDBRANCH  25  28
ENDBRANCH   1  25
TORSDOF 18
