REMARK VINA RESULT:    -4.692      5.265      9.932
REMARK INTER + INTRA:         -10.627
REMARK INTER:                  -7.783
REMARK INTRA:                  -2.844
REMARK UNBOUND:                -2.505
REMARK  Name = lig_assembled_3.pdb
REMARK  16 active torsions:
REMARK  status: ('A' for Active; 'I' for Inactive)
REMARK    1  A    between atoms: _2  and  _9
REMARK    2  A    between atoms: _4  and  _18
REMARK    3  A    between atoms: _6  and  _7
REMARK    4  A    between atoms: _6  and  _18
REMARK    5  A    between atoms: _14  and  _34
REMARK    6  A    between atoms: _16  and  _22
REMARK    7  A    between atoms: _17  and  _21
REMARK    8  A    between atoms: _21  and  _22
REMARK    9  A    between atoms: _24  and  _25
REMARK   10  A    between atoms: _26  and  _27
REMARK   11  A    between atoms: _28  and  _30
REMARK   12  A    between atoms: _30  and  _31
REMARK   13  A    between atoms: _30  and  _32
REMARK   14  A    between atoms: _32  and  _33
REMARK   15  A    between atoms: _32  and  _34
REMARK   16  A    between atoms: _35  and  _37
REMARK                            x       y       z     vdW  Elec       q    Type
REMARK                         _______ _______ _______ _____ _____    ______ ____
ROOT
ATOM      1  C   UNL     1      -2.984  11.830  24.467  0.00  0.00    +0.163 C 
ENDROOT
BRANCH   1   2
ATOM      2  O   UNL     1      -3.306  11.878  25.866  0.00  0.00    -0.388 OA
ATOM      3  H   UNL     1      -2.665  11.361  26.361  0.00  0.00    +0.210 HD
ENDBRANCH   1   2
BRANCH   1   4
ATOM      4  C   UNL     1      -3.102  13.222  23.856  0.00  0.00    +0.141 C 
BRANCH   4   7
ATOM      5  C   UNL     1      -5.125  14.227  22.853  0.00  0.00    +0.401 C 
ATOM      6  O   UNL     1      -5.212  15.123  23.696  0.00  0.00    -0.226 OA
ATOM      7  N   UNL     1      -4.174  13.292  22.855  0.00  0.00    -0.279 N 
ATOM      8  H   UNL     1      -4.191  12.592  22.126  0.00  0.00    +0.152 HD
BRANCH   5   9
ATOM      9  O   UNL     1      -6.094  14.164  21.804  0.00  0.00    -0.444 OA
BRANCH   9  10
ATOM     10  C   UNL     1      -6.484  12.804  21.595  0.00  0.00    +0.292 C 
BRANCH  10  12
ATOM     11  N   UNL     1      -7.308  12.505  19.281  0.00  0.00    -0.131 NA
ATOM     12  C   UNL     1      -6.286  12.425  20.182  0.00  0.00    +0.121 A 
ATOM     13  C   UNL     1      -5.156  11.972  19.542  0.00  0.00    +0.143 A 
ATOM     14  N   UNL     1      -5.530  11.810  18.227  0.00  0.00    -0.220 N 
ATOM     15  N   UNL     1      -6.844  12.125  18.098  0.00  0.00    -0.060 NA
BRANCH  14  16
ATOM     16  C   UNL     1      -4.739  11.408  17.121  0.00  0.00    +0.067 A 
ATOM     17  C   UNL     1      -4.163  12.357  16.264  0.00  0.00    +0.028 A 
ATOM     18  C   UNL     1      -3.412  11.940  15.162  0.00  0.00    +0.002 A 
ATOM     19  C   UNL     1      -3.230  10.582  14.911  0.00  0.00    +0.000 A 
ATOM     20  C   UNL     1      -3.792   9.633  15.764  0.00  0.00    +0.002 A 
ATOM     21  C   UNL     1      -4.544  10.042  16.867  0.00  0.00    +0.028 A 
ENDBRANCH  14  16
ENDBRANCH  10  12
ENDBRANCH   9  10
ENDBRANCH   5   9
ENDBRANCH   4   7
ENDBRANCH   1   4
BRANCH   1  22
ATOM     22  C   UNL     1      -3.916  10.860  23.720  0.00  0.00    +0.175 C 
BRANCH  22  23
ATOM     23  C   UNL     1      -4.304   9.651  24.584  0.00  0.00    +0.176 C 
ATOM     24  O   UNL     1      -3.083   9.085  25.135  0.00  0.00    -0.332 OA
ATOM     25  C   UNL     1      -3.267   7.978  26.078  0.00  0.00    +0.277 C 
ATOM     26  C   UNL     1      -4.121   6.857  25.436  0.00  0.00    +0.110 C 
ATOM     27  C   UNL     1      -5.415   7.415  24.808  0.00  0.00    +0.143 C 
ATOM     28  C   UNL     1      -5.107   8.564  23.847  0.00  0.00    +0.133 C 
BRANCH  28  29
ATOM     29  N   UNL     1      -6.353   9.144  23.322  0.00  0.00    -0.308 N 
ATOM     30  H   UNL     1      -6.966   9.615  23.973  0.00  0.00    +0.149 HD
ATOM     31  C   UNL     1      -6.728   9.089  22.041  0.00  0.00    +0.210 C 
ATOM     32  C   UNL     1      -5.786   8.342  21.078  0.00  0.00    +0.109 C 
ATOM     33  O   UNL     1      -7.771   9.597  21.627  0.00  0.00    -0.276 OA
ENDBRANCH  28  29
BRANCH  25  34
ATOM     34  C   UNL     1      -3.950   8.468  27.372  0.00  0.00    +0.414 C 
ATOM     35  O   UNL     1      -3.772   9.619  27.769  0.00  0.00    -0.240 OA
ATOM     36  O   UNL     1      -4.678   7.714  28.018  0.00  0.00    -0.240 OA
ENDBRANCH  25  34
BRANCH  27  37
ATOM     37  O   UNL     1      -6.093   6.377  24.099  0.00  0.00    -0.390 OA
ATOM     38  H   UNL     1      -7.037   6.551  24.102  0.00  0.00    +0.210 HD
ENDBRANCH  27  37
BRANCH  25  39
ATOM     39  O   UNL     1      -1.959   7.434  26.392  0.00  0.00    -0.343 OA
ATOM     40  C   UNL     1      -1.818   6.009  26.164  0.00  0.00    +0.198 C 
ENDBRANCH  25  39
ENDBRANCH  22  23
BRANCH  22  41
ATOM     41  O   UNL     1      -3.296  10.418  22.496  0.00  0.00    -0.387 OA
ATOM     42  H   UNL     1      -3.447   9.477  22.383  0.00  0.00    +0.210 HD
ENDBRANCH  22  41
ENDBRANCH   1  22
TORSDOF 14
