REMARK VINA RESULT:    -5.102      4.860     12.574
REMARK INTER + INTRA:         -13.083
REMARK INTER:                  -9.993
REMARK INTRA:                  -3.090
REMARK UNBOUND:                -3.060
REMARK  Name = lig_assembled_37.pdb
REMARK  21 active torsions:
REMARK  status: ('A' for Active; 'I' for Inactive)
REMARK    1  A    between atoms: _2  and  _9
REMARK    2  A    between atoms: _4  and  _24
REMARK    3  A    between atoms: _6  and  _7
REMARK    4  A    between atoms: _6  and  _24
REMARK    5  A    between atoms: _9  and  _10
REMARK    6  A    between atoms: _9  and  _11
REMARK    7  A    between atoms: _11  and  _18
REMARK    8  A    between atoms: _12  and  _13
REMARK    9  A    between atoms: _12  and  _18
REMARK   10  A    between atoms: _20  and  _40
REMARK   11  A    between atoms: _22  and  _28
REMARK   12  A    between atoms: _23  and  _27
REMARK   13  A    between atoms: _27  and  _28
REMARK   14  A    between atoms: _30  and  _31
REMARK   15  A    between atoms: _32  and  _33
REMARK   16  A    between atoms: _34  and  _36
REMARK   17  A    between atoms: _36  and  _37
REMARK   18  A    between atoms: _36  and  _38
REMARK   19  A    between atoms: _38  and  _39
REMARK   20  A    between atoms: _38  and  _40
REMARK   21  A    between atoms: _41  and  _43
REMARK                            x       y       z     vdW  Elec       q    Type
REMARK                         _______ _______ _______ _____ _____    ______ ____
ROOT
ATOM      1  C   UNL     1      -7.012  10.862  17.442  0.00  0.00    +0.141 C 
ENDROOT
BRANCH   1   4
ATOM      2  C   UNL     1      -5.419  10.925  19.330  0.00  0.00    +0.401 C 
ATOM      3  O   UNL     1      -5.133  12.114  19.171  0.00  0.00    -0.226 OA
ATOM      4  N   UNL     1      -6.283  10.257  18.563  0.00  0.00    -0.279 N 
ATOM      5  H   UNL     1      -6.445   9.281  18.766  0.00  0.00    +0.152 HD
BRANCH   2   6
ATOM      6  O   UNL     1      -4.796  10.196  20.390  0.00  0.00    -0.444 OA
BRANCH   6   7
ATOM      7  C   UNL     1      -5.568  10.337  21.585  0.00  0.00    +0.292 C 
BRANCH   7   9
ATOM      8  N   UNL     1      -3.875   8.766  22.485  0.00  0.00    -0.131 NA
ATOM      9  C   UNL     1      -4.926   9.617  22.701  0.00  0.00    +0.120 A 
ATOM     10  C   UNL     1      -5.211   9.647  24.048  0.00  0.00    +0.138 A 
ATOM     11  N   UNL     1      -4.320   8.773  24.596  0.00  0.00    -0.238 N 
ATOM     12  N   UNL     1      -3.506   8.260  23.654  0.00  0.00    -0.065 NA
BRANCH  11  13
ATOM     13  C   UNL     1      -4.119   8.415  25.986  0.00  0.00    +0.214 C 
ATOM     14  C   UNL     1      -4.110   6.898  26.177  0.00  0.00    +0.045 C 
BRANCH  13  15
ATOM     15  C   UNL     1      -2.842   9.018  26.527  0.00  0.00    +0.332 C 
ATOM     16  O   UNL     1      -1.753   8.456  26.500  0.00  0.00    -0.248 OA
BRANCH  15  17
ATOM     17  O   UNL     1      -3.066  10.254  27.047  0.00  0.00    -0.458 OA
BRANCH  17  18
ATOM     18  C   UNL     1      -2.299  11.327  26.477  0.00  0.00    +0.267 C 
BRANCH  18  19
ATOM     19  C   UNL     1      -3.189  12.207  25.639  0.00  0.00    -0.010 A 
ATOM     20  C   UNL     1      -4.474  12.548  26.084  0.00  0.00    +0.007 A 
ATOM     21  C   UNL     1      -5.290  13.385  25.321  0.00  0.00    +0.000 A 
ATOM     22  C   UNL     1      -4.830  13.889  24.105  0.00  0.00    +0.000 A 
ATOM     23  C   UNL     1      -3.558  13.553  23.650  0.00  0.00    +0.000 A 
ATOM     24  C   UNL     1      -2.741  12.713  24.410  0.00  0.00    +0.007 A 
ENDBRANCH  18  19
ENDBRANCH  17  18
ENDBRANCH  15  17
ENDBRANCH  13  15
ENDBRANCH  11  13
ENDBRANCH   7   9
ENDBRANCH   6   7
ENDBRANCH   2   6
ENDBRANCH   1   4
BRANCH   1  25
ATOM     25  C   UNL     1      -6.208  10.811  16.147  0.00  0.00    +0.163 C 
BRANCH  25  26
ATOM     26  O   UNL     1      -5.372  11.975  16.042  0.00  0.00    -0.388 OA
ATOM     27  H   UNL     1      -4.567  11.838  16.547  0.00  0.00    +0.210 HD
ENDBRANCH  25  26
BRANCH  25  28
ATOM     28  C   UNL     1      -5.366   9.524  16.116  0.00  0.00    +0.175 C 
BRANCH  28  29
ATOM     29  C   UNL     1      -4.287   9.566  15.024  0.00  0.00    +0.176 C 
ATOM     30  O   UNL     1      -4.879  10.153  13.832  0.00  0.00    -0.332 OA
ATOM     31  C   UNL     1      -3.961  10.372  12.710  0.00  0.00    +0.277 C 
ATOM     32  C   UNL     1      -3.236   9.055  12.340  0.00  0.00    +0.110 C 
ATOM     33  C   UNL     1      -2.616   8.378  13.580  0.00  0.00    +0.143 C 
ATOM     34  C   UNL     1      -3.658   8.202  14.686  0.00  0.00    +0.133 C 
BRANCH  34  35
ATOM     35  N   UNL     1      -3.036   7.635  15.894  0.00  0.00    -0.308 N 
ATOM     36  H   UNL     1      -2.378   8.211  16.400  0.00  0.00    +0.149 HD
ATOM     37  C   UNL     1      -3.285   6.410  16.364  0.00  0.00    +0.210 C 
ATOM     38  C   UNL     1      -4.272   5.548  15.555  0.00  0.00    +0.109 C 
ATOM     39  O   UNL     1      -2.760   5.967  17.386  0.00  0.00    -0.276 OA
ENDBRANCH  34  35
BRANCH  31  40
ATOM     40  C   UNL     1      -2.919  11.455  13.059  0.00  0.00    +0.414 C 
ATOM     41  O   UNL     1      -1.848  11.502  12.455  0.00  0.00    -0.240 OA
ATOM     42  O   UNL     1      -3.148  12.280  13.944  0.00  0.00    -0.240 OA
ENDBRANCH  31  40
BRANCH  31  43
ATOM     43  O   UNL     1      -4.745  10.800  11.566  0.00  0.00    -0.343 OA
ATOM     44  C   UNL     1      -4.418  10.138  10.318  0.00  0.00    +0.198 C 
ENDBRANCH  31  43
BRANCH  33  45
ATOM     45  O   UNL     1      -2.092   7.099  13.220  0.00  0.00    -0.390 OA
ATOM     46  H   UNL     1      -1.286   7.215  12.711  0.00  0.00    +0.210 HD
ENDBRANCH  33  45
ENDBRANCH  28  29
BRANCH  28  47
ATOM     47  O   UNL     1      -6.218   8.377  15.927  0.00  0.00    -0.387 OA
ATOM     48  H   UNL     1      -6.631   8.423  15.062  0.00  0.00    +0.210 HD
ENDBRANCH  28  47
ENDBRANCH  25  28
ENDBRANCH   1  25
TORSDOF 18
