REMARK VINA RESULT:    -4.586      4.882      6.052
REMARK INTER + INTRA:         -11.541
REMARK INTER:                  -8.741
REMARK INTRA:                  -2.799
REMARK UNBOUND:                -2.799
REMARK  Name = lig_assembled_55.pdb
REMARK  20 active torsions:
REMARK  status: ('A' for Active; 'I' for Inactive)
REMARK    1  A    between atoms: _2  and  _10
REMARK    2  A    between atoms: _3  and  _11
REMARK    3  A    between atoms: _3  and  _38
REMARK    4  A    between atoms: _5  and  _18
REMARK    5  A    between atoms: _6  and  _38
REMARK    6  A    between atoms: _7  and  _8
REMARK    7  A    between atoms: _7  and  _18
REMARK    8  A    between atoms: _10  and  _11
REMARK    9  A    between atoms: _14  and  _34
REMARK   10  A    between atoms: _16  and  _22
REMARK   11  A    between atoms: _17  and  _21
REMARK   12  A    between atoms: _21  and  _22
REMARK   13  A    between atoms: _24  and  _25
REMARK   14  A    between atoms: _26  and  _27
REMARK   15  A    between atoms: _28  and  _30
REMARK   16  A    between atoms: _30  and  _31
REMARK   17  A    between atoms: _30  and  _32
REMARK   18  A    between atoms: _32  and  _33
REMARK   19  A    between atoms: _32  and  _34
REMARK   20  A    between atoms: _35  and  _37
REMARK                            x       y       z     vdW  Elec       q    Type
REMARK                         _______ _______ _______ _____ _____    ______ ____
ROOT
ATOM      1  C   UNL     1      -4.042  11.219  22.078  0.00  0.00    +0.163 C 
ENDROOT
BRANCH   1   2
ATOM      2  O   UNL     1      -3.804   9.878  21.620  0.00  0.00    -0.388 OA
ATOM      3  H   UNL     1      -3.053   9.508  22.089  0.00  0.00    +0.210 HD
ENDBRANCH   1   2
BRANCH   1   4
ATOM      4  C   UNL     1      -2.970  11.653  23.093  0.00  0.00    +0.175 C 
BRANCH   4   5
ATOM      5  C   UNL     1      -3.284  11.157  24.512  0.00  0.00    +0.176 C 
ATOM      6  O   UNL     1      -3.096   9.715  24.533  0.00  0.00    -0.332 OA
ATOM      7  C   UNL     1      -3.250   9.075  25.843  0.00  0.00    +0.277 C 
ATOM      8  C   UNL     1      -4.623   9.433  26.462  0.00  0.00    +0.110 C 
ATOM      9  C   UNL     1      -4.881  10.954  26.433  0.00  0.00    +0.143 C 
ATOM     10  C   UNL     1      -4.691  11.516  25.024  0.00  0.00    +0.133 C 
BRANCH  10  11
ATOM     11  N   UNL     1      -4.855  12.978  25.026  0.00  0.00    -0.308 N 
ATOM     12  H   UNL     1      -4.158  13.530  25.506  0.00  0.00    +0.149 HD
ATOM     13  C   UNL     1      -5.863  13.623  24.434  0.00  0.00    +0.210 C 
ATOM     14  C   UNL     1      -6.922  12.752  23.732  0.00  0.00    +0.109 C 
ATOM     15  O   UNL     1      -5.967  14.851  24.439  0.00  0.00    -0.276 OA
ENDBRANCH  10  11
BRANCH   7  16
ATOM     16  C   UNL     1      -2.122   9.512  26.801  0.00  0.00    +0.414 C 
ATOM     17  O   UNL     1      -1.006   9.786  26.361  0.00  0.00    -0.240 OA
ATOM     18  O   UNL     1      -2.328   9.590  28.012  0.00  0.00    -0.240 OA
ENDBRANCH   7  16
BRANCH   7  19
ATOM     19  O   UNL     1      -3.196   7.638  25.649  0.00  0.00    -0.343 OA
ATOM     20  C   UNL     1      -3.949   7.145  24.512  0.00  0.00    +0.198 C 
ENDBRANCH   7  19
BRANCH   9  21
ATOM     21  O   UNL     1      -6.213  11.225  26.872  0.00  0.00    -0.390 OA
ATOM     22  H   UNL     1      -6.608  10.419  27.214  0.00  0.00    +0.210 HD
ENDBRANCH   9  21
ENDBRANCH   4   5
BRANCH   4  23
ATOM     23  O   UNL     1      -2.833  13.088  23.087  0.00  0.00    -0.387 OA
ATOM     24  H   UNL     1      -1.935  13.323  22.839  0.00  0.00    +0.210 HD
ENDBRANCH   4  23
ENDBRANCH   1   4
BRANCH   1  25
ATOM     25  C   UNL     1      -4.043  12.182  20.895  0.00  0.00    +0.141 C 
BRANCH  25  28
ATOM     26  C   UNL     1      -6.016  12.084  19.411  0.00  0.00    +0.401 C 
ATOM     27  O   UNL     1      -6.631  12.966  20.014  0.00  0.00    -0.226 OA
ATOM     28  N   UNL     1      -4.803  11.651  19.757  0.00  0.00    -0.279 N 
ATOM     29  H   UNL     1      -4.384  10.915  19.205  0.00  0.00    +0.152 HD
BRANCH  26  30
ATOM     30  O   UNL     1      -6.622  11.471  18.270  0.00  0.00    -0.444 OA
BRANCH  30  31
ATOM     31  C   UNL     1      -6.872  10.090  18.546  0.00  0.00    +0.292 C 
BRANCH  31  33
ATOM     32  N   UNL     1      -4.818   8.747  18.240  0.00  0.00    -0.131 NA
ATOM     33  C   UNL     1      -5.993   9.234  17.729  0.00  0.00    +0.120 A 
ATOM     34  C   UNL     1      -6.137   8.791  16.432  0.00  0.00    +0.137 A 
ATOM     35  N   UNL     1      -5.011   8.058  16.207  0.00  0.00    -0.250 N 
ATOM     36  N   UNL     1      -4.222   8.032  17.297  0.00  0.00    -0.065 NA
BRANCH  35  37
ATOM     37  C   UNL     1      -4.635   7.339  15.009  0.00  0.00    +0.162 C 
BRANCH  37  38
ATOM     38  C   UNL     1      -4.013   8.227  13.925  0.00  0.00    +0.129 C 
BRANCH  38  39
ATOM     39  N   UNL     1      -3.112   9.287  14.462  0.00  0.00    -0.193 NA
ATOM     40  H   UNL     1      -2.138   9.104  14.191  0.00  0.00    +0.148 HD
BRANCH  39  41
ATOM     41  S   UNL     1      -3.584  10.879  14.177  0.00  0.00    +0.027 S 
ATOM     42  O   UNL     1      -2.468  11.534  13.529  0.00  0.00    -0.158 OA
ATOM     43  O   UNL     1      -4.893  10.844  13.565  0.00  0.00    -0.158 OA
ATOM     44  C   UNL     1      -3.720  11.513  15.832  0.00  0.00    +0.214 C 
ENDBRANCH  39  41
ENDBRANCH  38  39
ENDBRANCH  37  38
ENDBRANCH  35  37
ENDBRANCH  31  33
ENDBRANCH  30  31
ENDBRANCH  26  30
ENDBRANCH  25  28
ENDBRANCH   1  25
TORSDOF 17
