REMARK VINA RESULT:    -4.253      1.433      1.497
REMARK INTER + INTRA:         -10.773
REMARK INTER:                  -7.403
REMARK INTRA:                  -3.371
REMARK UNBOUND:                -3.040
REMARK  Name = lig_assembled_1.pdb
REMARK  18 active torsions:
REMARK  status: ('A' for Active; 'I' for Inactive)
REMARK    1  A    between atoms: _2  and  _9
REMARK    2  A    between atoms: _4  and  _15
REMARK    3  A    between atoms: _5  and  _9
REMARK    4  A    between atoms: _5  and  _10
REMARK    5  A    between atoms: _6  and  _7
REMARK    6  A    between atoms: _6  and  _15
REMARK    7  A    between atoms: _11  and  _31
REMARK    8  A    between atoms: _13  and  _19
REMARK    9  A    between atoms: _14  and  _18
REMARK   10  A    between atoms: _18  and  _19
REMARK   11  A    between atoms: _21  and  _22
REMARK   12  A    between atoms: _23  and  _24
REMARK   13  A    between atoms: _25  and  _27
REMARK   14  A    between atoms: _27  and  _28
REMARK   15  A    between atoms: _27  and  _29
REMARK   16  A    between atoms: _29  and  _30
REMARK   17  A    between atoms: _29  and  _31
REMARK   18  A    between atoms: _32  and  _34
REMARK                            x       y       z     vdW  Elec       q    Type
REMARK                         _______ _______ _______ _____ _____    ______ ____
ROOT
ATOM      1  C   UNL     1      -3.569  12.026  26.512  0.00  0.00    +0.175 C 
ENDROOT
BRANCH   1   2
ATOM      2  C   UNL     1      -3.404  10.781  27.395  0.00  0.00    +0.176 C 
ATOM      3  O   UNL     1      -4.025   9.660  26.708  0.00  0.00    -0.332 OA
ATOM      4  C   UNL     1      -3.873   8.355  27.358  0.00  0.00    +0.277 C 
ATOM      5  C   UNL     1      -4.378   8.417  28.820  0.00  0.00    +0.110 C 
ATOM      6  C   UNL     1      -3.769   9.612  29.583  0.00  0.00    +0.143 C 
ATOM      7  C   UNL     1      -3.982  10.918  28.816  0.00  0.00    +0.133 C 
BRANCH   7   8
ATOM      8  N   UNL     1      -3.322  12.036  29.509  0.00  0.00    -0.308 N 
ATOM      9  H   UNL     1      -2.316  12.009  29.596  0.00  0.00    +0.149 HD
ATOM     10  C   UNL     1      -3.967  13.083  30.031  0.00  0.00    +0.210 C 
ATOM     11  C   UNL     1      -5.502  13.081  29.905  0.00  0.00    +0.109 C 
ATOM     12  O   UNL     1      -3.386  14.013  30.593  0.00  0.00    -0.276 OA
ENDBRANCH   7   8
BRANCH   4  13
ATOM     13  C   UNL     1      -2.398   7.904  27.340  0.00  0.00    +0.414 C 
ATOM     14  O   UNL     1      -1.942   7.238  28.269  0.00  0.00    -0.240 OA
ATOM     15  O   UNL     1      -1.664   8.205  26.398  0.00  0.00    -0.240 OA
ENDBRANCH   4  13
BRANCH   4  16
ATOM     16  O   UNL     1      -4.686   7.395  26.634  0.00  0.00    -0.343 OA
ATOM     17  C   UNL     1      -5.520   6.549  27.464  0.00  0.00    +0.198 C 
ENDBRANCH   4  16
BRANCH   6  18
ATOM     18  O   UNL     1      -4.374   9.719  30.872  0.00  0.00    -0.390 OA
ATOM     19  H   UNL     1      -4.493   8.843  31.244  0.00  0.00    +0.210 HD
ENDBRANCH   6  18
ENDBRANCH   1   2
BRANCH   1  20
ATOM     20  O   UNL     1      -4.905  12.552  26.638  0.00  0.00    -0.387 OA
ATOM     21  H   UNL     1      -5.281  12.274  27.477  0.00  0.00    +0.210 HD
ENDBRANCH   1  20
BRANCH   1  22
ATOM     22  C   UNL     1      -3.251  11.735  25.035  0.00  0.00    +0.163 C 
BRANCH  22  23
ATOM     23  O   UNL     1      -2.110  10.869  24.916  0.00  0.00    -0.388 OA
ATOM     24  H   UNL     1      -2.159  10.180  25.583  0.00  0.00    +0.210 HD
ENDBRANCH  22  23
BRANCH  22  25
ATOM     25  C   UNL     1      -2.990  13.046  24.301  0.00  0.00    +0.141 C 
BRANCH  25  28
ATOM     26  C   UNL     1      -4.962  13.345  22.842  0.00  0.00    +0.401 C 
ATOM     27  O   UNL     1      -5.737  13.564  23.775  0.00  0.00    -0.226 OA
ATOM     28  N   UNL     1      -3.662  13.087  22.997  0.00  0.00    -0.279 N 
ATOM     29  H   UNL     1      -3.109  12.910  22.170  0.00  0.00    +0.152 HD
BRANCH  26  30
ATOM     30  O   UNL     1      -5.465  13.358  21.504  0.00  0.00    -0.444 OA
BRANCH  30  31
ATOM     31  C   UNL     1      -6.530  12.411  21.384  0.00  0.00    +0.292 C 
BRANCH  31  33
ATOM     32  N   UNL     1      -5.151  10.589  20.429  0.00  0.00    -0.131 NA
ATOM     33  C   UNL     1      -6.000  11.035  21.407  0.00  0.00    +0.120 A 
ATOM     34  C   UNL     1      -6.220  10.018  22.310  0.00  0.00    +0.137 A 
ATOM     35  N   UNL     1      -5.482   8.982  21.822  0.00  0.00    -0.249 N 
ATOM     36  N   UNL     1      -4.845   9.325  20.691  0.00  0.00    -0.065 NA
BRANCH  35  37
ATOM     37  C   UNL     1      -5.332   7.656  22.379  0.00  0.00    +0.173 C 
BRANCH  37  38
ATOM     38  C   UNL     1      -3.990   7.459  23.073  0.00  0.00    +0.179 C 
BRANCH  38  39
ATOM     39  O   UNL     1      -3.701   8.542  23.955  0.00  0.00    -0.393 OA
ATOM     40  H   UNL     1      -2.796   8.844  23.746  0.00  0.00    +0.209 HD
ENDBRANCH  38  39
ENDBRANCH  37  38
ENDBRANCH  35  37
ENDBRANCH  31  33
ENDBRANCH  30  31
ENDBRANCH  26  30
ENDBRANCH  25  28
ENDBRANCH  22  25
ENDBRANCH   1  22
TORSDOF 16
