REMARK VINA RESULT:    -4.225      3.403      5.755
REMARK INTER + INTRA:         -11.049
REMARK INTER:                  -7.538
REMARK INTRA:                  -3.511
REMARK UNBOUND:                -3.243
REMARK  Name = lig_assembled_78.pdb
REMARK  18 active torsions:
REMARK  status: ('A' for Active; 'I' for Inactive)
REMARK    1  A    between atoms: _2  and  _9
REMARK    2  A    between atoms: _4  and  _21
REMARK    3  A    between atoms: _6  and  _7
REMARK    4  A    between atoms: _6  and  _21
REMARK    5  A    between atoms: _9  and  _41
REMARK    6  A    between atoms: _10  and  _41
REMARK    7  A    between atoms: _17  and  _37
REMARK    8  A    between atoms: _19  and  _25
REMARK    9  A    between atoms: _20  and  _24
REMARK   10  A    between atoms: _24  and  _25
REMARK   11  A    between atoms: _27  and  _28
REMARK   12  A    between atoms: _29  and  _30
REMARK   13  A    between atoms: _31  and  _33
REMARK   14  A    between atoms: _33  and  _34
REMARK   15  A    between atoms: _33  and  _35
REMARK   16  A    between atoms: _35  and  _36
REMARK   17  A    between atoms: _35  and  _37
REMARK   18  A    between atoms: _38  and  _40
REMARK                            x       y       z     vdW  Elec       q    Type
REMARK                         _______ _______ _______ _____ _____    ______ ____
ROOT
ATOM      1  C   UNL     1      -3.931  12.208  28.132  0.00  0.00    +0.163 C 
ENDROOT
BRANCH   1   2
ATOM      2  O   UNL     1      -4.758  12.386  26.970  0.00  0.00    -0.388 OA
ATOM      3  H   UNL     1      -5.664  12.549  27.244  0.00  0.00    +0.210 HD
ENDBRANCH   1   2
BRANCH   1   4
ATOM      4  C   UNL     1      -4.782  11.860  29.365  0.00  0.00    +0.175 C 
BRANCH   4   5
ATOM      5  C   UNL     1      -4.190  10.690  30.165  0.00  0.00    +0.176 C 
ATOM      6  O   UNL     1      -5.208   9.657  30.264  0.00  0.00    -0.332 OA
ATOM      7  C   UNL     1      -4.785   8.410  30.909  0.00  0.00    +0.277 C 
ATOM      8  C   UNL     1      -4.194   8.699  32.311  0.00  0.00    +0.110 C 
ATOM      9  C   UNL     1      -3.129   9.815  32.261  0.00  0.00    +0.143 C 
ATOM     10  C   UNL     1      -3.675  11.064  31.567  0.00  0.00    +0.133 C 
BRANCH  10  11
ATOM     11  N   UNL     1      -2.625  12.087  31.448  0.00  0.00    -0.308 N 
ATOM     12  H   UNL     1      -1.832  11.883  30.856  0.00  0.00    +0.149 HD
ATOM     13  C   UNL     1      -2.650  13.268  32.072  0.00  0.00    +0.210 C 
ATOM     14  C   UNL     1      -3.858  13.538  32.988  0.00  0.00    +0.109 C 
ATOM     15  O   UNL     1      -1.763  14.113  31.942  0.00  0.00    -0.276 OA
ENDBRANCH  10  11
BRANCH   7  16
ATOM     16  C   UNL     1      -3.735   7.678  30.048  0.00  0.00    +0.414 C 
ATOM     17  O   UNL     1      -3.850   7.646  28.824  0.00  0.00    -0.240 OA
ATOM     18  O   UNL     1      -2.773   7.120  30.577  0.00  0.00    -0.240 OA
ENDBRANCH   7  16
BRANCH   7  19
ATOM     19  O   UNL     1      -5.956   7.569  31.071  0.00  0.00    -0.343 OA
ATOM     20  C   UNL     1      -5.887   6.629  32.174  0.00  0.00    +0.198 C 
ENDBRANCH   7  19
BRANCH   9  21
ATOM     21  O   UNL     1      -2.723  10.153  33.588  0.00  0.00    -0.390 OA
ATOM     22  H   UNL     1      -3.397  10.698  34.000  0.00  0.00    +0.210 HD
ENDBRANCH   9  21
ENDBRANCH   4   5
BRANCH   4  23
ATOM     23  O   UNL     1      -6.134  11.556  28.966  0.00  0.00    -0.387 OA
ATOM     24  H   UNL     1      -6.745  12.112  29.456  0.00  0.00    +0.210 HD
ENDBRANCH   4  23
ENDBRANCH   1   4
BRANCH   1  25
ATOM     25  C   UNL     1      -2.916  11.097  27.884  0.00  0.00    +0.141 C 
BRANCH  25  28
ATOM     26  C   UNL     1      -2.975   9.860  25.745  0.00  0.00    +0.401 C 
ATOM     27  O   UNL     1      -2.064  10.515  25.233  0.00  0.00    -0.226 OA
ATOM     28  N   UNL     1      -3.441  10.068  26.977  0.00  0.00    -0.279 N 
ATOM     29  H   UNL     1      -4.198   9.485  27.305  0.00  0.00    +0.152 HD
BRANCH  26  30
ATOM     30  O   UNL     1      -3.587   8.812  24.989  0.00  0.00    -0.444 OA
BRANCH  30  31
ATOM     31  C   UNL     1      -4.822   8.437  25.604  0.00  0.00    +0.292 C 
BRANCH  31  33
ATOM     32  N   UNL     1      -6.523   9.992  26.516  0.00  0.00    -0.131 NA
ATOM     33  C   UNL     1      -5.821   9.510  25.444  0.00  0.00    +0.120 A 
ATOM     34  C   UNL     1      -6.217  10.183  24.309  0.00  0.00    +0.139 A 
ATOM     35  N   UNL     1      -7.115  11.100  24.768  0.00  0.00    -0.230 N 
ATOM     36  N   UNL     1      -7.331  10.952  26.087  0.00  0.00    -0.064 NA
BRANCH  35  37
ATOM     37  C   UNL     1      -7.863  12.082  24.022  0.00  0.00    +0.316 C 
BRANCH  37  38
ATOM     38  S   UNL     1      -6.991  13.609  23.787  0.00  0.00    +0.017 S 
ATOM     39  O   UNL     1      -7.766  14.496  22.942  0.00  0.00    -0.168 OA
ATOM     40  O   UNL     1      -6.504  14.050  25.083  0.00  0.00    -0.168 OA
BRANCH  38  41
ATOM     41  C   UNL     1      -5.563  13.150  22.827  0.00  0.00    +0.090 A 
ATOM     42  C   UNL     1      -5.721  12.847  21.470  0.00  0.00    +0.027 A 
ATOM     43  C   UNL     1      -4.602  12.512  20.709  0.00  0.00    +0.002 A 
ATOM     44  C   UNL     1      -3.335  12.499  21.295  0.00  0.00    +0.000 A 
ATOM     45  C   UNL     1      -3.181  12.822  22.644  0.00  0.00    +0.002 A 
ATOM     46  C   UNL     1      -4.296  13.149  23.417  0.00  0.00    +0.027 A 
ENDBRANCH  38  41
ENDBRANCH  37  38
ENDBRANCH  35  37
ENDBRANCH  31  33
ENDBRANCH  30  31
ENDBRANCH  26  30
ENDBRANCH  25  28
ENDBRANCH   1  25
TORSDOF 16
