REMARK VINA RESULT:    -4.891      7.360     11.713
REMARK INTER + INTRA:         -11.306
REMARK INTER:                  -8.466
REMARK INTRA:                  -2.841
REMARK UNBOUND:                -2.841
REMARK  Name = lig_assembled_86.pdb
REMARK  17 active torsions:
REMARK  status: ('A' for Active; 'I' for Inactive)
REMARK    1  A    between atoms: _2  and  _10
REMARK    2  A    between atoms: _3  and  _13
REMARK    3  A    between atoms: _5  and  _21
REMARK    4  A    between atoms: _7  and  _8
REMARK    5  A    between atoms: _7  and  _21
REMARK    6  A    between atoms: _17  and  _37
REMARK    7  A    between atoms: _19  and  _25
REMARK    8  A    between atoms: _20  and  _24
REMARK    9  A    between atoms: _24  and  _25
REMARK   10  A    between atoms: _27  and  _28
REMARK   11  A    between atoms: _29  and  _30
REMARK   12  A    between atoms: _31  and  _33
REMARK   13  A    between atoms: _33  and  _34
REMARK   14  A    between atoms: _33  and  _35
REMARK   15  A    between atoms: _35  and  _36
REMARK   16  A    between atoms: _35  and  _37
REMARK   17  A    between atoms: _38  and  _40
REMARK                            x       y       z     vdW  Elec       q    Type
REMARK                         _______ _______ _______ _____ _____    ______ ____
ROOT
ATOM      1  C   UNL     1      -5.491   8.224  25.099  0.00  0.00    +0.163 C 
ENDROOT
BRANCH   1   2
ATOM      2  O   UNL     1      -5.870   8.730  26.390  0.00  0.00    -0.388 OA
ATOM      3  H   UNL     1      -6.521   8.144  26.785  0.00  0.00    +0.210 HD
ENDBRANCH   1   2
BRANCH   1   4
ATOM      4  C   UNL     1      -4.002   7.895  25.085  0.00  0.00    +0.141 C 
BRANCH   4   7
ATOM      5  C   UNL     1      -2.210   7.669  26.770  0.00  0.00    +0.401 C 
ATOM      6  O   UNL     1      -1.572   6.839  26.119  0.00  0.00    -0.226 OA
ATOM      7  N   UNL     1      -3.359   8.211  26.366  0.00  0.00    -0.279 N 
ATOM      8  H   UNL     1      -3.813   8.877  26.975  0.00  0.00    +0.152 HD
BRANCH   5   9
ATOM      9  O   UNL     1      -1.707   8.088  28.042  0.00  0.00    -0.444 OA
BRANCH   9  10
ATOM     10  C   UNL     1      -2.210   7.222  29.063  0.00  0.00    +0.292 C 
BRANCH  10  12
ATOM     11  N   UNL     1      -3.102   7.421  31.368  0.00  0.00    -0.131 NA
ATOM     12  C   UNL     1      -2.743   8.015  30.187  0.00  0.00    +0.120 A 
ATOM     13  C   UNL     1      -2.956   9.370  30.286  0.00  0.00    +0.137 A 
ATOM     14  N   UNL     1      -3.409   9.541  31.558  0.00  0.00    -0.248 N 
ATOM     15  N   UNL     1      -3.526   8.365  32.198  0.00  0.00    -0.065 NA
BRANCH  14  16
ATOM     16  C   UNL     1      -3.735  10.797  32.217  0.00  0.00    +0.112 C 
ATOM     17  C   UNL     1      -2.630  11.855  32.017  0.00  0.00    +0.045 C 
ATOM     18  C   UNL     1      -3.139  13.244  31.621  0.00  0.00    +0.059 C 
ATOM     19  C   UNL     1      -3.547  13.283  30.144  0.00  0.00    +0.020 C 
ATOM     20  C   UNL     1      -5.045  12.991  30.151  0.00  0.00    +0.020 C 
ATOM     21  C   UNL     1      -5.377  12.724  31.621  0.00  0.00    +0.059 C 
ATOM     22  N   UNL     1      -4.399  13.592  32.276  0.00  0.00    -0.299 NA
ATOM     23  C   UNL     1      -4.405  13.592  33.727  0.00  0.00    +0.105 C 
ATOM     24  C   UNL     1      -5.196  11.241  31.973  0.00  0.00    +0.045 C 
ENDBRANCH  14  16
ENDBRANCH  10  12
ENDBRANCH   9  10
ENDBRANCH   5   9
ENDBRANCH   4   7
ENDBRANCH   1   4
BRANCH   1  25
ATOM     25  C   UNL     1      -5.803   9.247  23.994  0.00  0.00    +0.175 C 
BRANCH  25  26
ATOM     26  C   UNL     1      -4.852  10.453  24.039  0.00  0.00    +0.176 C 
ATOM     27  O   UNL     1      -5.253  11.297  25.153  0.00  0.00    -0.332 OA
ATOM     28  C   UNL     1      -4.388  12.451  25.417  0.00  0.00    +0.277 C 
ATOM     29  C   UNL     1      -4.229  13.311  24.139  0.00  0.00    +0.110 C 
ATOM     30  C   UNL     1      -3.834  12.452  22.920  0.00  0.00    +0.143 C 
ATOM     31  C   UNL     1      -4.798  11.279  22.740  0.00  0.00    +0.133 C 
BRANCH  31  32
ATOM     32  N   UNL     1      -4.362  10.419  21.628  0.00  0.00    -0.308 N 
ATOM     33  H   UNL     1      -3.453   9.984  21.698  0.00  0.00    +0.149 HD
ATOM     34  C   UNL     1      -5.089  10.177  20.534  0.00  0.00    +0.210 C 
ATOM     35  C   UNL     1      -6.459  10.876  20.447  0.00  0.00    +0.109 C 
ATOM     36  O   UNL     1      -4.704   9.440  19.625  0.00  0.00    -0.276 OA
ENDBRANCH  31  32
BRANCH  28  37
ATOM     37  C   UNL     1      -2.999  11.993  25.906  0.00  0.00    +0.414 C 
ATOM     38  O   UNL     1      -2.899  11.245  26.878  0.00  0.00    -0.240 OA
ATOM     39  O   UNL     1      -1.978  12.370  25.330  0.00  0.00    -0.240 OA
ENDBRANCH  28  37
BRANCH  30  40
ATOM     40  O   UNL     1      -3.846  13.257  21.740  0.00  0.00    -0.390 OA
ATOM     41  H   UNL     1      -4.476  12.895  21.112  0.00  0.00    +0.210 HD
ENDBRANCH  30  40
BRANCH  28  42
ATOM     42  O   UNL     1      -5.023  13.263  26.439  0.00  0.00    -0.343 OA
ATOM     43  C   UNL     1      -6.420  12.961  26.681  0.00  0.00    +0.198 C 
ENDBRANCH  28  42
ENDBRANCH  25  26
BRANCH  25  44
ATOM     44  O   UNL     1      -7.171   9.689  24.097  0.00  0.00    -0.387 OA
ATOM     45  H   UNL     1      -7.317  10.079  24.962  0.00  0.00    +0.210 HD
ENDBRANCH  25  44
ENDBRANCH   1  25
TORSDOF 14
