REMARK VINA RESULT:    -4.890     10.821     14.412
REMARK INTER + INTRA:         -10.969
REMARK INTER:                  -7.391
REMARK INTRA:                  -3.578
REMARK UNBOUND:                -2.505
REMARK  Name = lig_assembled_3.pdb
REMARK  16 active torsions:
REMARK  status: ('A' for Active; 'I' for Inactive)
REMARK    1  A    between atoms: _2  and  _9
REMARK    2  A    between atoms: _4  and  _18
REMARK    3  A    between atoms: _6  and  _7
REMARK    4  A    between atoms: _6  and  _18
REMARK    5  A    between atoms: _14  and  _34
REMARK    6  A    between atoms: _16  and  _22
REMARK    7  A    between atoms: _17  and  _21
REMARK    8  A    between atoms: _21  and  _22
REMARK    9  A    between atoms: _24  and  _25
REMARK   10  A    between atoms: _26  and  _27
REMARK   11  A    between atoms: _28  and  _30
REMARK   12  A    between atoms: _30  and  _31
REMARK   13  A    between atoms: _30  and  _32
REMARK   14  A    between atoms: _32  and  _33
REMARK   15  A    between atoms: _32  and  _34
REMARK   16  A    between atoms: _35  and  _37
REMARK                            x       y       z     vdW  Elec       q    Type
REMARK                         _______ _______ _______ _____ _____    ______ ____
ROOT
ATOM      1  C   UNL     1      -4.734   7.344  16.119  0.00  0.00    +0.163 C 
ENDROOT
BRANCH   1   2
ATOM      2  O   UNL     1      -4.002   7.790  17.272  0.00  0.00    -0.388 OA
ATOM      3  H   UNL     1      -4.446   8.549  17.660  0.00  0.00    +0.210 HD
ENDBRANCH   1   2
BRANCH   1   4
ATOM      4  C   UNL     1      -3.828   6.517  15.214  0.00  0.00    +0.141 C 
BRANCH   4   7
ATOM      5  C   UNL     1      -2.088   7.415  13.707  0.00  0.00    +0.401 C 
ATOM      6  O   UNL     1      -1.152   6.917  14.337  0.00  0.00    -0.226 OA
ATOM      7  N   UNL     1      -3.370   7.284  14.049  0.00  0.00    -0.279 N 
ATOM      8  H   UNL     1      -4.066   7.738  13.474  0.00  0.00    +0.152 HD
BRANCH   5   9
ATOM      9  O   UNL     1      -1.805   8.188  12.538  0.00  0.00    -0.444 OA
BRANCH   9  10
ATOM     10  C   UNL     1      -2.954   8.964  12.188  0.00  0.00    +0.292 C 
BRANCH  10  12
ATOM     11  N   UNL     1      -2.916  10.625  14.021  0.00  0.00    -0.131 NA
ATOM     12  C   UNL     1      -2.813  10.344  12.689  0.00  0.00    +0.121 A 
ATOM     13  C   UNL     1      -2.566  11.510  12.001  0.00  0.00    +0.143 A 
ATOM     14  N   UNL     1      -2.498  12.488  12.968  0.00  0.00    -0.220 N 
ATOM     15  N   UNL     1      -2.729  11.928  14.182  0.00  0.00    -0.060 NA
BRANCH  14  16
ATOM     16  C   UNL     1      -2.217  13.870  12.815  0.00  0.00    +0.067 A 
ATOM     17  C   UNL     1      -0.917  14.314  12.535  0.00  0.00    +0.028 A 
ATOM     18  C   UNL     1      -0.656  15.681  12.419  0.00  0.00    +0.002 A 
ATOM     19  C   UNL     1      -1.683  16.609  12.578  0.00  0.00    +0.000 A 
ATOM     20  C   UNL     1      -2.980  16.173  12.848  0.00  0.00    +0.002 A 
ATOM     21  C   UNL     1      -3.250  14.808  12.966  0.00  0.00    +0.028 A 
ENDBRANCH  14  16
ENDBRANCH  10  12
ENDBRANCH   9  10
ENDBRANCH   5   9
ENDBRANCH   4   7
ENDBRANCH   1   4
BRANCH   1  22
ATOM     22  C   UNL     1      -5.298   8.538  15.330  0.00  0.00    +0.175 C 
BRANCH  22  23
ATOM     23  C   UNL     1      -5.687   9.706  16.248  0.00  0.00    +0.176 C 
ATOM     24  O   UNL     1      -6.331   9.153  17.428  0.00  0.00    -0.332 OA
ATOM     25  C   UNL     1      -6.679  10.120  18.473  0.00  0.00    +0.277 C 
ATOM     26  C   UNL     1      -7.549  11.260  17.888  0.00  0.00    +0.110 C 
ATOM     27  C   UNL     1      -6.919  11.859  16.612  0.00  0.00    +0.143 C 
ATOM     28  C   UNL     1      -6.595  10.765  15.595  0.00  0.00    +0.133 C 
BRANCH  28  29
ATOM     29  N   UNL     1      -5.917  11.337  14.421  0.00  0.00    -0.308 N 
ATOM     30  H   UNL     1      -4.975  11.682  14.542  0.00  0.00    +0.149 HD
ATOM     31  C   UNL     1      -6.465  11.431  13.207  0.00  0.00    +0.210 C 
ATOM     32  C   UNL     1      -7.911  10.921  13.061  0.00  0.00    +0.109 C 
ATOM     33  O   UNL     1      -5.867  11.903  12.238  0.00  0.00    -0.276 OA
ENDBRANCH  28  29
BRANCH  25  34
ATOM     34  C   UNL     1      -5.407  10.717  19.110  0.00  0.00    +0.414 C 
ATOM     35  O   UNL     1      -5.349  11.919  19.370  0.00  0.00    -0.240 OA
ATOM     36  O   UNL     1      -4.440   9.999  19.365  0.00  0.00    -0.240 OA
ENDBRANCH  25  34
BRANCH  27  37
ATOM     37  O   UNL     1      -7.822  12.796  16.024  0.00  0.00    -0.390 OA
ATOM     38  H   UNL     1      -7.473  13.090  15.180  0.00  0.00    +0.210 HD
ENDBRANCH  27  37
BRANCH  25  39
ATOM     39  O   UNL     1      -7.454   9.428  19.486  0.00  0.00    -0.343 OA
ATOM     40  C   UNL     1      -7.363   7.981  19.443  0.00  0.00    +0.198 C 
ENDBRANCH  25  39
ENDBRANCH  22  23
BRANCH  22  41
ATOM     41  O   UNL     1      -6.435   8.123  14.546  0.00  0.00    -0.387 OA
ATOM     42  H   UNL     1      -6.281   7.240  14.202  0.00  0.00    +0.210 HD
ENDBRANCH  22  41
ENDBRANCH   1  22
TORSDOF 14
