REMARK VINA RESULT:    -4.246      2.869      7.475
REMARK INTER + INTRA:         -10.893
REMARK INTER:                  -7.749
REMARK INTRA:                  -3.144
REMARK UNBOUND:                -2.799
REMARK  Name = lig_assembled_55.pdb
REMARK  20 active torsions:
REMARK  status: ('A' for Active; 'I' for Inactive)
REMARK    1  A    between atoms: _2  and  _10
REMARK    2  A    between atoms: _3  and  _11
REMARK    3  A    between atoms: _3  and  _38
REMARK    4  A    between atoms: _5  and  _18
REMARK    5  A    between atoms: _6  and  _38
REMARK    6  A    between atoms: _7  and  _8
REMARK    7  A    between atoms: _7  and  _18
REMARK    8  A    between atoms: _10  and  _11
REMARK    9  A    between atoms: _14  and  _34
REMARK   10  A    between atoms: _16  and  _22
REMARK   11  A    between atoms: _17  and  _21
REMARK   12  A    between atoms: _21  and  _22
REMARK   13  A    between atoms: _24  and  _25
REMARK   14  A    between atoms: _26  and  _27
REMARK   15  A    between atoms: _28  and  _30
REMARK   16  A    between atoms: _30  and  _31
REMARK   17  A    between atoms: _30  and  _32
REMARK   18  A    between atoms: _32  and  _33
REMARK   19  A    between atoms: _32  and  _34
REMARK   20  A    between atoms: _35  and  _37
REMARK                            x       y       z     vdW  Elec       q    Type
REMARK                         _______ _______ _______ _____ _____    ______ ____
ROOT
ATOM      1  C   UNL     1      -4.628   7.319  23.100  0.00  0.00    +0.163 C 
ENDROOT
BRANCH   1   2
ATOM      2  O   UNL     1      -4.972   6.969  21.750  0.00  0.00    -0.388 OA
ATOM      3  H   UNL     1      -5.902   7.156  21.598  0.00  0.00    +0.210 HD
ENDBRANCH   1   2
BRANCH   1   4
ATOM      4  C   UNL     1      -5.071   8.755  23.427  0.00  0.00    +0.175 C 
BRANCH   4   5
ATOM      5  C   UNL     1      -3.987   9.537  24.184  0.00  0.00    +0.176 C 
ATOM      6  O   UNL     1      -4.328   9.520  25.598  0.00  0.00    -0.332 OA
ATOM      7  C   UNL     1      -3.343  10.132  26.494  0.00  0.00    +0.277 C 
ATOM      8  C   UNL     1      -3.033  11.582  26.048  0.00  0.00    +0.110 C 
ATOM      9  C   UNL     1      -2.696  11.656  24.544  0.00  0.00    +0.143 C 
ATOM     10  C   UNL     1      -3.785  10.986  23.705  0.00  0.00    +0.133 C 
BRANCH  10  11
ATOM     11  N   UNL     1      -3.411  10.986  22.281  0.00  0.00    -0.308 N 
ATOM     12  H   UNL     1      -2.609  10.437  22.005  0.00  0.00    +0.149 HD
ATOM     13  C   UNL     1      -4.062  11.663  21.332  0.00  0.00    +0.210 C 
ATOM     14  C   UNL     1      -5.264  12.510  21.790  0.00  0.00    +0.109 C 
ATOM     15  O   UNL     1      -3.735  11.632  20.145  0.00  0.00    -0.276 OA
ENDBRANCH  10  11
BRANCH   7  16
ATOM     16  C   UNL     1      -2.038   9.310  26.517  0.00  0.00    +0.414 C 
ATOM     17  O   UNL     1      -0.948   9.878  26.565  0.00  0.00    -0.240 OA
ATOM     18  O   UNL     1      -2.075   8.079  26.488  0.00  0.00    -0.240 OA
ENDBRANCH   7  16
BRANCH   7  19
ATOM     19  O   UNL     1      -3.916  10.176  27.827  0.00  0.00    -0.343 OA
ATOM     20  C   UNL     1      -5.218  10.807  27.913  0.00  0.00    +0.198 C 
ENDBRANCH   7  19
BRANCH   9  21
ATOM     21  O   UNL     1      -2.567  13.021  24.145  0.00  0.00    -0.390 OA
ATOM     22  H   UNL     1      -2.082  13.506  24.817  0.00  0.00    +0.210 HD
ENDBRANCH   9  21
ENDBRANCH   4   5
BRANCH   4  23
ATOM     23  O   UNL     1      -6.294   8.736  24.191  0.00  0.00    -0.387 OA
ATOM     24  H   UNL     1      -6.306   7.960  24.756  0.00  0.00    +0.210 HD
ENDBRANCH   4  23
ENDBRANCH   1   4
BRANCH   1  25
ATOM     25  C   UNL     1      -5.286   6.348  24.075  0.00  0.00    +0.141 C 
BRANCH  25  28
ATOM     26  C   UNL     1      -5.273   6.636  26.529  0.00  0.00    +0.401 C 
ATOM     27  O   UNL     1      -6.473   6.910  26.598  0.00  0.00    -0.226 OA
ATOM     28  N   UNL     1      -4.634   6.366  25.390  0.00  0.00    -0.279 N 
ATOM     29  H   UNL     1      -3.645   6.162  25.435  0.00  0.00    +0.152 HD
BRANCH  26  30
ATOM     30  O   UNL     1      -4.498   6.604  27.730  0.00  0.00    -0.444 OA
BRANCH  30  31
ATOM     31  C   UNL     1      -5.370   6.646  28.863  0.00  0.00    +0.292 C 
BRANCH  31  33
ATOM     32  N   UNL     1      -3.403   7.720  29.908  0.00  0.00    -0.131 NA
ATOM     33  C   UNL     1      -4.709   7.317  29.998  0.00  0.00    +0.120 A 
ATOM     34  C   UNL     1      -5.197   7.644  31.244  0.00  0.00    +0.137 A 
ATOM     35  N   UNL     1      -4.135   8.225  31.870  0.00  0.00    -0.250 N 
ATOM     36  N   UNL     1      -3.060   8.271  31.062  0.00  0.00    -0.065 NA
BRANCH  35  37
ATOM     37  C   UNL     1      -4.076   8.778  33.206  0.00  0.00    +0.162 C 
BRANCH  37  38
ATOM     38  C   UNL     1      -4.004  10.308  33.241  0.00  0.00    +0.129 C 
BRANCH  38  39
ATOM     39  N   UNL     1      -3.883  10.933  31.891  0.00  0.00    -0.193 NA
ATOM     40  H   UNL     1      -4.787  10.912  31.402  0.00  0.00    +0.148 HD
BRANCH  39  41
ATOM     41  S   UNL     1      -3.141  12.444  31.834  0.00  0.00    +0.027 S 
ATOM     42  O   UNL     1      -1.771  12.250  32.258  0.00  0.00    -0.158 OA
ATOM     43  O   UNL     1      -3.454  13.037  30.553  0.00  0.00    -0.158 OA
ATOM     44  C   UNL     1      -4.006  13.315  33.119  0.00  0.00    +0.214 C 
ENDBRANCH  39  41
ENDBRANCH  38  39
ENDBRANCH  37  38
ENDBRANCH  35  37
ENDBRANCH  31  33
ENDBRANCH  30  31
ENDBRANCH  26  30
ENDBRANCH  25  28
ENDBRANCH   1  25
TORSDOF 17
