REMARK VINA RESULT:    -5.053      0.000      0.000
REMARK INTER + INTRA:         -11.783
REMARK INTER:                  -8.060
REMARK INTRA:                  -3.723
REMARK UNBOUND:                -2.299
REMARK  Name = lig_assembled_32.pdb
REMARK  19 active torsions:
REMARK  status: ('A' for Active; 'I' for Inactive)
REMARK    1  A    between atoms: _2  and  _9
REMARK    2  A    between atoms: _4  and  _17
REMARK    3  A    between atoms: _5  and  _10
REMARK    4  A    between atoms: _5  and  _11
REMARK    5  A    between atoms: _6  and  _7
REMARK    6  A    between atoms: _6  and  _17
REMARK    7  A    between atoms: _9  and  _10
REMARK    8  A    between atoms: _13  and  _33
REMARK    9  A    between atoms: _15  and  _21
REMARK   10  A    between atoms: _16  and  _20
REMARK   11  A    between atoms: _20  and  _21
REMARK   12  A    between atoms: _23  and  _24
REMARK   13  A    between atoms: _25  and  _26
REMARK   14  A    between atoms: _27  and  _29
REMARK   15  A    between atoms: _29  and  _30
REMARK   16  A    between atoms: _29  and  _31
REMARK   17  A    between atoms: _31  and  _32
REMARK   18  A    between atoms: _31  and  _33
REMARK   19  A    between atoms: _34  and  _36
REMARK                            x       y       z     vdW  Elec       q    Type
REMARK                         _______ _______ _______ _____ _____    ______ ____
ROOT
ATOM      1  C   UNL     1      -2.934  11.852  23.079  0.00  0.00    +0.163 C 
ENDROOT
BRANCH   1   2
ATOM      2  O   UNL     1      -2.346  12.243  24.330  0.00  0.00    -0.388 OA
ATOM      3  H   UNL     1      -3.035  12.344  24.991  0.00  0.00    +0.210 HD
ENDBRANCH   1   2
BRANCH   1   4
ATOM      4  C   UNL     1      -3.829  10.613  23.255  0.00  0.00    +0.175 C 
BRANCH   4   5
ATOM      5  C   UNL     1      -3.971  10.208  24.730  0.00  0.00    +0.176 C 
ATOM      6  O   UNL     1      -2.905   9.269  25.041  0.00  0.00    -0.332 OA
ATOM      7  C   UNL     1      -2.817   8.850  26.443  0.00  0.00    +0.277 C 
ATOM      8  C   UNL     1      -4.174   8.279  26.923  0.00  0.00    +0.110 C 
ATOM      9  C   UNL     1      -5.343   9.229  26.586  0.00  0.00    +0.143 C 
ATOM     10  C   UNL     1      -5.337   9.602  25.103  0.00  0.00    +0.133 C 
BRANCH  10  11
ATOM     11  N   UNL     1      -6.401  10.575  24.812  0.00  0.00    -0.308 N 
ATOM     12  H   UNL     1      -6.354  11.476  25.267  0.00  0.00    +0.149 HD
ATOM     13  C   UNL     1      -7.426  10.346  23.987  0.00  0.00    +0.210 C 
ATOM     14  C   UNL     1      -7.483   8.954  23.329  0.00  0.00    +0.109 C 
ATOM     15  O   UNL     1      -8.296  11.185  23.751  0.00  0.00    -0.276 OA
ENDBRANCH  10  11
BRANCH   7  16
ATOM     16  C   UNL     1      -2.409  10.035  27.343  0.00  0.00    +0.414 C 
ATOM     17  O   UNL     1      -2.696  10.033  28.539  0.00  0.00    -0.240 OA
ATOM     18  O   UNL     1      -1.793  10.993  26.873  0.00  0.00    -0.240 OA
ENDBRANCH   7  16
BRANCH   7  19
ATOM     19  O   UNL     1      -1.821   7.800  26.537  0.00  0.00    -0.343 OA
ATOM     20  C   UNL     1      -2.291   6.560  27.121  0.00  0.00    +0.198 C 
ENDBRANCH   7  19
BRANCH   9  21
ATOM     21  O   UNL     1      -6.584   8.600  26.908  0.00  0.00    -0.390 OA
ATOM     22  H   UNL     1      -6.585   8.349  27.835  0.00  0.00    +0.210 HD
ENDBRANCH   9  21
ENDBRANCH   4   5
BRANCH   4  23
ATOM     23  O   UNL     1      -3.308   9.510  22.486  0.00  0.00    -0.387 OA
ATOM     24  H   UNL     1      -3.419   9.693  21.550  0.00  0.00    +0.210 HD
ENDBRANCH   4  23
ENDBRANCH   1   4
BRANCH   1  25
ATOM     25  C   UNL     1      -3.760  13.000  22.509  0.00  0.00    +0.141 C 
BRANCH  25  28
ATOM     26  C   UNL     1      -5.668  14.133  23.595  0.00  0.00    +0.401 C 
ATOM     27  O   UNL     1      -6.482  13.796  22.732  0.00  0.00    -0.226 OA
ATOM     28  N   UNL     1      -4.375  13.811  23.567  0.00  0.00    -0.279 N 
ATOM     29  H   UNL     1      -3.784  14.142  24.317  0.00  0.00    +0.152 HD
BRANCH  26  30
ATOM     30  O   UNL     1      -6.116  14.923  24.700  0.00  0.00    -0.444 OA
BRANCH  30  31
ATOM     31  C   UNL     1      -6.981  14.140  25.527  0.00  0.00    +0.292 C 
BRANCH  31  33
ATOM     32  N   UNL     1      -5.284  12.836  26.771  0.00  0.00    -0.131 NA
ATOM     33  C   UNL     1      -6.293  13.763  26.777  0.00  0.00    +0.120 A 
ATOM     34  C   UNL     1      -6.494  14.202  28.067  0.00  0.00    +0.137 A 
ATOM     35  N   UNL     1      -5.587  13.497  28.796  0.00  0.00    -0.251 N 
ATOM     36  N   UNL     1      -4.860  12.678  28.017  0.00  0.00    -0.065 NA
BRANCH  35  37
ATOM     37  C   UNL     1      -5.348  13.549  30.221  0.00  0.00    +0.156 C 
BRANCH  37  38
ATOM     38  C   UNL     1      -4.245  14.535  30.579  0.00  0.00    +0.143 C 
BRANCH  38  39
ATOM     39  C   UNL     1      -3.019  13.798  31.035  0.00  0.00    +0.306 C 
ATOM     40  O   UNL     1      -2.209  14.224  31.843  0.00  0.00    -0.251 OA
BRANCH  39  41
ATOM     41  O   UNL     1      -2.884  12.591  30.441  0.00  0.00    -0.481 OA
ATOM     42  H   UNL     1      -3.653  12.000  30.553  0.00  0.00    +0.295 HD
ENDBRANCH  39  41
ENDBRANCH  38  39
ENDBRANCH  37  38
ENDBRANCH  35  37
ENDBRANCH  31  33
ENDBRANCH  30  31
ENDBRANCH  26  30
ENDBRANCH  25  28
ENDBRANCH   1  25
TORSDOF 17
