REMARK VINA RESULT:    -3.751      2.610      7.073
REMARK INTER + INTRA:         -10.828
REMARK INTER:                  -7.112
REMARK INTRA:                  -3.716
REMARK UNBOUND:                -3.458
REMARK  Name = lig_assembled_43.pdb
REMARK  20 active torsions:
REMARK  status: ('A' for Active; 'I' for Inactive)
REMARK    1  A    between atoms: _2  and  _9
REMARK    2  A    between atoms: _4  and  _18
REMARK    3  A    between atoms: _6  and  _7
REMARK    4  A    between atoms: _6  and  _18
REMARK    5  A    between atoms: _9  and  _10
REMARK    6  A    between atoms: _10  and  _11
REMARK    7  A    between atoms: _11  and  _12
REMARK    8  A    between atoms: _12  and  _13
REMARK    9  A    between atoms: _14  and  _34
REMARK   10  A    between atoms: _16  and  _22
REMARK   11  A    between atoms: _17  and  _21
REMARK   12  A    between atoms: _21  and  _22
REMARK   13  A    between atoms: _24  and  _25
REMARK   14  A    between atoms: _26  and  _27
REMARK   15  A    between atoms: _28  and  _30
REMARK   16  A    between atoms: _30  and  _31
REMARK   17  A    between atoms: _30  and  _32
REMARK   18  A    between atoms: _32  and  _33
REMARK   19  A    between atoms: _32  and  _34
REMARK   20  A    between atoms: _35  and  _37
REMARK                            x       y       z     vdW  Elec       q    Type
REMARK                         _______ _______ _______ _____ _____    ______ ____
ROOT
ATOM      1  C   UNL     1      -2.572  10.047  27.142  0.00  0.00    +0.163 C 
ENDROOT
BRANCH   1   2
ATOM      2  O   UNL     1      -3.031   9.316  25.993  0.00  0.00    -0.388 OA
ATOM      3  H   UNL     1      -3.991   9.307  25.982  0.00  0.00    +0.210 HD
ENDBRANCH   1   2
BRANCH   1   4
ATOM      4  C   UNL     1      -3.627  11.068  27.602  0.00  0.00    +0.175 C 
BRANCH   4   5
ATOM      5  C   UNL     1      -4.454  11.613  26.428  0.00  0.00    +0.176 C 
ATOM      6  O   UNL     1      -3.529  12.083  25.410  0.00  0.00    -0.332 OA
ATOM      7  C   UNL     1      -4.143  12.545  24.161  0.00  0.00    +0.277 C 
ATOM      8  C   UNL     1      -5.202  13.637  24.450  0.00  0.00    +0.110 C 
ATOM      9  C   UNL     1      -6.189  13.195  25.550  0.00  0.00    +0.143 C 
ATOM     10  C   UNL     1      -5.444  12.732  26.803  0.00  0.00    +0.133 C 
BRANCH  10  11
ATOM     11  N   UNL     1      -6.392  12.232  27.811  0.00  0.00    -0.308 N 
ATOM     12  H   UNL     1      -6.903  11.386  27.599  0.00  0.00    +0.149 HD
ATOM     13  C   UNL     1      -6.622  12.822  28.987  0.00  0.00    +0.210 C 
ATOM     14  C   UNL     1      -5.847  14.124  29.267  0.00  0.00    +0.109 C 
ATOM     15  O   UNL     1      -7.411  12.373  29.818  0.00  0.00    -0.276 OA
ENDBRANCH  10  11
BRANCH   7  16
ATOM     16  C   UNL     1      -4.804  11.372  23.409  0.00  0.00    +0.414 C 
ATOM     17  O   UNL     1      -4.285  10.256  23.422  0.00  0.00    -0.240 OA
ATOM     18  O   UNL     1      -5.856  11.540  22.791  0.00  0.00    -0.240 OA
ENDBRANCH   7  16
BRANCH   9  19
ATOM     19  O   UNL     1      -7.050  14.283  25.890  0.00  0.00    -0.390 OA
ATOM     20  H   UNL     1      -7.113  14.887  25.146  0.00  0.00    +0.210 HD
ENDBRANCH   9  19
BRANCH   7  21
ATOM     21  O   UNL     1      -3.100  13.127  23.337  0.00  0.00    -0.343 OA
ATOM     22  C   UNL     1      -3.532  14.210  22.475  0.00  0.00    +0.198 C 
ENDBRANCH   7  21
ENDBRANCH   4   5
BRANCH   4  23
ATOM     23  O   UNL     1      -2.993  12.153  28.309  0.00  0.00    -0.387 OA
ATOM     24  H   UNL     1      -2.315  11.803  28.891  0.00  0.00    +0.210 HD
ENDBRANCH   4  23
ENDBRANCH   1   4
BRANCH   1  25
ATOM     25  C   UNL     1      -2.263   9.085  28.283  0.00  0.00    +0.141 C 
BRANCH  25  28
ATOM     26  C   UNL     1      -3.132   9.050  30.596  0.00  0.00    +0.401 C 
ATOM     27  O   UNL     1      -3.547   7.891  30.523  0.00  0.00    -0.226 OA
ATOM     28  N   UNL     1      -2.525   9.689  29.595  0.00  0.00    -0.279 N 
ATOM     29  H   UNL     1      -2.228  10.643  29.749  0.00  0.00    +0.152 HD
BRANCH  26  30
ATOM     30  O   UNL     1      -3.305   9.774  31.817  0.00  0.00    -0.444 OA
BRANCH  30  31
ATOM     31  C   UNL     1      -4.419  10.662  31.692  0.00  0.00    +0.292 C 
BRANCH  31  33
ATOM     32  N   UNL     1      -2.811  12.477  31.196  0.00  0.00    -0.131 NA
ATOM     33  C   UNL     1      -3.973  12.063  31.794  0.00  0.00    +0.120 A 
ATOM     34  C   UNL     1      -4.553  13.132  32.438  0.00  0.00    +0.137 A 
ATOM     35  N   UNL     1      -3.693  14.162  32.200  0.00  0.00    -0.251 N 
ATOM     36  N   UNL     1      -2.650  13.768  31.453  0.00  0.00    -0.065 NA
BRANCH  35  37
ATOM     37  C   UNL     1      -3.783  15.527  32.674  0.00  0.00    +0.145 C 
BRANCH  37  38
ATOM     38  C   UNL     1      -4.176  16.484  31.553  0.00  0.00    +0.024 C 
BRANCH  38  39
ATOM     39  C   UNL     1      -5.655  16.869  31.617  0.00  0.00    +0.006 C 
BRANCH  39  40
ATOM     40  C   UNL     1      -6.058  17.661  30.371  0.00  0.00    +0.026 C 
BRANCH  40  41
ATOM     41  C   UNL     1      -4.872  18.023  29.527  0.00  0.00    -0.034 C 
ATOM     42  C   UNL     1      -4.815  19.113  28.749  0.00  0.00    +0.004 C 
ENDBRANCH  40  41
ENDBRANCH  39  40
ENDBRANCH  38  39
ENDBRANCH  37  38
ENDBRANCH  35  37
ENDBRANCH  31  33
ENDBRANCH  30  31
ENDBRANCH  26  30
ENDBRANCH  25  28
ENDBRANCH   1  25
TORSDOF 18
