REMARK VINA RESULT:    -4.128      7.022     11.062
REMARK INTER + INTRA:         -12.072
REMARK INTER:                  -7.657
REMARK INTRA:                  -4.415
REMARK UNBOUND:                -4.083
REMARK  Name = lig_assembled_83.pdb
REMARK  20 active torsions:
REMARK  status: ('A' for Active; 'I' for Inactive)
REMARK    1  A    between atoms: _2  and  _12
REMARK    2  A    between atoms: _3  and  _14
REMARK    3  A    between atoms: _7  and  _24
REMARK    4  A    between atoms: _9  and  _10
REMARK    5  A    between atoms: _9  and  _24
REMARK    6  A    between atoms: _12  and  _13
REMARK    7  A    between atoms: _13  and  _14
REMARK    8  A    between atoms: _13  and  _18
REMARK    9  A    between atoms: _20  and  _40
REMARK   10  A    between atoms: _22  and  _28
REMARK   11  A    between atoms: _23  and  _27
REMARK   12  A    between atoms: _27  and  _28
REMARK   13  A    between atoms: _30  and  _31
REMARK   14  A    between atoms: _32  and  _33
REMARK   15  A    between atoms: _34  and  _36
REMARK   16  A    between atoms: _36  and  _37
REMARK   17  A    between atoms: _36  and  _38
REMARK   18  A    between atoms: _38  and  _39
REMARK   19  A    between atoms: _38  and  _40
REMARK   20  A    between atoms: _41  and  _43
REMARK                            x       y       z     vdW  Elec       q    Type
REMARK                         _______ _______ _______ _____ _____    ______ ____
ROOT
ATOM      1  C   UNL     1      -4.759  12.620  11.423  0.00  0.00    +0.141 C 
ENDROOT
BRANCH   1   4
ATOM      2  C   UNL     1      -4.588  15.053  11.818  0.00  0.00    +0.401 C 
ATOM      3  O   UNL     1      -5.624  15.321  11.204  0.00  0.00    -0.226 OA
ATOM      4  N   UNL     1      -4.107  13.818  11.965  0.00  0.00    -0.279 N 
ATOM      5  H   UNL     1      -3.244  13.701  12.478  0.00  0.00    +0.152 HD
BRANCH   2   6
ATOM      6  O   UNL     1      -3.840  16.116  12.414  0.00  0.00    -0.444 OA
BRANCH   6   7
ATOM      7  C   UNL     1      -3.837  17.247  11.539  0.00  0.00    +0.292 C 
BRANCH   7   9
ATOM      8  N   UNL     1      -2.464  17.188   9.471  0.00  0.00    -0.131 NA
ATOM      9  C   UNL     1      -2.548  17.349  10.830  0.00  0.00    +0.120 A 
ATOM     10  C   UNL     1      -1.291  17.601  11.329  0.00  0.00    +0.137 A 
ATOM     11  N   UNL     1      -0.494  17.596  10.226  0.00  0.00    -0.249 N 
ATOM     12  N   UNL     1      -1.195  17.335   9.111  0.00  0.00    -0.065 NA
BRANCH  11  13
ATOM     13  C   UNL     1       0.940  17.791  10.167  0.00  0.00    +0.178 C 
BRANCH  13  14
ATOM     14  C   UNL     1       1.648  16.615   9.489  0.00  0.00    +0.156 C 
BRANCH  14  15
ATOM     15  O   UNL     1       2.999  16.974   9.179  0.00  0.00    -0.388 OA
ATOM     16  H   UNL     1       3.615  16.338   9.597  0.00  0.00    +0.210 HD
ENDBRANCH  14  15
BRANCH  14  17
ATOM     17  C   UNL     1       1.621  15.375  10.397  0.00  0.00    +0.162 C 
BRANCH  17  18
ATOM     18  N   UNL     1       0.500  14.495  10.107  0.00  0.00    -0.269 N 
ATOM     19  C   UNL     1       0.213  14.025   8.845  0.00  0.00    +0.113 A 
ATOM     20  C   UNL     1      -0.887  13.212   8.996  0.00  0.00    +0.137 A 
ATOM     21  N   UNL     1      -1.300  13.191  10.300  0.00  0.00    -0.172 NA
ATOM     22  C   UNL     1      -0.448  13.964  10.948  0.00  0.00    +0.450 A 
ATOM     23  N   UNL     1      -0.537  14.193  12.373  0.00  0.00    +0.120 N 
ATOM     24  O   UNL     1       0.313  14.935  12.891  0.00  0.00    +0.045 OA
ATOM     25  O   UNL     1      -1.463  13.645  12.982  0.00  0.00    -0.573 OA
ENDBRANCH  17  18
ENDBRANCH  14  17
ENDBRANCH  13  14
ENDBRANCH  11  13
ENDBRANCH   7   9
ENDBRANCH   6   7
ENDBRANCH   2   6
ENDBRANCH   1   4
BRANCH   1  26
ATOM     26  C   UNL     1      -4.208  11.342  12.046  0.00  0.00    +0.163 C 
BRANCH  26  27
ATOM     27  O   UNL     1      -2.775  11.321  11.940  0.00  0.00    -0.388 OA
ATOM     28  H   UNL     1      -2.403  10.893  12.714  0.00  0.00    +0.210 HD
ENDBRANCH  26  27
BRANCH  26  29
ATOM     29  C   UNL     1      -4.652  11.254  13.516  0.00  0.00    +0.175 C 
BRANCH  29  30
ATOM     30  C   UNL     1      -3.994  10.076  14.249  0.00  0.00    +0.176 C 
ATOM     31  O   UNL     1      -3.928   8.955  13.326  0.00  0.00    -0.332 OA
ATOM     32  C   UNL     1      -3.229   7.765  13.821  0.00  0.00    +0.277 C 
ATOM     33  C   UNL     1      -3.840   7.300  15.166  0.00  0.00    +0.110 C 
ATOM     34  C   UNL     1      -3.959   8.465  16.170  0.00  0.00    +0.143 C 
ATOM     35  C   UNL     1      -4.700   9.650  15.550  0.00  0.00    +0.133 C 
BRANCH  35  36
ATOM     36  N   UNL     1      -4.731  10.785  16.486  0.00  0.00    -0.308 N 
ATOM     37  H   UNL     1      -3.863  11.271  16.668  0.00  0.00    +0.149 HD
ATOM     38  C   UNL     1      -5.830  11.216  17.111  0.00  0.00    +0.210 C 
ATOM     39  C   UNL     1      -7.130  10.439  16.833  0.00  0.00    +0.109 C 
ATOM     40  O   UNL     1      -5.829  12.179  17.879  0.00  0.00    -0.276 OA
ENDBRANCH  35  36
BRANCH  32  41
ATOM     41  C   UNL     1      -1.725   8.053  14.009  0.00  0.00    +0.414 C 
ATOM     42  O   UNL     1      -1.192   8.983  13.406  0.00  0.00    -0.240 OA
ATOM     43  O   UNL     1      -1.046   7.355  14.764  0.00  0.00    -0.240 OA
ENDBRANCH  32  41
BRANCH  32  44
ATOM     44  O   UNL     1      -3.405   6.703  12.848  0.00  0.00    -0.343 OA
ATOM     45  C   UNL     1      -3.588   7.150  11.480  0.00  0.00    +0.198 C 
ENDBRANCH  32  44
BRANCH  34  46
ATOM     46  O   UNL     1      -4.661   8.028  17.334  0.00  0.00    -0.390 OA
ATOM     47  H   UNL     1      -4.603   8.701  18.016  0.00  0.00    +0.210 HD
ENDBRANCH  34  46
ENDBRANCH  29  30
BRANCH  29  48
ATOM     48  O   UNL     1      -6.088  11.149  13.596  0.00  0.00    -0.387 OA
ATOM     49  H   UNL     1      -6.411  10.612  12.869  0.00  0.00    +0.210 HD
ENDBRANCH  29  48
ENDBRANCH  26  29
ENDBRANCH   1  26
TORSDOF 18
