REMARK VINA RESULT:    -5.152      4.355      8.296
REMARK INTER + INTRA:         -13.404
REMARK INTER:                 -10.291
REMARK INTRA:                  -3.112
REMARK UNBOUND:                -3.885
REMARK  Name = lig_assembled_79.pdb
REMARK  20 active torsions:
REMARK  status: ('A' for Active; 'I' for Inactive)
REMARK    1  A    between atoms: _2  and  _10
REMARK    2  A    between atoms: _5  and  _26
REMARK    3  A    between atoms: _7  and  _8
REMARK    4  A    between atoms: _7  and  _26
REMARK    5  A    between atoms: _10  and  _11
REMARK    6  A    between atoms: _10  and  _12
REMARK    7  A    between atoms: _10  and  _13
REMARK    8  A    between atoms: _13  and  _14
REMARK    9  A    between atoms: _22  and  _42
REMARK   10  A    between atoms: _24  and  _30
REMARK   11  A    between atoms: _25  and  _29
REMARK   12  A    between atoms: _29  and  _30
REMARK   13  A    between atoms: _32  and  _33
REMARK   14  A    between atoms: _34  and  _35
REMARK   15  A    between atoms: _36  and  _38
REMARK   16  A    between atoms: _38  and  _39
REMARK   17  A    between atoms: _38  and  _40
REMARK   18  A    between atoms: _40  and  _41
REMARK   19  A    between atoms: _40  and  _42
REMARK   20  A    between atoms: _43  and  _45
REMARK                            x       y       z     vdW  Elec       q    Type
REMARK                         _______ _______ _______ _____ _____    ______ ____
ROOT
ATOM      1  C   UNL     1      -6.201  12.182  19.495  0.00  0.00    +0.401 C 
ATOM      2  O   UNL     1      -6.703  13.024  20.243  0.00  0.00    -0.226 OA
ATOM      3  N   UNL     1      -4.958  11.717  19.622  0.00  0.00    -0.279 N 
ATOM      4  H   UNL     1      -4.639  11.020  18.964  0.00  0.00    +0.152 HD
ENDROOT
BRANCH   3   5
ATOM      5  C   UNL     1      -4.025  12.163  20.665  0.00  0.00    +0.141 C 
BRANCH   5   6
ATOM      6  C   UNL     1      -4.088  11.274  21.902  0.00  0.00    +0.163 C 
BRANCH   6   7
ATOM      7  O   UNL     1      -3.903   9.898  21.529  0.00  0.00    -0.388 OA
ATOM      8  H   UNL     1      -4.279   9.749  20.658  0.00  0.00    +0.210 HD
ENDBRANCH   6   7
BRANCH   6   9
ATOM      9  C   UNL     1      -3.015  11.719  22.910  0.00  0.00    +0.175 C 
BRANCH   9  10
ATOM     10  C   UNL     1      -3.333  11.250  24.338  0.00  0.00    +0.176 C 
ATOM     11  O   UNL     1      -3.126   9.812  24.392  0.00  0.00    -0.332 OA
ATOM     12  C   UNL     1      -3.281   9.199  25.715  0.00  0.00    +0.277 C 
ATOM     13  C   UNL     1      -4.664   9.552  26.316  0.00  0.00    +0.110 C 
ATOM     14  C   UNL     1      -4.942  11.068  26.251  0.00  0.00    +0.143 C 
ATOM     15  C   UNL     1      -4.748  11.602  24.831  0.00  0.00    +0.133 C 
BRANCH  15  16
ATOM     16  N   UNL     1      -4.932  13.061  24.799  0.00  0.00    -0.308 N 
ATOM     17  H   UNL     1      -4.218  13.636  25.225  0.00  0.00    +0.149 HD
ATOM     18  C   UNL     1      -5.980  13.676  24.245  0.00  0.00    +0.210 C 
ATOM     19  C   UNL     1      -7.063  12.772  23.628  0.00  0.00    +0.109 C 
ATOM     20  O   UNL     1      -6.100  14.902  24.220  0.00  0.00    -0.276 OA
ENDBRANCH  15  16
BRANCH  12  21
ATOM     21  C   UNL     1      -2.167   9.672  26.671  0.00  0.00    +0.414 C 
ATOM     22  O   UNL     1      -1.015   9.810  26.262  0.00  0.00    -0.240 OA
ATOM     23  O   UNL     1      -2.420   9.916  27.852  0.00  0.00    -0.240 OA
ENDBRANCH  12  21
BRANCH  14  24
ATOM     24  O   UNL     1      -6.281  11.331  26.674  0.00  0.00    -0.390 OA
ATOM     25  H   UNL     1      -6.695  10.511  26.955  0.00  0.00    +0.210 HD
ENDBRANCH  14  24
BRANCH  12  26
ATOM     26  O   UNL     1      -3.207   7.759  25.554  0.00  0.00    -0.343 OA
ATOM     27  C   UNL     1      -4.073   7.212  24.527  0.00  0.00    +0.198 C 
ENDBRANCH  12  26
ENDBRANCH   9  10
BRANCH   9  28
ATOM     28  O   UNL     1      -2.869  13.153  22.879  0.00  0.00    -0.387 OA
ATOM     29  H   UNL     1      -3.167  13.523  23.714  0.00  0.00    +0.210 HD
ENDBRANCH   9  28
ENDBRANCH   6   9
ENDBRANCH   5   6
ENDBRANCH   3   5
BRANCH   1  30
ATOM     30  O   UNL     1      -6.983  11.654  18.420  0.00  0.00    -0.444 OA
BRANCH  30  31
ATOM     31  C   UNL     1      -7.380  10.315  18.731  0.00  0.00    +0.292 C 
BRANCH  31  33
ATOM     32  N   UNL     1      -5.498   8.746  19.018  0.00  0.00    -0.131 NA
ATOM     33  C   UNL     1      -6.397   9.357  18.193  0.00  0.00    +0.120 A 
ATOM     34  C   UNL     1      -6.188   8.928  16.902  0.00  0.00    +0.138 A 
ATOM     35  N   UNL     1      -5.206   7.982  17.008  0.00  0.00    -0.238 N 
ATOM     36  N   UNL     1      -4.745   7.944  18.283  0.00  0.00    -0.064 NA
BRANCH  35  37
ATOM     37  C   UNL     1      -4.486   7.200  15.961  0.00  0.00    +0.122 C 
ATOM     38  C   UNL     1      -5.424   7.145  14.732  0.00  0.00    +0.044 C 
ATOM     39  C   UNL     1      -4.196   5.835  16.613  0.00  0.00    +0.044 C 
BRANCH  37  40
ATOM     40  C   UNL     1      -3.166   7.855  15.503  0.00  0.00    +0.192 C 
ATOM     41  O   UNL     1      -2.082   7.343  15.798  0.00  0.00    -0.289 OA
BRANCH  40  42
ATOM     42  C   UNL     1      -3.127   9.123  14.718  0.00  0.00    +0.045 A 
ATOM     43  C   UNL     1      -2.693   9.107  13.397  0.00  0.00    +0.095 A 
ATOM     44  N   UNL     1      -2.714  10.370  12.890  0.00  0.00    -0.360 N 
ATOM     45  H   UNL     1      -2.435  10.629  11.953  0.00  0.00    +0.165 HD
ATOM     46  C   UNL     1      -3.158  11.250  13.843  0.00  0.00    +0.047 A 
ATOM     47  C   UNL     1      -3.322  12.639  13.747  0.00  0.00    +0.026 A 
ATOM     48  C   UNL     1      -3.789  13.327  14.867  0.00  0.00    +0.002 A 
ATOM     49  C   UNL     1      -4.084  12.646  16.037  0.00  0.00    +0.001 A 
ATOM     50  C   UNL     1      -3.915  11.258  16.112  0.00  0.00    +0.011 A 
ATOM     51  C   UNL     1      -3.438  10.514  15.003  0.00  0.00    +0.010 A 
ENDBRANCH  40  42
ENDBRANCH  37  40
ENDBRANCH  35  37
ENDBRANCH  31  33
ENDBRANCH  30  31
ENDBRANCH   1  30
TORSDOF 16
