REMARK VINA RESULT:    -5.004      3.159     10.358
REMARK INTER + INTRA:         -11.822
REMARK INTER:                  -8.954
REMARK INTRA:                  -2.869
REMARK UNBOUND:                -2.869
REMARK  Name = lig_assembled_71.pdb
REMARK  17 active torsions:
REMARK  status: ('A' for Active; 'I' for Inactive)
REMARK    1  A    between atoms: _2  and  _12
REMARK    2  A    between atoms: _7  and  _22
REMARK    3  A    between atoms: _9  and  _10
REMARK    4  A    between atoms: _9  and  _22
REMARK    5  A    between atoms: _12  and  _13
REMARK    6  A    between atoms: _18  and  _38
REMARK    7  A    between atoms: _20  and  _26
REMARK    8  A    between atoms: _21  and  _25
REMARK    9  A    between atoms: _25  and  _26
REMARK   10  A    between atoms: _28  and  _29
REMARK   11  A    between atoms: _30  and  _31
REMARK   12  A    between atoms: _32  and  _34
REMARK   13  A    between atoms: _34  and  _35
REMARK   14  A    between atoms: _34  and  _36
REMARK   15  A    between atoms: _36  and  _37
REMARK   16  A    between atoms: _36  and  _38
REMARK   17  A    between atoms: _39  and  _41
REMARK                            x       y       z     vdW  Elec       q    Type
REMARK                         _______ _______ _______ _____ _____    ______ ____
ROOT
ATOM      1  C   UNL     1      -3.263  11.774  25.159  0.00  0.00    +0.163 C 
ENDROOT
BRANCH   1   2
ATOM      2  O   UNL     1      -2.196  10.815  25.074  0.00  0.00    -0.388 OA
ATOM      3  H   UNL     1      -1.728  10.929  24.243  0.00  0.00    +0.210 HD
ENDBRANCH   1   2
BRANCH   1   4
ATOM      4  C   UNL     1      -2.880  13.047  24.413  0.00  0.00    +0.141 C 
BRANCH   4   7
ATOM      5  C   UNL     1      -4.880  13.879  23.222  0.00  0.00    +0.401 C 
ATOM      6  O   UNL     1      -5.402  14.350  24.235  0.00  0.00    -0.226 OA
ATOM      7  N   UNL     1      -3.705  13.248  23.215  0.00  0.00    -0.279 N 
ATOM      8  H   UNL     1      -3.363  12.887  22.335  0.00  0.00    +0.152 HD
BRANCH   5   9
ATOM      9  O   UNL     1      -5.558  14.001  21.970  0.00  0.00    -0.444 OA
BRANCH   9  10
ATOM     10  C   UNL     1      -6.394  12.859  21.766  0.00  0.00    +0.292 C 
BRANCH  10  12
ATOM     11  N   UNL     1      -4.540  12.016  20.346  0.00  0.00    -0.131 NA
ATOM     12  C   UNL     1      -5.875  12.034  20.659  0.00  0.00    +0.120 A 
ATOM     13  C   UNL     1      -6.545  11.193  19.802  0.00  0.00    +0.137 A 
ATOM     14  N   UNL     1      -5.571  10.705  18.981  0.00  0.00    -0.242 N 
ATOM     15  N   UNL     1      -4.364  11.192  19.321  0.00  0.00    -0.065 NA
BRANCH  14  16
ATOM     16  C   UNL     1      -5.682   9.702  17.941  0.00  0.00    +0.241 C 
BRANCH  16  17
ATOM     17  C   UNL     1      -4.844  10.049  16.738  0.00  0.00    +0.241 C 
ATOM     18  O   UNL     1      -4.081   9.213  16.257  0.00  0.00    -0.273 OA
ATOM     19  N   UNL     1      -4.964  11.356  16.315  0.00  0.00    -0.253 N 
ATOM     20  H   UNL     1      -5.443  12.056  16.860  0.00  0.00    +0.158 HD
ATOM     21  C   UNL     1      -4.298  11.877  15.211  0.00  0.00    +0.221 A 
ATOM     22  N   UNL     1      -4.299  13.215  15.119  0.00  0.00    -0.223 NA
ATOM     23  C   UNL     1      -3.594  13.741  14.094  0.00  0.00    +0.116 A 
ATOM     24  C   UNL     1      -2.924  12.988  13.160  0.00  0.00    +0.039 A 
ATOM     25  C   UNL     1      -3.027  11.632  13.322  0.00  0.00    +0.116 A 
ATOM     26  N   UNL     1      -3.703  11.064  14.332  0.00  0.00    -0.223 NA
ENDBRANCH  16  17
ENDBRANCH  14  16
ENDBRANCH  10  12
ENDBRANCH   9  10
ENDBRANCH   5   9
ENDBRANCH   4   7
ENDBRANCH   1   4
BRANCH   1  27
ATOM     27  C   UNL     1      -3.580  12.113  26.626  0.00  0.00    +0.175 C 
BRANCH  27  28
ATOM     28  C   UNL     1      -3.361  10.912  27.558  0.00  0.00    +0.176 C 
ATOM     29  O   UNL     1      -4.004   9.755  26.955  0.00  0.00    -0.332 OA
ATOM     30  C   UNL     1      -3.808   8.484  27.657  0.00  0.00    +0.277 C 
ATOM     31  C   UNL     1      -4.242   8.611  29.138  0.00  0.00    +0.110 C 
ATOM     32  C   UNL     1      -3.608   9.846  29.813  0.00  0.00    +0.143 C 
ATOM     33  C   UNL     1      -3.871  11.112  28.997  0.00  0.00    +0.133 C 
BRANCH  33  34
ATOM     34  N   UNL     1      -3.190  12.267  29.604  0.00  0.00    -0.308 N 
ATOM     35  H   UNL     1      -2.179  12.275  29.598  0.00  0.00    +0.149 HD
ATOM     36  C   UNL     1      -3.819  13.304  30.162  0.00  0.00    +0.210 C 
ATOM     37  C   UNL     1      -5.358  13.249  30.179  0.00  0.00    +0.109 C 
ATOM     38  O   UNL     1      -3.222  14.265  30.650  0.00  0.00    -0.276 OA
ENDBRANCH  33  34
BRANCH  30  39
ATOM     39  C   UNL     1      -2.331   8.043  27.589  0.00  0.00    +0.414 C 
ATOM     40  O   UNL     1      -1.816   7.451  28.537  0.00  0.00    -0.240 OA
ATOM     41  O   UNL     1      -1.654   8.279  26.587  0.00  0.00    -0.240 OA
ENDBRANCH  30  39
BRANCH  30  42
ATOM     42  O   UNL     1      -4.645   7.485  27.020  0.00  0.00    -0.343 OA
ATOM     43  C   UNL     1      -5.208   7.882  25.744  0.00  0.00    +0.198 C 
ENDBRANCH  30  42
BRANCH  32  44
ATOM     44  O   UNL     1      -4.151  10.010  31.124  0.00  0.00    -0.390 OA
ATOM     45  H   UNL     1      -3.795  10.808  31.521  0.00  0.00    +0.210 HD
ENDBRANCH  32  44
ENDBRANCH  27  28
BRANCH  27  46
ATOM     46  O   UNL     1      -4.935  12.592  26.742  0.00  0.00    -0.387 OA
ATOM     47  H   UNL     1      -4.937  13.552  26.738  0.00  0.00    +0.210 HD
ENDBRANCH  27  46
ENDBRANCH   1  27
TORSDOF 15
