REMARK VINA RESULT:    -4.640      3.502      7.636
REMARK INTER + INTRA:         -10.536
REMARK INTER:                  -7.458
REMARK INTRA:                  -3.078
REMARK UNBOUND:                -2.233
REMARK  Name = lig_assembled_61.pdb
REMARK  17 active torsions:
REMARK  status: ('A' for Active; 'I' for Inactive)
REMARK    1  A    between atoms: _2  and  _9
REMARK    2  A    between atoms: _4  and  _17
REMARK    3  A    between atoms: _6  and  _7
REMARK    4  A    between atoms: _6  and  _17
REMARK    5  A    between atoms: _9  and  _10
REMARK    6  A    between atoms: _13  and  _33
REMARK    7  A    between atoms: _15  and  _21
REMARK    8  A    between atoms: _16  and  _20
REMARK    9  A    between atoms: _20  and  _21
REMARK   10  A    between atoms: _23  and  _24
REMARK   11  A    between atoms: _25  and  _26
REMARK   12  A    between atoms: _27  and  _29
REMARK   13  A    between atoms: _29  and  _30
REMARK   14  A    between atoms: _29  and  _31
REMARK   15  A    between atoms: _31  and  _32
REMARK   16  A    between atoms: _31  and  _33
REMARK   17  A    between atoms: _34  and  _36
REMARK                            x       y       z     vdW  Elec       q    Type
REMARK                         _______ _______ _______ _____ _____    ______ ____
ROOT
ATOM      1  C   UNL     1      -2.972  11.969  23.889  0.00  0.00    +0.163 C 
ENDROOT
BRANCH   1   2
ATOM      2  O   UNL     1      -2.153  11.774  25.054  0.00  0.00    -0.388 OA
ATOM      3  H   UNL     1      -1.454  11.148  24.853  0.00  0.00    +0.210 HD
ENDBRANCH   1   2
BRANCH   1   4
ATOM      4  C   UNL     1      -3.917  13.146  24.106  0.00  0.00    +0.141 C 
BRANCH   4   7
ATOM      5  C   UNL     1      -5.748  13.090  25.764  0.00  0.00    +0.401 C 
ATOM      6  O   UNL     1      -6.638  12.989  24.917  0.00  0.00    -0.226 OA
ATOM      7  N   UNL     1      -4.449  13.176  25.474  0.00  0.00    -0.279 N 
ATOM      8  H   UNL     1      -3.795  13.266  26.238  0.00  0.00    +0.152 HD
BRANCH   5   9
ATOM      9  O   UNL     1      -6.107  13.124  27.148  0.00  0.00    -0.444 OA
BRANCH   9  10
ATOM     10  C   UNL     1      -5.737  11.890  27.768  0.00  0.00    +0.292 C 
BRANCH  10  12
ATOM     11  N   UNL     1      -5.720  11.807  30.241  0.00  0.00    -0.131 NA
ATOM     12  C   UNL     1      -5.092  12.141  29.070  0.00  0.00    +0.120 A 
ATOM     13  C   UNL     1      -3.864  12.696  29.358  0.00  0.00    +0.137 A 
ATOM     14  N   UNL     1      -3.831  12.726  30.721  0.00  0.00    -0.247 N 
ATOM     15  N   UNL     1      -4.929  12.153  31.249  0.00  0.00    -0.065 NA
BRANCH  14  16
ATOM     16  C   UNL     1      -2.784  13.243  31.584  0.00  0.00    +0.180 C 
BRANCH  16  17
ATOM     17  C   UNL     1      -3.155  14.574  32.176  0.00  0.00    -0.019 A 
ATOM     18  C   UNL     1      -3.765  15.650  31.445  0.00  0.00    +0.013 A 
ATOM     19  C   UNL     1      -3.965  16.775  32.216  0.00  0.00    +0.045 A 
ATOM     20  S   UNL     1      -3.437  16.550  33.824  0.00  0.00    -0.105 S 
ATOM     21  C   UNL     1      -2.929  14.953  33.490  0.00  0.00    +0.050 A 
ENDBRANCH  16  17
ENDBRANCH  14  16
ENDBRANCH  10  12
ENDBRANCH   9  10
ENDBRANCH   5   9
ENDBRANCH   4   7
ENDBRANCH   1   4
BRANCH   1  22
ATOM     22  C   UNL     1      -3.790  10.705  23.575  0.00  0.00    +0.175 C 
BRANCH  22  23
ATOM     23  C   UNL     1      -4.097   9.886  24.837  0.00  0.00    +0.176 C 
ATOM     24  O   UNL     1      -2.945   9.042  25.113  0.00  0.00    -0.332 OA
ATOM     25  C   UNL     1      -3.015   8.260  26.352  0.00  0.00    +0.277 C 
ATOM     26  C   UNL     1      -4.307   7.407  26.381  0.00  0.00    +0.110 C 
ATOM     27  C   UNL     1      -5.556   8.255  26.061  0.00  0.00    +0.143 C 
ATOM     28  C   UNL     1      -5.374   9.029  24.755  0.00  0.00    +0.133 C 
BRANCH  28  29
ATOM     29  N   UNL     1      -6.534   9.899  24.506  0.00  0.00    -0.308 N 
ATOM     30  H   UNL     1      -6.740  10.617  25.186  0.00  0.00    +0.149 HD
ATOM     31  C   UNL     1      -7.333   9.802  23.440  0.00  0.00    +0.210 C 
ATOM     32  C   UNL     1      -7.008   8.681  22.434  0.00  0.00    +0.109 C 
ATOM     33  O   UNL     1      -8.289  10.555  23.250  0.00  0.00    -0.276 OA
ENDBRANCH  28  29
BRANCH  25  34
ATOM     34  C   UNL     1      -2.979   9.185  27.586  0.00  0.00    +0.414 C 
ATOM     35  O   UNL     1      -2.232  10.163  27.606  0.00  0.00    -0.240 OA
ATOM     36  O   UNL     1      -3.696   8.954  28.560  0.00  0.00    -0.240 OA
ENDBRANCH  25  34
BRANCH  25  37
ATOM     37  O   UNL     1      -1.874   7.363  26.380  0.00  0.00    -0.343 OA
ATOM     38  C   UNL     1      -2.046   6.181  27.202  0.00  0.00    +0.198 C 
ENDBRANCH  25  37
BRANCH  27  39
ATOM     39  O   UNL     1      -6.699   7.406  25.950  0.00  0.00    -0.390 OA
ATOM     40  H   UNL     1      -6.735   6.817  26.707  0.00  0.00    +0.210 HD
ENDBRANCH  27  39
ENDBRANCH  22  23
BRANCH  22  41
ATOM     41  O   UNL     1      -3.094   9.890  22.611  0.00  0.00    -0.387 OA
ATOM     42  H   UNL     1      -2.363   9.440  23.040  0.00  0.00    +0.210 HD
ENDBRANCH  22  41
ENDBRANCH   1  22
TORSDOF 15
