REMARK VINA RESULT:    -5.814      2.808     13.944
REMARK INTER + INTRA:         -14.310
REMARK INTER:                 -11.104
REMARK INTRA:                  -3.206
REMARK UNBOUND:                -3.396
REMARK  Name = lig_assembled_34.pdb
REMARK  19 active torsions:
REMARK  status: ('A' for Active; 'I' for Inactive)
REMARK    1  A    between atoms: _2  and  _9
REMARK    2  A    between atoms: _4  and  _37
REMARK    3  A    between atoms: _6  and  _7
REMARK    4  A    between atoms: _6  and  _37
REMARK    5  A    between atoms: _11  and  _12
REMARK    6  A    between atoms: _13  and  _14
REMARK    7  A    between atoms: _18  and  _31
REMARK    8  A    between atoms: _33  and  _53
REMARK    9  A    between atoms: _35  and  _41
REMARK   10  A    between atoms: _36  and  _40
REMARK   11  A    between atoms: _40  and  _41
REMARK   12  A    between atoms: _43  and  _44
REMARK   13  A    between atoms: _45  and  _46
REMARK   14  A    between atoms: _47  and  _49
REMARK   15  A    between atoms: _49  and  _50
REMARK   16  A    between atoms: _49  and  _51
REMARK   17  A    between atoms: _51  and  _52
REMARK   18  A    between atoms: _51  and  _53
REMARK   19  A    between atoms: _54  and  _56
REMARK                            x       y       z     vdW  Elec       q    Type
REMARK                         _______ _______ _______ _____ _____    ______ ____
ROOT
ATOM      1  N   UNL     1      -4.106  13.578  21.521  0.00  0.00    -0.131 NA
ATOM      2  C   UNL     1      -4.265  12.301  21.062  0.00  0.00    +0.121 A 
ATOM      3  C   UNL     1      -4.135  11.431  22.115  0.00  0.00    +0.143 A 
ATOM      4  N   UNL     1      -3.923  12.222  23.224  0.00  0.00    -0.220 N 
ATOM      5  N   UNL     1      -3.884  13.524  22.832  0.00  0.00    -0.060 NA
ENDROOT
BRANCH   4   6
ATOM      6  C   UNL     1      -3.808  11.814  24.580  0.00  0.00    +0.068 A 
ATOM      7  C   UNL     1      -4.874  11.152  25.197  0.00  0.00    +0.038 A 
ATOM      8  C   UNL     1      -4.880  10.831  26.576  0.00  0.00    +0.007 A 
ATOM      9  C   UNL     1      -3.732  11.125  27.340  0.00  0.00    -0.008 A 
ATOM     10  C   UNL     1      -2.636  11.751  26.697  0.00  0.00    +0.011 A 
ATOM     11  C   UNL     1      -2.675  12.109  25.338  0.00  0.00    +0.028 A 
BRANCH   9  12
ATOM     12  C   UNL     1      -3.609  10.896  28.817  0.00  0.00    +0.004 A 
ATOM     13  C   UNL     1      -3.151   9.722  29.338  0.00  0.00    +0.026 A 
ATOM     14  C   UNL     1      -2.800   8.567  28.503  0.00  0.00    +0.016 A 
ATOM     15  C   UNL     1      -2.534   7.367  29.041  0.00  0.00    +0.051 A 
ATOM     16  C   UNL     1      -2.552   7.178  30.511  0.00  0.00    +0.183 A 
ATOM     17  O   UNL     1      -2.374   6.072  31.014  0.00  0.00    -0.288 OA
ATOM     18  C   UNL     1      -2.716   8.382  31.350  0.00  0.00    +0.097 A 
ATOM     19  C   UNL     1      -2.962   9.574  30.793  0.00  0.00    +0.140 A 
ATOM     20  O   UNL     1      -2.969  10.694  31.612  0.00  0.00    -0.455 OA
ATOM     21  C   UNL     1      -3.463  11.868  31.110  0.00  0.00    +0.140 A 
ATOM     22  C   UNL     1      -3.534  12.940  32.001  0.00  0.00    +0.092 A 
ATOM     23  C   UNL     1      -4.078  14.142  31.576  0.00  0.00    +0.120 A 
ATOM     24  C   UNL     1      -4.621  14.259  30.301  0.00  0.00    +0.046 A 
ATOM     25  C   UNL     1      -4.531  13.181  29.415  0.00  0.00    +0.016 A 
ATOM     26  C   UNL     1      -3.892  11.989  29.790  0.00  0.00    +0.026 A 
BRANCH  23  27
ATOM     27  O   UNL     1      -4.055  15.201  32.434  0.00  0.00    -0.507 OA
ATOM     28  H   UNL     1      -4.137  14.849  33.336  0.00  0.00    +0.292 HD
ENDBRANCH  23  27
ENDBRANCH   9  12
BRANCH   8  29
ATOM     29  C   UNL     1      -6.169  10.260  27.133  0.00  0.00    +0.072 C 
ATOM     30  O   UNL     1      -6.231   8.991  27.211  0.00  0.00    -0.545 OA
ATOM     31  O   UNL     1      -7.111  11.061  27.406  0.00  0.00    -0.545 OA
ENDBRANCH   8  29
ENDBRANCH   4   6
BRANCH   2  32
ATOM     32  C   UNL     1      -4.532  11.998  19.642  0.00  0.00    +0.292 C 
BRANCH  32  33
ATOM     33  O   UNL     1      -5.068  10.680  19.498  0.00  0.00    -0.444 OA
BRANCH  33  34
ATOM     34  C   UNL     1      -4.926  10.253  18.140  0.00  0.00    +0.401 C 
ATOM     35  O   UNL     1      -4.579   9.092  17.911  0.00  0.00    -0.226 OA
ATOM     36  N   UNL     1      -5.188  11.154  17.193  0.00  0.00    -0.279 N 
ATOM     37  H   UNL     1      -5.476  12.079  17.480  0.00  0.00    +0.152 HD
BRANCH  36  38
ATOM     38  C   UNL     1      -5.081  10.878  15.755  0.00  0.00    +0.141 C 
BRANCH  38  39
ATOM     39  C   UNL     1      -5.110  12.158  14.926  0.00  0.00    +0.163 C 
BRANCH  39  40
ATOM     40  O   UNL     1      -6.115  13.050  15.435  0.00  0.00    -0.388 OA
ATOM     41  H   UNL     1      -5.743  13.930  15.532  0.00  0.00    +0.210 HD
ENDBRANCH  39  40
BRANCH  39  42
ATOM     42  C   UNL     1      -3.722  12.820  14.953  0.00  0.00    +0.175 C 
BRANCH  42  43
ATOM     43  C   UNL     1      -3.361  13.461  13.606  0.00  0.00    +0.176 C 
ATOM     44  O   UNL     1      -4.213  14.625  13.421  0.00  0.00    -0.332 OA
ATOM     45  C   UNL     1      -3.936  15.430  12.228  0.00  0.00    +0.277 C 
ATOM     46  C   UNL     1      -3.975  14.546  10.957  0.00  0.00    +0.110 C 
ATOM     47  C   UNL     1      -3.109  13.280  11.118  0.00  0.00    +0.143 C 
ATOM     48  C   UNL     1      -3.478  12.520  12.392  0.00  0.00    +0.133 C 
BRANCH  48  49
ATOM     49  N   UNL     1      -2.587  11.364  12.579  0.00  0.00    -0.308 N 
ATOM     50  H   UNL     1      -1.615  11.545  12.782  0.00  0.00    +0.149 HD
ATOM     51  C   UNL     1      -2.981  10.090  12.498  0.00  0.00    +0.210 C 
ATOM     52  C   UNL     1      -4.464   9.846  12.161  0.00  0.00    +0.109 C 
ATOM     53  O   UNL     1      -2.215   9.141  12.674  0.00  0.00    -0.276 OA
ENDBRANCH  48  49
BRANCH  45  54
ATOM     54  C   UNL     1      -2.558  16.115  12.338  0.00  0.00    +0.414 C 
ATOM     55  O   UNL     1      -1.870  16.288  11.333  0.00  0.00    -0.240 OA
ATOM     56  O   UNL     1      -2.135  16.494  13.431  0.00  0.00    -0.240 OA
ENDBRANCH  45  54
BRANCH  47  57
ATOM     57  O   UNL     1      -3.293  12.424   9.989  0.00  0.00    -0.390 OA
ATOM     58  H   UNL     1      -2.573  11.790   9.947  0.00  0.00    +0.210 HD
ENDBRANCH  47  57
BRANCH  45  59
ATOM     59  O   UNL     1      -4.974  16.438  12.117  0.00  0.00    -0.343 OA
ATOM     60  C   UNL     1      -5.372  16.759  10.760  0.00  0.00    +0.198 C 
ENDBRANCH  45  59
ENDBRANCH  42  43
BRANCH  42  61
ATOM     61  O   UNL     1      -2.719  11.854  15.329  0.00  0.00    -0.387 OA
ATOM     62  H   UNL     1      -3.038  10.970  15.136  0.00  0.00    +0.210 HD
ENDBRANCH  42  61
ENDBRANCH  39  42
ENDBRANCH  38  39
ENDBRANCH  36  38
ENDBRANCH  33  34
ENDBRANCH  32  33
ENDBRANCH   2  32
TORSDOF 17
