REMARK VINA RESULT:    -4.119      3.248      9.154
REMARK INTER + INTRA:         -11.591
REMARK INTER:                  -8.239
REMARK INTRA:                  -3.351
REMARK UNBOUND:                -3.979
REMARK  Name = lig_assembled_24.pdb
REMARK  19 active torsions:
REMARK  status: ('A' for Active; 'I' for Inactive)
REMARK    1  A    between atoms: _2  and  _9
REMARK    2  A    between atoms: _4  and  _21
REMARK    3  A    between atoms: _6  and  _7
REMARK    4  A    between atoms: _6  and  _21
REMARK    5  A    between atoms: _9  and  _10
REMARK    6  A    between atoms: _13  and  _16
REMARK    7  A    between atoms: _14  and  _16
REMARK    8  A    between atoms: _17  and  _37
REMARK    9  A    between atoms: _19  and  _25
REMARK   10  A    between atoms: _20  and  _24
REMARK   11  A    between atoms: _24  and  _25
REMARK   12  A    between atoms: _27  and  _28
REMARK   13  A    between atoms: _29  and  _30
REMARK   14  A    between atoms: _31  and  _33
REMARK   15  A    between atoms: _33  and  _34
REMARK   16  A    between atoms: _33  and  _35
REMARK   17  A    between atoms: _35  and  _36
REMARK   18  A    between atoms: _35  and  _37
REMARK   19  A    between atoms: _38  and  _40
REMARK                            x       y       z     vdW  Elec       q    Type
REMARK                         _______ _______ _______ _____ _____    ______ ____
ROOT
ATOM      1  C   UNL     1      -2.903  11.700  24.870  0.00  0.00    +0.163 C 
ENDROOT
BRANCH   1   2
ATOM      2  O   UNL     1      -3.187  11.588  26.274  0.00  0.00    -0.388 OA
ATOM      3  H   UNL     1      -3.676  10.779  26.439  0.00  0.00    +0.210 HD
ENDBRANCH   1   2
BRANCH   1   4
ATOM      4  C   UNL     1      -3.810  10.767  24.049  0.00  0.00    +0.175 C 
BRANCH   4   5
ATOM      5  C   UNL     1      -4.179   9.493  24.823  0.00  0.00    +0.176 C 
ATOM      6  O   UNL     1      -2.950   8.908  25.334  0.00  0.00    -0.332 OA
ATOM      7  C   UNL     1      -3.118   7.733  26.195  0.00  0.00    +0.277 C 
ATOM      8  C   UNL     1      -3.952   6.647  25.471  0.00  0.00    +0.110 C 
ATOM      9  C   UNL     1      -5.255   7.229  24.882  0.00  0.00    +0.143 C 
ATOM     10  C   UNL     1      -4.964   8.449  24.007  0.00  0.00    +0.133 C 
BRANCH  10  11
ATOM     11  N   UNL     1      -6.219   9.046  23.523  0.00  0.00    -0.308 N 
ATOM     12  H   UNL     1      -6.828   9.481  24.202  0.00  0.00    +0.149 HD
ATOM     13  C   UNL     1      -6.606   9.050  22.244  0.00  0.00    +0.210 C 
ATOM     14  C   UNL     1      -5.669   8.356  21.238  0.00  0.00    +0.109 C 
ATOM     15  O   UNL     1      -7.656   9.570  21.865  0.00  0.00    -0.276 OA
ENDBRANCH  10  11
BRANCH   7  16
ATOM     16  C   UNL     1      -3.809   8.118  27.519  0.00  0.00    +0.414 C 
ATOM     17  O   UNL     1      -3.475   9.139  28.119  0.00  0.00    -0.240 OA
ATOM     18  O   UNL     1      -4.701   7.409  27.987  0.00  0.00    -0.240 OA
ENDBRANCH   7  16
BRANCH   7  19
ATOM     19  O   UNL     1      -1.801   7.188  26.472  0.00  0.00    -0.343 OA
ATOM     20  C   UNL     1      -1.797   5.845  27.016  0.00  0.00    +0.198 C 
ENDBRANCH   7  19
BRANCH   9  21
ATOM     21  O   UNL     1      -5.915   6.234  24.099  0.00  0.00    -0.390 OA
ATOM     22  H   UNL     1      -5.724   5.364  24.458  0.00  0.00    +0.210 HD
ENDBRANCH   9  21
ENDBRANCH   4   5
BRANCH   4  23
ATOM     23  O   UNL     1      -3.172  10.424  22.803  0.00  0.00    -0.387 OA
ATOM     24  H   UNL     1      -2.586   9.675  22.938  0.00  0.00    +0.210 HD
ENDBRANCH   4  23
ENDBRANCH   1   4
BRANCH   1  25
ATOM     25  C   UNL     1      -3.103  13.140  24.410  0.00  0.00    +0.141 C 
BRANCH  25  28
ATOM     26  C   UNL     1      -4.432  14.255  22.650  0.00  0.00    +0.401 C 
ATOM     27  O   UNL     1      -3.603  15.147  22.458  0.00  0.00    -0.226 OA
ATOM     28  N   UNL     1      -4.283  13.280  23.547  0.00  0.00    -0.279 N 
ATOM     29  H   UNL     1      -5.023  12.599  23.639  0.00  0.00    +0.152 HD
BRANCH  26  30
ATOM     30  O   UNL     1      -5.636  14.248  21.879  0.00  0.00    -0.444 OA
BRANCH  30  31
ATOM     31  C   UNL     1      -6.179  12.925  21.852  0.00  0.00    +0.292 C 
BRANCH  31  33
ATOM     32  N   UNL     1      -4.513  11.657  20.530  0.00  0.00    -0.131 NA
ATOM     33  C   UNL     1      -5.756  12.222  20.626  0.00  0.00    +0.120 A 
ATOM     34  C   UNL     1      -6.447  11.991  19.458  0.00  0.00    +0.137 A 
ATOM     35  N   UNL     1      -5.601  11.220  18.716  0.00  0.00    -0.247 N 
ATOM     36  N   UNL     1      -4.424  11.054  19.354  0.00  0.00    -0.065 NA
BRANCH  35  37
ATOM     37  C   UNL     1      -5.800  10.546  17.443  0.00  0.00    +0.180 C 
BRANCH  37  38
ATOM     38  C   UNL     1      -4.885  11.007  16.334  0.00  0.00    -0.026 A 
ATOM     39  C   UNL     1      -4.889  12.345  15.919  0.00  0.00    +0.009 A 
ATOM     40  C   UNL     1      -4.038  12.764  14.892  0.00  0.00    +0.046 A 
ATOM     41  C   UNL     1      -3.164  11.864  14.280  0.00  0.00    +0.120 A 
ATOM     42  C   UNL     1      -3.173  10.528  14.671  0.00  0.00    +0.046 A 
ATOM     43  C   UNL     1      -4.028  10.100  15.693  0.00  0.00    +0.009 A 
BRANCH  41  44
ATOM     44  O   UNL     1      -2.395  12.385  13.276  0.00  0.00    -0.495 OA
ATOM     45  C   UNL     1      -2.588  13.772  13.014  0.00  0.00    +0.277 C 
ENDBRANCH  41  44
ENDBRANCH  37  38
ENDBRANCH  35  37
ENDBRANCH  31  33
ENDBRANCH  30  31
ENDBRANCH  26  30
ENDBRANCH  25  28
ENDBRANCH   1  25
TORSDOF 16
