REMARK VINA RESULT:    -5.419      1.552      1.892
REMARK INTER + INTRA:         -12.142
REMARK INTER:                  -9.891
REMARK INTRA:                  -2.251
REMARK UNBOUND:                -2.447
REMARK  Name = lig_assembled_85.pdb
REMARK  19 active torsions:
REMARK  status: ('A' for Active; 'I' for Inactive)
REMARK    1  A    between atoms: _2  and  _10
REMARK    2  A    between atoms: _3  and  _6
REMARK    3  A    between atoms: _3  and  _17
REMARK    4  A    between atoms: _5  and  _23
REMARK    5  A    between atoms: _7  and  _8
REMARK    6  A    between atoms: _7  and  _23
REMARK    7  A    between atoms: _15  and  _16
REMARK    8  A    between atoms: _19  and  _39
REMARK    9  A    between atoms: _21  and  _27
REMARK   10  A    between atoms: _22  and  _26
REMARK   11  A    between atoms: _26  and  _27
REMARK   12  A    between atoms: _29  and  _30
REMARK   13  A    between atoms: _31  and  _32
REMARK   14  A    between atoms: _33  and  _35
REMARK   15  A    between atoms: _35  and  _36
REMARK   16  A    between atoms: _35  and  _37
REMARK   17  A    between atoms: _37  and  _38
REMARK   18  A    between atoms: _37  and  _39
REMARK   19  A    between atoms: _40  and  _42
REMARK                            x       y       z     vdW  Elec       q    Type
REMARK                         _______ _______ _______ _____ _____    ______ ____
ROOT
ATOM      1  C   UNL     1      -3.590  13.409  22.784  0.00  0.00    +0.141 C 
ENDROOT
BRANCH   1   4
ATOM      2  C   UNL     1      -4.267  12.383  20.640  0.00  0.00    +0.401 C 
ATOM      3  O   UNL     1      -5.387  12.057  21.042  0.00  0.00    -0.226 OA
ATOM      4  N   UNL     1      -3.361  13.013  21.388  0.00  0.00    -0.279 N 
ATOM      5  H   UNL     1      -2.467  13.231  20.972  0.00  0.00    +0.152 HD
BRANCH   2   6
ATOM      6  O   UNL     1      -3.895  12.074  19.294  0.00  0.00    -0.444 OA
BRANCH   6   7
ATOM      7  C   UNL     1      -5.048  11.640  18.567  0.00  0.00    +0.292 C 
BRANCH   7   9
ATOM      8  N   UNL     1      -6.029  12.407  16.436  0.00  0.00    -0.131 NA
ATOM      9  C   UNL     1      -4.930  12.022  17.150  0.00  0.00    +0.121 A 
ATOM     10  C   UNL     1      -3.812  12.120  16.353  0.00  0.00    +0.143 A 
ATOM     11  N   UNL     1      -4.283  12.579  15.148  0.00  0.00    -0.219 N 
ATOM     12  N   UNL     1      -5.621  12.770  15.228  0.00  0.00    -0.060 NA
BRANCH  11  13
ATOM     13  C   UNL     1      -3.573  12.934  13.980  0.00  0.00    +0.080 A 
ATOM     14  C   UNL     1      -2.971  12.010  13.112  0.00  0.00    +0.062 A 
ATOM     15  C   UNL     1      -2.086  12.512  12.129  0.00  0.00    +0.016 A 
ATOM     16  C   UNL     1      -1.828  13.880  11.996  0.00  0.00    +0.021 A 
ATOM     17  C   UNL     1      -2.488  14.781  12.816  0.00  0.00    +0.043 A 
ATOM     18 CL   UNL     1      -2.156  16.464  12.691  0.00  0.00    -0.083 Cl
ATOM     19  C   UNL     1      -3.376  14.320  13.784  0.00  0.00    +0.048 A 
BRANCH  14  20
ATOM     20  C   UNL     1      -3.072  10.520  13.122  0.00  0.00    +0.248 C 
ATOM     21  O   UNL     1      -2.029   9.929  13.414  0.00  0.00    -0.270 OA
ATOM     22  N   UNL     1      -4.226   9.813  12.767  0.00  0.00    -0.304 N 
ATOM     23  C   UNL     1      -5.560  10.345  12.525  0.00  0.00    +0.132 C 
ATOM     24  C   UNL     1      -4.138   8.357  12.825  0.00  0.00    +0.132 C 
ENDBRANCH  14  20
ENDBRANCH  11  13
ENDBRANCH   7   9
ENDBRANCH   6   7
ENDBRANCH   2   6
ENDBRANCH   1   4
BRANCH   1  25
ATOM     25  C   UNL     1      -3.320  12.261  23.751  0.00  0.00    +0.163 C 
BRANCH  25  26
ATOM     26  O   UNL     1      -2.042  12.442  24.384  0.00  0.00    -0.388 OA
ATOM     27  H   UNL     1      -1.500  13.028  23.850  0.00  0.00    +0.210 HD
ENDBRANCH  25  26
BRANCH  25  28
ATOM     28  C   UNL     1      -4.447  12.194  24.797  0.00  0.00    +0.175 C 
BRANCH  28  29
ATOM     29  C   UNL     1      -4.138  11.189  25.916  0.00  0.00    +0.176 C 
ATOM     30  O   UNL     1      -3.833   9.910  25.296  0.00  0.00    -0.332 OA
ATOM     31  C   UNL     1      -3.408   8.847  26.211  0.00  0.00    +0.277 C 
ATOM     32  C   UNL     1      -4.456   8.647  27.333  0.00  0.00    +0.110 C 
ATOM     33  C   UNL     1      -4.837   9.985  28.001  0.00  0.00    +0.143 C 
ATOM     34  C   UNL     1      -5.260  11.019  26.957  0.00  0.00    +0.133 C 
BRANCH  34  35
ATOM     35  N   UNL     1      -5.537  12.315  27.597  0.00  0.00    -0.308 N 
ATOM     36  H   UNL     1      -4.766  12.797  28.039  0.00  0.00    +0.149 HD
ATOM     37  C   UNL     1      -6.739  12.896  27.633  0.00  0.00    +0.210 C 
ATOM     38  C   UNL     1      -7.898  12.124  26.974  0.00  0.00    +0.109 C 
ATOM     39  O   UNL     1      -6.938  13.989  28.164  0.00  0.00    -0.276 OA
ENDBRANCH  34  35
BRANCH  31  40
ATOM     40  C   UNL     1      -2.038   9.181  26.839  0.00  0.00    +0.414 C 
ATOM     41  O   UNL     1      -1.746   8.751  27.955  0.00  0.00    -0.240 OA
ATOM     42  O   UNL     1      -1.227   9.879  26.231  0.00  0.00    -0.240 OA
ENDBRANCH  31  40
BRANCH  33  43
ATOM     43  O   UNL     1      -5.911   9.777  28.919  0.00  0.00    -0.390 OA
ATOM     44  H   UNL     1      -5.556   9.633  29.800  0.00  0.00    +0.210 HD
ENDBRANCH  33  43
BRANCH  31  45
ATOM     45  O   UNL     1      -3.309   7.614  25.453  0.00  0.00    -0.343 OA
ATOM     46  C   UNL     1      -4.102   7.576  24.240  0.00  0.00    +0.198 C 
ENDBRANCH  31  45
ENDBRANCH  28  29
BRANCH  28  47
ATOM     47  O   UNL     1      -5.696  11.860  24.159  0.00  0.00    -0.387 OA
ATOM     48  H   UNL     1      -6.287  11.462  24.802  0.00  0.00    +0.210 HD
ENDBRANCH  28  47
ENDBRANCH  25  28
ENDBRANCH   1  25
TORSDOF 15
