REMARK VINA RESULT:    -4.490      8.559     13.156
REMARK INTER + INTRA:         -11.119
REMARK INTER:                  -7.750
REMARK INTRA:                  -3.369
REMARK UNBOUND:                -2.560
REMARK  Name = lig_assembled_18.pdb
REMARK  19 active torsions:
REMARK  status: ('A' for Active; 'I' for Inactive)
REMARK    1  A    between atoms: _2  and  _10
REMARK    2  A    between atoms: _3  and  _12
REMARK    3  A    between atoms: _5  and  _21
REMARK    4  A    between atoms: _7  and  _8
REMARK    5  A    between atoms: _7  and  _21
REMARK    6  A    between atoms: _10  and  _11
REMARK    7  A    between atoms: _12  and  _13
REMARK    8  A    between atoms: _17  and  _37
REMARK    9  A    between atoms: _19  and  _25
REMARK   10  A    between atoms: _20  and  _24
REMARK   11  A    between atoms: _24  and  _25
REMARK   12  A    between atoms: _27  and  _28
REMARK   13  A    between atoms: _29  and  _30
REMARK   14  A    between atoms: _31  and  _33
REMARK   15  A    between atoms: _33  and  _34
REMARK   16  A    between atoms: _33  and  _35
REMARK   17  A    between atoms: _35  and  _36
REMARK   18  A    between atoms: _35  and  _37
REMARK   19  A    between atoms: _38  and  _40
REMARK                            x       y       z     vdW  Elec       q    Type
REMARK                         _______ _______ _______ _____ _____    ______ ____
ROOT
ATOM      1  C   UNL     1      -4.577   6.754  16.047  0.00  0.00    +0.163 C 
ENDROOT
BRANCH   1   2
ATOM      2  O   UNL     1      -4.271   6.380  17.400  0.00  0.00    -0.388 OA
ATOM      3  H   UNL     1      -3.812   7.102  17.836  0.00  0.00    +0.210 HD
ENDBRANCH   1   2
BRANCH   1   4
ATOM      4  C   UNL     1      -4.734   8.279  15.920  0.00  0.00    +0.175 C 
BRANCH   4   5
ATOM      5  C   UNL     1      -5.331   8.907  17.188  0.00  0.00    +0.176 C 
ATOM      6  O   UNL     1      -6.429   8.062  17.630  0.00  0.00    -0.332 OA
ATOM      7  C   UNL     1      -7.058   8.450  18.896  0.00  0.00    +0.277 C 
ATOM      8  C   UNL     1      -7.523   9.926  18.839  0.00  0.00    +0.110 C 
ATOM      9  C   UNL     1      -6.398  10.859  18.344  0.00  0.00    +0.143 C 
ATOM     10  C   UNL     1      -5.814  10.360  17.022  0.00  0.00    +0.133 C 
BRANCH  10  11
ATOM     11  N   UNL     1      -4.686  11.207  16.605  0.00  0.00    -0.308 N 
ATOM     12  H   UNL     1      -3.825  11.139  17.129  0.00  0.00    +0.149 HD
ATOM     13  C   UNL     1      -4.725  12.061  15.578  0.00  0.00    +0.210 C 
ATOM     14  C   UNL     1      -6.059  12.161  14.815  0.00  0.00    +0.109 C 
ATOM     15  O   UNL     1      -3.760  12.748  15.242  0.00  0.00    -0.276 OA
ENDBRANCH  10  11
BRANCH   7  16
ATOM     16  C   UNL     1      -6.078   8.263  20.073  0.00  0.00    +0.414 C 
ATOM     17  O   UNL     1      -6.121   9.021  21.042  0.00  0.00    -0.240 OA
ATOM     18  O   UNL     1      -5.245   7.356  20.054  0.00  0.00    -0.240 OA
ENDBRANCH   7  16
BRANCH   7  19
ATOM     19  O   UNL     1      -8.224   7.610  19.094  0.00  0.00    -0.343 OA
ATOM     20  C   UNL     1      -8.182   6.332  18.409  0.00  0.00    +0.198 C 
ENDBRANCH   7  19
BRANCH   9  21
ATOM     21  O   UNL     1      -6.912  12.179  18.162  0.00  0.00    -0.390 OA
ATOM     22  H   UNL     1      -6.398  12.634  17.491  0.00  0.00    +0.210 HD
ENDBRANCH   9  21
ENDBRANCH   4   5
BRANCH   4  23
ATOM     23  O   UNL     1      -5.548   8.601  14.775  0.00  0.00    -0.387 OA
ATOM     24  H   UNL     1      -6.234   7.938  14.673  0.00  0.00    +0.210 HD
ENDBRANCH   4  23
ENDBRANCH   1   4
BRANCH   1  25
ATOM     25  C   UNL     1      -3.473   6.275  15.110  0.00  0.00    +0.141 C 
BRANCH  25  28
ATOM     26  C   UNL     1      -2.035   7.555  13.561  0.00  0.00    +0.401 C 
ATOM     27  O   UNL     1      -0.981   7.125  14.035  0.00  0.00    -0.226 OA
ATOM     28  N   UNL     1      -3.246   7.216  14.006  0.00  0.00    -0.279 N 
ATOM     29  H   UNL     1      -4.052   7.630  13.559  0.00  0.00    +0.152 HD
BRANCH  26  30
ATOM     30  O   UNL     1      -1.981   8.478  12.470  0.00  0.00    -0.444 OA
BRANCH  30  31
ATOM     31  C   UNL     1      -3.248   9.126  12.329  0.00  0.00    +0.292 C 
BRANCH  31  33
ATOM     32  N   UNL     1      -1.856  11.173  12.480  0.00  0.00    -0.131 NA
ATOM     33  C   UNL     1      -3.068  10.587  12.227  0.00  0.00    +0.120 A 
ATOM     34  C   UNL     1      -3.977  11.565  11.893  0.00  0.00    +0.137 A 
ATOM     35  N   UNL     1      -3.253  12.719  11.932  0.00  0.00    -0.242 N 
ATOM     36  N   UNL     1      -1.982  12.482  12.307  0.00  0.00    -0.065 NA
BRANCH  35  37
ATOM     37  C   UNL     1      -3.709  14.077  11.750  0.00  0.00    +0.240 C 
BRANCH  37  38
ATOM     38  C   UNL     1      -2.741  15.088  12.319  0.00  0.00    +0.235 C 
ATOM     39  O   UNL     1      -2.870  15.551  13.451  0.00  0.00    -0.274 OA
ATOM     40  N   UNL     1      -1.675  15.406  11.502  0.00  0.00    -0.309 N 
ATOM     41  H   UNL     1      -1.685  15.141  10.527  0.00  0.00    +0.149 HD
BRANCH  40  42
ATOM     42  C   UNL     1      -0.657  16.348  11.919  0.00  0.00    +0.146 C 
BRANCH  42  43
ATOM     43  C   UNL     1       0.665  15.941  11.354  0.00  0.00    +0.007 A 
ATOM     44  S   UNL     1       1.899  17.102  11.092  0.00  0.00    -0.100 S 
ATOM     45  C   UNL     1       2.950  15.929  10.425  0.00  0.00    +0.045 A 
ATOM     46  C   UNL     1       2.385  14.673  10.414  0.00  0.00    +0.008 A 
ATOM     47  C   UNL     1       1.068  14.680  10.958  0.00  0.00    +0.013 A 
ENDBRANCH  42  43
ENDBRANCH  40  42
ENDBRANCH  37  38
ENDBRANCH  35  37
ENDBRANCH  31  33
ENDBRANCH  30  31
ENDBRANCH  26  30
ENDBRANCH  25  28
ENDBRANCH   1  25
TORSDOF 17
