REMARK VINA RESULT:    -4.845      2.913      7.461
REMARK INTER + INTRA:         -11.460
REMARK INTER:                  -8.095
REMARK INTRA:                  -3.366
REMARK UNBOUND:                -2.792
REMARK  Name = lig_assembled_5.pdb
REMARK  18 active torsions:
REMARK  status: ('A' for Active; 'I' for Inactive)
REMARK    1  A    between atoms: _2  and  _9
REMARK    2  A    between atoms: _4  and  _20
REMARK    3  A    between atoms: _6  and  _7
REMARK    4  A    between atoms: _6  and  _20
REMARK    5  A    between atoms: _12  and  _15
REMARK    6  A    between atoms: _13  and  _15
REMARK    7  A    between atoms: _16  and  _36
REMARK    8  A    between atoms: _18  and  _24
REMARK    9  A    between atoms: _19  and  _23
REMARK   10  A    between atoms: _23  and  _24
REMARK   11  A    between atoms: _26  and  _27
REMARK   12  A    between atoms: _28  and  _29
REMARK   13  A    between atoms: _30  and  _32
REMARK   14  A    between atoms: _32  and  _33
REMARK   15  A    between atoms: _32  and  _34
REMARK   16  A    between atoms: _34  and  _35
REMARK   17  A    between atoms: _34  and  _36
REMARK   18  A    between atoms: _37  and  _39
REMARK                            x       y       z     vdW  Elec       q    Type
REMARK                         _______ _______ _______ _____ _____    ______ ____
ROOT
ATOM      1  C   UNL     1      -3.199  10.623  30.621  0.00  0.00    +0.163 C 
ENDROOT
BRANCH   1   2
ATOM      2  O   UNL     1      -2.786  10.519  29.249  0.00  0.00    -0.388 OA
ATOM      3  H   UNL     1      -3.167  11.241  28.744  0.00  0.00    +0.210 HD
ENDBRANCH   1   2
BRANCH   1   4
ATOM      4  C   UNL     1      -4.278   9.587  30.921  0.00  0.00    +0.141 C 
BRANCH   4   7
ATOM      5  C   UNL     1      -3.946   7.482  29.671  0.00  0.00    +0.401 C 
ATOM      6  O   UNL     1      -3.173   7.000  30.503  0.00  0.00    -0.226 OA
ATOM      7  N   UNL     1      -4.505   8.687  29.784  0.00  0.00    -0.279 N 
ATOM      8  H   UNL     1      -5.119   8.999  29.045  0.00  0.00    +0.152 HD
BRANCH   5   9
ATOM      9  O   UNL     1      -4.275   6.721  28.506  0.00  0.00    -0.444 OA
BRANCH   9  10
ATOM     10  C   UNL     1      -3.110   6.569  27.690  0.00  0.00    +0.292 C 
BRANCH  10  12
ATOM     11  N   UNL     1      -1.561   8.449  27.254  0.00  0.00    -0.131 NA
ATOM     12  C   UNL     1      -2.768   7.850  27.042  0.00  0.00    +0.121 A 
ATOM     13  C   UNL     1      -3.508   8.622  26.177  0.00  0.00    +0.143 A 
ATOM     14  N   UNL     1      -2.691   9.684  25.860  0.00  0.00    -0.220 N 
ATOM     15  N   UNL     1      -1.524   9.565  26.539  0.00  0.00    -0.060 NA
BRANCH  14  16
ATOM     16  C   UNL     1      -2.933  10.752  24.957  0.00  0.00    +0.067 A 
ATOM     17  C   UNL     1      -2.595  12.067  25.296  0.00  0.00    +0.031 A 
ATOM     18  C   UNL     1      -2.897  13.112  24.420  0.00  0.00    +0.048 A 
ATOM     19  C   UNL     1      -3.516  12.863  23.194  0.00  0.00    +0.120 A 
ATOM     20  C   UNL     1      -3.839  11.552  22.845  0.00  0.00    +0.048 A 
ATOM     21  C   UNL     1      -3.550  10.498  23.723  0.00  0.00    +0.031 A 
BRANCH  19  22
ATOM     22  O   UNL     1      -3.810  13.979  22.461  0.00  0.00    -0.495 OA
ATOM     23  C   UNL     1      -5.164  14.412  22.487  0.00  0.00    +0.277 C 
ENDBRANCH  19  22
ENDBRANCH  14  16
ENDBRANCH  10  12
ENDBRANCH   9  10
ENDBRANCH   5   9
ENDBRANCH   4   7
ENDBRANCH   1   4
BRANCH   1  24
ATOM     24  C   UNL     1      -3.738  12.030  30.928  0.00  0.00    +0.175 C 
BRANCH  24  25
ATOM     25  C   UNL     1      -5.053  12.320  30.189  0.00  0.00    +0.176 C 
ATOM     26  O   UNL     1      -4.943  11.768  28.848  0.00  0.00    -0.332 OA
ATOM     27  C   UNL     1      -6.152  11.858  28.024  0.00  0.00    +0.277 C 
ATOM     28  C   UNL     1      -6.648  13.323  27.949  0.00  0.00    +0.110 C 
ATOM     29  C   UNL     1      -6.751  13.962  29.349  0.00  0.00    +0.143 C 
ATOM     30  C   UNL     1      -5.439  13.809  30.120  0.00  0.00    +0.133 C 
BRANCH  30  31
ATOM     31  N   UNL     1      -5.577  14.344  31.484  0.00  0.00    -0.308 N 
ATOM     32  H   UNL     1      -6.175  13.845  32.128  0.00  0.00    +0.149 HD
ATOM     33  C   UNL     1      -4.965  15.446  31.925  0.00  0.00    +0.210 C 
ATOM     34  C   UNL     1      -4.082  16.198  30.911  0.00  0.00    +0.109 C 
ATOM     35  O   UNL     1      -5.088  15.863  33.077  0.00  0.00    -0.276 OA
ENDBRANCH  30  31
BRANCH  27  36
ATOM     36  C   UNL     1      -7.271  10.963  28.597  0.00  0.00    +0.414 C 
ATOM     37  O   UNL     1      -8.451  11.289  28.471  0.00  0.00    -0.240 OA
ATOM     38  O   UNL     1      -6.995   9.917  29.184  0.00  0.00    -0.240 OA
ENDBRANCH  27  36
BRANCH  27  39
ATOM     39  O   UNL     1      -5.815  11.419  26.683  0.00  0.00    -0.343 OA
ATOM     40  C   UNL     1      -6.367  12.231  25.616  0.00  0.00    +0.198 C 
ENDBRANCH  27  39
BRANCH  29  41
ATOM     41  O   UNL     1      -7.064  15.350  29.224  0.00  0.00    -0.390 OA
ATOM     42  H   UNL     1      -6.697  15.688  28.403  0.00  0.00    +0.210 HD
ENDBRANCH  29  41
ENDBRANCH  24  25
BRANCH  24  43
ATOM     43  O   UNL     1      -2.750  13.025  30.592  0.00  0.00    -0.387 OA
ATOM     44  H   UNL     1      -1.946  12.859  31.090  0.00  0.00    +0.210 HD
ENDBRANCH  24  43
ENDBRANCH   1  24
TORSDOF 15
