REMARK VINA RESULT:    -4.790      6.706     11.022
REMARK INTER + INTRA:         -11.414
REMARK INTER:                  -7.685
REMARK INTRA:                  -3.729
REMARK UNBOUND:                -2.844
REMARK  Name = lig_assembled_44.pdb
REMARK  17 active torsions:
REMARK  status: ('A' for Active; 'I' for Inactive)
REMARK    1  A    between atoms: _2  and  _9
REMARK    2  A    between atoms: _4  and  _19
REMARK    3  A    between atoms: _6  and  _7
REMARK    4  A    between atoms: _6  and  _19
REMARK    5  A    between atoms: _9  and  _10
REMARK    6  A    between atoms: _15  and  _35
REMARK    7  A    between atoms: _17  and  _23
REMARK    8  A    between atoms: _18  and  _22
REMARK    9  A    between atoms: _22  and  _23
REMARK   10  A    between atoms: _25  and  _26
REMARK   11  A    between atoms: _27  and  _28
REMARK   12  A    between atoms: _29  and  _31
REMARK   13  A    between atoms: _31  and  _32
REMARK   14  A    between atoms: _31  and  _33
REMARK   15  A    between atoms: _33  and  _34
REMARK   16  A    between atoms: _33  and  _35
REMARK   17  A    between atoms: _36  and  _38
REMARK                            x       y       z     vdW  Elec       q    Type
REMARK                         _______ _______ _______ _____ _____    ______ ____
ROOT
ATOM      1  C   UNL     1      -4.012  13.195  21.956  0.00  0.00    +0.163 C 
ENDROOT
BRANCH   1   2
ATOM      2  O   UNL     1      -5.163  13.144  21.097  0.00  0.00    -0.388 OA
ATOM      3  H   UNL     1      -5.159  13.902  20.509  0.00  0.00    +0.210 HD
ENDBRANCH   1   2
BRANCH   1   4
ATOM      4  C   UNL     1      -2.957  12.205  21.474  0.00  0.00    +0.141 C 
BRANCH   4   7
ATOM      5  C   UNL     1      -3.780   9.912  21.883  0.00  0.00    +0.401 C 
ATOM      6  O   UNL     1      -4.541   9.910  20.913  0.00  0.00    -0.226 OA
ATOM      7  N   UNL     1      -3.007  10.944  22.223  0.00  0.00    -0.279 N 
ATOM      8  H   UNL     1      -2.423  10.853  23.043  0.00  0.00    +0.152 HD
BRANCH   5   9
ATOM      9  O   UNL     1      -3.709   8.748  22.711  0.00  0.00    -0.444 OA
BRANCH   9  10
ATOM     10  C   UNL     1      -4.408   8.989  23.935  0.00  0.00    +0.292 C 
BRANCH  10  12
ATOM     11  N   UNL     1      -2.594  10.157  25.155  0.00  0.00    -0.131 NA
ATOM     12  C   UNL     1      -3.458   9.098  25.058  0.00  0.00    +0.120 A 
ATOM     13  C   UNL     1      -3.271   8.264  26.136  0.00  0.00    +0.137 A 
ATOM     14  N   UNL     1      -2.337   8.910  26.892  0.00  0.00    -0.247 N 
ATOM     15  N   UNL     1      -1.902  10.027  26.280  0.00  0.00    -0.065 NA
BRANCH  14  16
ATOM     16  C   UNL     1      -1.815   8.531  28.190  0.00  0.00    +0.180 C 
BRANCH  16  17
ATOM     17  C   UNL     1      -2.819   8.793  29.288  0.00  0.00    -0.026 A 
ATOM     18  C   UNL     1      -3.050  10.098  29.751  0.00  0.00    +0.006 A 
ATOM     19  C   UNL     1      -3.967  10.335  30.777  0.00  0.00    +0.015 A 
ATOM     20  C   UNL     1      -4.660   9.267  31.346  0.00  0.00    +0.018 A 
ATOM     21 BR   UNL     1      -5.914   9.592  32.722  0.00  0.00    -0.050 Br
ATOM     22  C   UNL     1      -4.434   7.965  30.908  0.00  0.00    +0.015 A 
ATOM     23  C   UNL     1      -3.512   7.727  29.884  0.00  0.00    +0.006 A 
ENDBRANCH  16  17
ENDBRANCH  14  16
ENDBRANCH  10  12
ENDBRANCH   9  10
ENDBRANCH   5   9
ENDBRANCH   4   7
ENDBRANCH   1   4
BRANCH   1  24
ATOM     24  C   UNL     1      -4.395  12.871  23.410  0.00  0.00    +0.175 C 
BRANCH  24  25
ATOM     25  C   UNL     1      -5.585  13.712  23.895  0.00  0.00    +0.176 C 
ATOM     26  O   UNL     1      -5.368  15.084  23.465  0.00  0.00    -0.332 OA
ATOM     27  C   UNL     1      -6.461  16.019  23.750  0.00  0.00    +0.277 C 
ATOM     28  C   UNL     1      -6.816  15.993  25.257  0.00  0.00    +0.110 C 
ATOM     29  C   UNL     1      -7.024  14.552  25.768  0.00  0.00    +0.143 C 
ATOM     30  C   UNL     1      -5.829  13.666  25.415  0.00  0.00    +0.133 C 
BRANCH  30  31
ATOM     31  N   UNL     1      -6.077  12.276  25.831  0.00  0.00    -0.308 N 
ATOM     32  H   UNL     1      -6.778  11.751  25.326  0.00  0.00    +0.149 HD
ATOM     33  C   UNL     1      -5.438  11.664  26.830  0.00  0.00    +0.210 C 
ATOM     34  C   UNL     1      -4.395  12.499  27.596  0.00  0.00    +0.109 C 
ATOM     35  O   UNL     1      -5.656  10.494  27.147  0.00  0.00    -0.276 OA
ENDBRANCH  30  31
BRANCH  27  36
ATOM     36  C   UNL     1      -7.713  15.666  22.920  0.00  0.00    +0.414 C 
ATOM     37  O   UNL     1      -7.602  15.042  21.865  0.00  0.00    -0.240 OA
ATOM     38  O   UNL     1      -8.833  16.004  23.304  0.00  0.00    -0.240 OA
ENDBRANCH  27  36
BRANCH  27  39
ATOM     39  O   UNL     1      -6.010  17.355  23.409  0.00  0.00    -0.343 OA
ATOM     40  C   UNL     1      -4.992  17.413  22.378  0.00  0.00    +0.198 C 
ENDBRANCH  27  39
BRANCH  29  41
ATOM     41  O   UNL     1      -7.198  14.564  27.186  0.00  0.00    -0.390 OA
ATOM     42  H   UNL     1      -8.068  14.223  27.405  0.00  0.00    +0.210 HD
ENDBRANCH  29  41
ENDBRANCH  24  25
BRANCH  24  43
ATOM     43  O   UNL     1      -3.261  13.068  24.278  0.00  0.00    -0.387 OA
ATOM     44  H   UNL     1      -2.564  13.520  23.796  0.00  0.00    +0.210 HD
ENDBRANCH  24  43
ENDBRANCH   1  24
TORSDOF 15
