REMARK VINA RESULT:    -5.210      3.684      6.484
REMARK INTER + INTRA:         -11.399
REMARK INTER:                  -8.917
REMARK INTRA:                  -2.482
REMARK UNBOUND:                -2.381
REMARK  Name = lig_assembled_7.pdb
REMARK  19 active torsions:
REMARK  status: ('A' for Active; 'I' for Inactive)
REMARK    1  A    between atoms: _2  and  _9
REMARK    2  A    between atoms: _4  and  _21
REMARK    3  A    between atoms: _5  and  _16
REMARK    4  A    between atoms: _6  and  _7
REMARK    5  A    between atoms: _6  and  _21
REMARK    6  A    between atoms: _10  and  _11
REMARK    7  A    between atoms: _13  and  _14
REMARK    8  A    between atoms: _17  and  _37
REMARK    9  A    between atoms: _19  and  _25
REMARK   10  A    between atoms: _20  and  _24
REMARK   11  A    between atoms: _24  and  _25
REMARK   12  A    between atoms: _27  and  _28
REMARK   13  A    between atoms: _29  and  _30
REMARK   14  A    between atoms: _31  and  _33
REMARK   15  A    between atoms: _33  and  _34
REMARK   16  A    between atoms: _33  and  _35
REMARK   17  A    between atoms: _35  and  _36
REMARK   18  A    between atoms: _35  and  _37
REMARK   19  A    between atoms: _38  and  _40
REMARK                            x       y       z     vdW  Elec       q    Type
REMARK                         _______ _______ _______ _____ _____    ______ ____
ROOT
ATOM      1  C   UNL     1      -4.585   9.015  29.728  0.00  0.00    +0.163 C 
ENDROOT
BRANCH   1   2
ATOM      2  O   UNL     1      -4.021   8.841  31.038  0.00  0.00    -0.388 OA
ATOM      3  H   UNL     1      -4.268   7.979  31.382  0.00  0.00    +0.210 HD
ENDBRANCH   1   2
BRANCH   1   4
ATOM      4  C   UNL     1      -3.477   9.031  28.681  0.00  0.00    +0.141 C 
BRANCH   4   7
ATOM      5  C   UNL     1      -2.882   7.842  26.598  0.00  0.00    +0.401 C 
ATOM      6  O   UNL     1      -1.790   8.403  26.479  0.00  0.00    -0.226 OA
ATOM      7  N   UNL     1      -3.737   8.080  27.593  0.00  0.00    -0.279 N 
ATOM      8  H   UNL     1      -4.614   7.578  27.600  0.00  0.00    +0.152 HD
BRANCH   5   9
ATOM      9  O   UNL     1      -3.279   6.879  25.619  0.00  0.00    -0.444 OA
BRANCH   9  10
ATOM     10  C   UNL     1      -4.529   7.269  25.043  0.00  0.00    +0.292 C 
BRANCH  10  12
ATOM     11  N   UNL     1      -3.543   8.471  23.130  0.00  0.00    -0.131 NA
ATOM     12  C   UNL     1      -4.357   8.480  24.220  0.00  0.00    +0.121 A 
ATOM     13  C   UNL     1      -4.917   9.736  24.347  0.00  0.00    +0.143 A 
ATOM     14  N   UNL     1      -4.372  10.485  23.325  0.00  0.00    -0.219 N 
ATOM     15  N   UNL     1      -3.580   9.674  22.580  0.00  0.00    -0.060 NA
BRANCH  14  16
ATOM     16  C   UNL     1      -4.554  11.871  23.010  0.00  0.00    +0.073 A 
ATOM     17  C   UNL     1      -5.477  12.240  21.984  0.00  0.00    -0.024 A 
ATOM     18  C   UNL     1      -5.664  13.603  21.668  0.00  0.00    +0.008 A 
ATOM     19  C   UNL     1      -4.974  14.608  22.341  0.00  0.00    -0.050 A 
ATOM     20  C   UNL     1      -5.198  16.046  21.981  0.00  0.00    +0.044 C 
ATOM     21  C   UNL     1      -4.077  14.244  23.341  0.00  0.00    +0.008 A 
ATOM     22  C   UNL     1      -6.340  11.264  21.214  0.00  0.00    +0.046 C 
ATOM     23  C   UNL     1      -3.832  12.892  23.679  0.00  0.00    -0.024 A 
ATOM     24  C   UNL     1      -2.735  12.712  24.698  0.00  0.00    +0.046 C 
ENDBRANCH  14  16
ENDBRANCH  10  12
ENDBRANCH   9  10
ENDBRANCH   5   9
ENDBRANCH   4   7
ENDBRANCH   1   4
BRANCH   1  25
ATOM     25  C   UNL     1      -5.389  10.324  29.645  0.00  0.00    +0.175 C 
BRANCH  25  26
ATOM     26  C   UNL     1      -4.646  11.501  30.293  0.00  0.00    +0.176 C 
ATOM     27  O   UNL     1      -4.729  11.343  31.736  0.00  0.00    -0.332 OA
ATOM     28  C   UNL     1      -3.981  12.325  32.526  0.00  0.00    +0.277 C 
ATOM     29  C   UNL     1      -4.395  13.764  32.133  0.00  0.00    +0.110 C 
ATOM     30  C   UNL     1      -4.352  13.972  30.604  0.00  0.00    +0.143 C 
ATOM     31  C   UNL     1      -5.161  12.893  29.882  0.00  0.00    +0.133 C 
BRANCH  31  32
ATOM     32  N   UNL     1      -5.042  13.050  28.424  0.00  0.00    -0.308 N 
ATOM     33  H   UNL     1      -4.123  12.957  28.013  0.00  0.00    +0.149 HD
ATOM     34  C   UNL     1      -6.068  13.308  27.608  0.00  0.00    +0.210 C 
ATOM     35  C   UNL     1      -7.450  13.470  28.268  0.00  0.00    +0.109 C 
ATOM     36  O   UNL     1      -5.940  13.420  26.388  0.00  0.00    -0.276 OA
ENDBRANCH  31  32
BRANCH  28  37
ATOM     37  C   UNL     1      -2.462  12.151  32.319  0.00  0.00    +0.414 C 
ATOM     38  O   UNL     1      -1.710  13.122  32.393  0.00  0.00    -0.240 OA
ATOM     39  O   UNL     1      -1.988  11.040  32.077  0.00  0.00    -0.240 OA
ENDBRANCH  28  37
BRANCH  30  40
ATOM     40  O   UNL     1      -4.884  15.256  30.278  0.00  0.00    -0.390 OA
ATOM     41  H   UNL     1      -4.168  15.846  30.029  0.00  0.00    +0.210 HD
ENDBRANCH  30  40
BRANCH  28  42
ATOM     42  O   UNL     1      -4.309  12.121  33.925  0.00  0.00    -0.343 OA
ATOM     43  C   UNL     1      -4.979  10.869  34.220  0.00  0.00    +0.198 C 
ENDBRANCH  28  42
ENDBRANCH  25  26
BRANCH  25  44
ATOM     44  O   UNL     1      -6.681  10.153  30.262  0.00  0.00    -0.387 OA
ATOM     45  H   UNL     1      -7.300   9.803  29.616  0.00  0.00    +0.210 HD
ENDBRANCH  25  44
ENDBRANCH   1  25
TORSDOF 14
