REMARK VINA RESULT:    -3.936      2.326      6.244
REMARK INTER + INTRA:         -10.626
REMARK INTER:                  -6.836
REMARK INTRA:                  -3.790
REMARK UNBOUND:                -2.894
REMARK  Name = lig_assembled_17.pdb
REMARK  22 active torsions:
REMARK  status: ('A' for Active; 'I' for Inactive)
REMARK    1  A    between atoms: _2  and  _10
REMARK    2  A    between atoms: _3  and  _11
REMARK    3  A    between atoms: _3  and  _12
REMARK    4  A    between atoms: _3  and  _14
REMARK    5  A    between atoms: _5  and  _19
REMARK    6  A    between atoms: _6  and  _14
REMARK    7  A    between atoms: _7  and  _8
REMARK    8  A    between atoms: _7  and  _19
REMARK    9  A    between atoms: _10  and  _11
REMARK   10  A    between atoms: _12  and  _13
REMARK   11  A    between atoms: _15  and  _35
REMARK   12  A    between atoms: _17  and  _23
REMARK   13  A    between atoms: _18  and  _22
REMARK   14  A    between atoms: _22  and  _23
REMARK   15  A    between atoms: _25  and  _26
REMARK   16  A    between atoms: _27  and  _28
REMARK   17  A    between atoms: _29  and  _31
REMARK   18  A    between atoms: _31  and  _32
REMARK   19  A    between atoms: _31  and  _33
REMARK   20  A    between atoms: _33  and  _34
REMARK   21  A    between atoms: _33  and  _35
REMARK   22  A    between atoms: _36  and  _38
REMARK                            x       y       z     vdW  Elec       q    Type
REMARK                         _______ _______ _______ _____ _____    ______ ____
ROOT
ATOM      1  C   UNL     1      -3.958  13.153  22.014  0.00  0.00    +0.163 C 
ENDROOT
BRANCH   1   2
ATOM      2  O   UNL     1      -5.056  13.062  21.091  0.00  0.00    -0.388 OA
ATOM      3  H   UNL     1      -5.669  13.784  21.249  0.00  0.00    +0.210 HD
ENDBRANCH   1   2
BRANCH   1   4
ATOM      4  C   UNL     1      -4.433  12.920  23.459  0.00  0.00    +0.175 C 
BRANCH   4   5
ATOM      5  C   UNL     1      -5.632  13.808  23.824  0.00  0.00    +0.176 C 
ATOM      6  O   UNL     1      -5.344  15.158  23.365  0.00  0.00    -0.332 OA
ATOM      7  C   UNL     1      -6.429  16.130  23.535  0.00  0.00    +0.277 C 
ATOM      8  C   UNL     1      -6.897  16.167  25.010  0.00  0.00    +0.110 C 
ATOM      9  C   UNL     1      -7.184  14.750  25.552  0.00  0.00    +0.143 C 
ATOM     10  C   UNL     1      -5.992  13.822  25.321  0.00  0.00    +0.133 C 
BRANCH  10  11
ATOM     11  N   UNL     1      -6.310  12.455  25.762  0.00  0.00    -0.308 N 
ATOM     12  H   UNL     1      -6.998  11.937  25.233  0.00  0.00    +0.149 HD
ATOM     13  C   UNL     1      -5.750  11.854  26.815  0.00  0.00    +0.210 C 
ATOM     14  C   UNL     1      -4.724  12.679  27.615  0.00  0.00    +0.109 C 
ATOM     15  O   UNL     1      -6.025  10.702  27.153  0.00  0.00    -0.276 OA
ENDBRANCH  10  11
BRANCH   7  16
ATOM     16  C   UNL     1      -7.623  15.780  22.623  0.00  0.00    +0.414 C 
ATOM     17  O   UNL     1      -7.436  15.226  21.541  0.00  0.00    -0.240 OA
ATOM     18  O   UNL     1      -8.774  16.052  22.970  0.00  0.00    -0.240 OA
ENDBRANCH   7  16
BRANCH   9  19
ATOM     19  O   UNL     1      -7.465  14.817  26.951  0.00  0.00    -0.390 OA
ATOM     20  H   UNL     1      -6.644  14.920  27.438  0.00  0.00    +0.210 HD
ENDBRANCH   9  19
BRANCH   7  21
ATOM     21  O   UNL     1      -5.915  17.441  23.185  0.00  0.00    -0.343 OA
ATOM     22  C   UNL     1      -5.932  18.412  24.262  0.00  0.00    +0.198 C 
ENDBRANCH   7  21
ENDBRANCH   4   5
BRANCH   4  23
ATOM     23  O   UNL     1      -3.348  13.147  24.381  0.00  0.00    -0.387 OA
ATOM     24  H   UNL     1      -3.554  13.901  24.938  0.00  0.00    +0.210 HD
ENDBRANCH   4  23
ENDBRANCH   1   4
BRANCH   1  25
ATOM     25  C   UNL     1      -2.890  12.126  21.657  0.00  0.00    +0.141 C 
BRANCH  25  28
ATOM     26  C   UNL     1      -3.718   9.837  22.082  0.00  0.00    +0.401 C 
ATOM     27  O   UNL     1      -4.347   9.767  21.024  0.00  0.00    -0.226 OA
ATOM     28  N   UNL     1      -3.014  10.904  22.462  0.00  0.00    -0.279 N 
ATOM     29  H   UNL     1      -2.540  10.870  23.353  0.00  0.00    +0.152 HD
BRANCH  26  30
ATOM     30  O   UNL     1      -3.734   8.720  22.975  0.00  0.00    -0.444 OA
BRANCH  30  31
ATOM     31  C   UNL     1      -4.474   9.058  24.151  0.00  0.00    +0.292 C 
BRANCH  31  33
ATOM     32  N   UNL     1      -2.823  10.243  25.559  0.00  0.00    -0.131 NA
ATOM     33  C   UNL     1      -3.575   9.124  25.317  0.00  0.00    +0.120 A 
ATOM     34  C   UNL     1      -3.335   8.196  26.307  0.00  0.00    +0.137 A 
ATOM     35  N   UNL     1      -2.444   8.821  27.127  0.00  0.00    -0.250 N 
ATOM     36  N   UNL     1      -2.129  10.045  26.670  0.00  0.00    -0.065 NA
BRANCH  35  37
ATOM     37  C   UNL     1      -1.881   8.347  28.375  0.00  0.00    +0.160 C 
BRANCH  37  38
ATOM     38  C   UNL     1      -2.965   7.688  29.240  0.00  0.00    +0.107 C 
BRANCH  38  39
ATOM     39  N   UNL     1      -3.532   8.527  30.324  0.00  0.00    -0.301 NA
BRANCH  39  40
ATOM     40  C   UNL     1      -2.663   9.657  30.703  0.00  0.00    +0.081 C 
ATOM     41  C   UNL     1      -3.303  11.042  30.686  0.00  0.00    +0.020 C 
ENDBRANCH  39  40
BRANCH  39  42
ATOM     42  C   UNL     1      -4.898   8.941  29.941  0.00  0.00    +0.081 C 
ATOM     43  C   UNL     1      -5.707   7.878  29.204  0.00  0.00    +0.020 C 
ENDBRANCH  39  42
ENDBRANCH  38  39
ENDBRANCH  37  38
ENDBRANCH  35  37
ENDBRANCH  31  33
ENDBRANCH  30  31
ENDBRANCH  26  30
ENDBRANCH  25  28
ENDBRANCH   1  25
TORSDOF 18
