REMARK VINA RESULT:    -4.948      3.507      9.086
REMARK INTER + INTRA:         -10.735
REMARK INTER:                  -7.849
REMARK INTRA:                  -2.886
REMARK UNBOUND:                -2.170
REMARK  Name = lig_assembled_87.pdb
REMARK  17 active torsions:
REMARK  status: ('A' for Active; 'I' for Inactive)
REMARK    1  A    between atoms: _2  and  _10
REMARK    2  A    between atoms: _3  and  _13
REMARK    3  A    between atoms: _5  and  _21
REMARK    4  A    between atoms: _7  and  _8
REMARK    5  A    between atoms: _7  and  _21
REMARK    6  A    between atoms: _17  and  _37
REMARK    7  A    between atoms: _19  and  _25
REMARK    8  A    between atoms: _20  and  _24
REMARK    9  A    between atoms: _24  and  _25
REMARK   10  A    between atoms: _27  and  _28
REMARK   11  A    between atoms: _29  and  _30
REMARK   12  A    between atoms: _31  and  _33
REMARK   13  A    between atoms: _33  and  _34
REMARK   14  A    between atoms: _33  and  _35
REMARK   15  A    between atoms: _35  and  _36
REMARK   16  A    between atoms: _35  and  _37
REMARK   17  A    between atoms: _38  and  _40
REMARK                            x       y       z     vdW  Elec       q    Type
REMARK                         _______ _______ _______ _____ _____    ______ ____
ROOT
ATOM      1  C   UNL     1      -6.564   9.403  23.620  0.00  0.00    +0.163 C 
ENDROOT
BRANCH   1   2
ATOM      2  O   UNL     1      -6.963   9.840  24.929  0.00  0.00    -0.388 OA
ATOM      3  H   UNL     1      -7.701  10.449  24.853  0.00  0.00    +0.210 HD
ENDBRANCH   1   2
BRANCH   1   4
ATOM      4  C   UNL     1      -7.658   8.540  23.001  0.00  0.00    +0.141 C 
BRANCH   4   7
ATOM      5  C   UNL     1      -7.754   8.408  20.535  0.00  0.00    +0.401 C 
ATOM      6  O   UNL     1      -7.098   7.366  20.472  0.00  0.00    -0.226 OA
ATOM      7  N   UNL     1      -8.057   9.030  21.676  0.00  0.00    -0.279 N 
ATOM      8  H   UNL     1      -8.592   9.886  21.625  0.00  0.00    +0.152 HD
BRANCH   5   9
ATOM      9  O   UNL     1      -8.224   9.008  19.325  0.00  0.00    -0.444 OA
BRANCH   9  10
ATOM     10  C   UNL     1      -8.018  10.422  19.381  0.00  0.00    +0.292 C 
BRANCH  10  12
ATOM     11  N   UNL     1      -6.693  12.143  18.204  0.00  0.00    -0.131 NA
ATOM     12  C   UNL     1      -6.999  10.825  18.395  0.00  0.00    +0.120 A 
ATOM     13  C   UNL     1      -6.216  10.055  17.565  0.00  0.00    +0.137 A 
ATOM     14  N   UNL     1      -5.362  10.951  16.979  0.00  0.00    -0.248 N 
ATOM     15  N   UNL     1      -5.743  12.209  17.287  0.00  0.00    -0.065 NA
BRANCH  14  16
ATOM     16  C   UNL     1      -4.185  10.745  16.115  0.00  0.00    +0.112 C 
ATOM     17  C   UNL     1      -4.206  11.544  14.783  0.00  0.00    +0.045 C 
ATOM     18  C   UNL     1      -4.150  10.700  13.498  0.00  0.00    +0.059 C 
ATOM     19  C   UNL     1      -2.728  10.210  13.193  0.00  0.00    +0.020 C 
ATOM     20  C   UNL     1      -2.671   8.800  13.778  0.00  0.00    +0.020 C 
ATOM     21  C   UNL     1      -3.996   8.658  14.528  0.00  0.00    +0.059 C 
ATOM     22  N   UNL     1      -4.851   9.430  13.631  0.00  0.00    -0.299 NA
ATOM     23  C   UNL     1      -6.267   9.474  13.926  0.00  0.00    +0.105 C 
ATOM     24  C   UNL     1      -3.875   9.227  15.943  0.00  0.00    +0.045 C 
ENDBRANCH  14  16
ENDBRANCH  10  12
ENDBRANCH   9  10
ENDBRANCH   5   9
ENDBRANCH   4   7
ENDBRANCH   1   4
BRANCH   1  25
ATOM     25  C   UNL     1      -5.252   8.602  23.684  0.00  0.00    +0.175 C 
BRANCH  25  26
ATOM     26  C   UNL     1      -4.107   9.416  24.303  0.00  0.00    +0.176 C 
ATOM     27  O   UNL     1      -4.374   9.553  25.726  0.00  0.00    -0.332 OA
ATOM     28  C   UNL     1      -3.325  10.217  26.507  0.00  0.00    +0.277 C 
ATOM     29  C   UNL     1      -2.995  11.602  25.900  0.00  0.00    +0.110 C 
ATOM     30  C   UNL     1      -2.734  11.512  24.382  0.00  0.00    +0.143 C 
ATOM     31  C   UNL     1      -3.885  10.802  23.669  0.00  0.00    +0.133 C 
BRANCH  31  32
ATOM     32  N   UNL     1      -3.586  10.645  22.237  0.00  0.00    -0.308 N 
ATOM     33  H   UNL     1      -2.845  10.009  21.977  0.00  0.00    +0.149 HD
ATOM     34  C   UNL     1      -4.229  11.288  21.259  0.00  0.00    +0.210 C 
ATOM     35  C   UNL     1      -5.334  12.270  21.689  0.00  0.00    +0.109 C 
ATOM     36  O   UNL     1      -3.966  11.126  20.066  0.00  0.00    -0.276 OA
ENDBRANCH  31  32
BRANCH  28  37
ATOM     37  C   UNL     1      -2.047   9.354  26.550  0.00  0.00    +0.414 C 
ATOM     38  O   UNL     1      -0.939   9.889  26.577  0.00  0.00    -0.240 OA
ATOM     39  O   UNL     1      -2.123   8.125  26.558  0.00  0.00    -0.240 OA
ENDBRANCH  28  37
BRANCH  30  40
ATOM     40  O   UNL     1      -2.584  12.825  23.840  0.00  0.00    -0.390 OA
ATOM     41  H   UNL     1      -2.715  12.797  22.890  0.00  0.00    +0.210 HD
ENDBRANCH  30  40
BRANCH  28  42
ATOM     42  O   UNL     1      -3.827  10.415  27.854  0.00  0.00    -0.343 OA
ATOM     43  C   UNL     1      -5.066  11.162  27.942  0.00  0.00    +0.198 C 
ENDBRANCH  28  42
ENDBRANCH  25  26
BRANCH  25  44
ATOM     44  O   UNL     1      -4.883   8.148  22.366  0.00  0.00    -0.387 OA
ATOM     45  H   UNL     1      -3.935   8.000  22.332  0.00  0.00    +0.210 HD
ENDBRANCH  25  44
ENDBRANCH   1  25
TORSDOF 14
