REMARK VINA RESULT:    -5.297      3.583     12.826
REMARK INTER + INTRA:         -12.172
REMARK INTER:                 -10.002
REMARK INTRA:                  -2.170
REMARK UNBOUND:                -2.541
REMARK  Name = lig_assembled_23.pdb
REMARK  18 active torsions:
REMARK  status: ('A' for Active; 'I' for Inactive)
REMARK    1  A    between atoms: _2  and  _10
REMARK    2  A    between atoms: _3  and  _41
REMARK    3  A    between atoms: _5  and  _21
REMARK    4  A    between atoms: _7  and  _8
REMARK    5  A    between atoms: _7  and  _21
REMARK    6  A    between atoms: _12  and  _41
REMARK    7  A    between atoms: _17  and  _37
REMARK    8  A    between atoms: _19  and  _25
REMARK    9  A    between atoms: _20  and  _24
REMARK   10  A    between atoms: _24  and  _25
REMARK   11  A    between atoms: _27  and  _28
REMARK   12  A    between atoms: _29  and  _30
REMARK   13  A    between atoms: _31  and  _33
REMARK   14  A    between atoms: _33  and  _34
REMARK   15  A    between atoms: _33  and  _35
REMARK   16  A    between atoms: _35  and  _36
REMARK   17  A    between atoms: _35  and  _37
REMARK   18  A    between atoms: _38  and  _40
REMARK                            x       y       z     vdW  Elec       q    Type
REMARK                         _______ _______ _______ _____ _____    ______ ____
ROOT
ATOM      1  C   UNL     1      -4.851  11.516  14.311  0.00  0.00    +0.141 C 
ENDROOT
BRANCH   1   4
ATOM      2  C   UNL     1      -6.117  10.675  16.260  0.00  0.00    +0.401 C 
ATOM      3  O   UNL     1      -7.220  10.834  15.731  0.00  0.00    -0.226 OA
ATOM      4  N   UNL     1      -4.958  10.973  15.671  0.00  0.00    -0.279 N 
ATOM      5  H   UNL     1      -4.105  10.817  16.190  0.00  0.00    +0.152 HD
BRANCH   2   6
ATOM      6  O   UNL     1      -6.053  10.145  17.586  0.00  0.00    -0.444 OA
BRANCH   6   7
ATOM      7  C   UNL     1      -4.745  10.360  18.124  0.00  0.00    +0.292 C 
BRANCH   7   9
ATOM      8  N   UNL     1      -5.971  10.348  20.272  0.00  0.00    -0.131 NA
ATOM      9  C   UNL     1      -4.822  10.595  19.577  0.00  0.00    +0.121 A 
ATOM     10  C   UNL     1      -3.862  11.060  20.449  0.00  0.00    +0.143 A 
ATOM     11  N   UNL     1      -4.475  11.070  21.680  0.00  0.00    -0.220 N 
ATOM     12  N   UNL     1      -5.754  10.641  21.546  0.00  0.00    -0.060 NA
BRANCH  11  13
ATOM     13  C   UNL     1      -3.944  11.459  22.937  0.00  0.00    +0.069 A 
ATOM     14  C   UNL     1      -3.632  10.476  23.887  0.00  0.00    +0.056 A 
ATOM     15  C   UNL     1      -3.142  10.859  25.141  0.00  0.00    +0.107 A 
ATOM     16  C   UNL     1      -2.934  12.204  25.450  0.00  0.00    +0.028 A 
ATOM     17  C   UNL     1      -3.230  13.179  24.498  0.00  0.00    +0.004 A 
ATOM     18  C   UNL     1      -3.738  12.812  23.247  0.00  0.00    +0.028 A 
BRANCH  15  19
ATOM     19  S   UNL     1      -2.809   9.611  26.347  0.00  0.00    +0.056 S 
ATOM     20  O   UNL     1      -3.341  10.040  27.619  0.00  0.00    -0.153 OA
ATOM     21  O   UNL     1      -3.092   8.312  25.781  0.00  0.00    -0.153 OA
BRANCH  19  22
ATOM     22  N   UNL     1      -1.137   9.686  26.475  0.00  0.00    -0.204 NA
ATOM     23  H   UNL     1      -0.807  10.613  26.205  0.00  0.00    +0.144 HD
ATOM     24  H   UNL     1      -0.711   8.924  25.946  0.00  0.00    +0.144 HD
ENDBRANCH  19  22
ENDBRANCH  15  19
ENDBRANCH  11  13
ENDBRANCH   7   9
ENDBRANCH   6   7
ENDBRANCH   2   6
ENDBRANCH   1   4
BRANCH   1  25
ATOM     25  C   UNL     1      -3.436  11.988  13.997  0.00  0.00    +0.163 C 
BRANCH  25  26
ATOM     26  O   UNL     1      -2.560  11.681  15.094  0.00  0.00    -0.388 OA
ATOM     27  H   UNL     1      -2.214  10.791  14.989  0.00  0.00    +0.210 HD
ENDBRANCH  25  26
BRANCH  25  28
ATOM     28  C   UNL     1      -2.947  11.319  12.700  0.00  0.00    +0.175 C 
BRANCH  28  29
ATOM     29  C   UNL     1      -3.161   9.798  12.718  0.00  0.00    +0.176 C 
ATOM     30  O   UNL     1      -2.088   9.205  13.500  0.00  0.00    -0.332 OA
ATOM     31  C   UNL     1      -2.186   7.758  13.716  0.00  0.00    +0.277 C 
ATOM     32  C   UNL     1      -2.320   7.017  12.364  0.00  0.00    +0.110 C 
ATOM     33  C   UNL     1      -3.429   7.632  11.484  0.00  0.00    +0.143 C 
ATOM     34  C   UNL     1      -3.231   9.140  11.327  0.00  0.00    +0.133 C 
BRANCH  34  35
ATOM     35  N   UNL     1      -4.340   9.729  10.560  0.00  0.00    -0.308 N 
ATOM     36  H   UNL     1      -5.271   9.655  10.946  0.00  0.00    +0.149 HD
ATOM     37  C   UNL     1      -4.197  10.353   9.388  0.00  0.00    +0.210 C 
ATOM     38  C   UNL     1      -2.769  10.426   8.815  0.00  0.00    +0.109 C 
ATOM     39  O   UNL     1      -5.143  10.850   8.775  0.00  0.00    -0.276 OA
ENDBRANCH  34  35
BRANCH  31  40
ATOM     40  C   UNL     1      -3.396   7.420  14.612  0.00  0.00    +0.414 C 
ATOM     41  O   UNL     1      -3.908   8.289  15.316  0.00  0.00    -0.240 OA
ATOM     42  O   UNL     1      -3.860   6.279  14.630  0.00  0.00    -0.240 OA
ENDBRANCH  31  40
BRANCH  33  43
ATOM     43  O   UNL     1      -3.416   7.020  10.194  0.00  0.00    -0.390 OA
ATOM     44  H   UNL     1      -2.509   6.881   9.914  0.00  0.00    +0.210 HD
ENDBRANCH  33  43
BRANCH  31  45
ATOM     45  O   UNL     1      -0.963   7.317  14.360  0.00  0.00    -0.343 OA
ATOM     46  C   UNL     1      -0.549   8.114  15.499  0.00  0.00    +0.198 C 
ENDBRANCH  31  45
ENDBRANCH  28  29
BRANCH  28  47
ATOM     47  O   UNL     1      -1.556  11.622  12.478  0.00  0.00    -0.387 OA
ATOM     48  H   UNL     1      -1.478  12.287  11.790  0.00  0.00    +0.210 HD
ENDBRANCH  28  47
ENDBRANCH  25  28
ENDBRANCH   1  25
TORSDOF 16
