REMARK VINA RESULT:    -4.187      4.291      6.108
REMARK INTER + INTRA:         -11.335
REMARK INTER:                  -9.175
REMARK INTRA:                  -2.160
REMARK UNBOUND:                -3.721
REMARK  Name = lig_assembled_35.pdb
REMARK  19 active torsions:
REMARK  status: ('A' for Active; 'I' for Inactive)
REMARK    1  A    between atoms: _2  and  _9
REMARK    2  A    between atoms: _4  and  _17
REMARK    3  A    between atoms: _5  and  _9
REMARK    4  A    between atoms: _5  and  _11
REMARK    5  A    between atoms: _6  and  _7
REMARK    6  A    between atoms: _6  and  _17
REMARK    7  A    between atoms: _9  and  _10
REMARK    8  A    between atoms: _13  and  _33
REMARK    9  A    between atoms: _15  and  _21
REMARK   10  A    between atoms: _16  and  _20
REMARK   11  A    between atoms: _20  and  _21
REMARK   12  A    between atoms: _23  and  _24
REMARK   13  A    between atoms: _25  and  _26
REMARK   14  A    between atoms: _27  and  _29
REMARK   15  A    between atoms: _29  and  _30
REMARK   16  A    between atoms: _29  and  _31
REMARK   17  A    between atoms: _31  and  _32
REMARK   18  A    between atoms: _31  and  _33
REMARK   19  A    between atoms: _34  and  _36
REMARK                            x       y       z     vdW  Elec       q    Type
REMARK                         _______ _______ _______ _____ _____    ______ ____
ROOT
ATOM      1  C   UNL     1      -4.044  11.360  22.031  0.00  0.00    +0.163 C 
ENDROOT
BRANCH   1   2
ATOM      2  O   UNL     1      -3.750  10.085  21.437  0.00  0.00    -0.388 OA
ATOM      3  H   UNL     1      -2.947  10.153  20.915  0.00  0.00    +0.210 HD
ENDBRANCH   1   2
BRANCH   1   4
ATOM      4  C   UNL     1      -2.974  11.745  23.066  0.00  0.00    +0.175 C 
BRANCH   4   5
ATOM      5  C   UNL     1      -3.311  11.219  24.469  0.00  0.00    +0.176 C 
ATOM      6  O   UNL     1      -3.139   9.775  24.458  0.00  0.00    -0.332 OA
ATOM      7  C   UNL     1      -3.316   9.106  25.751  0.00  0.00    +0.277 C 
ATOM      8  C   UNL     1      -4.694   9.464  26.361  0.00  0.00    +0.110 C 
ATOM      9  C   UNL     1      -4.936  10.988  26.364  0.00  0.00    +0.143 C 
ATOM     10  C   UNL     1      -4.721  11.581  24.972  0.00  0.00    +0.133 C 
BRANCH  10  11
ATOM     11  N   UNL     1      -4.869  13.044  25.006  0.00  0.00    -0.308 N 
ATOM     12  H   UNL     1      -4.174  13.577  25.510  0.00  0.00    +0.149 HD
ATOM     13  C   UNL     1      -5.863  13.715  24.416  0.00  0.00    +0.210 C 
ATOM     14  C   UNL     1      -6.921  12.872  23.679  0.00  0.00    +0.109 C 
ATOM     15  O   UNL     1      -5.954  14.942  24.450  0.00  0.00    -0.276 OA
ENDBRANCH  10  11
BRANCH   7  16
ATOM     16  C   UNL     1      -2.197   9.508  26.733  0.00  0.00    +0.414 C 
ATOM     17  O   UNL     1      -1.064   9.747  26.318  0.00  0.00    -0.240 OA
ATOM     18  O   UNL     1      -2.427   9.593  27.940  0.00  0.00    -0.240 OA
ENDBRANCH   7  16
BRANCH   7  19
ATOM     19  O   UNL     1      -3.275   7.673  25.523  0.00  0.00    -0.343 OA
ATOM     20  C   UNL     1      -4.568   7.048  25.320  0.00  0.00    +0.198 C 
ENDBRANCH   7  19
BRANCH   9  21
ATOM     21  O   UNL     1      -6.270  11.262  26.792  0.00  0.00    -0.390 OA
ATOM     22  H   UNL     1      -6.787  10.454  26.770  0.00  0.00    +0.210 HD
ENDBRANCH   9  21
ENDBRANCH   4   5
BRANCH   4  23
ATOM     23  O   UNL     1      -2.807  13.177  23.100  0.00  0.00    -0.387 OA
ATOM     24  H   UNL     1      -3.348  13.546  23.801  0.00  0.00    +0.210 HD
ENDBRANCH   4  23
ENDBRANCH   1   4
BRANCH   1  25
ATOM     25  C   UNL     1      -4.118  12.435  20.951  0.00  0.00    +0.141 C 
BRANCH  25  28
ATOM     26  C   UNL     1      -5.813  12.109  19.182  0.00  0.00    +0.401 C 
ATOM     27  O   UNL     1      -6.677  12.775  19.757  0.00  0.00    -0.226 OA
ATOM     28  N   UNL     1      -4.591  11.893  19.671  0.00  0.00    -0.279 N 
ATOM     29  H   UNL     1      -3.954  11.325  19.130  0.00  0.00    +0.152 HD
BRANCH  26  30
ATOM     30  O   UNL     1      -6.118  11.519  17.916  0.00  0.00    -0.444 OA
BRANCH  30  31
ATOM     31  C   UNL     1      -5.412  10.282  17.782  0.00  0.00    +0.292 C 
BRANCH  31  33
ATOM     32  N   UNL     1      -3.574  11.262  16.445  0.00  0.00    -0.131 NA
ATOM     33  C   UNL     1      -4.550  10.312  16.584  0.00  0.00    +0.120 A 
ATOM     34  C   UNL     1      -4.544   9.495  15.476  0.00  0.00    +0.138 A 
ATOM     35  N   UNL     1      -3.530   9.989  14.708  0.00  0.00    -0.238 N 
ATOM     36  N   UNL     1      -2.966  11.064  15.285  0.00  0.00    -0.065 NA
BRANCH  35  37
ATOM     37  C   UNL     1      -3.045   9.543  13.416  0.00  0.00    +0.214 C 
ATOM     38  C   UNL     1      -2.725  10.731  12.513  0.00  0.00    +0.045 C 
BRANCH  37  39
ATOM     39  C   UNL     1      -1.867   8.602  13.561  0.00  0.00    +0.329 C 
ATOM     40  O   UNL     1      -1.466   7.854  12.679  0.00  0.00    -0.249 OA
BRANCH  39  41
ATOM     41  O   UNL     1      -1.281   8.623  14.784  0.00  0.00    -0.479 OA
ATOM     42  H   UNL     1      -1.879   8.479  15.545  0.00  0.00    +0.295 HD
ENDBRANCH  39  41
ENDBRANCH  37  39
ENDBRANCH  35  37
ENDBRANCH  31  33
ENDBRANCH  30  31
ENDBRANCH  26  30
ENDBRANCH  25  28
ENDBRANCH   1  25
TORSDOF 16
