REMARK VINA RESULT:    -4.981      2.648      5.496
REMARK INTER + INTRA:         -11.960
REMARK INTER:                  -8.894
REMARK INTRA:                  -3.066
REMARK UNBOUND:                -3.049
REMARK  Name = lig_assembled_28.pdb
REMARK  17 active torsions:
REMARK  status: ('A' for Active; 'I' for Inactive)
REMARK    1  A    between atoms: _2  and  _9
REMARK    2  A    between atoms: _4  and  _22
REMARK    3  A    between atoms: _6  and  _7
REMARK    4  A    between atoms: _6  and  _22
REMARK    5  A    between atoms: _9  and  _10
REMARK    6  A    between atoms: _18  and  _38
REMARK    7  A    between atoms: _20  and  _26
REMARK    8  A    between atoms: _21  and  _25
REMARK    9  A    between atoms: _25  and  _26
REMARK   10  A    between atoms: _28  and  _29
REMARK   11  A    between atoms: _30  and  _31
REMARK   12  A    between atoms: _32  and  _34
REMARK   13  A    between atoms: _34  and  _35
REMARK   14  A    between atoms: _34  and  _36
REMARK   15  A    between atoms: _36  and  _37
REMARK   16  A    between atoms: _36  and  _38
REMARK   17  A    between atoms: _39  and  _41
REMARK                            x       y       z     vdW  Elec       q    Type
REMARK                         _______ _______ _______ _____ _____    ______ ____
ROOT
ATOM      1  C   UNL     1      -6.538   8.495  23.413  0.00  0.00    +0.163 C 
ENDROOT
BRANCH   1   2
ATOM      2  O   UNL     1      -6.447   8.542  24.846  0.00  0.00    -0.388 OA
ATOM      3  H   UNL     1      -6.593   7.663  25.205  0.00  0.00    +0.210 HD
ENDBRANCH   1   2
BRANCH   1   4
ATOM      4  C   UNL     1      -5.437   7.603  22.848  0.00  0.00    +0.141 C 
BRANCH   4   7
ATOM      5  C   UNL     1      -3.369   6.496  23.625  0.00  0.00    +0.401 C 
ATOM      6  O   UNL     1      -3.118   5.988  22.530  0.00  0.00    -0.226 OA
ATOM      7  N   UNL     1      -4.435   7.261  23.865  0.00  0.00    -0.279 N 
ATOM      8  H   UNL     1      -4.560   7.625  24.799  0.00  0.00    +0.152 HD
BRANCH   5   9
ATOM      9  O   UNL     1      -2.479   6.263  24.720  0.00  0.00    -0.444 OA
BRANCH   9  10
ATOM     10  C   UNL     1      -3.218   5.762  25.837  0.00  0.00    +0.292 C 
BRANCH  10  12
ATOM     11  N   UNL     1      -1.727   7.299  27.087  0.00  0.00    -0.131 NA
ATOM     12  C   UNL     1      -2.786   6.431  27.079  0.00  0.00    +0.120 A 
ATOM     13  C   UNL     1      -3.319   6.361  28.346  0.00  0.00    +0.137 A 
ATOM     14  N   UNL     1      -2.606   7.281  29.060  0.00  0.00    -0.247 N 
ATOM     15  N   UNL     1      -1.618   7.805  28.309  0.00  0.00    -0.065 NA
BRANCH  14  16
ATOM     16  C   UNL     1      -2.819   7.806  30.402  0.00  0.00    +0.180 C 
BRANCH  16  17
ATOM     17  C   UNL     1      -3.155   9.278  30.433  0.00  0.00    -0.022 A 
ATOM     18  C   UNL     1      -2.557  10.119  31.388  0.00  0.00    +0.055 A 
ATOM     19  C   UNL     1      -2.804  11.473  31.304  0.00  0.00    +0.167 A 
ATOM     20  O   UNL     1      -2.265  12.428  32.110  0.00  0.00    -0.453 OA
ATOM     21  C   UNL     1      -2.770  13.624  31.480  0.00  0.00    +0.466 C 
ATOM     22  O   UNL     1      -3.711  13.359  30.417  0.00  0.00    -0.453 OA
ATOM     23  C   UNL     1      -3.629  12.003  30.343  0.00  0.00    +0.166 A 
ATOM     24  C   UNL     1      -4.260  11.207  29.411  0.00  0.00    +0.050 A 
ATOM     25  C   UNL     1      -4.012   9.832  29.454  0.00  0.00    +0.009 A 
ENDBRANCH  16  17
ENDBRANCH  14  16
ENDBRANCH  10  12
ENDBRANCH   9  10
ENDBRANCH   5   9
ENDBRANCH   4   7
ENDBRANCH   1   4
BRANCH   1  26
ATOM     26  C   UNL     1      -6.418   9.905  22.808  0.00  0.00    +0.175 C 
BRANCH  26  27
ATOM     27  C   UNL     1      -5.130  10.616  23.251  0.00  0.00    +0.176 C 
ATOM     28  O   UNL     1      -5.405  11.297  24.506  0.00  0.00    -0.332 OA
ATOM     29  C   UNL     1      -4.254  11.949  25.138  0.00  0.00    +0.277 C 
ATOM     30  C   UNL     1      -3.575  12.927  24.149  0.00  0.00    +0.110 C 
ATOM     31  C   UNL     1      -3.292  12.257  22.789  0.00  0.00    +0.143 C 
ATOM     32  C   UNL     1      -4.556  11.608  22.223  0.00  0.00    +0.133 C 
BRANCH  32  33
ATOM     33  N   UNL     1      -4.255  10.899  20.970  0.00  0.00    -0.308 N 
ATOM     34  H   UNL     1      -3.534  10.191  20.990  0.00  0.00    +0.149 HD
ATOM     35  C   UNL     1      -4.872  11.128  19.807  0.00  0.00    +0.210 C 
ATOM     36  C   UNL     1      -5.948  12.231  19.804  0.00  0.00    +0.109 C 
ATOM     37  O   UNL     1      -4.608  10.508  18.777  0.00  0.00    -0.276 OA
ENDBRANCH  32  33
BRANCH  29  38
ATOM     38  C   UNL     1      -3.226  10.901  25.615  0.00  0.00    +0.414 C 
ATOM     39  O   UNL     1      -2.067  11.235  25.856  0.00  0.00    -0.240 OA
ATOM     40  O   UNL     1      -3.556   9.723  25.758  0.00  0.00    -0.240 OA
ENDBRANCH  29  38
BRANCH  29  41
ATOM     41  O   UNL     1      -4.738  12.710  26.275  0.00  0.00    -0.343 OA
ATOM     42  C   UNL     1      -6.174  12.909  26.311  0.00  0.00    +0.198 C 
ENDBRANCH  29  41
BRANCH  31  43
ATOM     43  O   UNL     1      -2.808  13.231  21.863  0.00  0.00    -0.390 OA
ATOM     44  H   UNL     1      -3.519  13.831  21.628  0.00  0.00    +0.210 HD
ENDBRANCH  31  43
ENDBRANCH  26  27
BRANCH  26  45
ATOM     45  O   UNL     1      -7.569  10.697  23.161  0.00  0.00    -0.387 OA
ATOM     46  H   UNL     1      -8.369  10.222  22.923  0.00  0.00    +0.210 HD
ENDBRANCH  26  45
ENDBRANCH   1  26
TORSDOF 15
