REMARK VINA RESULT:    -4.992      2.480      7.607
REMARK INTER + INTRA:         -11.441
REMARK INTER:                  -8.750
REMARK INTRA:                  -2.691
REMARK UNBOUND:                -2.363
REMARK  Name = lig_assembled_59.pdb
REMARK  18 active torsions:
REMARK  status: ('A' for Active; 'I' for Inactive)
REMARK    1  A    between atoms: _2  and  _10
REMARK    2  A    between atoms: _5  and  _20
REMARK    3  A    between atoms: _7  and  _8
REMARK    4  A    between atoms: _7  and  _20
REMARK    5  A    between atoms: _13  and  _14
REMARK    6  A    between atoms: _14  and  _15
REMARK    7  A    between atoms: _16  and  _36
REMARK    8  A    between atoms: _18  and  _24
REMARK    9  A    between atoms: _19  and  _23
REMARK   10  A    between atoms: _23  and  _24
REMARK   11  A    between atoms: _26  and  _27
REMARK   12  A    between atoms: _28  and  _29
REMARK   13  A    between atoms: _30  and  _32
REMARK   14  A    between atoms: _32  and  _33
REMARK   15  A    between atoms: _32  and  _34
REMARK   16  A    between atoms: _34  and  _35
REMARK   17  A    between atoms: _34  and  _36
REMARK   18  A    between atoms: _37  and  _39
REMARK                            x       y       z     vdW  Elec       q    Type
REMARK                         _______ _______ _______ _____ _____    ______ ____
ROOT
ATOM      1  C   UNL     1      -3.367   9.597  31.221  0.00  0.00    +0.163 C 
ENDROOT
BRANCH   1   2
ATOM      2  O   UNL     1      -2.348  10.598  31.377  0.00  0.00    -0.388 OA
ATOM      3  H   UNL     1      -1.542  10.304  30.945  0.00  0.00    +0.210 HD
ENDBRANCH   1   2
BRANCH   1   4
ATOM      4  C   UNL     1      -4.656  10.211  30.647  0.00  0.00    +0.175 C 
BRANCH   4   5
ATOM      5  C   UNL     1      -4.567  11.739  30.530  0.00  0.00    +0.176 C 
ATOM      6  O   UNL     1      -4.713  12.299  31.864  0.00  0.00    -0.332 OA
ATOM      7  C   UNL     1      -4.548  13.752  31.964  0.00  0.00    +0.277 C 
ATOM      8  C   UNL     1      -5.507  14.474  30.985  0.00  0.00    +0.110 C 
ATOM      9  C   UNL     1      -5.410  13.891  29.559  0.00  0.00    +0.143 C 
ATOM     10  C   UNL     1      -5.593  12.373  29.573  0.00  0.00    +0.133 C 
BRANCH  10  11
ATOM     11  N   UNL     1      -5.413  11.820  28.222  0.00  0.00    -0.308 N 
ATOM     12  H   UNL     1      -4.515  11.948  27.776  0.00  0.00    +0.149 HD
ATOM     13  C   UNL     1      -6.357  11.160  27.546  0.00  0.00    +0.210 C 
ATOM     14  C   UNL     1      -7.722  11.005  28.243  0.00  0.00    +0.109 C 
ATOM     15  O   UNL     1      -6.173  10.695  26.421  0.00  0.00    -0.276 OA
ENDBRANCH  10  11
BRANCH   7  16
ATOM     16  C   UNL     1      -3.092  14.160  31.654  0.00  0.00    +0.414 C 
ATOM     17  O   UNL     1      -2.860  15.134  30.938  0.00  0.00    -0.240 OA
ATOM     18  O   UNL     1      -2.151  13.515  32.118  0.00  0.00    -0.240 OA
ENDBRANCH   7  16
BRANCH   7  19
ATOM     19  O   UNL     1      -4.889  14.152  33.316  0.00  0.00    -0.343 OA
ATOM     20  C   UNL     1      -4.999  15.583  33.523  0.00  0.00    +0.198 C 
ENDBRANCH   7  19
BRANCH   9  21
ATOM     21  O   UNL     1      -6.413  14.479  28.730  0.00  0.00    -0.390 OA
ATOM     22  H   UNL     1      -6.197  14.325  27.807  0.00  0.00    +0.210 HD
ENDBRANCH   9  21
ENDBRANCH   4   5
BRANCH   4  23
ATOM     23  O   UNL     1      -5.787   9.840  31.461  0.00  0.00    -0.387 OA
ATOM     24  H   UNL     1      -6.443  10.541  31.436  0.00  0.00    +0.210 HD
ENDBRANCH   4  23
ENDBRANCH   1   4
BRANCH   1  25
ATOM     25  C   UNL     1      -2.874   8.490  30.296  0.00  0.00    +0.141 C 
BRANCH  25  28
ATOM     26  C   UNL     1      -1.909   8.260  28.033  0.00  0.00    +0.401 C 
ATOM     27  O   UNL     1      -1.734   7.043  28.129  0.00  0.00    -0.226 OA
ATOM     28  N   UNL     1      -2.430   9.017  28.999  0.00  0.00    -0.279 N 
ATOM     29  H   UNL     1      -2.525  10.008  28.830  0.00  0.00    +0.152 HD
BRANCH  26  30
ATOM     30  O   UNL     1      -1.533   8.922  26.823  0.00  0.00    -0.444 OA
BRANCH  30  31
ATOM     31  C   UNL     1      -1.821  10.319  26.933  0.00  0.00    +0.292 C 
BRANCH  31  33
ATOM     32  N   UNL     1      -2.926   9.907  24.761  0.00  0.00    -0.131 NA
ATOM     33  C   UNL     1      -2.605  10.773  25.769  0.00  0.00    +0.121 A 
ATOM     34  C   UNL     1      -3.120  12.015  25.477  0.00  0.00    +0.145 A 
ATOM     35  N   UNL     1      -3.755  11.857  24.266  0.00  0.00    -0.202 N 
ATOM     36  N   UNL     1      -3.628  10.571  23.852  0.00  0.00    -0.059 NA
BRANCH  35  37
ATOM     37  C   UNL     1      -4.438  12.850  23.515  0.00  0.00    +0.156 A 
ATOM     38  C   UNL     1      -3.730  13.958  23.053  0.00  0.00    +0.048 A 
ATOM     39  C   UNL     1      -4.415  14.949  22.352  0.00  0.00    +0.011 A 
ATOM     40  C   UNL     1      -5.785  14.818  22.119  0.00  0.00    -0.004 A 
ATOM     41  C   UNL     1      -6.409  13.677  22.617  0.00  0.00    +0.119 A 
ATOM     42  N   UNL     1      -5.773  12.693  23.295  0.00  0.00    -0.236 NA
BRANCH  40  43
ATOM     43  C   UNL     1      -6.559  15.915  21.449  0.00  0.00    +0.192 C 
BRANCH  43  44
ATOM     44  O   UNL     1      -7.546  15.392  20.572  0.00  0.00    -0.390 OA
ATOM     45  H   UNL     1      -7.166  14.594  20.163  0.00  0.00    +0.210 HD
ENDBRANCH  43  44
ENDBRANCH  40  43
ENDBRANCH  35  37
ENDBRANCH  31  33
ENDBRANCH  30  31
ENDBRANCH  26  30
ENDBRANCH  25  28
ENDBRANCH   1  25
TORSDOF 16
