REMARK VINA RESULT:    -5.263      5.025      7.107
REMARK INTER + INTRA:         -12.251
REMARK INTER:                  -9.780
REMARK INTRA:                  -2.471
REMARK UNBOUND:                -3.141
REMARK  Name = lig_assembled_91.pdb
REMARK  16 active torsions:
REMARK  status: ('A' for Active; 'I' for Inactive)
REMARK    1  A    between atoms: _2  and  _10
REMARK    2  A    between atoms: _5  and  _26
REMARK    3  A    between atoms: _7  and  _8
REMARK    4  A    between atoms: _7  and  _26
REMARK    5  A    between atoms: _22  and  _42
REMARK    6  A    between atoms: _24  and  _30
REMARK    7  A    between atoms: _25  and  _29
REMARK    8  A    between atoms: _29  and  _30
REMARK    9  A    between atoms: _32  and  _33
REMARK   10  A    between atoms: _34  and  _35
REMARK   11  A    between atoms: _36  and  _38
REMARK   12  A    between atoms: _38  and  _39
REMARK   13  A    between atoms: _38  and  _40
REMARK   14  A    between atoms: _40  and  _41
REMARK   15  A    between atoms: _40  and  _42
REMARK   16  A    between atoms: _43  and  _45
REMARK                            x       y       z     vdW  Elec       q    Type
REMARK                         _______ _______ _______ _____ _____    ______ ____
ROOT
ATOM      1  C   UNL     1      -5.989  12.090  20.556  0.00  0.00    +0.401 C 
ATOM      2  O   UNL     1      -6.387  13.239  20.759  0.00  0.00    -0.226 OA
ATOM      3  N   UNL     1      -4.770  11.655  20.878  0.00  0.00    -0.279 N 
ATOM      4  H   UNL     1      -4.540  10.691  20.680  0.00  0.00    +0.152 HD
ENDROOT
BRANCH   3   5
ATOM      5  C   UNL     1      -3.744  12.498  21.504  0.00  0.00    +0.141 C 
BRANCH   5   6
ATOM      6  C   UNL     1      -3.000  11.760  22.612  0.00  0.00    +0.163 C 
BRANCH   6   7
ATOM      7  O   UNL     1      -2.841  12.618  23.754  0.00  0.00    -0.388 OA
ATOM      8  H   UNL     1      -2.148  12.272  24.321  0.00  0.00    +0.210 HD
ENDBRANCH   6   7
BRANCH   6   9
ATOM      9  C   UNL     1      -3.771  10.483  22.987  0.00  0.00    +0.175 C 
BRANCH   9  10
ATOM     10  C   UNL     1      -3.812  10.257  24.506  0.00  0.00    +0.176 C 
ATOM     11  O   UNL     1      -3.276   8.932  24.775  0.00  0.00    -0.332 OA
ATOM     12  C   UNL     1      -3.138   8.581  26.192  0.00  0.00    +0.277 C 
ATOM     13  C   UNL     1      -4.489   8.759  26.927  0.00  0.00    +0.110 C 
ATOM     14  C   UNL     1      -5.113  10.142  26.645  0.00  0.00    +0.143 C 
ATOM     15  C   UNL     1      -5.206  10.405  25.142  0.00  0.00    +0.133 C 
BRANCH  15  16
ATOM     16  N   UNL     1      -5.722  11.760  24.888  0.00  0.00    -0.308 N 
ATOM     17  H   UNL     1      -5.199  12.541  25.259  0.00  0.00    +0.149 HD
ATOM     18  C   UNL     1      -6.834  12.025  24.198  0.00  0.00    +0.210 C 
ATOM     19  C   UNL     1      -7.622  10.812  23.668  0.00  0.00    +0.109 C 
ATOM     20  O   UNL     1      -7.234  13.170  23.988  0.00  0.00    -0.276 OA
ENDBRANCH  15  16
BRANCH  12  21
ATOM     21  C   UNL     1      -2.063   9.454  26.870  0.00  0.00    +0.414 C 
ATOM     22  O   UNL     1      -2.208   9.825  28.034  0.00  0.00    -0.240 OA
ATOM     23  O   UNL     1      -1.050   9.788  26.254  0.00  0.00    -0.240 OA
ENDBRANCH  12  21
BRANCH  14  24
ATOM     24  O   UNL     1      -6.421  10.205  27.216  0.00  0.00    -0.390 OA
ATOM     25  H   UNL     1      -6.865   9.363  27.095  0.00  0.00    +0.210 HD
ENDBRANCH  14  24
BRANCH  12  26
ATOM     26  O   UNL     1      -2.755   7.184  26.272  0.00  0.00    -0.343 OA
ATOM     27  C   UNL     1      -3.436   6.419  27.298  0.00  0.00    +0.198 C 
ENDBRANCH  12  26
ENDBRANCH   9  10
BRANCH   9  28
ATOM     28  O   UNL     1      -3.189   9.340  22.330  0.00  0.00    -0.387 OA
ATOM     29  H   UNL     1      -3.759   9.058  21.611  0.00  0.00    +0.210 HD
ENDBRANCH   9  28
ENDBRANCH   6   9
ENDBRANCH   5   6
ENDBRANCH   3   5
BRANCH   1  30
ATOM     30  O   UNL     1      -6.873  11.147  19.943  0.00  0.00    -0.444 OA
BRANCH  30  31
ATOM     31  C   UNL     1      -7.532  11.762  18.834  0.00  0.00    +0.292 C 
BRANCH  31  33
ATOM     32  N   UNL     1      -7.588  10.825  16.550  0.00  0.00    -0.131 NA
ATOM     33  C   UNL     1      -6.876  11.385  17.566  0.00  0.00    +0.121 A 
ATOM     34  C   UNL     1      -5.565  11.516  17.171  0.00  0.00    +0.143 A 
ATOM     35  N   UNL     1      -5.504  10.975  15.902  0.00  0.00    -0.218 N 
ATOM     36  N   UNL     1      -6.755  10.585  15.548  0.00  0.00    -0.060 NA
BRANCH  35  37
ATOM     37  C   UNL     1      -4.380  10.803  15.038  0.00  0.00    +0.085 A 
ATOM     38  C   UNL     1      -4.005  11.848  14.119  0.00  0.00    +0.026 A 
ATOM     39  C   UNL     1      -2.897  11.566  13.295  0.00  0.00    +0.074 A 
ATOM     40  C   UNL     1      -2.444  12.495  12.370  0.00  0.00    +0.028 A 
ATOM     41  C   UNL     1      -3.045  13.739  12.211  0.00  0.00    +0.002 A 
ATOM     42  C   UNL     1      -4.112  14.072  13.021  0.00  0.00    +0.001 A 
ATOM     43  N   UNL     1      -2.202  10.433  13.351  0.00  0.00    -0.247 NA
ATOM     44  C   UNL     1      -2.533   9.481  14.222  0.00  0.00    +0.074 A 
ATOM     45  C   UNL     1      -1.741   8.338  14.192  0.00  0.00    +0.028 A 
ATOM     46  C   UNL     1      -1.984   7.243  15.015  0.00  0.00    +0.002 A 
ATOM     47  C   UNL     1      -3.057   7.285  15.883  0.00  0.00    +0.001 A 
ATOM     48  C   UNL     1      -3.867   8.425  15.921  0.00  0.00    +0.012 A 
ATOM     49  C   UNL     1      -4.570  13.154  13.973  0.00  0.00    +0.012 A 
ATOM     50  C   UNL     1      -3.622   9.575  15.104  0.00  0.00    +0.026 A 
ENDBRANCH  35  37
ENDBRANCH  31  33
ENDBRANCH  30  31
ENDBRANCH   1  30
TORSDOF 14
