REMARK VINA RESULT:    -4.846      3.674      7.737
REMARK INTER + INTRA:         -11.427
REMARK INTER:                  -8.098
REMARK INTRA:                  -3.329
REMARK UNBOUND:                -2.756
REMARK  Name = lig_assembled_41.pdb
REMARK  18 active torsions:
REMARK  status: ('A' for Active; 'I' for Inactive)
REMARK    1  A    between atoms: _2  and  _9
REMARK    2  A    between atoms: _4  and  _21
REMARK    3  A    between atoms: _6  and  _7
REMARK    4  A    between atoms: _6  and  _21
REMARK    5  A    between atoms: _10  and  _11
REMARK    6  A    between atoms: _11  and  _12
REMARK    7  A    between atoms: _17  and  _37
REMARK    8  A    between atoms: _19  and  _25
REMARK    9  A    between atoms: _20  and  _24
REMARK   10  A    between atoms: _24  and  _25
REMARK   11  A    between atoms: _27  and  _28
REMARK   12  A    between atoms: _29  and  _30
REMARK   13  A    between atoms: _31  and  _33
REMARK   14  A    between atoms: _33  and  _34
REMARK   15  A    between atoms: _33  and  _35
REMARK   16  A    between atoms: _35  and  _36
REMARK   17  A    between atoms: _35  and  _37
REMARK   18  A    between atoms: _38  and  _40
REMARK                            x       y       z     vdW  Elec       q    Type
REMARK                         _______ _______ _______ _____ _____    ______ ____
ROOT
ATOM      1  C   UNL     1      -2.928  10.641  31.342  0.00  0.00    +0.163 C 
ENDROOT
BRANCH   1   2
ATOM      2  O   UNL     1      -2.936  11.213  30.024  0.00  0.00    -0.388 OA
ATOM      3  H   UNL     1      -2.513  12.076  30.046  0.00  0.00    +0.210 HD
ENDBRANCH   1   2
BRANCH   1   4
ATOM      4  C   UNL     1      -3.015   9.121  31.250  0.00  0.00    +0.141 C 
BRANCH   4   7
ATOM      5  C   UNL     1      -3.153   7.744  29.204  0.00  0.00    +0.401 C 
ATOM      6  O   UNL     1      -2.091   7.153  29.417  0.00  0.00    -0.226 OA
ATOM      7  N   UNL     1      -3.657   8.683  30.005  0.00  0.00    -0.279 N 
ATOM      8  H   UNL     1      -4.529   9.118  29.740  0.00  0.00    +0.152 HD
BRANCH   5   9
ATOM      9  O   UNL     1      -3.903   7.422  28.030  0.00  0.00    -0.444 OA
BRANCH   9  10
ATOM     10  C   UNL     1      -3.030   7.391  26.898  0.00  0.00    +0.292 C 
BRANCH  10  12
ATOM     11  N   UNL     1      -1.702   9.411  26.408  0.00  0.00    -0.131 NA
ATOM     12  C   UNL     1      -2.885   8.741  26.324  0.00  0.00    +0.121 A 
ATOM     13  C   UNL     1      -3.794   9.519  25.640  0.00  0.00    +0.143 A 
ATOM     14  N   UNL     1      -3.149  10.714  25.417  0.00  0.00    -0.219 N 
ATOM     15  N   UNL     1      -1.851  10.583  25.810  0.00  0.00    -0.060 NA
BRANCH  14  16
ATOM     16  C   UNL     1      -3.595  11.908  24.782  0.00  0.00    +0.077 A 
ATOM     17  C   UNL     1      -4.628  12.738  25.266  0.00  0.00    +0.043 A 
ATOM     18  C   UNL     1      -5.003  13.867  24.507  0.00  0.00    +0.013 A 
ATOM     19  C   UNL     1      -4.379  14.166  23.294  0.00  0.00    +0.001 A 
ATOM     20  C   UNL     1      -3.347  13.364  22.831  0.00  0.00    +0.002 A 
ATOM     21  C   UNL     1      -2.950  12.252  23.572  0.00  0.00    +0.028 A 
BRANCH  17  22
ATOM     22  C   UNL     1      -5.216  12.624  26.636  0.00  0.00    +0.162 C 
ATOM     23  O   UNL     1      -4.474  12.417  27.594  0.00  0.00    -0.292 OA
ATOM     24  C   UNL     1      -6.705  12.766  26.839  0.00  0.00    +0.091 C 
ENDBRANCH  17  22
ENDBRANCH  14  16
ENDBRANCH  10  12
ENDBRANCH   9  10
ENDBRANCH   5   9
ENDBRANCH   4   7
ENDBRANCH   1   4
BRANCH   1  25
ATOM     25  C   UNL     1      -4.102  11.173  32.180  0.00  0.00    +0.175 C 
BRANCH  25  26
ATOM     26  C   UNL     1      -4.674  12.480  31.610  0.00  0.00    +0.176 C 
ATOM     27  O   UNL     1      -4.685  13.467  32.678  0.00  0.00    -0.332 OA
ATOM     28  C   UNL     1      -5.104  14.817  32.289  0.00  0.00    +0.277 C 
ATOM     29  C   UNL     1      -6.490  14.776  31.599  0.00  0.00    +0.110 C 
ATOM     30  C   UNL     1      -6.536  13.718  30.476  0.00  0.00    +0.143 C 
ATOM     31  C   UNL     1      -6.078  12.353  30.990  0.00  0.00    +0.133 C 
BRANCH  31  32
ATOM     32  N   UNL     1      -6.043  11.374  29.891  0.00  0.00    -0.308 N 
ATOM     33  H   UNL     1      -5.441  11.570  29.104  0.00  0.00    +0.149 HD
ATOM     34  C   UNL     1      -6.756  10.245  29.867  0.00  0.00    +0.210 C 
ATOM     35  C   UNL     1      -7.683   9.988  31.070  0.00  0.00    +0.109 C 
ATOM     36  O   UNL     1      -6.696   9.436  28.940  0.00  0.00    -0.276 OA
ENDBRANCH  31  32
BRANCH  28  37
ATOM     37  C   UNL     1      -4.073  15.456  31.336  0.00  0.00    +0.414 C 
ATOM     38  O   UNL     1      -4.431  16.281  30.497  0.00  0.00    -0.240 OA
ATOM     39  O   UNL     1      -2.882  15.147  31.407  0.00  0.00    -0.240 OA
ENDBRANCH  28  37
BRANCH  30  40
ATOM     40  O   UNL     1      -7.868  13.609  29.972  0.00  0.00    -0.390 OA
ATOM     41  H   UNL     1      -7.961  12.785  29.489  0.00  0.00    +0.210 HD
ENDBRANCH  30  40
BRANCH  28  42
ATOM     42  O   UNL     1      -5.217  15.616  33.494  0.00  0.00    -0.343 OA
ATOM     43  C   UNL     1      -6.398  16.455  33.565  0.00  0.00    +0.198 C 
ENDBRANCH  28  42
ENDBRANCH  25  26
BRANCH  25  44
ATOM     44  O   UNL     1      -3.689  11.367  33.547  0.00  0.00    -0.387 OA
ATOM     45  H   UNL     1      -2.773  11.655  33.567  0.00  0.00    +0.210 HD
ENDBRANCH  25  44
ENDBRANCH   1  25
TORSDOF 15
