REMARK VINA RESULT:    -4.120      2.906      5.196
REMARK INTER + INTRA:         -11.591
REMARK INTER:                  -8.648
REMARK INTRA:                  -2.944
REMARK UNBOUND:                -3.979
REMARK  Name = lig_assembled_24.pdb
REMARK  19 active torsions:
REMARK  status: ('A' for Active; 'I' for Inactive)
REMARK    1  A    between atoms: _2  and  _9
REMARK    2  A    between atoms: _4  and  _21
REMARK    3  A    between atoms: _6  and  _7
REMARK    4  A    between atoms: _6  and  _21
REMARK    5  A    between atoms: _9  and  _10
REMARK    6  A    between atoms: _13  and  _16
REMARK    7  A    between atoms: _14  and  _16
REMARK    8  A    between atoms: _17  and  _37
REMARK    9  A    between atoms: _19  and  _25
REMARK   10  A    between atoms: _20  and  _24
REMARK   11  A    between atoms: _24  and  _25
REMARK   12  A    between atoms: _27  and  _28
REMARK   13  A    between atoms: _29  and  _30
REMARK   14  A    between atoms: _31  and  _33
REMARK   15  A    between atoms: _33  and  _34
REMARK   16  A    between atoms: _33  and  _35
REMARK   17  A    between atoms: _35  and  _36
REMARK   18  A    between atoms: _35  and  _37
REMARK   19  A    between atoms: _38  and  _40
REMARK                            x       y       z     vdW  Elec       q    Type
REMARK                         _______ _______ _______ _____ _____    ______ ____
ROOT
ATOM      1  C   UNL     1      -3.228  10.157  24.339  0.00  0.00    +0.163 C 
ENDROOT
BRANCH   1   2
ATOM      2  O   UNL     1      -3.832  10.168  23.035  0.00  0.00    -0.388 OA
ATOM      3  H   UNL     1      -4.489  10.867  22.992  0.00  0.00    +0.210 HD
ENDBRANCH   1   2
BRANCH   1   4
ATOM      4  C   UNL     1      -3.301  11.549  24.990  0.00  0.00    +0.175 C 
BRANCH   4   5
ATOM      5  C   UNL     1      -4.434  12.403  24.403  0.00  0.00    +0.176 C 
ATOM      6  O   UNL     1      -3.832  13.444  23.585  0.00  0.00    -0.332 OA
ATOM      7  C   UNL     1      -4.772  14.299  22.854  0.00  0.00    +0.277 C 
ATOM      8  C   UNL     1      -5.801  14.926  23.825  0.00  0.00    +0.110 C 
ATOM      9  C   UNL     1      -6.446  13.861  24.737  0.00  0.00    +0.143 C 
ATOM     10  C   UNL     1      -5.378  13.028  25.447  0.00  0.00    +0.133 C 
BRANCH  10  11
ATOM     11  N   UNL     1      -6.003  11.961  26.245  0.00  0.00    -0.308 N 
ATOM     12  H   UNL     1      -6.623  11.320  25.771  0.00  0.00    +0.149 HD
ATOM     13  C   UNL     1      -5.805  11.787  27.554  0.00  0.00    +0.210 C 
ATOM     14  C   UNL     1      -4.876  12.797  28.252  0.00  0.00    +0.109 C 
ATOM     15  O   UNL     1      -6.331  10.875  28.194  0.00  0.00    -0.276 OA
ENDBRANCH  10  11
BRANCH   7  16
ATOM     16  C   UNL     1      -5.513  13.492  21.767  0.00  0.00    +0.414 C 
ATOM     17  O   UNL     1      -6.629  13.843  21.387  0.00  0.00    -0.240 OA
ATOM     18  O   UNL     1      -4.995  12.491  21.271  0.00  0.00    -0.240 OA
ENDBRANCH   7  16
BRANCH   7  19
ATOM     19  O   UNL     1      -4.015  15.371  22.235  0.00  0.00    -0.343 OA
ATOM     20  C   UNL     1      -4.692  16.652  22.189  0.00  0.00    +0.198 C 
ENDBRANCH   7  19
BRANCH   9  21
ATOM     21  O   UNL     1      -7.271  14.499  25.713  0.00  0.00    -0.390 OA
ATOM     22  H   UNL     1      -7.970  14.987  25.273  0.00  0.00    +0.210 HD
ENDBRANCH   9  21
ENDBRANCH   4   5
BRANCH   4  23
ATOM     23  O   UNL     1      -2.040  12.231  24.848  0.00  0.00    -0.387 OA
ATOM     24  H   UNL     1      -1.322  11.617  25.019  0.00  0.00    +0.210 HD
ENDBRANCH   4  23
ENDBRANCH   1   4
BRANCH   1  25
ATOM     25  C   UNL     1      -3.930   9.139  25.231  0.00  0.00    +0.141 C 
BRANCH  25  28
ATOM     26  C   UNL     1      -2.371   8.300  26.955  0.00  0.00    +0.401 C 
ATOM     27  O   UNL     1      -1.837   7.478  26.207  0.00  0.00    -0.226 OA
ATOM     28  N   UNL     1      -3.361   9.113  26.584  0.00  0.00    -0.279 N 
ATOM     29  H   UNL     1      -3.741   9.747  27.273  0.00  0.00    +0.152 HD
BRANCH  26  30
ATOM     30  O   UNL     1      -1.920   8.402  28.308  0.00  0.00    -0.444 OA
BRANCH  30  31
ATOM     31  C   UNL     1      -2.995   8.080  29.195  0.00  0.00    +0.292 C 
BRANCH  31  33
ATOM     32  N   UNL     1      -3.378   8.640  31.576  0.00  0.00    -0.131 NA
ATOM     33  C   UNL     1      -3.047   9.044  30.310  0.00  0.00    +0.120 A 
ATOM     34  C   UNL     1      -2.784  10.395  30.323  0.00  0.00    +0.137 A 
ATOM     35  N   UNL     1      -2.902  10.746  31.636  0.00  0.00    -0.247 N 
ATOM     36  N   UNL     1      -3.296   9.690  32.379  0.00  0.00    -0.065 NA
BRANCH  35  37
ATOM     37  C   UNL     1      -2.622  12.002  32.312  0.00  0.00    +0.180 C 
BRANCH  37  38
ATOM     38  C   UNL     1      -3.493  13.159  31.884  0.00  0.00    -0.026 A 
ATOM     39  C   UNL     1      -2.931  14.277  31.254  0.00  0.00    +0.009 A 
ATOM     40  C   UNL     1      -3.745  15.343  30.858  0.00  0.00    +0.046 A 
ATOM     41  C   UNL     1      -5.125  15.301  31.068  0.00  0.00    +0.120 A 
ATOM     42  C   UNL     1      -5.686  14.204  31.715  0.00  0.00    +0.046 A 
ATOM     43  C   UNL     1      -4.876  13.136  32.121  0.00  0.00    +0.009 A 
BRANCH  41  44
ATOM     44  O   UNL     1      -5.813  16.409  30.658  0.00  0.00    -0.495 OA
ATOM     45  C   UNL     1      -5.030  17.585  30.480  0.00  0.00    +0.277 C 
ENDBRANCH  41  44
ENDBRANCH  37  38
ENDBRANCH  35  37
ENDBRANCH  31  33
ENDBRANCH  30  31
ENDBRANCH  26  30
ENDBRANCH  25  28
ENDBRANCH   1  25
TORSDOF 16
