REMARK VINA RESULT:    -4.565      4.361      9.409
REMARK INTER + INTRA:          -9.968
REMARK INTER:                  -7.299
REMARK INTRA:                  -2.670
REMARK UNBOUND:                -2.334
REMARK  Name = lig_assembled_65.pdb
REMARK  16 active torsions:
REMARK  status: ('A' for Active; 'I' for Inactive)
REMARK    1  A    between atoms: _8  and  _20
REMARK    2  A    between atoms: _9  and  _15
REMARK    3  A    between atoms: _10  and  _11
REMARK    4  A    between atoms: _10  and  _20
REMARK    5  A    between atoms: _16  and  _36
REMARK    6  A    between atoms: _18  and  _24
REMARK    7  A    between atoms: _19  and  _23
REMARK    8  A    between atoms: _23  and  _24
REMARK    9  A    between atoms: _26  and  _27
REMARK   10  A    between atoms: _28  and  _29
REMARK   11  A    between atoms: _30  and  _32
REMARK   12  A    between atoms: _32  and  _33
REMARK   13  A    between atoms: _32  and  _34
REMARK   14  A    between atoms: _34  and  _35
REMARK   15  A    between atoms: _34  and  _36
REMARK   16  A    between atoms: _37  and  _39
REMARK                            x       y       z     vdW  Elec       q    Type
REMARK                         _______ _______ _______ _____ _____    ______ ____
ROOT
ATOM      1  C   UNL     1      -5.246   8.099  23.288  0.00  0.00    +0.163 C 
ENDROOT
BRANCH   1   2
ATOM      2  O   UNL     1      -4.013   8.100  24.026  0.00  0.00    -0.388 OA
ATOM      3  H   UNL     1      -4.086   7.501  24.773  0.00  0.00    +0.210 HD
ENDBRANCH   1   2
BRANCH   1   4
ATOM      4  C   UNL     1      -5.312   6.872  22.384  0.00  0.00    +0.141 C 
BRANCH   4   7
ATOM      5  C   UNL     1      -5.943   6.566  20.015  0.00  0.00    +0.401 C 
ATOM      6  O   UNL     1      -4.982   5.839  19.755  0.00  0.00    -0.226 OA
ATOM      7  N   UNL     1      -6.172   7.098  21.216  0.00  0.00    -0.279 N 
ATOM      8  H   UNL     1      -6.983   7.690  21.329  0.00  0.00    +0.152 HD
BRANCH   5   9
ATOM      9  O   UNL     1      -6.881   6.875  18.980  0.00  0.00    -0.444 OA
BRANCH   9  10
ATOM     10  C   UNL     1      -7.092   8.289  18.933  0.00  0.00    +0.292 C 
BRANCH  10  12
ATOM     11  N   UNL     1      -6.970   9.907  17.063  0.00  0.00    -0.131 NA
ATOM     12  C   UNL     1      -6.411   8.873  17.763  0.00  0.00    +0.121 A 
ATOM     13  C   UNL     1      -5.207   8.543  17.189  0.00  0.00    +0.149 A 
ATOM     14  N   UNL     1      -5.073   9.405  16.122  0.00  0.00    -0.155 N 
ATOM     15  C   UNL     1      -3.996   9.460  15.189  0.00  0.00    +0.416 C 
ATOM     16  N   UNL     1      -4.039  10.374  14.213  0.00  0.00    +0.041 NA
ATOM     17  C   UNL     1      -3.007  10.351  13.373  0.00  0.00    +0.339 C 
ATOM     18  C   UNL     1      -3.005  11.342  12.251  0.00  0.00    +0.149 C 
ATOM     19  N   UNL     1      -1.984   9.501  13.455  0.00  0.00    +0.007 NA
ATOM     20  C   UNL     1      -2.044   8.628  14.448  0.00  0.00    +0.386 C 
ATOM     21  N   UNL     1      -1.011   7.723  14.562  0.00  0.00    -0.296 N 
ATOM     22  H   UNL     1      -0.181   8.068  14.099  0.00  0.00    +0.148 HD
ATOM     23  H   UNL     1      -0.914   7.394  15.511  0.00  0.00    +0.148 HD
ATOM     24  N   UNL     1      -3.005   8.571  15.353  0.00  0.00    -0.290 NA
ATOM     25  N   UNL     1      -6.151  10.228  16.069  0.00  0.00    -0.055 NA
ENDBRANCH  10  12
ENDBRANCH   9  10
ENDBRANCH   5   9
ENDBRANCH   4   7
ENDBRANCH   1   4
BRANCH   1  26
ATOM     26  C   UNL     1      -5.378   9.373  22.436  0.00  0.00    +0.175 C 
BRANCH  26  27
ATOM     27  C   UNL     1      -4.631  10.563  23.056  0.00  0.00    +0.176 C 
ATOM     28  O   UNL     1      -5.034  10.666  24.450  0.00  0.00    -0.332 OA
ATOM     29  C   UNL     1      -4.339  11.690  25.236  0.00  0.00    +0.277 C 
ATOM     30  C   UNL     1      -4.461  13.073  24.552  0.00  0.00    +0.110 C 
ATOM     31  C   UNL     1      -4.073  13.007  23.060  0.00  0.00    +0.143 C 
ATOM     32  C   UNL     1      -4.853  11.907  22.339  0.00  0.00    +0.133 C 
BRANCH  32  33
ATOM     33  N   UNL     1      -4.412  11.796  20.939  0.00  0.00    -0.308 N 
ATOM     34  H   UNL     1      -3.462  11.500  20.766  0.00  0.00    +0.149 HD
ATOM     35  C   UNL     1      -5.186  12.060  19.883  0.00  0.00    +0.210 C 
ATOM     36  C   UNL     1      -6.622  12.533  20.181  0.00  0.00    +0.109 C 
ATOM     37  O   UNL     1      -4.795  11.944  18.721  0.00  0.00    -0.276 OA
ENDBRANCH  32  33
BRANCH  29  38
ATOM     38  C   UNL     1      -2.849  11.329  25.408  0.00  0.00    +0.414 C 
ATOM     39  O   UNL     1      -2.512  10.161  25.600  0.00  0.00    -0.240 OA
ATOM     40  O   UNL     1      -1.985  12.204  25.356  0.00  0.00    -0.240 OA
ENDBRANCH  29  38
BRANCH  29  41
ATOM     41  O   UNL     1      -4.977  11.765  26.537  0.00  0.00    -0.343 OA
ATOM     42  C   UNL     1      -6.098  10.865  26.723  0.00  0.00    +0.198 C 
ENDBRANCH  29  41
BRANCH  31  43
ATOM     43  O   UNL     1      -4.343  14.263  22.435  0.00  0.00    -0.390 OA
ATOM     44  H   UNL     1      -3.578  14.836  22.523  0.00  0.00    +0.210 HD
ENDBRANCH  31  43
ENDBRANCH  26  27
BRANCH  26  45
ATOM     45  O   UNL     1      -6.769   9.702  22.248  0.00  0.00    -0.387 OA
ATOM     46  H   UNL     1      -6.856  10.317  21.515  0.00  0.00    +0.210 HD
ENDBRANCH  26  45
ENDBRANCH   1  26
TORSDOF 13
