REMARK VINA RESULT:    -4.727      3.419      6.172
REMARK INTER + INTRA:         -11.670
REMARK INTER:                  -7.955
REMARK INTRA:                  -3.716
REMARK UNBOUND:                -3.213
REMARK  Name = lig_assembled_46.pdb
REMARK  17 active torsions:
REMARK  status: ('A' for Active; 'I' for Inactive)
REMARK    1  A    between atoms: _2  and  _9
REMARK    2  A    between atoms: _4  and  _19
REMARK    3  A    between atoms: _6  and  _7
REMARK    4  A    between atoms: _6  and  _19
REMARK    5  A    between atoms: _9  and  _10
REMARK    6  A    between atoms: _15  and  _35
REMARK    7  A    between atoms: _17  and  _23
REMARK    8  A    between atoms: _18  and  _22
REMARK    9  A    between atoms: _22  and  _23
REMARK   10  A    between atoms: _25  and  _26
REMARK   11  A    between atoms: _27  and  _28
REMARK   12  A    between atoms: _29  and  _31
REMARK   13  A    between atoms: _31  and  _32
REMARK   14  A    between atoms: _31  and  _33
REMARK   15  A    between atoms: _33  and  _34
REMARK   16  A    between atoms: _33  and  _35
REMARK   17  A    between atoms: _36  and  _38
REMARK                            x       y       z     vdW  Elec       q    Type
REMARK                         _______ _______ _______ _____ _____    ______ ____
ROOT
ATOM      1  C   UNL     1      -3.860   7.630  28.665  0.00  0.00    +0.163 C 
ENDROOT
BRANCH   1   2
ATOM      2  O   UNL     1      -4.798   7.292  29.699  0.00  0.00    -0.388 OA
ATOM      3  H   UNL     1      -4.322   7.039  30.494  0.00  0.00    +0.210 HD
ENDBRANCH   1   2
BRANCH   1   4
ATOM      4  C   UNL     1      -3.408   6.368  27.937  0.00  0.00    +0.141 C 
BRANCH   4   7
ATOM      5  C   UNL     1      -2.757   6.589  25.564  0.00  0.00    +0.401 C 
ATOM      6  O   UNL     1      -1.554   6.707  25.807  0.00  0.00    -0.226 OA
ATOM      7  N   UNL     1      -3.695   6.433  26.499  0.00  0.00    -0.279 N 
ATOM      8  H   UNL     1      -4.657   6.354  26.201  0.00  0.00    +0.152 HD
BRANCH   5   9
ATOM      9  O   UNL     1      -3.197   6.623  24.204  0.00  0.00    -0.444 OA
BRANCH   9  10
ATOM     10  C   UNL     1      -4.613   6.429  24.155  0.00  0.00    +0.292 C 
BRANCH  10  12
ATOM     11  N   UNL     1      -6.607   7.694  23.413  0.00  0.00    -0.131 NA
ATOM     12  C   UNL     1      -5.252   7.505  23.374  0.00  0.00    +0.120 A 
ATOM     13  C   UNL     1      -4.686   8.467  22.565  0.00  0.00    +0.137 A 
ATOM     14  N   UNL     1      -5.742   9.247  22.189  0.00  0.00    -0.247 N 
ATOM     15  N   UNL     1      -6.898   8.770  22.691  0.00  0.00    -0.065 NA
BRANCH  14  16
ATOM     16  C   UNL     1      -5.697  10.567  21.584  0.00  0.00    +0.180 C 
BRANCH  16  17
ATOM     17  C   UNL     1      -5.120  11.629  22.486  0.00  0.00    -0.026 A 
ATOM     18  C   UNL     1      -5.908  12.248  23.469  0.00  0.00    +0.005 A 
ATOM     19  C   UNL     1      -5.340  13.161  24.362  0.00  0.00    +0.000 A 
ATOM     20  C   UNL     1      -3.983  13.462  24.286  0.00  0.00    +0.000 A 
ATOM     21  C   UNL     1      -3.191  12.861  23.309  0.00  0.00    +0.000 A 
ATOM     22  C   UNL     1      -3.755  11.949  22.415  0.00  0.00    +0.005 A 
ENDBRANCH  16  17
ENDBRANCH  14  16
ENDBRANCH  10  12
ENDBRANCH   9  10
ENDBRANCH   5   9
ENDBRANCH   4   7
ENDBRANCH   1   4
BRANCH   1  23
ATOM     23  C   UNL     1      -2.635   8.354  29.248  0.00  0.00    +0.175 C 
BRANCH  23  24
ATOM     24  C   UNL     1      -2.932   9.826  29.570  0.00  0.00    +0.176 C 
ATOM     25  O   UNL     1      -3.778   9.864  30.752  0.00  0.00    -0.332 OA
ATOM     26  C   UNL     1      -4.081  11.200  31.273  0.00  0.00    +0.277 C 
ATOM     27  C   UNL     1      -4.694  12.088  30.162  0.00  0.00    +0.110 C 
ATOM     28  C   UNL     1      -3.846  12.055  28.874  0.00  0.00    +0.143 C 
ATOM     29  C   UNL     1      -3.589  10.616  28.422  0.00  0.00    +0.133 C 
BRANCH  29  30
ATOM     30  N   UNL     1      -2.708  10.595  27.244  0.00  0.00    -0.308 N 
ATOM     31  H   UNL     1      -1.739  10.852  27.375  0.00  0.00    +0.149 HD
ATOM     32  C   UNL     1      -3.105  10.260  26.014  0.00  0.00    +0.210 C 
ATOM     33  C   UNL     1      -4.593   9.900  25.843  0.00  0.00    +0.109 C 
ATOM     34  O   UNL     1      -2.341  10.237  25.048  0.00  0.00    -0.276 OA
ENDBRANCH  29  30
BRANCH  26  35
ATOM     35  C   UNL     1      -2.807  11.873  31.826  0.00  0.00    +0.414 C 
ATOM     36  O   UNL     1      -1.882  11.187  32.259  0.00  0.00    -0.240 OA
ATOM     37  O   UNL     1      -2.705  13.100  31.839  0.00  0.00    -0.240 OA
ENDBRANCH  26  35
BRANCH  26  38
ATOM     38  O   UNL     1      -5.058  11.057  32.336  0.00  0.00    -0.343 OA
ATOM     39  C   UNL     1      -6.283  11.810  32.147  0.00  0.00    +0.198 C 
ENDBRANCH  26  38
BRANCH  28  40
ATOM     40  O   UNL     1      -4.523  12.760  27.833  0.00  0.00    -0.390 OA
ATOM     41  H   UNL     1      -3.879  13.131  27.225  0.00  0.00    +0.210 HD
ENDBRANCH  28  40
ENDBRANCH  23  24
BRANCH  23  42
ATOM     42  O   UNL     1      -1.522   8.260  28.337  0.00  0.00    -0.387 OA
ATOM     43  H   UNL     1      -1.228   7.347  28.283  0.00  0.00    +0.210 HD
ENDBRANCH  23  42
ENDBRANCH   1  23
TORSDOF 15
