REMARK VINA RESULT:    -4.105      2.768      6.149
REMARK INTER + INTRA:         -11.474
REMARK INTER:                  -7.825
REMARK INTRA:                  -3.650
REMARK UNBOUND:                -3.890
REMARK  Name = lig_assembled_66.pdb
REMARK  18 active torsions:
REMARK  status: ('A' for Active; 'I' for Inactive)
REMARK    1  A    between atoms: _2  and  _10
REMARK    2  A    between atoms: _5  and  _21
REMARK    3  A    between atoms: _7  and  _8
REMARK    4  A    between atoms: _7  and  _21
REMARK    5  A    between atoms: _10  and  _11
REMARK    6  A    between atoms: _15  and  _16
REMARK    7  A    between atoms: _17  and  _37
REMARK    8  A    between atoms: _19  and  _25
REMARK    9  A    between atoms: _20  and  _24
REMARK   10  A    between atoms: _24  and  _25
REMARK   11  A    between atoms: _27  and  _28
REMARK   12  A    between atoms: _29  and  _30
REMARK   13  A    between atoms: _31  and  _33
REMARK   14  A    between atoms: _33  and  _34
REMARK   15  A    between atoms: _33  and  _35
REMARK   16  A    between atoms: _35  and  _36
REMARK   17  A    between atoms: _35  and  _37
REMARK   18  A    between atoms: _38  and  _40
REMARK                            x       y       z     vdW  Elec       q    Type
REMARK                         _______ _______ _______ _____ _____    ______ ____
ROOT
ATOM      1  C   UNL     1      -6.980   8.802  23.271  0.00  0.00    +0.163 C 
ENDROOT
BRANCH   1   2
ATOM      2  O   UNL     1      -7.089   8.881  24.702  0.00  0.00    -0.388 OA
ATOM      3  H   UNL     1      -6.746   8.075  25.095  0.00  0.00    +0.210 HD
ENDBRANCH   1   2
BRANCH   1   4
ATOM      4  C   UNL     1      -6.676  10.184  22.666  0.00  0.00    +0.175 C 
BRANCH   4   5
ATOM      5  C   UNL     1      -5.268  10.677  23.029  0.00  0.00    +0.176 C 
ATOM      6  O   UNL     1      -5.384  11.548  24.188  0.00  0.00    -0.332 OA
ATOM      7  C   UNL     1      -4.118  12.034  24.746  0.00  0.00    +0.277 C 
ATOM      8  C   UNL     1      -3.276  12.731  23.649  0.00  0.00    +0.110 C 
ATOM      9  C   UNL     1      -3.151  11.855  22.385  0.00  0.00    +0.143 C 
ATOM     10  C   UNL     1      -4.526  11.403  21.892  0.00  0.00    +0.133 C 
BRANCH  10  11
ATOM     11  N   UNL     1      -4.389  10.500  20.739  0.00  0.00    -0.308 N 
ATOM     12  H   UNL     1      -3.867   9.644  20.869  0.00  0.00    +0.149 HD
ATOM     13  C   UNL     1      -4.908  10.736  19.531  0.00  0.00    +0.210 C 
ATOM     14  C   UNL     1      -5.675  12.060  19.357  0.00  0.00    +0.109 C 
ATOM     15  O   UNL     1      -4.790   9.954  18.587  0.00  0.00    -0.276 OA
ENDBRANCH  10  11
BRANCH   7  16
ATOM     16  C   UNL     1      -3.309  10.871  25.357  0.00  0.00    +0.414 C 
ATOM     17  O   UNL     1      -3.806   9.750  25.448  0.00  0.00    -0.240 OA
ATOM     18  O   UNL     1      -2.159  11.055  25.759  0.00  0.00    -0.240 OA
ENDBRANCH   7  16
BRANCH   7  19
ATOM     19  O   UNL     1      -4.426  13.009  25.775  0.00  0.00    -0.343 OA
ATOM     20  C   UNL     1      -5.650  13.757  25.563  0.00  0.00    +0.198 C 
ENDBRANCH   7  19
BRANCH   9  21
ATOM     21  O   UNL     1      -2.499  12.594  21.350  0.00  0.00    -0.390 OA
ATOM     22  H   UNL     1      -2.104  11.985  20.722  0.00  0.00    +0.210 HD
ENDBRANCH   9  21
ENDBRANCH   4   5
BRANCH   4  23
ATOM     23  O   UNL     1      -7.664  11.142  23.094  0.00  0.00    -0.387 OA
ATOM     24  H   UNL     1      -7.533  11.969  22.624  0.00  0.00    +0.210 HD
ENDBRANCH   4  23
ENDBRANCH   1   4
BRANCH   1  25
ATOM     25  C   UNL     1      -5.876   7.823  22.885  0.00  0.00    +0.141 C 
BRANCH  25  28
ATOM     26  C   UNL     1      -4.384   6.230  24.044  0.00  0.00    +0.401 C 
ATOM     27  O   UNL     1      -3.538   6.224  23.146  0.00  0.00    -0.226 OA
ATOM     28  N   UNL     1      -5.510   6.943  24.002  0.00  0.00    -0.279 N 
ATOM     29  H   UNL     1      -6.148   6.874  24.783  0.00  0.00    +0.152 HD
BRANCH  26  30
ATOM     30  O   UNL     1      -4.168   5.426  25.207  0.00  0.00    -0.444 OA
BRANCH  30  31
ATOM     31  C   UNL     1      -2.773   5.408  25.523  0.00  0.00    +0.292 C 
BRANCH  31  33
ATOM     32  N   UNL     1      -1.712   7.419  26.509  0.00  0.00    -0.131 NA
ATOM     33  C   UNL     1      -2.493   6.304  26.662  0.00  0.00    +0.120 A 
ATOM     34  C   UNL     1      -2.940   6.243  27.963  0.00  0.00    +0.137 A 
ATOM     35  N   UNL     1      -2.445   7.380  28.535  0.00  0.00    -0.247 N 
ATOM     36  N   UNL     1      -1.691   8.074  27.662  0.00  0.00    -0.065 NA
BRANCH  35  37
ATOM     37  C   UNL     1      -2.851   7.982  29.792  0.00  0.00    +0.180 C 
BRANCH  37  38
ATOM     38  C   UNL     1      -3.557   9.303  29.621  0.00  0.00    -0.025 A 
ATOM     39  C   UNL     1      -3.079  10.452  30.268  0.00  0.00    +0.005 A 
ATOM     40  C   UNL     1      -3.677  11.695  30.049  0.00  0.00    +0.002 A 
ATOM     41  C   UNL     1      -4.775  11.802  29.195  0.00  0.00    +0.019 A 
ATOM     42  C   UNL     1      -5.286  10.661  28.570  0.00  0.00    +0.052 A 
ATOM     43  C   UNL     1      -4.678   9.416  28.781  0.00  0.00    +0.024 A 
BRANCH  42  44
ATOM     44  C   UNL     1      -6.424  10.765  27.704  0.00  0.00    +0.099 C 
ATOM     45  N   UNL     1      -7.343  10.858  27.000  0.00  0.00    -0.191 NA
ENDBRANCH  42  44
ENDBRANCH  37  38
ENDBRANCH  35  37
ENDBRANCH  31  33
ENDBRANCH  30  31
ENDBRANCH  26  30
ENDBRANCH  25  28
ENDBRANCH   1  25
TORSDOF 16
