REMARK VINA RESULT:    -4.422      2.908      7.535
REMARK INTER + INTRA:         -11.182
REMARK INTER:                  -7.274
REMARK INTRA:                  -3.909
REMARK UNBOUND:                -2.754
REMARK  Name = lig_assembled_19.pdb
REMARK  20 active torsions:
REMARK  status: ('A' for Active; 'I' for Inactive)
REMARK    1  A    between atoms: _2  and  _9
REMARK    2  A    between atoms: _4  and  _18
REMARK    3  A    between atoms: _5  and  _11
REMARK    4  A    between atoms: _6  and  _7
REMARK    5  A    between atoms: _6  and  _18
REMARK    6  A    between atoms: _9  and  _10
REMARK    7  A    between atoms: _10  and  _13
REMARK    8  A    between atoms: _11  and  _13
REMARK    9  A    between atoms: _14  and  _34
REMARK   10  A    between atoms: _16  and  _22
REMARK   11  A    between atoms: _17  and  _21
REMARK   12  A    between atoms: _21  and  _22
REMARK   13  A    between atoms: _24  and  _25
REMARK   14  A    between atoms: _26  and  _27
REMARK   15  A    between atoms: _28  and  _30
REMARK   16  A    between atoms: _30  and  _31
REMARK   17  A    between atoms: _30  and  _32
REMARK   18  A    between atoms: _32  and  _33
REMARK   19  A    between atoms: _32  and  _34
REMARK   20  A    between atoms: _35  and  _37
REMARK                            x       y       z     vdW  Elec       q    Type
REMARK                         _______ _______ _______ _____ _____    ______ ____
ROOT
ATOM      1  C   UNL     1      -3.125  12.390  23.761  0.00  0.00    +0.163 C 
ENDROOT
BRANCH   1   2
ATOM      2  O   UNL     1      -2.043  12.353  24.705  0.00  0.00    -0.388 OA
ATOM      3  H   UNL     1      -1.276  12.794  24.332  0.00  0.00    +0.210 HD
ENDBRANCH   1   2
BRANCH   1   4
ATOM      4  C   UNL     1      -4.427  11.873  24.395  0.00  0.00    +0.175 C 
BRANCH   4   5
ATOM      5  C   UNL     1      -4.159  10.943  25.588  0.00  0.00    +0.176 C 
ATOM      6  O   UNL     1      -3.730   9.656  25.065  0.00  0.00    -0.332 OA
ATOM      7  C   UNL     1      -3.326   8.666  26.068  0.00  0.00    +0.277 C 
ATOM      8  C   UNL     1      -4.454   8.459  27.108  0.00  0.00    +0.110 C 
ATOM      9  C   UNL     1      -4.964   9.802  27.670  0.00  0.00    +0.143 C 
ATOM     10  C   UNL     1      -5.354  10.757  26.541  0.00  0.00    +0.133 C 
BRANCH  10  11
ATOM     11  N   UNL     1      -5.757  12.063  27.086  0.00  0.00    -0.308 N 
ATOM     12  H   UNL     1      -5.049  12.622  27.540  0.00  0.00    +0.149 HD
ATOM     13  C   UNL     1      -6.996  12.557  27.020  0.00  0.00    +0.210 C 
ATOM     14  C   UNL     1      -8.057  11.668  26.344  0.00  0.00    +0.109 C 
ATOM     15  O   UNL     1      -7.301  13.661  27.472  0.00  0.00    -0.276 OA
ENDBRANCH  10  11
BRANCH   7  16
ATOM     16  C   UNL     1      -2.036   9.113  26.787  0.00  0.00    +0.414 C 
ATOM     17  O   UNL     1      -1.280   9.926  26.257  0.00  0.00    -0.240 OA
ATOM     18  O   UNL     1      -1.752   8.660  27.897  0.00  0.00    -0.240 OA
ENDBRANCH   7  16
BRANCH   9  19
ATOM     19  O   UNL     1      -6.099   9.574  28.507  0.00  0.00    -0.390 OA
ATOM     20  H   UNL     1      -6.505  10.414  28.732  0.00  0.00    +0.210 HD
ENDBRANCH   9  19
BRANCH   7  21
ATOM     21  O   UNL     1      -3.094   7.406  25.387  0.00  0.00    -0.343 OA
ATOM     22  C   UNL     1      -3.637   6.240  26.056  0.00  0.00    +0.198 C 
ENDBRANCH   7  21
ENDBRANCH   4   5
BRANCH   4  23
ATOM     23  O   UNL     1      -5.226  11.193  23.406  0.00  0.00    -0.387 OA
ATOM     24  H   UNL     1      -5.837  11.816  23.005  0.00  0.00    +0.210 HD
ENDBRANCH   4  23
ENDBRANCH   1   4
BRANCH   1  25
ATOM     25  C   UNL     1      -3.333  13.816  23.261  0.00  0.00    +0.141 C 
BRANCH  25  28
ATOM     26  C   UNL     1      -5.221  15.293  22.663  0.00  0.00    +0.401 C 
ATOM     27  O   UNL     1      -4.513  16.123  22.088  0.00  0.00    -0.226 OA
ATOM     28  N   UNL     1      -4.753  14.188  23.245  0.00  0.00    -0.279 N 
ATOM     29  H   UNL     1      -5.412  13.573  23.700  0.00  0.00    +0.152 HD
BRANCH  26  30
ATOM     30  O   UNL     1      -6.633  15.510  22.725  0.00  0.00    -0.444 OA
BRANCH  30  31
ATOM     31  C   UNL     1      -7.243  15.043  21.519  0.00  0.00    +0.292 C 
BRANCH  31  33
ATOM     32  N   UNL     1      -7.758  12.997  22.819  0.00  0.00    -0.131 NA
ATOM     33  C   UNL     1      -7.522  13.598  21.609  0.00  0.00    +0.120 A 
ATOM     34  C   UNL     1      -7.600  12.650  20.614  0.00  0.00    +0.137 A 
ATOM     35  N   UNL     1      -7.872  11.496  21.284  0.00  0.00    -0.248 N 
ATOM     36  N   UNL     1      -7.973  11.705  22.606  0.00  0.00    -0.065 NA
BRANCH  35  37
ATOM     37  C   UNL     1      -8.061  10.172  20.731  0.00  0.00    +0.186 C 
BRANCH  37  38
ATOM     38  C   UNL     1      -6.851   9.719  19.921  0.00  0.00    +0.255 C 
BRANCH  38  39
ATOM     39  O   UNL     1      -5.626   9.805  20.677  0.00  0.00    -0.463 OA
BRANCH  39  40
ATOM     40  C   UNL     1      -4.627  10.532  20.111  0.00  0.00    +0.304 C 
ATOM     41  O   UNL     1      -3.701  11.043  20.725  0.00  0.00    -0.251 OA
ATOM     42  C   UNL     1      -4.790  10.599  18.624  0.00  0.00    +0.136 C 
ENDBRANCH  39  40
ENDBRANCH  38  39
ENDBRANCH  37  38
ENDBRANCH  35  37
ENDBRANCH  31  33
ENDBRANCH  30  31
ENDBRANCH  26  30
ENDBRANCH  25  28
ENDBRANCH   1  25
TORSDOF 17
