REMARK VINA RESULT:    -4.118      2.784      5.228
REMARK INTER + INTRA:         -11.379
REMARK INTER:                  -8.258
REMARK INTRA:                  -3.121
REMARK UNBOUND:                -3.049
REMARK  Name = lig_assembled_45.pdb
REMARK  24 active torsions:
REMARK  status: ('A' for Active; 'I' for Inactive)
REMARK    1  A    between atoms: _2  and  _10
REMARK    2  A    between atoms: _3  and  _12
REMARK    3  A    between atoms: _3  and  _13
REMARK    4  A    between atoms: _3  and  _14
REMARK    5  A    between atoms: _3  and  _16
REMARK    6  A    between atoms: _5  and  _21
REMARK    7  A    between atoms: _6  and  _16
REMARK    8  A    between atoms: _7  and  _8
REMARK    9  A    between atoms: _7  and  _21
REMARK   10  A    between atoms: _10  and  _11
REMARK   11  A    between atoms: _11  and  _12
REMARK   12  A    between atoms: _14  and  _15
REMARK   13  A    between atoms: _17  and  _37
REMARK   14  A    between atoms: _19  and  _25
REMARK   15  A    between atoms: _20  and  _24
REMARK   16  A    between atoms: _24  and  _25
REMARK   17  A    between atoms: _27  and  _28
REMARK   18  A    between atoms: _29  and  _30
REMARK   19  A    between atoms: _31  and  _33
REMARK   20  A    between atoms: _33  and  _34
REMARK   21  A    between atoms: _33  and  _35
REMARK   22  A    between atoms: _35  and  _36
REMARK   23  A    between atoms: _35  and  _37
REMARK   24  A    between atoms: _38  and  _40
REMARK                            x       y       z     vdW  Elec       q    Type
REMARK                         _______ _______ _______ _____ _____    ______ ____
ROOT
ATOM      1  C   UNL     1      -6.505   9.321  23.432  0.00  0.00    +0.163 C 
ENDROOT
BRANCH   1   2
ATOM      2  O   UNL     1      -7.189   9.224  24.692  0.00  0.00    -0.388 OA
ATOM      3  H   UNL     1      -7.296  10.102  25.067  0.00  0.00    +0.210 HD
ENDBRANCH   1   2
BRANCH   1   4
ATOM      4  C   UNL     1      -5.158   8.579  23.479  0.00  0.00    +0.175 C 
BRANCH   4   5
ATOM      5  C   UNL     1      -4.062   9.412  24.160  0.00  0.00    +0.176 C 
ATOM      6  O   UNL     1      -4.372   9.483  25.579  0.00  0.00    -0.332 OA
ATOM      7  C   UNL     1      -3.372  10.156  26.413  0.00  0.00    +0.277 C 
ATOM      8  C   UNL     1      -3.080  11.576  25.869  0.00  0.00    +0.110 C 
ATOM      9  C   UNL     1      -2.776  11.555  24.356  0.00  0.00    +0.143 C 
ATOM     10  C   UNL     1      -3.879  10.828  23.585  0.00  0.00    +0.133 C 
BRANCH  10  11
ATOM     11  N   UNL     1      -3.536  10.739  22.157  0.00  0.00    -0.308 N 
ATOM     12  H   UNL     1      -2.792  10.109  21.889  0.00  0.00    +0.149 HD
ATOM     13  C   UNL     1      -4.143  11.434  21.192  0.00  0.00    +0.210 C 
ATOM     14  C   UNL     1      -5.254  12.404  21.635  0.00  0.00    +0.109 C 
ATOM     15  O   UNL     1      -3.844  11.328  20.002  0.00  0.00    -0.276 OA
ENDBRANCH  10  11
BRANCH   7  16
ATOM     16  C   UNL     1      -2.062   9.342  26.459  0.00  0.00    +0.414 C 
ATOM     17  O   UNL     1      -0.975   9.918  26.497  0.00  0.00    -0.240 OA
ATOM     18  O   UNL     1      -2.091   8.111  26.460  0.00  0.00    -0.240 OA
ENDBRANCH   7  16
BRANCH   9  19
ATOM     19  O   UNL     1      -2.663  12.892  23.868  0.00  0.00    -0.390 OA
ATOM     20  H   UNL     1      -3.354  13.434  24.256  0.00  0.00    +0.210 HD
ENDBRANCH   9  19
BRANCH   7  21
ATOM     21  O   UNL     1      -3.916  10.283  27.752  0.00  0.00    -0.343 OA
ATOM     22  C   UNL     1      -5.342  10.534  27.812  0.00  0.00    +0.198 C 
ENDBRANCH   7  21
ENDBRANCH   4   5
BRANCH   4  23
ATOM     23  O   UNL     1      -4.747   8.211  22.147  0.00  0.00    -0.387 OA
ATOM     24  H   UNL     1      -5.091   7.340  21.934  0.00  0.00    +0.210 HD
ENDBRANCH   4  23
ENDBRANCH   1   4
BRANCH   1  25
ATOM     25  C   UNL     1      -7.371   8.735  22.322  0.00  0.00    +0.141 C 
BRANCH  25  28
ATOM     26  C   UNL     1      -6.983   9.497  20.003  0.00  0.00    +0.401 C 
ATOM     27  O   UNL     1      -6.266   8.538  19.708  0.00  0.00    -0.226 OA
ATOM     28  N   UNL     1      -7.536   9.673  21.204  0.00  0.00    -0.279 N 
ATOM     29  H   UNL     1      -8.101  10.497  21.353  0.00  0.00    +0.152 HD
BRANCH  26  30
ATOM     30  O   UNL     1      -7.246  10.497  19.016  0.00  0.00    -0.444 OA
BRANCH  30  31
ATOM     31  C   UNL     1      -7.066   9.940  17.711  0.00  0.00    +0.292 C 
BRANCH  31  33
ATOM     32  N   UNL     1      -5.730  11.928  17.070  0.00  0.00    -0.131 NA
ATOM     33  C   UNL     1      -5.915  10.572  17.040  0.00  0.00    +0.120 A 
ATOM     34  C   UNL     1      -4.896   9.995  16.317  0.00  0.00    +0.137 A 
ATOM     35  N   UNL     1      -4.132  11.058  15.943  0.00  0.00    -0.251 N 
ATOM     36  N   UNL     1      -4.630  12.215  16.385  0.00  0.00    -0.065 NA
BRANCH  35  37
ATOM     37  C   UNL     1      -2.927  11.033  15.139  0.00  0.00    +0.150 C 
BRANCH  37  38
ATOM     38  C   UNL     1      -3.105  10.279  13.828  0.00  0.00    +0.074 C 
BRANCH  38  39
ATOM     39  C   UNL     1      -2.210   9.051  13.610  0.00  0.00    +0.134 C 
BRANCH  39  40
ATOM     40  N   UNL     1      -2.891   7.643  13.585  0.00  0.00    +0.241 N 
ATOM     41  C   UNL     1      -4.409   7.830  13.425  0.00  0.00    +0.192 C 
BRANCH  40  42
ATOM     42  C   UNL     1      -2.616   7.004  14.987  0.00  0.00    +0.129 C 
ATOM     43  C   UNL     1      -1.317   7.469  15.636  0.00  0.00    +0.060 C 
ENDBRANCH  40  42
BRANCH  40  44
ATOM     44  C   UNL     1      -2.385   6.700  12.477  0.00  0.00    +0.129 C 
ATOM     45  C   UNL     1      -3.385   5.635  12.060  0.00  0.00    +0.060 C 
ENDBRANCH  40  44
ENDBRANCH  39  40
ENDBRANCH  38  39
ENDBRANCH  37  38
ENDBRANCH  35  37
ENDBRANCH  31  33
ENDBRANCH  30  31
ENDBRANCH  26  30
ENDBRANCH  25  28
ENDBRANCH   1  25
TORSDOF 19
