REMARK VINA RESULT:    -4.355      2.534      7.617
REMARK INTER + INTRA:         -12.171
REMARK INTER:                  -8.898
REMARK INTRA:                  -3.272
REMARK UNBOUND:                -3.997
REMARK  Name = lig_assembled_68.pdb
REMARK  19 active torsions:
REMARK  status: ('A' for Active; 'I' for Inactive)
REMARK    1  A    between atoms: _2  and  _9
REMARK    2  A    between atoms: _4  and  _21
REMARK    3  A    between atoms: _6  and  _7
REMARK    4  A    between atoms: _6  and  _21
REMARK    5  A    between atoms: _9  and  _10
REMARK    6  A    between atoms: _10  and  _11
REMARK    7  A    between atoms: _10  and  _16
REMARK    8  A    between atoms: _17  and  _37
REMARK    9  A    between atoms: _19  and  _25
REMARK   10  A    between atoms: _20  and  _24
REMARK   11  A    between atoms: _24  and  _25
REMARK   12  A    between atoms: _27  and  _28
REMARK   13  A    between atoms: _29  and  _30
REMARK   14  A    between atoms: _31  and  _33
REMARK   15  A    between atoms: _33  and  _34
REMARK   16  A    between atoms: _33  and  _35
REMARK   17  A    between atoms: _35  and  _36
REMARK   18  A    between atoms: _35  and  _37
REMARK   19  A    between atoms: _38  and  _40
REMARK                            x       y       z     vdW  Elec       q    Type
REMARK                         _______ _______ _______ _____ _____    ______ ____
ROOT
ATOM      1  C   UNL     1      -3.845  11.523  29.753  0.00  0.00    +0.163 C 
ENDROOT
BRANCH   1   2
ATOM      2  O   UNL     1      -3.061  11.270  28.576  0.00  0.00    -0.388 OA
ATOM      3  H   UNL     1      -3.571  11.499  27.795  0.00  0.00    +0.210 HD
ENDBRANCH   1   2
BRANCH   1   4
ATOM      4  C   UNL     1      -4.824  12.687  29.522  0.00  0.00    +0.175 C 
BRANCH   4   5
ATOM      5  C   UNL     1      -4.658  13.799  30.569  0.00  0.00    +0.176 C 
ATOM      6  O   UNL     1      -4.503  13.168  31.870  0.00  0.00    -0.332 OA
ATOM      7  C   UNL     1      -4.226  14.076  32.986  0.00  0.00    +0.277 C 
ATOM      8  C   UNL     1      -5.308  15.181  33.066  0.00  0.00    +0.110 C 
ATOM      9  C   UNL     1      -5.531  15.860  31.698  0.00  0.00    +0.143 C 
ATOM     10  C   UNL     1      -5.808  14.822  30.610  0.00  0.00    +0.133 C 
BRANCH  10  11
ATOM     11  N   UNL     1      -5.933  15.474  29.296  0.00  0.00    -0.308 N 
ATOM     12  H   UNL     1      -5.105  15.895  28.899  0.00  0.00    +0.149 HD
ATOM     13  C   UNL     1      -7.068  15.545  28.596  0.00  0.00    +0.210 C 
ATOM     14  C   UNL     1      -8.317  14.916  29.241  0.00  0.00    +0.109 C 
ATOM     15  O   UNL     1      -7.139  16.085  27.491  0.00  0.00    -0.276 OA
ENDBRANCH  10  11
BRANCH   7  16
ATOM     16  C   UNL     1      -2.836  14.727  32.830  0.00  0.00    +0.414 C 
ATOM     17  O   UNL     1      -1.928  14.121  32.263  0.00  0.00    -0.240 OA
ATOM     18  O   UNL     1      -2.622  15.857  33.270  0.00  0.00    -0.240 OA
ENDBRANCH   7  16
BRANCH   7  19
ATOM     19  O   UNL     1      -4.269  13.305  34.214  0.00  0.00    -0.343 OA
ATOM     20  C   UNL     1      -4.205  11.867  34.037  0.00  0.00    +0.198 C 
ENDBRANCH   7  19
BRANCH   9  21
ATOM     21  O   UNL     1      -6.636  16.761  31.782  0.00  0.00    -0.390 OA
ATOM     22  H   UNL     1      -7.106  16.616  32.606  0.00  0.00    +0.210 HD
ENDBRANCH   9  21
ENDBRANCH   4   5
BRANCH   4  23
ATOM     23  O   UNL     1      -6.182  12.202  29.523  0.00  0.00    -0.387 OA
ATOM     24  H   UNL     1      -6.227  11.377  30.012  0.00  0.00    +0.210 HD
ENDBRANCH   4  23
ENDBRANCH   1   4
BRANCH   1  25
ATOM     25  C   UNL     1      -4.625  10.271  30.141  0.00  0.00    +0.141 C 
BRANCH  25  28
ATOM     26  C   UNL     1      -4.147   8.138  28.989  0.00  0.00    +0.401 C 
ATOM     27  O   UNL     1      -3.427   7.704  29.892  0.00  0.00    -0.226 OA
ATOM     28  N   UNL     1      -4.742   9.331  29.020  0.00  0.00    -0.279 N 
ATOM     29  H   UNL     1      -5.306   9.603  28.227  0.00  0.00    +0.152 HD
BRANCH  26  30
ATOM     30  O   UNL     1      -4.367   7.333  27.829  0.00  0.00    -0.444 OA
BRANCH  30  31
ATOM     31  C   UNL     1      -3.153   7.232  27.079  0.00  0.00    +0.292 C 
BRANCH  31  33
ATOM     32  N   UNL     1      -1.760   9.225  26.591  0.00  0.00    -0.131 NA
ATOM     33  C   UNL     1      -2.891   8.486  26.351  0.00  0.00    +0.120 A 
ATOM     34  C   UNL     1      -3.645   9.119  25.390  0.00  0.00    +0.137 A 
ATOM     35  N   UNL     1      -2.916  10.230  25.079  0.00  0.00    -0.249 N 
ATOM     36  N   UNL     1      -1.790  10.297  25.810  0.00  0.00    -0.065 NA
BRANCH  35  37
ATOM     37  C   UNL     1      -3.281  11.306  24.181  0.00  0.00    +0.181 C 
BRANCH  37  38
ATOM     38  C   UNL     1      -4.281  12.278  24.819  0.00  0.00    +0.166 C 
BRANCH  38  39
ATOM     39  C   UNL     1      -4.524  13.546  24.014  0.00  0.00    -0.017 A 
ATOM     40  C   UNL     1      -3.601  13.902  23.012  0.00  0.00    +0.006 A 
ATOM     41  C   UNL     1      -3.799  15.043  22.232  0.00  0.00    +0.000 A 
ATOM     42  C   UNL     1      -4.920  15.842  22.435  0.00  0.00    +0.000 A 
ATOM     43  C   UNL     1      -5.851  15.496  23.407  0.00  0.00    +0.000 A 
ATOM     44  C   UNL     1      -5.657  14.354  24.190  0.00  0.00    +0.006 A 
ENDBRANCH  38  39
BRANCH  38  45
ATOM     45  O   UNL     1      -3.799  12.662  26.112  0.00  0.00    -0.385 OA
ATOM     46  H   UNL     1      -2.829  12.622  26.099  0.00  0.00    +0.210 HD
ENDBRANCH  38  45
ENDBRANCH  37  38
ENDBRANCH  35  37
ENDBRANCH  31  33
ENDBRANCH  30  31
ENDBRANCH  26  30
ENDBRANCH  25  28
ENDBRANCH   1  25
TORSDOF 17
