REMARK VINA RESULT:    -4.706      6.619     13.338
REMARK INTER + INTRA:         -11.385
REMARK INTER:                  -8.728
REMARK INTRA:                  -2.657
REMARK UNBOUND:                -2.966
REMARK  Name = lig_assembled_89.pdb
REMARK  19 active torsions:
REMARK  status: ('A' for Active; 'I' for Inactive)
REMARK    1  A    between atoms: _2  and  _12
REMARK    2  A    between atoms: _5  and  _20
REMARK    3  A    between atoms: _7  and  _29
REMARK    4  A    between atoms: _9  and  _10
REMARK    5  A    between atoms: _9  and  _29
REMARK    6  A    between atoms: _20  and  _21
REMARK    7  A    between atoms: _20  and  _22
REMARK    8  A    between atoms: _25  and  _45
REMARK    9  A    between atoms: _27  and  _33
REMARK   10  A    between atoms: _28  and  _32
REMARK   11  A    between atoms: _32  and  _33
REMARK   12  A    between atoms: _35  and  _36
REMARK   13  A    between atoms: _37  and  _38
REMARK   14  A    between atoms: _39  and  _41
REMARK   15  A    between atoms: _41  and  _42
REMARK   16  A    between atoms: _41  and  _43
REMARK   17  A    between atoms: _43  and  _44
REMARK   18  A    between atoms: _43  and  _45
REMARK   19  A    between atoms: _46  and  _48
REMARK                            x       y       z     vdW  Elec       q    Type
REMARK                         _______ _______ _______ _____ _____    ______ ____
ROOT
ATOM      1  C   UNL     1      -1.897   9.499  27.426  0.00  0.00    +0.401 C 
ATOM      2  O   UNL     1      -1.241   9.985  26.502  0.00  0.00    -0.226 OA
ATOM      3  N   UNL     1      -2.674  10.211  28.243  0.00  0.00    -0.279 N 
ATOM      4  H   UNL     1      -3.181   9.720  28.967  0.00  0.00    +0.152 HD
ENDROOT
BRANCH   3   5
ATOM      5  C   UNL     1      -2.835  11.667  28.152  0.00  0.00    +0.141 C 
BRANCH   5   6
ATOM      6  C   UNL     1      -4.269  12.061  27.811  0.00  0.00    +0.163 C 
BRANCH   6   7
ATOM      7  O   UNL     1      -4.753  11.259  26.721  0.00  0.00    -0.388 OA
ATOM      8  H   UNL     1      -4.719  10.331  26.966  0.00  0.00    +0.210 HD
ENDBRANCH   6   7
BRANCH   6   9
ATOM      9  C   UNL     1      -5.157  11.891  29.056  0.00  0.00    +0.175 C 
BRANCH   9  10
ATOM     10  C   UNL     1      -4.692  12.775  30.223  0.00  0.00    +0.176 C 
ATOM     11  O   UNL     1      -4.611  11.941  31.411  0.00  0.00    -0.332 OA
ATOM     12  C   UNL     1      -4.078  12.595  32.610  0.00  0.00    +0.277 C 
ATOM     13  C   UNL     1      -4.882  13.880  32.927  0.00  0.00    +0.110 C 
ATOM     14  C   UNL     1      -5.022  14.785  31.684  0.00  0.00    +0.143 C 
ATOM     15  C   UNL     1      -5.582  14.002  30.496  0.00  0.00    +0.133 C 
BRANCH  15  16
ATOM     16  N   UNL     1      -5.629  14.852  29.296  0.00  0.00    -0.308 N 
ATOM     17  H   UNL     1      -4.761  15.247  28.963  0.00  0.00    +0.149 HD
ATOM     18  C   UNL     1      -6.745  15.135  28.617  0.00  0.00    +0.210 C 
ATOM     19  C   UNL     1      -8.055  14.539  29.165  0.00  0.00    +0.109 C 
ATOM     20  O   UNL     1      -6.752  15.838  27.606  0.00  0.00    -0.276 OA
ENDBRANCH  15  16
BRANCH  12  21
ATOM     21  C   UNL     1      -2.589  12.951  32.422  0.00  0.00    +0.414 C 
ATOM     22  O   UNL     1      -1.773  12.076  32.135  0.00  0.00    -0.240 OA
ATOM     23  O   UNL     1      -2.203  14.113  32.559  0.00  0.00    -0.240 OA
ENDBRANCH  12  21
BRANCH  14  24
ATOM     24  O   UNL     1      -5.893  15.878  31.980  0.00  0.00    -0.390 OA
ATOM     25  H   UNL     1      -6.067  15.903  32.924  0.00  0.00    +0.210 HD
ENDBRANCH  14  24
BRANCH  12  26
ATOM     26  O   UNL     1      -4.225  11.678  33.724  0.00  0.00    -0.343 OA
ATOM     27  C   UNL     1      -4.532  10.310  33.355  0.00  0.00    +0.198 C 
ENDBRANCH  12  26
ENDBRANCH   9  10
BRANCH   9  28
ATOM     28  O   UNL     1      -5.186  10.508  29.461  0.00  0.00    -0.387 OA
ATOM     29  H   UNL     1      -5.648  10.430  30.299  0.00  0.00    +0.210 HD
ENDBRANCH   9  28
ENDBRANCH   6   9
ENDBRANCH   5   6
ENDBRANCH   3   5
BRANCH   1  30
ATOM     30  O   UNL     1      -1.839   8.088  27.651  0.00  0.00    -0.444 OA
BRANCH  30  31
ATOM     31  C   UNL     1      -3.155   7.591  27.909  0.00  0.00    +0.292 C 
BRANCH  31  33
ATOM     32  N   UNL     1      -5.287   8.419  26.988  0.00  0.00    -0.131 NA
ATOM     33  C   UNL     1      -4.046   7.896  26.776  0.00  0.00    +0.121 A 
ATOM     34  C   UNL     1      -3.841   7.762  25.424  0.00  0.00    +0.145 A 
ATOM     35  N   UNL     1      -4.992   8.247  24.833  0.00  0.00    -0.199 N 
ATOM     36  N   UNL     1      -5.849   8.635  25.806  0.00  0.00    -0.059 NA
BRANCH  35  37
ATOM     37  C   UNL     1      -5.205   8.408  23.433  0.00  0.00    +0.186 A 
ATOM     38  C   UNL     1      -5.142   9.546  22.656  0.00  0.00    +0.158 A 
ATOM     39  C   UNL     1      -4.979  10.934  22.963  0.00  0.00    +0.280 A 
ATOM     40  O   UNL     1      -5.207  11.391  24.075  0.00  0.00    -0.265 OA
ATOM     41  N   UNL     1      -4.569  11.744  21.884  0.00  0.00    -0.302 N 
ATOM     42  C   UNL     1      -4.764  11.295  20.524  0.00  0.00    +0.069 A 
ATOM     43  C   UNL     1      -4.640  12.150  19.418  0.00  0.00    +0.028 A 
ATOM     44  C   UNL     1      -4.886  11.692  18.116  0.00  0.00    +0.002 A 
ATOM     45  C   UNL     1      -5.252  10.371  17.888  0.00  0.00    +0.002 A 
ATOM     46  C   UNL     1      -5.371   9.492  18.960  0.00  0.00    +0.028 A 
ATOM     47  C   UNL     1      -5.138   9.958  20.263  0.00  0.00    +0.072 A 
ATOM     48  N   UNL     1      -5.258   9.100  21.367  0.00  0.00    -0.291 N 
ATOM     49  C   UNL     1      -5.497   7.750  21.421  0.00  0.00    +0.207 A 
ATOM     50  N   UNL     1      -5.461   7.294  22.655  0.00  0.00    -0.216 NA
BRANCH  41  51
ATOM     51  C   UNL     1      -4.137  13.130  22.183  0.00  0.00    +0.085 C 
ATOM     52  C   UNL     1      -3.178  13.234  23.386  0.00  0.00    +0.030 C 
ATOM     53  C   UNL     1      -5.327  14.070  22.366  0.00  0.00    +0.030 C 
ENDBRANCH  41  51
ENDBRANCH  35  37
ENDBRANCH  31  33
ENDBRANCH  30  31
ENDBRANCH   1  30
TORSDOF 15
