REMARK VINA RESULT:    -4.909      2.786      5.218
REMARK INTER + INTRA:         -10.333
REMARK INTER:                  -7.670
REMARK INTRA:                  -2.664
REMARK UNBOUND:                -1.837
REMARK  Name = lig_assembled_2.pdb
REMARK  16 active torsions:
REMARK  status: ('A' for Active; 'I' for Inactive)
REMARK    1  A    between atoms: _2  and  _9
REMARK    2  A    between atoms: _4  and  _18
REMARK    3  A    between atoms: _6  and  _7
REMARK    4  A    between atoms: _6  and  _18
REMARK    5  A    between atoms: _14  and  _34
REMARK    6  A    between atoms: _16  and  _22
REMARK    7  A    between atoms: _17  and  _21
REMARK    8  A    between atoms: _21  and  _22
REMARK    9  A    between atoms: _24  and  _25
REMARK   10  A    between atoms: _26  and  _27
REMARK   11  A    between atoms: _28  and  _30
REMARK   12  A    between atoms: _30  and  _31
REMARK   13  A    between atoms: _30  and  _32
REMARK   14  A    between atoms: _32  and  _33
REMARK   15  A    between atoms: _32  and  _34
REMARK   16  A    between atoms: _35  and  _37
REMARK                            x       y       z     vdW  Elec       q    Type
REMARK                         _______ _______ _______ _____ _____    ______ ____
ROOT
ATOM      1  C   UNL     1      -5.671  10.919  13.861  0.00  0.00    +0.163 C 
ENDROOT
BRANCH   1   2
ATOM      2  O   UNL     1      -4.271  11.179  13.663  0.00  0.00    -0.388 OA
ATOM      3  H   UNL     1      -3.832  11.234  14.515  0.00  0.00    +0.210 HD
ENDBRANCH   1   2
BRANCH   1   4
ATOM      4  C   UNL     1      -6.295  12.030  14.699  0.00  0.00    +0.141 C 
BRANCH   4   7
ATOM      5  C   UNL     1      -5.177  11.978  16.902  0.00  0.00    +0.401 C 
ATOM      6  O   UNL     1      -4.128  12.475  16.487  0.00  0.00    -0.226 OA
ATOM      7  N   UNL     1      -6.239  11.730  16.135  0.00  0.00    -0.279 N 
ATOM      8  H   UNL     1      -7.052  11.311  16.566  0.00  0.00    +0.152 HD
BRANCH   5   9
ATOM      9  O   UNL     1      -5.283  11.636  18.287  0.00  0.00    -0.444 OA
BRANCH   9  10
ATOM     10  C   UNL     1      -4.168  12.178  19.000  0.00  0.00    +0.292 C 
BRANCH  10  12
ATOM     11  N   UNL     1      -3.996  10.271  20.567  0.00  0.00    -0.131 NA
ATOM     12  C   UNL     1      -4.110  11.615  20.363  0.00  0.00    +0.121 A 
ATOM     13  C   UNL     1      -4.142  12.255  21.581  0.00  0.00    +0.143 A 
ATOM     14  N   UNL     1      -4.016  11.250  22.512  0.00  0.00    -0.220 N 
ATOM     15  N   UNL     1      -3.947  10.057  21.875  0.00  0.00    -0.060 NA
BRANCH  14  16
ATOM     16  C   UNL     1      -3.930  11.356  23.926  0.00  0.00    +0.067 A 
ATOM     17  C   UNL     1      -5.003  10.976  24.743  0.00  0.00    +0.029 A 
ATOM     18  C   UNL     1      -4.912  11.123  26.132  0.00  0.00    +0.022 A 
ATOM     19  C   UNL     1      -3.753  11.645  26.704  0.00  0.00    +0.041 A 
ATOM     20 CL   UNL     1      -3.660  11.843  28.410  0.00  0.00    -0.084 Cl
ATOM     21  C   UNL     1      -2.676  12.012  25.902  0.00  0.00    +0.022 A 
ATOM     22  C   UNL     1      -2.760  11.867  24.514  0.00  0.00    +0.029 A 
ENDBRANCH  14  16
ENDBRANCH  10  12
ENDBRANCH   9  10
ENDBRANCH   5   9
ENDBRANCH   4   7
ENDBRANCH   1   4
BRANCH   1  23
ATOM     23  C   UNL     1      -5.885   9.566  14.560  0.00  0.00    +0.175 C 
BRANCH  23  24
ATOM     24  C   UNL     1      -4.557   8.866  14.885  0.00  0.00    +0.176 C 
ATOM     25  O   UNL     1      -4.082   8.223  13.671  0.00  0.00    -0.332 OA
ATOM     26  C   UNL     1      -2.764   7.588  13.764  0.00  0.00    +0.277 C 
ATOM     27  C   UNL     1      -2.730   6.580  14.938  0.00  0.00    +0.110 C 
ATOM     28  C   UNL     1      -3.257   7.209  16.245  0.00  0.00    +0.143 C 
ATOM     29  C   UNL     1      -4.632   7.843  16.033  0.00  0.00    +0.133 C 
BRANCH  29  30
ATOM     30  N   UNL     1      -5.084   8.514  17.262  0.00  0.00    -0.308 N 
ATOM     31  H   UNL     1      -4.530   9.284  17.610  0.00  0.00    +0.149 HD
ATOM     32  C   UNL     1      -6.180   8.174  17.946  0.00  0.00    +0.210 C 
ATOM     33  C   UNL     1      -6.989   6.981  17.404  0.00  0.00    +0.109 C 
ATOM     34  O   UNL     1      -6.542   8.764  18.965  0.00  0.00    -0.276 OA
ENDBRANCH  29  30
BRANCH  26  35
ATOM     35  C   UNL     1      -1.660   8.648  13.962  0.00  0.00    +0.414 C 
ATOM     36  O   UNL     1      -1.742   9.741  13.403  0.00  0.00    -0.240 OA
ATOM     37  O   UNL     1      -0.688   8.410  14.681  0.00  0.00    -0.240 OA
ENDBRANCH  26  35
BRANCH  28  38
ATOM     38  O   UNL     1      -3.350   6.208  17.258  0.00  0.00    -0.390 OA
ATOM     39  H   UNL     1      -3.524   5.355  16.852  0.00  0.00    +0.210 HD
ENDBRANCH  28  38
BRANCH  26  40
ATOM     40  O   UNL     1      -2.527   6.862  12.530  0.00  0.00    -0.343 OA
ATOM     41  C   UNL     1      -3.428   7.193  11.443  0.00  0.00    +0.198 C 
ENDBRANCH  26  40
ENDBRANCH  23  24
BRANCH  23  42
ATOM     42  O   UNL     1      -6.711   8.711  13.745  0.00  0.00    -0.387 OA
ATOM     43  H   UNL     1      -6.239   8.482  12.941  0.00  0.00    +0.210 HD
ENDBRANCH  23  42
ENDBRANCH   1  23
TORSDOF 14
