REMARK VINA RESULT:    -4.768      4.549      8.727
REMARK INTER + INTRA:         -11.379
REMARK INTER:                  -9.442
REMARK INTRA:                  -1.937
REMARK UNBOUND:                -2.848
REMARK  Name = lig_assembled_63.pdb
REMARK  17 active torsions:
REMARK  status: ('A' for Active; 'I' for Inactive)
REMARK    1  A    between atoms: _2  and  _11
REMARK    2  A    between atoms: _6  and  _20
REMARK    3  A    between atoms: _7  and  _15
REMARK    4  A    between atoms: _8  and  _9
REMARK    5  A    between atoms: _8  and  _20
REMARK    6  A    between atoms: _16  and  _36
REMARK    7  A    between atoms: _18  and  _24
REMARK    8  A    between atoms: _19  and  _23
REMARK    9  A    between atoms: _23  and  _24
REMARK   10  A    between atoms: _26  and  _27
REMARK   11  A    between atoms: _28  and  _29
REMARK   12  A    between atoms: _30  and  _32
REMARK   13  A    between atoms: _32  and  _33
REMARK   14  A    between atoms: _32  and  _34
REMARK   15  A    between atoms: _34  and  _35
REMARK   16  A    between atoms: _34  and  _36
REMARK   17  A    between atoms: _37  and  _39
REMARK                            x       y       z     vdW  Elec       q    Type
REMARK                         _______ _______ _______ _____ _____    ______ ____
ROOT
ATOM      1  C   UNL     1      -3.279  11.807  25.142  0.00  0.00    +0.163 C 
ENDROOT
BRANCH   1   2
ATOM      2  O   UNL     1      -2.125  10.956  25.048  0.00  0.00    -0.388 OA
ATOM      3  H   UNL     1      -1.331  11.494  25.013  0.00  0.00    +0.210 HD
ENDBRANCH   1   2
BRANCH   1   4
ATOM      4  C   UNL     1      -3.029  13.109  24.389  0.00  0.00    +0.141 C 
BRANCH   4   7
ATOM      5  C   UNL     1      -4.075  13.266  22.156  0.00  0.00    +0.401 C 
ATOM      6  O   UNL     1      -3.087  12.831  21.559  0.00  0.00    -0.226 OA
ATOM      7  N   UNL     1      -4.133  13.435  23.477  0.00  0.00    -0.279 N 
ATOM      8  H   UNL     1      -4.984  13.807  23.874  0.00  0.00    +0.152 HD
BRANCH   5   9
ATOM      9  O   UNL     1      -5.239  13.622  21.405  0.00  0.00    -0.444 OA
BRANCH   9  10
ATOM     10  C   UNL     1      -6.048  12.461  21.199  0.00  0.00    +0.292 C 
BRANCH  10  12
ATOM     11  N   UNL     1      -6.809  12.156  18.868  0.00  0.00    -0.131 NA
ATOM     12  C   UNL     1      -5.865  11.943  19.830  0.00  0.00    +0.121 A 
ATOM     13  C   UNL     1      -4.837  11.206  19.291  0.00  0.00    +0.145 A 
ATOM     14  N   UNL     1      -5.221  10.956  17.989  0.00  0.00    -0.200 N 
ATOM     15  N   UNL     1      -6.406  11.560  17.753  0.00  0.00    -0.059 NA
BRANCH  14  16
ATOM     16  C   UNL     1      -4.530  10.144  17.042  0.00  0.00    +0.173 A 
ATOM     17  C   UNL     1      -3.947  10.672  15.887  0.00  0.00    +0.096 A 
ATOM     18  C   UNL     1      -3.377   9.769  14.974  0.00  0.00    +0.024 A 
ATOM     19  C   UNL     1      -3.375   8.402  15.238  0.00  0.00    +0.021 A 
ATOM     20  C   UNL     1      -3.937   7.970  16.422  0.00  0.00    +0.113 A 
ATOM     21  N   UNL     1      -4.512   8.801  17.318  0.00  0.00    -0.235 NA
BRANCH  17  22
ATOM     22  C   UNL     1      -3.864  12.064  15.558  0.00  0.00    +0.103 C 
ATOM     23  N   UNL     1      -3.774  13.211  15.395  0.00  0.00    -0.191 NA
ENDBRANCH  17  22
ENDBRANCH  14  16
ENDBRANCH  10  12
ENDBRANCH   9  10
ENDBRANCH   5   9
ENDBRANCH   4   7
ENDBRANCH   1   4
BRANCH   1  24
ATOM     24  C   UNL     1      -3.614  12.119  26.611  0.00  0.00    +0.175 C 
BRANCH  24  25
ATOM     25  C   UNL     1      -3.368  10.912  27.528  0.00  0.00    +0.176 C 
ATOM     26  O   UNL     1      -4.001   9.752  26.921  0.00  0.00    -0.332 OA
ATOM     27  C   UNL     1      -3.780   8.476  27.609  0.00  0.00    +0.277 C 
ATOM     28  C   UNL     1      -4.199   8.583  29.096  0.00  0.00    +0.110 C 
ATOM     29  C   UNL     1      -3.576   9.820  29.776  0.00  0.00    +0.143 C 
ATOM     30  C   UNL     1      -3.864  11.091  28.975  0.00  0.00    +0.133 C 
BRANCH  30  31
ATOM     31  N   UNL     1      -3.192  12.248  29.586  0.00  0.00    -0.308 N 
ATOM     32  H   UNL     1      -2.182  12.261  29.586  0.00  0.00    +0.149 HD
ATOM     33  C   UNL     1      -3.830  13.283  30.140  0.00  0.00    +0.210 C 
ATOM     34  C   UNL     1      -5.369  13.220  30.148  0.00  0.00    +0.109 C 
ATOM     35  O   UNL     1      -3.241  14.246  30.632  0.00  0.00    -0.276 OA
ENDBRANCH  30  31
BRANCH  27  36
ATOM     36  C   UNL     1      -2.298   8.057  27.520  0.00  0.00    +0.414 C 
ATOM     37  O   UNL     1      -1.778   7.420  28.435  0.00  0.00    -0.240 OA
ATOM     38  O   UNL     1      -1.623   8.355  26.534  0.00  0.00    -0.240 OA
ENDBRANCH  27  36
BRANCH  27  39
ATOM     39  O   UNL     1      -4.611   7.473  26.970  0.00  0.00    -0.343 OA
ATOM     40  C   UNL     1      -4.910   7.723  25.574  0.00  0.00    +0.198 C 
ENDBRANCH  27  39
BRANCH  29  41
ATOM     41  O   UNL     1      -4.106   9.964  31.094  0.00  0.00    -0.390 OA
ATOM     42  H   UNL     1      -4.133  10.894  31.329  0.00  0.00    +0.210 HD
ENDBRANCH  29  41
ENDBRANCH  24  25
BRANCH  24  43
ATOM     43  O   UNL     1      -4.982  12.559  26.726  0.00  0.00    -0.387 OA
ATOM     44  H   UNL     1      -5.562  11.796  26.762  0.00  0.00    +0.210 HD
ENDBRANCH  24  43
ENDBRANCH   1  24
TORSDOF 15
