REMARK VINA RESULT:    -4.736      3.385      5.818
REMARK INTER + INTRA:         -10.690
REMARK INTER:                  -6.631
REMARK INTRA:                  -4.059
REMARK UNBOUND:                -2.494
REMARK  Name = lig_assembled_56.pdb
REMARK  16 active torsions:
REMARK  status: ('A' for Active; 'I' for Inactive)
REMARK    1  A    between atoms: _2  and  _10
REMARK    2  A    between atoms: _5  and  _18
REMARK    3  A    between atoms: _7  and  _8
REMARK    4  A    between atoms: _7  and  _18
REMARK    5  A    between atoms: _14  and  _34
REMARK    6  A    between atoms: _16  and  _22
REMARK    7  A    between atoms: _17  and  _21
REMARK    8  A    between atoms: _21  and  _22
REMARK    9  A    between atoms: _24  and  _25
REMARK   10  A    between atoms: _26  and  _27
REMARK   11  A    between atoms: _28  and  _30
REMARK   12  A    between atoms: _30  and  _31
REMARK   13  A    between atoms: _30  and  _32
REMARK   14  A    between atoms: _32  and  _33
REMARK   15  A    between atoms: _32  and  _34
REMARK   16  A    between atoms: _35  and  _37
REMARK                            x       y       z     vdW  Elec       q    Type
REMARK                         _______ _______ _______ _____ _____    ______ ____
ROOT
ATOM      1  C   UNL     1      -3.082  12.314  22.929  0.00  0.00    +0.163 C 
ENDROOT
BRANCH   1   2
ATOM      2  O   UNL     1      -2.764  12.975  24.165  0.00  0.00    -0.388 OA
ATOM      3  H   UNL     1      -3.283  13.779  24.242  0.00  0.00    +0.210 HD
ENDBRANCH   1   2
BRANCH   1   4
ATOM      4  C   UNL     1      -3.953  13.219  22.063  0.00  0.00    +0.141 C 
BRANCH   4   7
ATOM      5  C   UNL     1      -5.453  12.104  20.447  0.00  0.00    +0.401 C 
ATOM      6  O   UNL     1      -4.660  12.192  19.507  0.00  0.00    -0.226 OA
ATOM      7  N   UNL     1      -5.207  12.563  21.675  0.00  0.00    -0.279 N 
ATOM      8  H   UNL     1      -5.925  12.453  22.377  0.00  0.00    +0.152 HD
BRANCH   5   9
ATOM      9  O   UNL     1      -6.721  11.481  20.229  0.00  0.00    -0.444 OA
BRANCH   9  10
ATOM     10  C   UNL     1      -6.524  10.176  19.679  0.00  0.00    +0.292 C 
BRANCH  10  12
ATOM     11  N   UNL     1      -5.107   8.418  20.691  0.00  0.00    -0.131 NA
ATOM     12  C   UNL     1      -6.217   9.209  20.750  0.00  0.00    +0.121 A 
ATOM     13  C   UNL     1      -6.905   8.931  21.910  0.00  0.00    +0.143 A 
ATOM     14  N   UNL     1      -6.157   7.965  22.543  0.00  0.00    -0.220 N 
ATOM     15  N   UNL     1      -5.078   7.664  21.781  0.00  0.00    -0.060 NA
BRANCH  14  16
ATOM     16  C   UNL     1      -6.390   7.339  23.793  0.00  0.00    +0.070 A 
ATOM     17  C   UNL     1      -7.365   7.821  24.669  0.00  0.00    +0.047 A 
ATOM     18  C   UNL     1      -7.529   7.170  25.881  0.00  0.00    +0.113 A 
ATOM     19  N   UNL     1      -6.803   6.099  26.264  0.00  0.00    -0.263 NA
ATOM     20  C   UNL     1      -5.869   5.651  25.398  0.00  0.00    +0.113 A 
ATOM     21  C   UNL     1      -5.626   6.228  24.163  0.00  0.00    +0.047 A 
ENDBRANCH  14  16
ENDBRANCH  10  12
ENDBRANCH   9  10
ENDBRANCH   5   9
ENDBRANCH   4   7
ENDBRANCH   1   4
BRANCH   1  22
ATOM     22  C   UNL     1      -3.818  10.988  23.188  0.00  0.00    +0.175 C 
BRANCH  22  23
ATOM     23  C   UNL     1      -3.813  10.605  24.675  0.00  0.00    +0.176 C 
ATOM     24  O   UNL     1      -3.329   9.238  24.783  0.00  0.00    -0.332 OA
ATOM     25  C   UNL     1      -3.156   8.733  26.148  0.00  0.00    +0.277 C 
ATOM     26  C   UNL     1      -4.468   8.889  26.954  0.00  0.00    +0.110 C 
ATOM     27  C   UNL     1      -5.038  10.319  26.844  0.00  0.00    +0.143 C 
ATOM     28  C   UNL     1      -5.174  10.743  25.381  0.00  0.00    +0.133 C 
BRANCH  28  29
ATOM     29  N   UNL     1      -5.636  12.138  25.290  0.00  0.00    -0.308 N 
ATOM     30  H   UNL     1      -5.004  12.864  25.598  0.00  0.00    +0.149 HD
ATOM     31  C   UNL     1      -6.833  12.506  24.828  0.00  0.00    +0.210 C 
ATOM     32  C   UNL     1      -7.782  11.374  24.391  0.00  0.00    +0.109 C 
ATOM     33  O   UNL     1      -7.187  13.683  24.750  0.00  0.00    -0.276 OA
ENDBRANCH  28  29
BRANCH  25  34
ATOM     34  C   UNL     1      -2.016   9.483  26.868  0.00  0.00    +0.414 C 
ATOM     35  O   UNL     1      -0.980   9.761  26.267  0.00  0.00    -0.240 OA
ATOM     36  O   UNL     1      -2.134   9.811  28.050  0.00  0.00    -0.240 OA
ENDBRANCH  25  34
BRANCH  27  37
ATOM     37  O   UNL     1      -6.319  10.377  27.472  0.00  0.00    -0.390 OA
ATOM     38  H   UNL     1      -6.789   9.554  27.318  0.00  0.00    +0.210 HD
ENDBRANCH  27  37
BRANCH  25  39
ATOM     39  O   UNL     1      -2.834   7.320  26.067  0.00  0.00    -0.343 OA
ATOM     40  C   UNL     1      -2.902   6.603  27.325  0.00  0.00    +0.198 C 
ENDBRANCH  25  39
ENDBRANCH  22  23
BRANCH  22  41
ATOM     41  O   UNL     1      -3.231   9.933  22.401  0.00  0.00    -0.387 OA
ATOM     42  H   UNL     1      -3.125  10.230  21.494  0.00  0.00    +0.210 HD
ENDBRANCH  22  41
ENDBRANCH   1  22
TORSDOF 14
