REMARK VINA RESULT:    -4.690      4.412      7.582
REMARK INTER + INTRA:         -10.981
REMARK INTER:                  -7.617
REMARK INTRA:                  -3.364
REMARK UNBOUND:                -2.589
REMARK  Name = lig_assembled_82.pdb
REMARK  19 active torsions:
REMARK  status: ('A' for Active; 'I' for Inactive)
REMARK    1  A    between atoms: _2  and  _9
REMARK    2  A    between atoms: _4  and  _22
REMARK    3  A    between atoms: _5  and  _16
REMARK    4  A    between atoms: _6  and  _7
REMARK    5  A    between atoms: _6  and  _22
REMARK    6  A    between atoms: _9  and  _10
REMARK    7  A    between atoms: _16  and  _17
REMARK    8  A    between atoms: _18  and  _38
REMARK    9  A    between atoms: _20  and  _26
REMARK   10  A    between atoms: _21  and  _25
REMARK   11  A    between atoms: _25  and  _26
REMARK   12  A    between atoms: _28  and  _29
REMARK   13  A    between atoms: _30  and  _31
REMARK   14  A    between atoms: _32  and  _34
REMARK   15  A    between atoms: _34  and  _35
REMARK   16  A    between atoms: _34  and  _36
REMARK   17  A    between atoms: _36  and  _37
REMARK   18  A    between atoms: _36  and  _38
REMARK   19  A    between atoms: _39  and  _41
REMARK                            x       y       z     vdW  Elec       q    Type
REMARK                         _______ _______ _______ _____ _____    ______ ____
ROOT
ATOM      1  C   UNL     1      -2.972  11.635  22.888  0.00  0.00    +0.163 C 
ENDROOT
BRANCH   1   2
ATOM      2  O   UNL     1      -3.337  12.582  23.906  0.00  0.00    -0.388 OA
ATOM      3  H   UNL     1      -4.269  12.483  24.116  0.00  0.00    +0.210 HD
ENDBRANCH   1   2
BRANCH   1   4
ATOM      4  C   UNL     1      -3.070  12.286  21.512  0.00  0.00    +0.141 C 
BRANCH   4   7
ATOM      5  C   UNL     1      -5.468  12.681  21.067  0.00  0.00    +0.401 C 
ATOM      6  O   UNL     1      -5.551  13.636  21.842  0.00  0.00    -0.226 OA
ATOM      7  N   UNL     1      -4.349  11.987  20.855  0.00  0.00    -0.279 N 
ATOM      8  H   UNL     1      -4.382  11.213  20.207  0.00  0.00    +0.152 HD
BRANCH   5   9
ATOM      9  O   UNL     1      -6.631  12.271  20.343  0.00  0.00    -0.444 OA
BRANCH   9  10
ATOM     10  C   UNL     1      -6.922  10.903  20.641  0.00  0.00    +0.292 C 
BRANCH  10  12
ATOM     11  N   UNL     1      -5.287   9.243  19.807  0.00  0.00    -0.131 NA
ATOM     12  C   UNL     1      -6.404  10.017  19.594  0.00  0.00    +0.120 A 
ATOM     13  C   UNL     1      -6.854   9.790  18.306  0.00  0.00    +0.137 A 
ATOM     14  N   UNL     1      -5.901   8.979  17.757  0.00  0.00    -0.247 N 
ATOM     15  N   UNL     1      -5.014   8.584  18.690  0.00  0.00    -0.065 NA
BRANCH  14  16
ATOM     16  C   UNL     1      -5.715   8.613  16.350  0.00  0.00    +0.176 C 
BRANCH  16  17
ATOM     17  C   UNL     1      -4.894   9.627  15.591  0.00  0.00    -0.049 C 
ATOM     18  C   UNL     1      -5.615  10.778  14.966  0.00  0.00    +0.023 C 
ATOM     19  C   UNL     1      -4.896  12.202  14.942  0.00  0.00    -0.025 C 
ATOM     20  C   UNL     1      -3.935  12.863  15.938  0.00  0.00    +0.012 C 
ATOM     21  C   UNL     1      -4.052  11.510  13.772  0.00  0.00    -0.000 C 
ATOM     22  C   UNL     1      -2.977  10.488  14.260  0.00  0.00    +0.031 C 
ATOM     23  C   UNL     1      -6.061  13.204  14.746  0.00  0.00    +0.012 C 
ATOM     24  C   UNL     1      -5.362  10.764  13.404  0.00  0.00    +0.012 C 
ATOM     25  C   UNL     1      -3.593   9.521  15.258  0.00  0.00    -0.025 C 
ENDBRANCH  16  17
ENDBRANCH  14  16
ENDBRANCH  10  12
ENDBRANCH   9  10
ENDBRANCH   5   9
ENDBRANCH   4   7
ENDBRANCH   1   4
BRANCH   1  26
ATOM     26  C   UNL     1      -3.882  10.396  22.937  0.00  0.00    +0.175 C 
BRANCH  26  27
ATOM     27  C   UNL     1      -4.242  10.000  24.376  0.00  0.00    +0.176 C 
ATOM     28  O   UNL     1      -3.024  10.039  25.169  0.00  0.00    -0.332 OA
ATOM     29  C   UNL     1      -3.194   9.790  26.604  0.00  0.00    +0.277 C 
ATOM     30  C   UNL     1      -3.927   8.447  26.837  0.00  0.00    +0.110 C 
ATOM     31  C   UNL     1      -5.213   8.346  25.990  0.00  0.00    +0.143 C 
ATOM     32  C   UNL     1      -4.922   8.625  24.515  0.00  0.00    +0.133 C 
BRANCH  32  33
ATOM     33  N   UNL     1      -6.168   8.612  23.732  0.00  0.00    -0.308 N 
ATOM     34  H   UNL     1      -6.841   9.346  23.904  0.00  0.00    +0.149 HD
ATOM     35  C   UNL     1      -6.468   7.694  22.810  0.00  0.00    +0.210 C 
ATOM     36  C   UNL     1      -5.433   6.574  22.590  0.00  0.00    +0.109 C 
ATOM     37  O   UNL     1      -7.513   7.716  22.159  0.00  0.00    -0.276 OA
ENDBRANCH  32  33
BRANCH  29  38
ATOM     38  C   UNL     1      -3.989  10.934  27.267  0.00  0.00    +0.414 C 
ATOM     39  O   UNL     1      -3.935  12.074  26.808  0.00  0.00    -0.240 OA
ATOM     40  O   UNL     1      -4.684  10.716  28.260  0.00  0.00    -0.240 OA
ENDBRANCH  29  38
BRANCH  29  41
ATOM     41  O   UNL     1      -1.875   9.701  27.203  0.00  0.00    -0.343 OA
ATOM     42  C   UNL     1      -1.732   8.675  28.218  0.00  0.00    +0.198 C 
ENDBRANCH  29  41
BRANCH  31  43
ATOM     43  O   UNL     1      -5.774   7.038  26.119  0.00  0.00    -0.390 OA
ATOM     44  H   UNL     1      -6.715   7.073  25.932  0.00  0.00    +0.210 HD
ENDBRANCH  31  43
ENDBRANCH  26  27
BRANCH  26  45
ATOM     45  O   UNL     1      -3.251   9.290  22.261  0.00  0.00    -0.387 OA
ATOM     46  H   UNL     1      -3.525   9.278  21.341  0.00  0.00    +0.210 HD
ENDBRANCH  26  45
ENDBRANCH   1  26
TORSDOF 15
