REMARK VINA RESULT:    -3.876      2.752      7.911
REMARK INTER + INTRA:         -10.436
REMARK INTER:                  -7.388
REMARK INTRA:                  -3.048
REMARK UNBOUND:                -3.048
REMARK  Name = lig_assembled_50.pdb
REMARK  20 active torsions:
REMARK  status: ('A' for Active; 'I' for Inactive)
REMARK    1  A    between atoms: _2  and  _9
REMARK    2  A    between atoms: _4  and  _17
REMARK    3  A    between atoms: _5  and  _10
REMARK    4  A    between atoms: _5  and  _11
REMARK    5  A    between atoms: _6  and  _7
REMARK    6  A    between atoms: _6  and  _17
REMARK    7  A    between atoms: _9  and  _10
REMARK    8  A    between atoms: _10  and  _12
REMARK    9  A    between atoms: _13  and  _33
REMARK   10  A    between atoms: _15  and  _21
REMARK   11  A    between atoms: _16  and  _20
REMARK   12  A    between atoms: _20  and  _21
REMARK   13  A    between atoms: _23  and  _24
REMARK   14  A    between atoms: _25  and  _26
REMARK   15  A    between atoms: _27  and  _29
REMARK   16  A    between atoms: _29  and  _30
REMARK   17  A    between atoms: _29  and  _31
REMARK   18  A    between atoms: _31  and  _32
REMARK   19  A    between atoms: _31  and  _33
REMARK   20  A    between atoms: _34  and  _36
REMARK                            x       y       z     vdW  Elec       q    Type
REMARK                         _______ _______ _______ _____ _____    ______ ____
ROOT
ATOM      1  C   UNL     1      -4.626   9.790  24.681  0.00  0.00    +0.163 C 
ENDROOT
BRANCH   1   2
ATOM      2  O   UNL     1      -5.245   9.317  23.474  0.00  0.00    -0.388 OA
ATOM      3  H   UNL     1      -4.577   8.932  22.901  0.00  0.00    +0.210 HD
ENDBRANCH   1   2
BRANCH   1   4
ATOM      4  C   UNL     1      -5.435  10.945  25.297  0.00  0.00    +0.175 C 
BRANCH   4   5
ATOM      5  C   UNL     1      -5.853  11.983  24.246  0.00  0.00    +0.176 C 
ATOM      6  O   UNL     1      -4.728  12.186  23.346  0.00  0.00    -0.332 OA
ATOM      7  C   UNL     1      -4.980  13.074  22.207  0.00  0.00    +0.277 C 
ATOM      8  C   UNL     1      -5.514  14.443  22.695  0.00  0.00    +0.110 C 
ATOM      9  C   UNL     1      -6.691  14.277  23.679  0.00  0.00    +0.143 C 
ATOM     10  C   UNL     1      -6.321  13.332  24.823  0.00  0.00    +0.133 C 
BRANCH  10  11
ATOM     11  N   UNL     1      -7.478  13.114  25.706  0.00  0.00    -0.308 N 
ATOM     12  H   UNL     1      -8.271  12.616  25.329  0.00  0.00    +0.149 HD
ATOM     13  C   UNL     1      -7.547  13.533  26.972  0.00  0.00    +0.210 C 
ATOM     14  C   UNL     1      -6.332  14.313  27.509  0.00  0.00    +0.109 C 
ATOM     15  O   UNL     1      -8.523  13.323  27.693  0.00  0.00    -0.276 OA
ENDBRANCH  10  11
BRANCH   7  16
ATOM     16  C   UNL     1      -5.997  12.440  21.235  0.00  0.00    +0.414 C 
ATOM     17  O   UNL     1      -6.564  13.134  20.391  0.00  0.00    -0.240 OA
ATOM     18  O   UNL     1      -6.251  11.236  21.294  0.00  0.00    -0.240 OA
ENDBRANCH   7  16
BRANCH   9  19
ATOM     19  O   UNL     1      -7.051  15.550  24.218  0.00  0.00    -0.390 OA
ATOM     20  H   UNL     1      -7.499  15.427  25.058  0.00  0.00    +0.210 HD
ENDBRANCH   9  19
BRANCH   7  21
ATOM     21  O   UNL     1      -3.720  13.292  21.521  0.00  0.00    -0.343 OA
ATOM     22  C   UNL     1      -2.854  12.131  21.447  0.00  0.00    +0.198 C 
ENDBRANCH   7  21
ENDBRANCH   4   5
BRANCH   4  23
ATOM     23  O   UNL     1      -4.676  11.578  26.347  0.00  0.00    -0.387 OA
ATOM     24  H   UNL     1      -4.476  10.935  27.031  0.00  0.00    +0.210 HD
ENDBRANCH   4  23
ENDBRANCH   1   4
BRANCH   1  25
ATOM     25  C   UNL     1      -4.513   8.652  25.690  0.00  0.00    +0.141 C 
BRANCH  25  28
ATOM     26  C   UNL     1      -2.430   8.716  27.017  0.00  0.00    +0.401 C 
ATOM     27  O   UNL     1      -1.780   8.055  26.203  0.00  0.00    -0.226 OA
ATOM     28  N   UNL     1      -3.715   9.036  26.861  0.00  0.00    -0.279 N 
ATOM     29  H   UNL     1      -4.165   9.573  27.589  0.00  0.00    +0.152 HD
BRANCH  26  30
ATOM     30  O   UNL     1      -1.788   9.173  28.211  0.00  0.00    -0.444 OA
BRANCH  30  31
ATOM     31  C   UNL     1      -2.616   8.882  29.340  0.00  0.00    +0.292 C 
BRANCH  31  33
ATOM     32  N   UNL     1      -3.749  11.086  29.365  0.00  0.00    -0.131 NA
ATOM     33  C   UNL     1      -3.016  10.129  30.021  0.00  0.00    +0.120 A 
ATOM     34  C   UNL     1      -2.781  10.550  31.314  0.00  0.00    +0.137 A 
ATOM     35  N   UNL     1      -3.385  11.765  31.376  0.00  0.00    -0.249 N 
ATOM     36  N   UNL     1      -3.981  12.079  30.210  0.00  0.00    -0.065 NA
BRANCH  35  37
ATOM     37  C   UNL     1      -3.437  12.686  32.488  0.00  0.00    +0.178 C 
BRANCH  37  38
ATOM     38  C   UNL     1      -2.801  14.051  32.200  0.00  0.00    +0.161 C 
BRANCH  38  39
ATOM     39  O   UNL     1      -1.982  14.040  31.027  0.00  0.00    -0.388 OA
ATOM     40  H   UNL     1      -1.042  14.069  31.303  0.00  0.00    +0.210 HD
ENDBRANCH  38  39
BRANCH  38  41
ATOM     41  C   UNL     1      -3.818  15.196  32.110  0.00  0.00    +0.189 C 
BRANCH  41  42
ATOM     42  O   UNL     1      -3.174  16.469  32.165  0.00  0.00    -0.392 OA
ATOM     43  H   UNL     1      -3.530  16.957  32.931  0.00  0.00    +0.210 HD
ENDBRANCH  41  42
ENDBRANCH  38  41
ENDBRANCH  37  38
ENDBRANCH  35  37
ENDBRANCH  31  33
ENDBRANCH  30  31
ENDBRANCH  26  30
ENDBRANCH  25  28
ENDBRANCH   1  25
TORSDOF 18
