REMARK VINA RESULT:    -4.503      3.127      6.345
REMARK INTER + INTRA:         -11.708
REMARK INTER:                  -9.105
REMARK INTRA:                  -2.602
REMARK UNBOUND:                -3.914
REMARK  Name = lig_assembled_20.pdb
REMARK  16 active torsions:
REMARK  status: ('A' for Active; 'I' for Inactive)
REMARK    1  A    between atoms: _2  and  _11
REMARK    2  A    between atoms: _6  and  _21
REMARK    3  A    between atoms: _8  and  _9
REMARK    4  A    between atoms: _8  and  _21
REMARK    5  A    between atoms: _17  and  _37
REMARK    6  A    between atoms: _19  and  _25
REMARK    7  A    between atoms: _20  and  _24
REMARK    8  A    between atoms: _24  and  _25
REMARK    9  A    between atoms: _27  and  _28
REMARK   10  A    between atoms: _29  and  _30
REMARK   11  A    between atoms: _31  and  _33
REMARK   12  A    between atoms: _33  and  _34
REMARK   13  A    between atoms: _33  and  _35
REMARK   14  A    between atoms: _35  and  _36
REMARK   15  A    between atoms: _35  and  _37
REMARK   16  A    between atoms: _38  and  _40
REMARK                            x       y       z     vdW  Elec       q    Type
REMARK                         _______ _______ _______ _____ _____    ______ ____
ROOT
ATOM      1  C   UNL     1      -2.390   9.704  27.091  0.00  0.00    +0.163 C 
ENDROOT
BRANCH   1   2
ATOM      2  O   UNL     1      -1.168   9.843  26.348  0.00  0.00    -0.388 OA
ATOM      3  H   UNL     1      -0.501   9.258  26.716  0.00  0.00    +0.210 HD
ENDBRANCH   1   2
BRANCH   1   4
ATOM      4  C   UNL     1      -2.095   9.148  28.480  0.00  0.00    +0.141 C 
BRANCH   4   7
ATOM      5  C   UNL     1      -3.403   9.228  30.576  0.00  0.00    +0.401 C 
ATOM      6  O   UNL     1      -3.325   8.015  30.781  0.00  0.00    -0.226 OA
ATOM      7  N   UNL     1      -2.863   9.842  29.522  0.00  0.00    -0.279 N 
ATOM      8  H   UNL     1      -2.989  10.841  29.435  0.00  0.00    +0.152 HD
BRANCH   5   9
ATOM      9  O   UNL     1      -4.114  10.047  31.508  0.00  0.00    -0.444 OA
BRANCH   9  10
ATOM     10  C   UNL     1      -3.198  10.589  32.463  0.00  0.00    +0.292 C 
BRANCH  10  12
ATOM     11  N   UNL     1      -1.797  12.629  32.311  0.00  0.00    -0.131 NA
ATOM     12  C   UNL     1      -3.025  12.038  32.250  0.00  0.00    +0.121 A 
ATOM     13  C   UNL     1      -3.971  12.997  31.975  0.00  0.00    +0.143 A 
ATOM     14  N   UNL     1      -3.269  14.176  31.872  0.00  0.00    -0.220 N 
ATOM     15  N   UNL     1      -1.952  13.928  32.080  0.00  0.00    -0.060 NA
BRANCH  14  16
ATOM     16  C   UNL     1      -3.764  15.476  31.596  0.00  0.00    +0.068 A 
ATOM     17  C   UNL     1      -3.540  16.518  32.510  0.00  0.00    +0.030 A 
ATOM     18  C   UNL     1      -4.011  17.816  32.266  0.00  0.00    +0.030 A 
ATOM     19  C   UNL     1      -4.712  18.027  31.075  0.00  0.00    +0.066 A 
ATOM     20  C   UNL     1      -4.953  17.018  30.152  0.00  0.00    +0.021 A 
ATOM     21  C   UNL     1      -5.679  17.646  29.117  0.00  0.00    +0.142 A 
ATOM     22  N   UNL     1      -5.888  18.944  29.349  0.00  0.00    -0.181 NA
ATOM     23  N   UNL     1      -5.292  19.148  30.538  0.00  0.00    -0.277 N 
ATOM     24  H   UNL     1      -5.317  20.079  30.935  0.00  0.00    +0.189 HD
ATOM     25  C   UNL     1      -4.476  15.719  30.406  0.00  0.00    +0.039 A 
ENDBRANCH  14  16
ENDBRANCH  10  12
ENDBRANCH   9  10
ENDBRANCH   5   9
ENDBRANCH   4   7
ENDBRANCH   1   4
BRANCH   1  26
ATOM     26  C   UNL     1      -3.374   8.773  26.363  0.00  0.00    +0.175 C 
BRANCH  26  27
ATOM     27  C   UNL     1      -4.187   9.516  25.292  0.00  0.00    +0.176 C 
ATOM     28  O   UNL     1      -3.314   9.757  24.155  0.00  0.00    -0.332 OA
ATOM     29  C   UNL     1      -3.951  10.368  22.984  0.00  0.00    +0.277 C 
ATOM     30  C   UNL     1      -4.667  11.682  23.382  0.00  0.00    +0.110 C 
ATOM     31  C   UNL     1      -5.584  11.482  24.607  0.00  0.00    +0.143 C 
ATOM     32  C   UNL     1      -4.820  10.838  25.765  0.00  0.00    +0.133 C 
BRANCH  32  33
ATOM     33  N   UNL     1      -5.724  10.574  26.895  0.00  0.00    -0.308 N 
ATOM     34  H   UNL     1      -6.387   9.817  26.802  0.00  0.00    +0.149 HD
ATOM     35  C   UNL     1      -5.726  11.268  28.036  0.00  0.00    +0.210 C 
ATOM     36  C   UNL     1      -4.721  12.431  28.137  0.00  0.00    +0.109 C 
ATOM     37  O   UNL     1      -6.485  11.015  28.972  0.00  0.00    -0.276 OA
ENDBRANCH  32  33
BRANCH  29  38
ATOM     38  C   UNL     1      -4.969   9.398  22.347  0.00  0.00    +0.414 C 
ATOM     39  O   UNL     1      -6.001   9.831  21.837  0.00  0.00    -0.240 OA
ATOM     40  O   UNL     1      -4.757   8.185  22.344  0.00  0.00    -0.240 OA
ENDBRANCH  29  38
BRANCH  31  41
ATOM     41  O   UNL     1      -6.103  12.743  25.031  0.00  0.00    -0.390 OA
ATOM     42  H   UNL     1      -7.002  12.629  25.350  0.00  0.00    +0.210 HD
ENDBRANCH  31  41
BRANCH  29  43
ATOM     43  O   UNL     1      -2.912  10.686  22.023  0.00  0.00    -0.343 OA
ATOM     44  C   UNL     1      -3.111  11.924  21.294  0.00  0.00    +0.198 C 
ENDBRANCH  29  43
ENDBRANCH  26  27
BRANCH  26  45
ATOM     45  O   UNL     1      -4.259   8.146  27.312  0.00  0.00    -0.387 OA
ATOM     46  H   UNL     1      -4.277   7.199  27.156  0.00  0.00    +0.210 HD
ENDBRANCH  26  45
ENDBRANCH   1  26
TORSDOF 14
