REMARK VINA RESULT:    -4.318      5.102      9.244
REMARK INTER + INTRA:         -11.785
REMARK INTER:                  -7.414
REMARK INTRA:                  -4.370
REMARK UNBOUND:                -3.049
REMARK  Name = lig_assembled_45.pdb
REMARK  24 active torsions:
REMARK  status: ('A' for Active; 'I' for Inactive)
REMARK    1  A    between atoms: _2  and  _10
REMARK    2  A    between atoms: _3  and  _12
REMARK    3  A    between atoms: _3  and  _13
REMARK    4  A    between atoms: _3  and  _14
REMARK    5  A    between atoms: _3  and  _16
REMARK    6  A    between atoms: _5  and  _21
REMARK    7  A    between atoms: _6  and  _16
REMARK    8  A    between atoms: _7  and  _8
REMARK    9  A    between atoms: _7  and  _21
REMARK   10  A    between atoms: _10  and  _11
REMARK   11  A    between atoms: _11  and  _12
REMARK   12  A    between atoms: _14  and  _15
REMARK   13  A    between atoms: _17  and  _37
REMARK   14  A    between atoms: _19  and  _25
REMARK   15  A    between atoms: _20  and  _24
REMARK   16  A    between atoms: _24  and  _25
REMARK   17  A    between atoms: _27  and  _28
REMARK   18  A    between atoms: _29  and  _30
REMARK   19  A    between atoms: _31  and  _33
REMARK   20  A    between atoms: _33  and  _34
REMARK   21  A    between atoms: _33  and  _35
REMARK   22  A    between atoms: _35  and  _36
REMARK   23  A    between atoms: _35  and  _37
REMARK   24  A    between atoms: _38  and  _40
REMARK                            x       y       z     vdW  Elec       q    Type
REMARK                         _______ _______ _______ _____ _____    ______ ____
ROOT
ATOM      1  C   UNL     1      -2.921  11.386  23.960  0.00  0.00    +0.163 C 
ENDROOT
BRANCH   1   2
ATOM      2  O   UNL     1      -2.158  11.446  25.176  0.00  0.00    -0.388 OA
ATOM      3  H   UNL     1      -2.709  11.175  25.914  0.00  0.00    +0.210 HD
ENDBRANCH   1   2
BRANCH   1   4
ATOM      4  C   UNL     1      -3.896  10.196  23.980  0.00  0.00    +0.175 C 
BRANCH   4   5
ATOM      5  C   UNL     1      -3.915   9.488  25.342  0.00  0.00    +0.176 C 
ATOM      6  O   UNL     1      -2.825   8.525  25.362  0.00  0.00    -0.332 OA
ATOM      7  C   UNL     1      -2.622   7.824  26.633  0.00  0.00    +0.277 C 
ATOM      8  C   UNL     1      -3.933   7.138  27.088  0.00  0.00    +0.110 C 
ATOM      9  C   UNL     1      -5.128   8.115  27.054  0.00  0.00    +0.143 C 
ATOM     10  C   UNL     1      -5.244   8.791  25.687  0.00  0.00    +0.133 C 
BRANCH  10  11
ATOM     11  N   UNL     1      -6.332   9.782  25.694  0.00  0.00    -0.308 N 
ATOM     12  H   UNL     1      -6.214  10.608  26.265  0.00  0.00    +0.149 HD
ATOM     13  C   UNL     1      -7.464   9.662  24.995  0.00  0.00    +0.210 C 
ATOM     14  C   UNL     1      -7.624   8.381  24.156  0.00  0.00    +0.109 C 
ATOM     15  O   UNL     1      -8.351  10.516  25.009  0.00  0.00    -0.276 OA
ENDBRANCH  10  11
BRANCH   7  16
ATOM     16  C   UNL     1      -2.144   8.801  27.727  0.00  0.00    +0.414 C 
ATOM     17  O   UNL     1      -1.396   9.735  27.440  0.00  0.00    -0.240 OA
ATOM     18  O   UNL     1      -2.505   8.655  28.895  0.00  0.00    -0.240 OA
ENDBRANCH   7  16
BRANCH   9  19
ATOM     19  O   UNL     1      -6.337   7.407  27.333  0.00  0.00    -0.390 OA
ATOM     20  H   UNL     1      -6.848   7.892  27.986  0.00  0.00    +0.210 HD
ENDBRANCH   9  19
BRANCH   7  21
ATOM     21  O   UNL     1      -1.618   6.797  26.423  0.00  0.00    -0.343 OA
ATOM     22  C   UNL     1      -2.047   5.681  25.603  0.00  0.00    +0.198 C 
ENDBRANCH   7  21
ENDBRANCH   4   5
BRANCH   4  23
ATOM     23  O   UNL     1      -3.557   9.259  22.938  0.00  0.00    -0.387 OA
ATOM     24  H   UNL     1      -4.301   9.163  22.339  0.00  0.00    +0.210 HD
ENDBRANCH   4  23
ENDBRANCH   1   4
BRANCH   1  25
ATOM     25  C   UNL     1      -3.702  12.682  23.770  0.00  0.00    +0.141 C 
BRANCH  25  28
ATOM     26  C   UNL     1      -5.562  13.278  25.285  0.00  0.00    +0.401 C 
ATOM     27  O   UNL     1      -6.442  12.976  24.475  0.00  0.00    -0.226 OA
ATOM     28  N   UNL     1      -4.255  13.178  25.037  0.00  0.00    -0.279 N 
ATOM     29  H   UNL     1      -3.609  13.459  25.761  0.00  0.00    +0.152 HD
BRANCH  26  30
ATOM     30  O   UNL     1      -5.941  13.771  26.572  0.00  0.00    -0.444 OA
BRANCH  30  31
ATOM     31  C   UNL     1      -7.255  13.306  26.893  0.00  0.00    +0.292 C 
BRANCH  31  33
ATOM     32  N   UNL     1      -7.142  11.201  28.200  0.00  0.00    -0.131 NA
ATOM     33  C   UNL     1      -7.237  12.567  28.169  0.00  0.00    +0.120 A 
ATOM     34  C   UNL     1      -7.310  13.042  29.459  0.00  0.00    +0.137 A 
ATOM     35  N   UNL     1      -7.251  11.911  30.216  0.00  0.00    -0.251 N 
ATOM     36  N   UNL     1      -7.156  10.810  29.468  0.00  0.00    -0.065 NA
BRANCH  35  37
ATOM     37  C   UNL     1      -7.305  11.819  31.661  0.00  0.00    +0.150 C 
BRANCH  37  38
ATOM     38  C   UNL     1      -5.977  11.402  32.278  0.00  0.00    +0.074 C 
BRANCH  38  39
ATOM     39  C   UNL     1      -4.950  12.514  32.525  0.00  0.00    +0.134 C 
BRANCH  39  40
ATOM     40  N   UNL     1      -3.833  12.732  31.452  0.00  0.00    +0.241 N 
ATOM     41  C   UNL     1      -2.492  12.959  32.172  0.00  0.00    +0.192 C 
BRANCH  40  42
ATOM     42  C   UNL     1      -4.214  14.046  30.691  0.00  0.00    +0.129 C 
ATOM     43  C   UNL     1      -3.499  15.290  31.205  0.00  0.00    +0.060 C 
ENDBRANCH  40  42
BRANCH  40  44
ATOM     44  C   UNL     1      -3.669  11.578  30.445  0.00  0.00    +0.129 C 
ATOM     45  C   UNL     1      -3.727  12.008  28.989  0.00  0.00    +0.060 C 
ENDBRANCH  40  44
ENDBRANCH  39  40
ENDBRANCH  38  39
ENDBRANCH  37  38
ENDBRANCH  35  37
ENDBRANCH  31  33
ENDBRANCH  30  31
ENDBRANCH  26  30
ENDBRANCH  25  28
ENDBRANCH   1  25
TORSDOF 19
