REMARK VINA RESULT:    -4.091      2.931      5.765
REMARK INTER + INTRA:         -10.633
REMARK INTER:                  -7.286
REMARK INTRA:                  -3.347
REMARK UNBOUND:                -2.835
REMARK  Name = lig_assembled_13.pdb
REMARK  20 active torsions:
REMARK  status: ('A' for Active; 'I' for Inactive)
REMARK    1  A    between atoms: _2  and  _9
REMARK    2  A    between atoms: _4  and  _18
REMARK    3  A    between atoms: _5  and  _11
REMARK    4  A    between atoms: _6  and  _7
REMARK    5  A    between atoms: _6  and  _18
REMARK    6  A    between atoms: _9  and  _10
REMARK    7  A    between atoms: _10  and  _12
REMARK    8  A    between atoms: _11  and  _12
REMARK    9  A    between atoms: _14  and  _34
REMARK   10  A    between atoms: _16  and  _22
REMARK   11  A    between atoms: _17  and  _21
REMARK   12  A    between atoms: _21  and  _22
REMARK   13  A    between atoms: _24  and  _25
REMARK   14  A    between atoms: _26  and  _27
REMARK   15  A    between atoms: _28  and  _30
REMARK   16  A    between atoms: _30  and  _31
REMARK   17  A    between atoms: _30  and  _32
REMARK   18  A    between atoms: _32  and  _33
REMARK   19  A    between atoms: _32  and  _34
REMARK   20  A    between atoms: _35  and  _37
REMARK                            x       y       z     vdW  Elec       q    Type
REMARK                         _______ _______ _______ _____ _____    ______ ____
ROOT
ATOM      1  C   UNL     1      -5.946   8.316  24.580  0.00  0.00    +0.163 C 
ENDROOT
BRANCH   1   2
ATOM      2  O   UNL     1      -5.787   8.957  25.856  0.00  0.00    -0.388 OA
ATOM      3  H   UNL     1      -4.933   9.394  25.891  0.00  0.00    +0.210 HD
ENDBRANCH   1   2
BRANCH   1   4
ATOM      4  C   UNL     1      -6.099   9.355  23.457  0.00  0.00    +0.175 C 
BRANCH   4   5
ATOM      5  C   UNL     1      -4.995  10.422  23.502  0.00  0.00    +0.176 C 
ATOM      6  O   UNL     1      -5.317  11.354  24.570  0.00  0.00    -0.332 OA
ATOM      7  C   UNL     1      -4.312  12.389  24.832  0.00  0.00    +0.277 C 
ATOM      8  C   UNL     1      -3.989  13.170  23.535  0.00  0.00    +0.110 C 
ATOM      9  C   UNL     1      -3.671  12.220  22.362  0.00  0.00    +0.143 C 
ATOM     10  C   UNL     1      -4.780  11.182  22.180  0.00  0.00    +0.133 C 
BRANCH  10  11
ATOM     11  N   UNL     1      -4.425  10.230  21.116  0.00  0.00    -0.308 N 
ATOM     12  H   UNL     1      -3.619   9.639  21.262  0.00  0.00    +0.149 HD
ATOM     13  C   UNL     1      -5.099  10.095  19.971  0.00  0.00    +0.210 C 
ATOM     14  C   UNL     1      -6.308  11.028  19.768  0.00  0.00    +0.109 C 
ATOM     15  O   UNL     1      -4.787   9.277  19.104  0.00  0.00    -0.276 OA
ENDBRANCH  10  11
BRANCH   7  16
ATOM     16  C   UNL     1      -3.018  11.765  25.394  0.00  0.00    +0.414 C 
ATOM     17  O   UNL     1      -1.945  12.357  25.283  0.00  0.00    -0.240 OA
ATOM     18  O   UNL     1      -3.046  10.670  25.958  0.00  0.00    -0.240 OA
ENDBRANCH   7  16
BRANCH   7  19
ATOM     19  O   UNL     1      -4.866  13.318  25.799  0.00  0.00    -0.343 OA
ATOM     20  C   UNL     1      -5.859  12.752  26.691  0.00  0.00    +0.198 C 
ENDBRANCH   7  19
BRANCH   9  21
ATOM     21  O   UNL     1      -3.529  12.973  21.156  0.00  0.00    -0.390 OA
ATOM     22  H   UNL     1      -2.597  13.072  20.948  0.00  0.00    +0.210 HD
ENDBRANCH   9  21
ENDBRANCH   4   5
BRANCH   4  23
ATOM     23  O   UNL     1      -7.396   9.980  23.532  0.00  0.00    -0.387 OA
ATOM     24  H   UNL     1      -7.504  10.585  22.794  0.00  0.00    +0.210 HD
ENDBRANCH   4  23
ENDBRANCH   1   4
BRANCH   1  25
ATOM     25  C   UNL     1      -4.742   7.426  24.290  0.00  0.00    +0.141 C 
BRANCH  25  28
ATOM     26  C   UNL     1      -2.808   6.736  25.665  0.00  0.00    +0.401 C 
ATOM     27  O   UNL     1      -2.891   5.546  25.353  0.00  0.00    -0.226 OA
ATOM     28  N   UNL     1      -3.635   7.683  25.220  0.00  0.00    -0.279 N 
ATOM     29  H   UNL     1      -3.492   8.630  25.541  0.00  0.00    +0.152 HD
BRANCH  26  30
ATOM     30  O   UNL     1      -1.772   7.148  26.561  0.00  0.00    -0.444 OA
BRANCH  30  31
ATOM     31  C   UNL     1      -2.180   6.901  27.909  0.00  0.00    +0.292 C 
BRANCH  31  33
ATOM     32  N   UNL     1      -4.281   8.131  28.354  0.00  0.00    -0.131 NA
ATOM     33  C   UNL     1      -2.917   8.059  28.445  0.00  0.00    +0.120 A 
ATOM     34  C   UNL     1      -2.447   9.187  29.071  0.00  0.00    +0.137 A 
ATOM     35  N   UNL     1      -3.567   9.940  29.276  0.00  0.00    -0.241 N 
ATOM     36  N   UNL     1      -4.671   9.283  28.888  0.00  0.00    -0.065 NA
BRANCH  35  37
ATOM     37  C   UNL     1      -3.674  11.231  29.919  0.00  0.00    +0.265 C 
BRANCH  37  38
ATOM     38  C   UNL     1      -3.535  11.130  31.410  0.00  0.00    +0.329 C 
ATOM     39  O   UNL     1      -4.386  10.737  32.196  0.00  0.00    -0.249 OA
BRANCH  38  40
ATOM     40  O   UNL     1      -2.326  11.652  31.780  0.00  0.00    -0.464 OA
BRANCH  40  41
ATOM     41  C   UNL     1      -2.389  12.659  32.801  0.00  0.00    +0.229 C 
ATOM     42  C   UNL     1      -2.676  13.989  32.127  0.00  0.00    +0.048 C 
ENDBRANCH  40  41
ENDBRANCH  38  40
ENDBRANCH  37  38
ENDBRANCH  35  37
ENDBRANCH  31  33
ENDBRANCH  30  31
ENDBRANCH  26  30
ENDBRANCH  25  28
ENDBRANCH   1  25
TORSDOF 17
