REMARK VINA RESULT:    -4.810      3.163      4.198
REMARK INTER + INTRA:         -11.481
REMARK INTER:                  -9.028
REMARK INTRA:                  -2.453
REMARK UNBOUND:                -2.453
REMARK  Name = lig_assembled_75.pdb
REMARK  19 active torsions:
REMARK  status: ('A' for Active; 'I' for Inactive)
REMARK    1  A    between atoms: _2  and  _9
REMARK    2  A    between atoms: _4  and  _23
REMARK    3  A    between atoms: _6  and  _7
REMARK    4  A    between atoms: _6  and  _23
REMARK    5  A    between atoms: _11  and  _12
REMARK    6  A    between atoms: _13  and  _14
REMARK    7  A    between atoms: _14  and  _17
REMARK    8  A    between atoms: _19  and  _39
REMARK    9  A    between atoms: _21  and  _27
REMARK   10  A    between atoms: _22  and  _26
REMARK   11  A    between atoms: _26  and  _27
REMARK   12  A    between atoms: _29  and  _30
REMARK   13  A    between atoms: _31  and  _32
REMARK   14  A    between atoms: _33  and  _35
REMARK   15  A    between atoms: _35  and  _36
REMARK   16  A    between atoms: _35  and  _37
REMARK   17  A    between atoms: _37  and  _38
REMARK   18  A    between atoms: _37  and  _39
REMARK   19  A    between atoms: _40  and  _42
REMARK                            x       y       z     vdW  Elec       q    Type
REMARK                         _______ _______ _______ _____ _____    ______ ____
ROOT
ATOM      1  C   UNL     1      -5.325  13.114  25.962  0.00  0.00    +0.141 C 
ENDROOT
BRANCH   1   4
ATOM      2  C   UNL     1      -4.049  13.314  23.856  0.00  0.00    +0.401 C 
ATOM      3  O   UNL     1      -4.678  14.296  23.458  0.00  0.00    -0.226 OA
ATOM      4  N   UNL     1      -4.288  12.693  25.012  0.00  0.00    -0.279 N 
ATOM      5  H   UNL     1      -3.724  11.889  25.247  0.00  0.00    +0.152 HD
BRANCH   2   6
ATOM      6  O   UNL     1      -2.996  12.787  23.043  0.00  0.00    -0.444 OA
BRANCH   6   7
ATOM      7  C   UNL     1      -3.207  11.388  22.836  0.00  0.00    +0.292 C 
BRANCH   7   9
ATOM      8  N   UNL     1      -4.721  10.042  21.417  0.00  0.00    -0.131 NA
ATOM      9  C   UNL     1      -3.957  11.161  21.587  0.00  0.00    +0.121 A 
ATOM     10  C   UNL     1      -4.036  11.937  20.454  0.00  0.00    +0.143 A 
ATOM     11  N   UNL     1      -4.869  11.245  19.606  0.00  0.00    -0.220 N 
ATOM     12  N   UNL     1      -5.270  10.099  20.212  0.00  0.00    -0.060 NA
BRANCH  11  13
ATOM     13  C   UNL     1      -5.273  11.577  18.287  0.00  0.00    +0.068 A 
ATOM     14  C   UNL     1      -4.323  12.081  17.382  0.00  0.00    +0.035 A 
ATOM     15  C   UNL     1      -4.701  12.481  16.092  0.00  0.00    -0.023 A 
ATOM     16  C   UNL     1      -6.034  12.309  15.699  0.00  0.00    +0.008 A 
ATOM     17  C   UNL     1      -6.978  11.787  16.586  0.00  0.00    +0.003 A 
ATOM     18  C   UNL     1      -6.604  11.429  17.881  0.00  0.00    +0.028 A 
BRANCH  15  19
ATOM     19  C   UNL     1      -3.747  13.056  15.132  0.00  0.00    +0.015 C 
ATOM     20  C   UNL     1      -4.029  13.271  13.836  0.00  0.00    +0.092 C 
BRANCH  20  21
ATOM     21  C   UNL     1      -2.987  13.802  12.939  0.00  0.00    +0.330 C 
ATOM     22  O   UNL     1      -3.181  14.619  12.057  0.00  0.00    -0.246 OA
BRANCH  21  23
ATOM     23  O   UNL     1      -1.772  13.286  13.216  0.00  0.00    -0.478 OA
ATOM     24  H   UNL     1      -1.762  12.346  13.471  0.00  0.00    +0.295 HD
ENDBRANCH  21  23
ENDBRANCH  20  21
ENDBRANCH  15  19
ENDBRANCH  11  13
ENDBRANCH   7   9
ENDBRANCH   6   7
ENDBRANCH   2   6
ENDBRANCH   1   4
BRANCH   1  25
ATOM     25  C   UNL     1      -6.150  11.932  26.463  0.00  0.00    +0.163 C 
BRANCH  25  26
ATOM     26  O   UNL     1      -5.744  10.729  25.790  0.00  0.00    -0.388 OA
ATOM     27  H   UNL     1      -5.458  10.081  26.438  0.00  0.00    +0.210 HD
ENDBRANCH  25  26
BRANCH  25  28
ATOM     28  C   UNL     1      -5.981  11.796  27.986  0.00  0.00    +0.175 C 
BRANCH  28  29
ATOM     29  C   UNL     1      -4.581  11.293  28.369  0.00  0.00    +0.176 C 
ATOM     30  O   UNL     1      -4.498   9.886  28.011  0.00  0.00    -0.332 OA
ATOM     31  C   UNL     1      -3.189   9.257  28.208  0.00  0.00    +0.277 C 
ATOM     32  C   UNL     1      -2.708   9.456  29.666  0.00  0.00    +0.110 C 
ATOM     33  C   UNL     1      -2.808  10.932  30.103  0.00  0.00    +0.143 C 
ATOM     34  C   UNL     1      -4.210  11.486  29.851  0.00  0.00    +0.133 C 
BRANCH  34  35
ATOM     35  N   UNL     1      -4.269  12.916  30.190  0.00  0.00    -0.308 N 
ATOM     36  H   UNL     1      -3.685  13.550  29.662  0.00  0.00    +0.149 HD
ATOM     37  C   UNL     1      -5.043  13.432  31.148  0.00  0.00    +0.210 C 
ATOM     38  C   UNL     1      -5.902  12.437  31.951  0.00  0.00    +0.109 C 
ATOM     39  O   UNL     1      -5.082  14.637  31.400  0.00  0.00    -0.276 OA
ENDBRANCH  34  35
BRANCH  31  40
ATOM     40  C   UNL     1      -2.146   9.849  27.237  0.00  0.00    +0.414 C 
ATOM     41  O   UNL     1      -0.953   9.582  27.370  0.00  0.00    -0.240 OA
ATOM     42  O   UNL     1      -2.499  10.592  26.320  0.00  0.00    -0.240 OA
ENDBRANCH  31  40
BRANCH  31  43
ATOM     43  O   UNL     1      -3.332   7.834  27.963  0.00  0.00    -0.343 OA
ATOM     44  C   UNL     1      -3.933   7.490  26.689  0.00  0.00    +0.198 C 
ENDBRANCH  31  43
BRANCH  33  45
ATOM     45  O   UNL     1      -2.500  11.045  31.493  0.00  0.00    -0.390 OA
ATOM     46  H   UNL     1      -1.625  10.687  31.658  0.00  0.00    +0.210 HD
ENDBRANCH  33  45
ENDBRANCH  28  29
BRANCH  28  47
ATOM     47  O   UNL     1      -6.989  10.915  28.520  0.00  0.00    -0.387 OA
ATOM     48  H   UNL     1      -7.757  11.428  28.781  0.00  0.00    +0.210 HD
ENDBRANCH  28  47
ENDBRANCH  25  28
ENDBRANCH   1  25
TORSDOF 17
