REMARK VINA RESULT:    -4.354      3.290      5.114
REMARK INTER + INTRA:         -11.003
REMARK INTER:                  -7.790
REMARK INTRA:                  -3.213
REMARK UNBOUND:                -3.213
REMARK  Name = lig_assembled_46.pdb
REMARK  17 active torsions:
REMARK  status: ('A' for Active; 'I' for Inactive)
REMARK    1  A    between atoms: _2  and  _9
REMARK    2  A    between atoms: _4  and  _19
REMARK    3  A    between atoms: _6  and  _7
REMARK    4  A    between atoms: _6  and  _19
REMARK    5  A    between atoms: _9  and  _10
REMARK    6  A    between atoms: _15  and  _35
REMARK    7  A    between atoms: _17  and  _23
REMARK    8  A    between atoms: _18  and  _22
REMARK    9  A    between atoms: _22  and  _23
REMARK   10  A    between atoms: _25  and  _26
REMARK   11  A    between atoms: _27  and  _28
REMARK   12  A    between atoms: _29  and  _31
REMARK   13  A    between atoms: _31  and  _32
REMARK   14  A    between atoms: _31  and  _33
REMARK   15  A    between atoms: _33  and  _34
REMARK   16  A    between atoms: _33  and  _35
REMARK   17  A    between atoms: _36  and  _38
REMARK                            x       y       z     vdW  Elec       q    Type
REMARK                         _______ _______ _______ _____ _____    ______ ____
ROOT
ATOM      1  C   UNL     1      -5.277  13.257  29.729  0.00  0.00    +0.163 C 
ENDROOT
BRANCH   1   2
ATOM      2  O   UNL     1      -4.789  13.032  31.062  0.00  0.00    -0.388 OA
ATOM      3  H   UNL     1      -3.851  12.831  31.030  0.00  0.00    +0.210 HD
ENDBRANCH   1   2
BRANCH   1   4
ATOM      4  C   UNL     1      -6.573  14.060  29.777  0.00  0.00    +0.141 C 
BRANCH   4   7
ATOM      5  C   UNL     1      -7.100  16.064  28.430  0.00  0.00    +0.401 C 
ATOM      6  O   UNL     1      -7.174  16.815  29.406  0.00  0.00    -0.226 OA
ATOM      7  N   UNL     1      -6.830  14.761  28.512  0.00  0.00    -0.279 N 
ATOM      8  H   UNL     1      -6.800  14.225  27.656  0.00  0.00    +0.152 HD
BRANCH   5   9
ATOM      9  O   UNL     1      -7.317  16.600  27.123  0.00  0.00    -0.444 OA
BRANCH   9  10
ATOM     10  C   UNL     1      -8.399  15.907  26.496  0.00  0.00    +0.292 C 
BRANCH  10  12
ATOM     11  N   UNL     1      -7.734  13.645  25.743  0.00  0.00    -0.131 NA
ATOM     12  C   UNL     1      -7.888  14.977  25.471  0.00  0.00    +0.120 A 
ATOM     13  C   UNL     1      -7.538  15.212  24.158  0.00  0.00    +0.137 A 
ATOM     14  N   UNL     1      -7.236  13.973  23.669  0.00  0.00    -0.247 N 
ATOM     15  N   UNL     1      -7.342  13.035  24.630  0.00  0.00    -0.065 NA
BRANCH  14  16
ATOM     16  C   UNL     1      -7.091  13.582  22.278  0.00  0.00    +0.180 C 
BRANCH  16  17
ATOM     17  C   UNL     1      -5.702  13.115  21.920  0.00  0.00    -0.026 A 
ATOM     18  C   UNL     1      -5.476  11.809  21.458  0.00  0.00    +0.005 A 
ATOM     19  C   UNL     1      -4.202  11.417  21.038  0.00  0.00    +0.000 A 
ATOM     20  C   UNL     1      -3.145  12.321  21.071  0.00  0.00    +0.000 A 
ATOM     21  C   UNL     1      -3.354  13.618  21.536  0.00  0.00    +0.000 A 
ATOM     22  C   UNL     1      -4.625  14.014  21.957  0.00  0.00    +0.005 A 
ENDBRANCH  16  17
ENDBRANCH  14  16
ENDBRANCH  10  12
ENDBRANCH   9  10
ENDBRANCH   5   9
ENDBRANCH   4   7
ENDBRANCH   1   4
BRANCH   1  23
ATOM     23  C   UNL     1      -5.526  11.924  29.002  0.00  0.00    +0.175 C 
BRANCH  23  24
ATOM     24  C   UNL     1      -4.396  11.583  28.019  0.00  0.00    +0.176 C 
ATOM     25  O   UNL     1      -5.004  11.182  26.761  0.00  0.00    -0.332 OA
ATOM     26  C   UNL     1      -4.070  10.918  25.661  0.00  0.00    +0.277 C 
ATOM     27  C   UNL     1      -3.013   9.871  26.089  0.00  0.00    +0.110 C 
ATOM     28  C   UNL     1      -2.361  10.239  27.439  0.00  0.00    +0.143 C 
ATOM     29  C   UNL     1      -3.422  10.495  28.509  0.00  0.00    +0.133 C 
BRANCH  29  30
ATOM     30  N   UNL     1      -2.792  10.929  29.766  0.00  0.00    -0.308 N 
ATOM     31  H   UNL     1      -2.361  11.842  29.787  0.00  0.00    +0.149 HD
ATOM     32  C   UNL     1      -2.754  10.194  30.881  0.00  0.00    +0.210 C 
ATOM     33  C   UNL     1      -3.397   8.797  30.809  0.00  0.00    +0.109 C 
ATOM     34  O   UNL     1      -2.232  10.590  31.924  0.00  0.00    -0.276 OA
ENDBRANCH  29  30
BRANCH  26  35
ATOM     35  C   UNL     1      -3.362  12.216  25.222  0.00  0.00    +0.414 C 
ATOM     36  O   UNL     1      -3.982  13.279  25.186  0.00  0.00    -0.240 OA
ATOM     37  O   UNL     1      -2.173  12.201  24.903  0.00  0.00    -0.240 OA
ENDBRANCH  26  35
BRANCH  26  38
ATOM     38  O   UNL     1      -4.828  10.374  24.550  0.00  0.00    -0.343 OA
ATOM     39  C   UNL     1      -4.318   9.128  24.012  0.00  0.00    +0.198 C 
ENDBRANCH  26  38
BRANCH  28  40
ATOM     40  O   UNL     1      -1.508   9.176  27.867  0.00  0.00    -0.390 OA
ATOM     41  H   UNL     1      -1.674   8.396  27.333  0.00  0.00    +0.210 HD
ENDBRANCH  28  40
ENDBRANCH  23  24
BRANCH  23  42
ATOM     42  O   UNL     1      -6.790  11.963  28.311  0.00  0.00    -0.387 OA
ATOM     43  H   UNL     1      -6.651  11.782  27.378  0.00  0.00    +0.210 HD
ENDBRANCH  23  42
ENDBRANCH   1  23
TORSDOF 15
