REMARK VINA RESULT:    -5.186      2.020      5.152
REMARK INTER + INTRA:         -14.131
REMARK INTER:                 -10.195
REMARK INTRA:                  -3.936
REMARK UNBOUND:                -3.487
REMARK  Name = lig_assembled_90.pdb
REMARK  22 active torsions:
REMARK  status: ('A' for Active; 'I' for Inactive)
REMARK    1  A    between atoms: _2  and  _13
REMARK    2  A    between atoms: _3  and  _15
REMARK    3  A    between atoms: _4  and  _17
REMARK    4  A    between atoms: _8  and  _28
REMARK    5  A    between atoms: _10  and  _11
REMARK    6  A    between atoms: _10  and  _28
REMARK    7  A    between atoms: _13  and  _14
REMARK    8  A    between atoms: _15  and  _16
REMARK    9  A    between atoms: _16  and  _17
REMARK   10  A    between atoms: _16  and  _22
REMARK   11  A    between atoms: _24  and  _44
REMARK   12  A    between atoms: _26  and  _32
REMARK   13  A    between atoms: _27  and  _31
REMARK   14  A    between atoms: _31  and  _32
REMARK   15  A    between atoms: _34  and  _35
REMARK   16  A    between atoms: _36  and  _37
REMARK   17  A    between atoms: _38  and  _40
REMARK   18  A    between atoms: _40  and  _41
REMARK   19  A    between atoms: _40  and  _42
REMARK   20  A    between atoms: _42  and  _43
REMARK   21  A    between atoms: _42  and  _44
REMARK   22  A    between atoms: _45  and  _47
REMARK                            x       y       z     vdW  Elec       q    Type
REMARK                         _______ _______ _______ _____ _____    ______ ____
ROOT
ATOM      1  C   UNL     1      -4.847  13.114  25.310  0.00  0.00    +0.401 C 
ATOM      2  O   UNL     1      -5.944  13.660  25.441  0.00  0.00    -0.226 OA
ATOM      3  N   UNL     1      -4.050  13.284  24.254  0.00  0.00    -0.279 N 
ATOM      4  H   UNL     1      -3.164  12.800  24.242  0.00  0.00    +0.152 HD
ENDROOT
BRANCH   3   5
ATOM      5  C   UNL     1      -4.389  14.136  23.108  0.00  0.00    +0.141 C 
BRANCH   5   6
ATOM      6  C   UNL     1      -5.004  13.335  21.965  0.00  0.00    +0.163 C 
BRANCH   6   7
ATOM      7  O   UNL     1      -6.066  14.086  21.354  0.00  0.00    -0.388 OA
ATOM      8  H   UNL     1      -5.850  15.021  21.374  0.00  0.00    +0.210 HD
ENDBRANCH   6   7
BRANCH   6   9
ATOM      9  C   UNL     1      -3.914  12.986  20.937  0.00  0.00    +0.175 C 
BRANCH   9  10
ATOM     10  C   UNL     1      -4.361  11.876  19.975  0.00  0.00    +0.176 C 
ATOM     11  O   UNL     1      -5.332  12.447  19.054  0.00  0.00    -0.332 OA
ATOM     12  C   UNL     1      -5.795  11.554  17.988  0.00  0.00    +0.277 C 
ATOM     13  C   UNL     1      -6.352  10.239  18.587  0.00  0.00    +0.110 C 
ATOM     14  C   UNL     1      -5.368   9.612  19.596  0.00  0.00    +0.143 C 
ATOM     15  C   UNL     1      -4.949  10.628  20.659  0.00  0.00    +0.133 C 
BRANCH  15  16
ATOM     16  N   UNL     1      -3.945  10.045  21.563  0.00  0.00    -0.308 N 
ATOM     17  H   UNL     1      -3.031   9.841  21.184  0.00  0.00    +0.149 HD
ATOM     18  C   UNL     1      -4.164   9.766  22.851  0.00  0.00    +0.210 C 
ATOM     19  C   UNL     1      -5.575  10.063  23.391  0.00  0.00    +0.109 C 
ATOM     20  O   UNL     1      -3.300   9.291  23.588  0.00  0.00    -0.276 OA
ENDBRANCH  15  16
BRANCH  12  21
ATOM     21  C   UNL     1      -4.647  11.230  17.009  0.00  0.00    +0.414 C 
ATOM     22  O   UNL     1      -4.497  10.083  16.589  0.00  0.00    -0.240 OA
ATOM     23  O   UNL     1      -3.873  12.113  16.640  0.00  0.00    -0.240 OA
ENDBRANCH  12  21
BRANCH  14  24
ATOM     24  O   UNL     1      -5.981   8.490  20.233  0.00  0.00    -0.390 OA
ATOM     25  H   UNL     1      -6.802   8.275  19.784  0.00  0.00    +0.210 HD
ENDBRANCH  14  24
BRANCH  12  26
ATOM     26  O   UNL     1      -6.868  12.223  17.277  0.00  0.00    -0.343 OA
ATOM     27  C   UNL     1      -7.963  11.364  16.870  0.00  0.00    +0.198 C 
ENDBRANCH  12  26
ENDBRANCH   9  10
BRANCH   9  28
ATOM     28  O   UNL     1      -2.700  12.599  21.612  0.00  0.00    -0.387 OA
ATOM     29  H   UNL     1      -2.884  11.868  22.207  0.00  0.00    +0.210 HD
ENDBRANCH   9  28
ENDBRANCH   6   9
ENDBRANCH   5   6
ENDBRANCH   3   5
BRANCH   1  30
ATOM     30  O   UNL     1      -4.377  12.242  26.342  0.00  0.00    -0.444 OA
BRANCH  30  31
ATOM     31  C   UNL     1      -3.058  11.792  26.024  0.00  0.00    +0.292 C 
BRANCH  31  33
ATOM     32  N   UNL     1      -1.556   9.976  26.797  0.00  0.00    -0.131 NA
ATOM     33  C   UNL     1      -2.826  10.444  26.578  0.00  0.00    +0.120 A 
ATOM     34  C   UNL     1      -3.730   9.476  26.951  0.00  0.00    +0.137 A 
ATOM     35  N   UNL     1      -2.952   8.455  27.407  0.00  0.00    -0.242 N 
ATOM     36  N   UNL     1      -1.645   8.750  27.296  0.00  0.00    -0.065 NA
BRANCH  35  37
ATOM     37  C   UNL     1      -3.366   7.147  27.855  0.00  0.00    +0.240 C 
BRANCH  37  38
ATOM     38  C   UNL     1      -3.721   7.156  29.324  0.00  0.00    +0.235 C 
ATOM     39  O   UNL     1      -4.635   6.477  29.790  0.00  0.00    -0.274 OA
ATOM     40  N   UNL     1      -2.909   7.939  30.122  0.00  0.00    -0.311 N 
ATOM     41  H   UNL     1      -2.362   8.677  29.685  0.00  0.00    +0.149 HD
BRANCH  40  42
ATOM     42  C   UNL     1      -3.199   8.098  31.541  0.00  0.00    +0.137 C 
BRANCH  42  43
ATOM     43  C   UNL     1      -3.569   9.551  31.873  0.00  0.00    +0.151 C 
BRANCH  43  44
ATOM     44  O   UNL     1      -3.235   9.808  33.242  0.00  0.00    -0.388 OA
ATOM     45  H   UNL     1      -2.611  10.561  33.280  0.00  0.00    +0.210 HD
ENDBRANCH  43  44
BRANCH  43  46
ATOM     46  C   UNL     1      -2.873  10.543  30.933  0.00  0.00    +0.162 C 
BRANCH  46  47
ATOM     47  N   UNL     1      -3.679  11.729  30.679  0.00  0.00    -0.269 N 
ATOM     48  C   UNL     1      -4.737  11.743  29.798  0.00  0.00    +0.113 A 
ATOM     49  C   UNL     1      -5.209  13.034  29.800  0.00  0.00    +0.137 A 
ATOM     50  N   UNL     1      -4.473  13.815  30.653  0.00  0.00    -0.172 NA
ATOM     51  C   UNL     1      -3.568  13.004  31.177  0.00  0.00    +0.450 A 
ATOM     52  N   UNL     1      -2.596  13.455  32.144  0.00  0.00    +0.120 N 
ATOM     53  O   UNL     1      -1.860  12.603  32.660  0.00  0.00    +0.045 OA
ATOM     54  O   UNL     1      -2.556  14.668  32.386  0.00  0.00    -0.573 OA
ENDBRANCH  46  47
ENDBRANCH  43  46
ENDBRANCH  42  43
ENDBRANCH  40  42
ENDBRANCH  37  38
ENDBRANCH  35  37
ENDBRANCH  31  33
ENDBRANCH  30  31
ENDBRANCH   1  30
TORSDOF 20
