REMARK VINA RESULT:    -4.213      1.714      4.981
REMARK INTER + INTRA:         -10.785
REMARK INTER:                  -6.454
REMARK INTRA:                  -4.330
REMARK UNBOUND:                -2.754
REMARK  Name = lig_assembled_19.pdb
REMARK  20 active torsions:
REMARK  status: ('A' for Active; 'I' for Inactive)
REMARK    1  A    between atoms: _2  and  _9
REMARK    2  A    between atoms: _4  and  _18
REMARK    3  A    between atoms: _5  and  _11
REMARK    4  A    between atoms: _6  and  _7
REMARK    5  A    between atoms: _6  and  _18
REMARK    6  A    between atoms: _9  and  _10
REMARK    7  A    between atoms: _10  and  _13
REMARK    8  A    between atoms: _11  and  _13
REMARK    9  A    between atoms: _14  and  _34
REMARK   10  A    between atoms: _16  and  _22
REMARK   11  A    between atoms: _17  and  _21
REMARK   12  A    between atoms: _21  and  _22
REMARK   13  A    between atoms: _24  and  _25
REMARK   14  A    between atoms: _26  and  _27
REMARK   15  A    between atoms: _28  and  _30
REMARK   16  A    between atoms: _30  and  _31
REMARK   17  A    between atoms: _30  and  _32
REMARK   18  A    between atoms: _32  and  _33
REMARK   19  A    between atoms: _32  and  _34
REMARK   20  A    between atoms: _35  and  _37
REMARK                            x       y       z     vdW  Elec       q    Type
REMARK                         _______ _______ _______ _____ _____    ______ ____
ROOT
ATOM      1  C   UNL     1      -3.046  11.781  25.619  0.00  0.00    +0.163 C 
ENDROOT
BRANCH   1   2
ATOM      2  O   UNL     1      -1.773  11.324  26.105  0.00  0.00    -0.388 OA
ATOM      3  H   UNL     1      -1.436  11.946  26.755  0.00  0.00    +0.210 HD
ENDBRANCH   1   2
BRANCH   1   4
ATOM      4  C   UNL     1      -3.636  10.787  24.604  0.00  0.00    +0.175 C 
BRANCH   4   5
ATOM      5  C   UNL     1      -5.150  10.969  24.430  0.00  0.00    +0.176 C 
ATOM      6  O   UNL     1      -5.807   9.784  24.956  0.00  0.00    -0.332 OA
ATOM      7  C   UNL     1      -7.273   9.824  24.970  0.00  0.00    +0.277 C 
ATOM      8  C   UNL     1      -7.819  10.141  23.556  0.00  0.00    +0.110 C 
ATOM      9  C   UNL     1      -7.127  11.377  22.942  0.00  0.00    +0.143 C 
ATOM     10  C   UNL     1      -5.606  11.230  22.982  0.00  0.00    +0.133 C 
BRANCH  10  11
ATOM     11  N   UNL     1      -4.957  12.449  22.474  0.00  0.00    -0.308 N 
ATOM     12  H   UNL     1      -5.214  13.330  22.896  0.00  0.00    +0.149 HD
ATOM     13  C   UNL     1      -4.051  12.467  21.493  0.00  0.00    +0.210 C 
ATOM     14  C   UNL     1      -3.701  11.110  20.853  0.00  0.00    +0.109 C 
ATOM     15  O   UNL     1      -3.513  13.502  21.098  0.00  0.00    -0.276 OA
ENDBRANCH  10  11
BRANCH   7  16
ATOM     16  C   UNL     1      -7.781  10.884  25.969  0.00  0.00    +0.414 C 
ATOM     17  O   UNL     1      -7.217  11.036  27.052  0.00  0.00    -0.240 OA
ATOM     18  O   UNL     1      -8.753  11.588  25.692  0.00  0.00    -0.240 OA
ENDBRANCH   7  16
BRANCH   9  19
ATOM     19  O   UNL     1      -7.549  11.542  21.588  0.00  0.00    -0.390 OA
ATOM     20  H   UNL     1      -7.568  12.476  21.370  0.00  0.00    +0.210 HD
ENDBRANCH   9  19
BRANCH   7  21
ATOM     21  O   UNL     1      -7.754   8.513  25.363  0.00  0.00    -0.343 OA
ATOM     22  C   UNL     1      -6.903   7.803  26.298  0.00  0.00    +0.198 C 
ENDBRANCH   7  21
ENDBRANCH   4   5
BRANCH   4  23
ATOM     23  O   UNL     1      -3.341   9.434  25.005  0.00  0.00    -0.387 OA
ATOM     24  H   UNL     1      -4.160   8.938  25.086  0.00  0.00    +0.210 HD
ENDBRANCH   4  23
ENDBRANCH   1   4
BRANCH   1  25
ATOM     25  C   UNL     1      -4.016  11.958  26.782  0.00  0.00    +0.141 C 
BRANCH  25  28
ATOM     26  C   UNL     1      -3.963  10.714  28.917  0.00  0.00    +0.401 C 
ATOM     27  O   UNL     1      -3.693  11.707  29.597  0.00  0.00    -0.226 OA
ATOM     28  N   UNL     1      -4.126  10.739  27.593  0.00  0.00    -0.279 N 
ATOM     29  H   UNL     1      -4.337   9.870  27.122  0.00  0.00    +0.152 HD
BRANCH  26  30
ATOM     30  O   UNL     1      -4.112   9.448  29.564  0.00  0.00    -0.444 OA
BRANCH  30  31
ATOM     31  C   UNL     1      -2.847   8.782  29.607  0.00  0.00    +0.292 C 
BRANCH  31  33
ATOM     32  N   UNL     1      -1.756   8.424  27.411  0.00  0.00    -0.131 NA
ATOM     33  C   UNL     1      -2.635   8.001  28.375  0.00  0.00    +0.120 A 
ATOM     34  C   UNL     1      -3.206   6.815  27.972  0.00  0.00    +0.137 A 
ATOM     35  N   UNL     1      -2.643   6.579  26.754  0.00  0.00    -0.248 N 
ATOM     36  N   UNL     1      -1.769   7.542  26.420  0.00  0.00    -0.065 NA
BRANCH  35  37
ATOM     37  C   UNL     1      -2.880   5.460  25.868  0.00  0.00    +0.186 C 
BRANCH  37  38
ATOM     38  C   UNL     1      -3.155   5.916  24.439  0.00  0.00    +0.255 C 
BRANCH  38  39
ATOM     39  O   UNL     1      -4.356   6.709  24.342  0.00  0.00    -0.463 OA
BRANCH  39  40
ATOM     40  C   UNL     1      -4.675   7.156  23.100  0.00  0.00    +0.304 C 
ATOM     41  O   UNL     1      -3.973   7.891  22.419  0.00  0.00    -0.251 OA
ATOM     42  C   UNL     1      -5.994   6.602  22.654  0.00  0.00    +0.136 C 
ENDBRANCH  39  40
ENDBRANCH  38  39
ENDBRANCH  37  38
ENDBRANCH  35  37
ENDBRANCH  31  33
ENDBRANCH  30  31
ENDBRANCH  26  30
ENDBRANCH  25  28
ENDBRANCH   1  25
TORSDOF 17
