REMARK VINA RESULT:    -5.101      2.967      6.082
REMARK INTER + INTRA:         -10.641
REMARK INTER:                  -6.945
REMARK INTRA:                  -3.696
REMARK UNBOUND:                -1.813
REMARK  Name = lig_assembled_40.pdb
REMARK  17 active torsions:
REMARK  status: ('A' for Active; 'I' for Inactive)
REMARK    1  A    between atoms: _2  and  _9
REMARK    2  A    between atoms: _4  and  _19
REMARK    3  A    between atoms: _6  and  _7
REMARK    4  A    between atoms: _6  and  _19
REMARK    5  A    between atoms: _12  and  _13
REMARK    6  A    between atoms: _15  and  _35
REMARK    7  A    between atoms: _17  and  _23
REMARK    8  A    between atoms: _18  and  _22
REMARK    9  A    between atoms: _22  and  _23
REMARK   10  A    between atoms: _25  and  _26
REMARK   11  A    between atoms: _27  and  _28
REMARK   12  A    between atoms: _29  and  _31
REMARK   13  A    between atoms: _31  and  _32
REMARK   14  A    between atoms: _31  and  _33
REMARK   15  A    between atoms: _33  and  _34
REMARK   16  A    between atoms: _33  and  _35
REMARK   17  A    between atoms: _36  and  _38
REMARK                            x       y       z     vdW  Elec       q    Type
REMARK                         _______ _______ _______ _____ _____    ______ ____
ROOT
ATOM      1  C   UNL     1      -3.164  11.686  26.187  0.00  0.00    +0.163 C 
ENDROOT
BRANCH   1   2
ATOM      2  O   UNL     1      -2.115  12.112  25.302  0.00  0.00    -0.388 OA
ATOM      3  H   UNL     1      -1.302  12.227  25.800  0.00  0.00    +0.210 HD
ENDBRANCH   1   2
BRANCH   1   4
ATOM      4  C   UNL     1      -2.649  10.593  27.118  0.00  0.00    +0.141 C 
BRANCH   4   7
ATOM      5  C   UNL     1      -2.717   8.148  26.774  0.00  0.00    +0.401 C 
ATOM      6  O   UNL     1      -3.386   7.929  27.786  0.00  0.00    -0.226 OA
ATOM      7  N   UNL     1      -2.323   9.362  26.389  0.00  0.00    -0.279 N 
ATOM      8  H   UNL     1      -1.768   9.439  25.548  0.00  0.00    +0.152 HD
BRANCH   5   9
ATOM      9  O   UNL     1      -2.325   7.047  25.949  0.00  0.00    -0.444 OA
BRANCH   9  10
ATOM     10  C   UNL     1      -3.490   6.382  25.454  0.00  0.00    +0.292 C 
BRANCH  10  12
ATOM     11  N   UNL     1      -5.507   7.588  24.678  0.00  0.00    -0.131 NA
ATOM     12  C   UNL     1      -4.201   7.241  24.489  0.00  0.00    +0.121 A 
ATOM     13  C   UNL     1      -3.745   7.824  23.330  0.00  0.00    +0.143 A 
ATOM     14  N   UNL     1      -4.810   8.554  22.853  0.00  0.00    -0.220 N 
ATOM     15  N   UNL     1      -5.874   8.378  23.677  0.00  0.00    -0.060 NA
BRANCH  14  16
ATOM     16  C   UNL     1      -4.860   9.411  21.724  0.00  0.00    +0.067 A 
ATOM     17  C   UNL     1      -5.790   9.195  20.701  0.00  0.00    +0.028 A 
ATOM     18  C   UNL     1      -5.782  10.005  19.561  0.00  0.00    +0.005 A 
ATOM     19  C   UNL     1      -4.848  11.037  19.428  0.00  0.00    -0.050 A 
ATOM     20  C   UNL     1      -3.942  11.274  20.469  0.00  0.00    +0.005 A 
ATOM     21  C   UNL     1      -4.806  11.879  18.187  0.00  0.00    +0.044 C 
ATOM     22  C   UNL     1      -3.946  10.469  21.611  0.00  0.00    +0.028 A 
ENDBRANCH  14  16
ENDBRANCH  10  12
ENDBRANCH   9  10
ENDBRANCH   5   9
ENDBRANCH   4   7
ENDBRANCH   1   4
BRANCH   1  23
ATOM     23  C   UNL     1      -4.373  11.159  25.395  0.00  0.00    +0.175 C 
BRANCH  23  24
ATOM     24  C   UNL     1      -5.337  12.286  24.995  0.00  0.00    +0.176 C 
ATOM     25  O   UNL     1      -4.681  13.097  23.982  0.00  0.00    -0.332 OA
ATOM     26  C   UNL     1      -5.497  14.167  23.400  0.00  0.00    +0.277 C 
ATOM     27  C   UNL     1      -6.067  15.079  24.513  0.00  0.00    +0.110 C 
ATOM     28  C   UNL     1      -6.747  14.259  25.630  0.00  0.00    +0.143 C 
ATOM     29  C   UNL     1      -5.810  13.173  26.161  0.00  0.00    +0.133 C 
BRANCH  29  30
ATOM     30  N   UNL     1      -6.499  12.343  27.162  0.00  0.00    -0.308 N 
ATOM     31  H   UNL     1      -7.228  11.722  26.839  0.00  0.00    +0.149 HD
ATOM     32  C   UNL     1      -6.224  12.357  28.469  0.00  0.00    +0.210 C 
ATOM     33  C   UNL     1      -5.127  13.334  28.933  0.00  0.00    +0.109 C 
ATOM     34  O   UNL     1      -6.807  11.640  29.283  0.00  0.00    -0.276 OA
ENDBRANCH  29  30
BRANCH  26  35
ATOM     35  C   UNL     1      -6.657  13.579  22.570  0.00  0.00    +0.414 C 
ATOM     36  O   UNL     1      -7.553  14.312  22.151  0.00  0.00    -0.240 OA
ATOM     37  O   UNL     1      -6.698  12.374  22.320  0.00  0.00    -0.240 OA
ENDBRANCH  26  35
BRANCH  28  38
ATOM     38  O   UNL     1      -7.122  15.123  26.703  0.00  0.00    -0.390 OA
ATOM     39  H   UNL     1      -7.056  14.649  27.535  0.00  0.00    +0.210 HD
ENDBRANCH  28  38
BRANCH  26  40
ATOM     40  O   UNL     1      -4.642  14.969  22.544  0.00  0.00    -0.343 OA
ATOM     41  C   UNL     1      -3.313  14.430  22.329  0.00  0.00    +0.198 C 
ENDBRANCH  26  40
ENDBRANCH  23  24
BRANCH  23  42
ATOM     42  O   UNL     1      -5.070  10.157  26.161  0.00  0.00    -0.387 OA
ATOM     43  H   UNL     1      -4.605   9.320  26.093  0.00  0.00    +0.210 HD
ENDBRANCH  23  42
ENDBRANCH   1  23
TORSDOF 14
