REMARK VINA RESULT:    -3.865      2.296      4.301
REMARK INTER + INTRA:         -11.564
REMARK INTER:                  -8.274
REMARK INTRA:                  -3.289
REMARK UNBOUND:                -4.083
REMARK  Name = lig_assembled_83.pdb
REMARK  20 active torsions:
REMARK  status: ('A' for Active; 'I' for Inactive)
REMARK    1  A    between atoms: _2  and  _12
REMARK    2  A    between atoms: _3  and  _14
REMARK    3  A    between atoms: _7  and  _24
REMARK    4  A    between atoms: _9  and  _10
REMARK    5  A    between atoms: _9  and  _24
REMARK    6  A    between atoms: _12  and  _13
REMARK    7  A    between atoms: _13  and  _14
REMARK    8  A    between atoms: _13  and  _18
REMARK    9  A    between atoms: _20  and  _40
REMARK   10  A    between atoms: _22  and  _28
REMARK   11  A    between atoms: _23  and  _27
REMARK   12  A    between atoms: _27  and  _28
REMARK   13  A    between atoms: _30  and  _31
REMARK   14  A    between atoms: _32  and  _33
REMARK   15  A    between atoms: _34  and  _36
REMARK   16  A    between atoms: _36  and  _37
REMARK   17  A    between atoms: _36  and  _38
REMARK   18  A    between atoms: _38  and  _39
REMARK   19  A    between atoms: _38  and  _40
REMARK   20  A    between atoms: _41  and  _43
REMARK                            x       y       z     vdW  Elec       q    Type
REMARK                         _______ _______ _______ _____ _____    ______ ____
ROOT
ATOM      1  C   UNL     1      -7.365   9.067  22.170  0.00  0.00    +0.141 C 
ENDROOT
BRANCH   1   4
ATOM      2  C   UNL     1      -7.045  10.107  19.951  0.00  0.00    +0.401 C 
ATOM      3  O   UNL     1      -6.349   9.187  19.516  0.00  0.00    -0.226 OA
ATOM      4  N   UNL     1      -7.557  10.136  21.183  0.00  0.00    -0.279 N 
ATOM      5  H   UNL     1      -8.108  10.940  21.451  0.00  0.00    +0.152 HD
BRANCH   2   6
ATOM      6  O   UNL     1      -7.331  11.222  19.104  0.00  0.00    -0.444 OA
BRANCH   6   7
ATOM      7  C   UNL     1      -7.826  10.753  17.847  0.00  0.00    +0.292 C 
BRANCH   7   9
ATOM      8  N   UNL     1      -6.122  12.263  16.855  0.00  0.00    -0.131 NA
ATOM      9  C   UNL     1      -6.922  11.153  16.753  0.00  0.00    +0.120 A 
ATOM     10  C   UNL     1      -6.710  10.561  15.529  0.00  0.00    +0.137 A 
ATOM     11  N   UNL     1      -5.764  11.347  14.945  0.00  0.00    -0.249 N 
ATOM     12  N   UNL     1      -5.420  12.376  15.735  0.00  0.00    -0.065 NA
BRANCH  11  13
ATOM     13  C   UNL     1      -5.178  11.198  13.629  0.00  0.00    +0.178 C 
BRANCH  13  14
ATOM     14  C   UNL     1      -3.652  11.315  13.669  0.00  0.00    +0.156 C 
BRANCH  14  15
ATOM     15  O   UNL     1      -3.274  12.659  13.986  0.00  0.00    -0.388 OA
ATOM     16  H   UNL     1      -3.477  12.847  14.925  0.00  0.00    +0.210 HD
ENDBRANCH  14  15
BRANCH  14  17
ATOM     17  C   UNL     1      -3.064  10.338  14.700  0.00  0.00    +0.162 C 
BRANCH  17  18
ATOM     18  N   UNL     1      -3.337   8.948  14.371  0.00  0.00    -0.269 N 
ATOM     19  C   UNL     1      -3.066   8.393  13.141  0.00  0.00    +0.113 A 
ATOM     20  C   UNL     1      -3.435   7.071  13.243  0.00  0.00    +0.137 A 
ATOM     21  N   UNL     1      -3.949   6.805  14.482  0.00  0.00    -0.172 NA
ATOM     22  C   UNL     1      -3.874   7.946  15.143  0.00  0.00    +0.450 A 
ATOM     23  N   UNL     1      -4.312   8.079  16.515  0.00  0.00    +0.120 N 
ATOM     24  O   UNL     1      -4.199   9.193  17.050  0.00  0.00    +0.045 OA
ATOM     25  O   UNL     1      -4.784   7.075  17.062  0.00  0.00    -0.573 OA
ENDBRANCH  17  18
ENDBRANCH  14  17
ENDBRANCH  13  14
ENDBRANCH  11  13
ENDBRANCH   7   9
ENDBRANCH   6   7
ENDBRANCH   2   6
ENDBRANCH   1   4
BRANCH   1  26
ATOM     26  C   UNL     1      -6.519   9.530  23.352  0.00  0.00    +0.163 C 
BRANCH  26  27
ATOM     27  O   UNL     1      -7.219   9.288  24.583  0.00  0.00    -0.388 OA
ATOM     28  H   UNL     1      -6.882   9.874  25.264  0.00  0.00    +0.210 HD
ENDBRANCH  26  27
BRANCH  26  29
ATOM     29  C   UNL     1      -5.167   8.795  23.334  0.00  0.00    +0.175 C 
BRANCH  29  30
ATOM     30  C   UNL     1      -4.077   9.572  24.087  0.00  0.00    +0.176 C 
ATOM     31  O   UNL     1      -4.416   9.561  25.501  0.00  0.00    -0.332 OA
ATOM     32  C   UNL     1      -3.426  10.170  26.395  0.00  0.00    +0.277 C 
ATOM     33  C   UNL     1      -3.108  11.617  25.944  0.00  0.00    +0.110 C 
ATOM     34  C   UNL     1      -2.773  11.684  24.439  0.00  0.00    +0.143 C 
ATOM     35  C   UNL     1      -3.867  11.019  23.603  0.00  0.00    +0.133 C 
BRANCH  35  36
ATOM     36  N   UNL     1      -3.496  11.013  22.180  0.00  0.00    -0.308 N 
ATOM     37  H   UNL     1      -2.758  10.387  21.888  0.00  0.00    +0.149 HD
ATOM     38  C   UNL     1      -4.069  11.780  21.249  0.00  0.00    +0.210 C 
ATOM     39  C   UNL     1      -5.172  12.741  21.730  0.00  0.00    +0.109 C 
ATOM     40  O   UNL     1      -3.747  11.743  20.060  0.00  0.00    -0.276 OA
ENDBRANCH  35  36
BRANCH  32  41
ATOM     41  C   UNL     1      -2.126   9.340  26.417  0.00  0.00    +0.414 C 
ATOM     42  O   UNL     1      -2.173   8.111  26.368  0.00  0.00    -0.240 OA
ATOM     43  O   UNL     1      -1.030   9.898  26.485  0.00  0.00    -0.240 OA
ENDBRANCH  32  41
BRANCH  32  44
ATOM     44  O   UNL     1      -3.996  10.220  27.728  0.00  0.00    -0.343 OA
ATOM     45  C   UNL     1      -3.883  11.503  28.394  0.00  0.00    +0.198 C 
ENDBRANCH  32  44
BRANCH  34  46
ATOM     46  O   UNL     1      -2.637  13.048  24.037  0.00  0.00    -0.390 OA
ATOM     47  H   UNL     1      -2.913  13.623  24.754  0.00  0.00    +0.210 HD
ENDBRANCH  34  46
ENDBRANCH  29  30
BRANCH  29  48
ATOM     48  O   UNL     1      -4.753   8.549  21.975  0.00  0.00    -0.387 OA
ATOM     49  H   UNL     1      -5.287   9.078  21.377  0.00  0.00    +0.210 HD
ENDBRANCH  29  48
ENDBRANCH  26  29
ENDBRANCH   1  26
TORSDOF 18
