REMARK VINA RESULT:    -4.870      3.433      6.091
REMARK INTER + INTRA:         -11.426
REMARK INTER:                  -8.895
REMARK INTRA:                  -2.531
REMARK UNBOUND:                -2.997
REMARK  Name = lig_assembled_15.pdb
REMARK  16 active torsions:
REMARK  status: ('A' for Active; 'I' for Inactive)
REMARK    1  A    between atoms: _2  and  _9
REMARK    2  A    between atoms: _4  and  _18
REMARK    3  A    between atoms: _6  and  _7
REMARK    4  A    between atoms: _6  and  _18
REMARK    5  A    between atoms: _14  and  _34
REMARK    6  A    between atoms: _16  and  _22
REMARK    7  A    between atoms: _17  and  _21
REMARK    8  A    between atoms: _21  and  _22
REMARK    9  A    between atoms: _24  and  _25
REMARK   10  A    between atoms: _26  and  _27
REMARK   11  A    between atoms: _28  and  _30
REMARK   12  A    between atoms: _30  and  _31
REMARK   13  A    between atoms: _30  and  _32
REMARK   14  A    between atoms: _32  and  _33
REMARK   15  A    between atoms: _32  and  _34
REMARK   16  A    between atoms: _35  and  _37
REMARK                            x       y       z     vdW  Elec       q    Type
REMARK                         _______ _______ _______ _____ _____    ______ ____
ROOT
ATOM      1  C   UNL     1      -2.380   9.636  26.995  0.00  0.00    +0.163 C 
ENDROOT
BRANCH   1   2
ATOM      2  O   UNL     1      -1.208   9.947  26.223  0.00  0.00    -0.388 OA
ATOM      3  H   UNL     1      -1.436   9.977  25.291  0.00  0.00    +0.210 HD
ENDBRANCH   1   2
BRANCH   1   4
ATOM      4  C   UNL     1      -1.976   9.074  28.354  0.00  0.00    +0.141 C 
BRANCH   4   7
ATOM      5  C   UNL     1      -3.546   8.614  30.206  0.00  0.00    +0.401 C 
ATOM      6  O   UNL     1      -3.425   7.390  30.129  0.00  0.00    -0.226 OA
ATOM      7  N   UNL     1      -2.910   9.477  29.413  0.00  0.00    -0.279 N 
ATOM      8  H   UNL     1      -3.081  10.464  29.547  0.00  0.00    +0.152 HD
BRANCH   5   9
ATOM      9  O   UNL     1      -4.417   9.166  31.197  0.00  0.00    -0.444 OA
BRANCH   9  10
ATOM     10  C   UNL     1      -3.655   9.542  32.347  0.00  0.00    +0.292 C 
BRANCH  10  12
ATOM     11  N   UNL     1      -2.001  11.368  32.119  0.00  0.00    -0.131 NA
ATOM     12  C   UNL     1      -3.297  10.972  32.278  0.00  0.00    +0.121 A 
ATOM     13  C   UNL     1      -4.103  12.086  32.342  0.00  0.00    +0.143 A 
ATOM     14  N   UNL     1      -3.247  13.152  32.186  0.00  0.00    -0.220 N 
ATOM     15  N   UNL     1      -1.978  12.693  32.070  0.00  0.00    -0.060 NA
BRANCH  14  16
ATOM     16  C   UNL     1      -3.558  14.536  32.113  0.00  0.00    +0.067 A 
ATOM     17  C   UNL     1      -4.090  15.094  30.942  0.00  0.00    +0.029 A 
ATOM     18  C   UNL     1      -4.351  16.467  30.876  0.00  0.00    +0.017 A 
ATOM     19  C   UNL     1      -4.086  17.279  31.976  0.00  0.00    +0.018 A 
ATOM     20 BR   UNL     1      -4.416  19.138  31.869  0.00  0.00    -0.050 Br
ATOM     21  C   UNL     1      -3.571  16.733  33.150  0.00  0.00    +0.017 A 
ATOM     22  C   UNL     1      -3.310  15.362  33.222  0.00  0.00    +0.029 A 
ENDBRANCH  14  16
ENDBRANCH  10  12
ENDBRANCH   9  10
ENDBRANCH   5   9
ENDBRANCH   4   7
ENDBRANCH   1   4
BRANCH   1  23
ATOM     23  C   UNL     1      -3.268   8.617  26.261  0.00  0.00    +0.175 C 
BRANCH  23  24
ATOM     24  C   UNL     1      -4.134   9.279  25.179  0.00  0.00    +0.176 C 
ATOM     25  O   UNL     1      -3.285   9.551  24.031  0.00  0.00    -0.332 OA
ATOM     26  C   UNL     1      -3.968  10.091  22.851  0.00  0.00    +0.277 C 
ATOM     27  C   UNL     1      -4.768  11.363  23.224  0.00  0.00    +0.110 C 
ATOM     28  C   UNL     1      -5.662  11.132  24.460  0.00  0.00    +0.143 C 
ATOM     29  C   UNL     1      -4.851  10.567  25.626  0.00  0.00    +0.133 C 
BRANCH  29  30
ATOM     30  N   UNL     1      -5.729  10.269  26.769  0.00  0.00    -0.308 N 
ATOM     31  H   UNL     1      -6.362   9.486  26.686  0.00  0.00    +0.149 HD
ATOM     32  C   UNL     1      -5.744  10.966  27.908  0.00  0.00    +0.210 C 
ATOM     33  C   UNL     1      -4.786  12.169  27.994  0.00  0.00    +0.109 C 
ATOM     34  O   UNL     1      -6.480  10.684  28.855  0.00  0.00    -0.276 OA
ENDBRANCH  29  30
BRANCH  26  35
ATOM     35  C   UNL     1      -4.922   9.041  22.244  0.00  0.00    +0.414 C 
ATOM     36  O   UNL     1      -4.629   7.847  22.272  0.00  0.00    -0.240 OA
ATOM     37  O   UNL     1      -5.985   9.389  21.726  0.00  0.00    -0.240 OA
ENDBRANCH  26  35
BRANCH  28  38
ATOM     38  O   UNL     1      -6.263  12.365  24.858  0.00  0.00    -0.390 OA
ATOM     39  H   UNL     1      -6.515  12.315  25.783  0.00  0.00    +0.210 HD
ENDBRANCH  28  38
BRANCH  26  40
ATOM     40  O   UNL     1      -2.958  10.455  21.875  0.00  0.00    -0.343 OA
ATOM     41  C   UNL     1      -3.139  11.757  21.264  0.00  0.00    +0.198 C 
ENDBRANCH  26  40
ENDBRANCH  23  24
BRANCH  23  42
ATOM     42  O   UNL     1      -4.101   7.914  27.204  0.00  0.00    -0.387 OA
ATOM     43  H   UNL     1      -4.014   8.317  28.071  0.00  0.00    +0.210 HD
ENDBRANCH  23  42
ENDBRANCH   1  23
TORSDOF 14
