REMARK VINA RESULT:    -5.071      3.113      9.433
REMARK INTER + INTRA:         -11.361
REMARK INTER:                  -8.799
REMARK INTRA:                  -2.562
REMARK UNBOUND:                -1.695
REMARK  Name = lig_assembled_12.pdb
REMARK  19 active torsions:
REMARK  status: ('A' for Active; 'I' for Inactive)
REMARK    1  A    between atoms: _2  and  _9
REMARK    2  A    between atoms: _4  and  _21
REMARK    3  A    between atoms: _6  and  _7
REMARK    4  A    between atoms: _6  and  _21
REMARK    5  A    between atoms: _9  and  _16
REMARK    6  A    between atoms: _10  and  _11
REMARK    7  A    between atoms: _10  and  _16
REMARK    8  A    between atoms: _17  and  _37
REMARK    9  A    between atoms: _19  and  _25
REMARK   10  A    between atoms: _20  and  _24
REMARK   11  A    between atoms: _24  and  _25
REMARK   12  A    between atoms: _27  and  _28
REMARK   13  A    between atoms: _29  and  _30
REMARK   14  A    between atoms: _31  and  _33
REMARK   15  A    between atoms: _33  and  _34
REMARK   16  A    between atoms: _33  and  _35
REMARK   17  A    between atoms: _35  and  _36
REMARK   18  A    between atoms: _35  and  _37
REMARK   19  A    between atoms: _38  and  _40
REMARK                            x       y       z     vdW  Elec       q    Type
REMARK                         _______ _______ _______ _____ _____    ______ ____
ROOT
ATOM      1  C   UNL     1      -2.305  10.009  26.931  0.00  0.00    +0.163 C 
ENDROOT
BRANCH   1   2
ATOM      2  O   UNL     1      -0.964  10.068  26.417  0.00  0.00    -0.388 OA
ATOM      3  H   UNL     1      -0.862   9.424  25.713  0.00  0.00    +0.210 HD
ENDBRANCH   1   2
BRANCH   1   4
ATOM      4  C   UNL     1      -3.246   9.311  25.934  0.00  0.00    +0.175 C 
BRANCH   4   5
ATOM      5  C   UNL     1      -3.969  10.314  25.022  0.00  0.00    +0.176 C 
ATOM      6  O   UNL     1      -4.385  11.442  25.840  0.00  0.00    -0.332 OA
ATOM      7  C   UNL     1      -5.004  12.556  25.115  0.00  0.00    +0.277 C 
ATOM      8  C   UNL     1      -6.199  12.054  24.269  0.00  0.00    +0.110 C 
ATOM      9  C   UNL     1      -5.813  10.834  23.406  0.00  0.00    +0.143 C 
ATOM     10  C   UNL     1      -5.176   9.737  24.259  0.00  0.00    +0.133 C 
BRANCH  10  11
ATOM     11  N   UNL     1      -4.733   8.617  23.414  0.00  0.00    -0.308 N 
ATOM     12  H   UNL     1      -3.956   8.777  22.789  0.00  0.00    +0.149 HD
ATOM     13  C   UNL     1      -5.293   7.404  23.418  0.00  0.00    +0.210 C 
ATOM     14  C   UNL     1      -6.492   7.201  24.362  0.00  0.00    +0.109 C 
ATOM     15  O   UNL     1      -4.891   6.481  22.709  0.00  0.00    -0.276 OA
ENDBRANCH  10  11
BRANCH   7  16
ATOM     16  C   UNL     1      -3.976  13.249  24.196  0.00  0.00    +0.414 C 
ATOM     17  O   UNL     1      -2.774  13.185  24.452  0.00  0.00    -0.240 OA
ATOM     18  O   UNL     1      -4.348  13.870  23.200  0.00  0.00    -0.240 OA
ENDBRANCH   7  16
BRANCH   9  19
ATOM     19  O   UNL     1      -6.976  10.313  22.761  0.00  0.00    -0.390 OA
ATOM     20  H   UNL     1      -7.098   9.395  23.014  0.00  0.00    +0.210 HD
ENDBRANCH   9  19
BRANCH   7  21
ATOM     21  O   UNL     1      -5.502  13.505  26.093  0.00  0.00    -0.343 OA
ATOM     22  C   UNL     1      -5.588  13.000  27.449  0.00  0.00    +0.198 C 
ENDBRANCH   7  21
ENDBRANCH   4   5
BRANCH   4  23
ATOM     23  O   UNL     1      -4.206   8.501  26.641  0.00  0.00    -0.387 OA
ATOM     24  H   UNL     1      -4.200   7.610  26.281  0.00  0.00    +0.210 HD
ENDBRANCH   4  23
ENDBRANCH   1   4
BRANCH   1  25
ATOM     25  C   UNL     1      -2.322   9.259  28.258  0.00  0.00    +0.141 C 
BRANCH  25  28
ATOM     26  C   UNL     1      -4.155   9.726  29.848  0.00  0.00    +0.401 C 
ATOM     27  O   UNL     1      -4.833   8.758  29.496  0.00  0.00    -0.226 OA
ATOM     28  N   UNL     1      -2.971  10.038  29.319  0.00  0.00    -0.279 N 
ATOM     29  H   UNL     1      -2.494  10.857  29.669  0.00  0.00    +0.152 HD
BRANCH  26  30
ATOM     30  O   UNL     1      -4.649  10.581  30.882  0.00  0.00    -0.444 OA
BRANCH  30  31
ATOM     31  C   UNL     1      -3.762  10.536  32.004  0.00  0.00    +0.292 C 
BRANCH  31  33
ATOM     32  N   UNL     1      -1.962  12.220  32.274  0.00  0.00    -0.131 NA
ATOM     33  C   UNL     1      -3.292  11.892  32.343  0.00  0.00    +0.120 A 
ATOM     34  C   UNL     1      -4.005  12.992  32.757  0.00  0.00    +0.139 A 
ATOM     35  N   UNL     1      -3.054  13.949  32.952  0.00  0.00    -0.226 N 
ATOM     36  N   UNL     1      -1.828  13.489  32.638  0.00  0.00    -0.063 NA
BRANCH  35  37
ATOM     37  C   UNL     1      -3.228  15.326  33.382  0.00  0.00    +0.305 C 
BRANCH  37  38
ATOM     38  O   UNL     1      -3.005  16.194  32.274  0.00  0.00    -0.353 OA
BRANCH  38  39
ATOM     39  C   UNL     1      -3.874  17.319  32.303  0.00  0.00    +0.197 C 
BRANCH  39  40
ATOM     40  C   UNL     1      -4.695  17.289  31.042  0.00  0.00    -0.022 A 
ATOM     41  C   UNL     1      -4.962  18.470  30.337  0.00  0.00    +0.006 A 
ATOM     42  C   UNL     1      -5.755  18.447  29.190  0.00  0.00    +0.000 A 
ATOM     43  C   UNL     1      -6.297  17.244  28.740  0.00  0.00    +0.000 A 
ATOM     44  C   UNL     1      -6.049  16.064  29.438  0.00  0.00    +0.000 A 
ATOM     45  C   UNL     1      -5.254  16.086  30.586  0.00  0.00    +0.006 A 
ENDBRANCH  39  40
ENDBRANCH  38  39
ENDBRANCH  37  38
ENDBRANCH  35  37
ENDBRANCH  31  33
ENDBRANCH  30  31
ENDBRANCH  26  30
ENDBRANCH  25  28
ENDBRANCH   1  25
TORSDOF 17
