REMARK VINA RESULT:    -4.502      2.548      4.876
REMARK INTER + INTRA:         -10.923
REMARK INTER:                  -6.487
REMARK INTRA:                  -4.436
REMARK UNBOUND:                -2.869
REMARK  Name = lig_assembled_71.pdb
REMARK  17 active torsions:
REMARK  status: ('A' for Active; 'I' for Inactive)
REMARK    1  A    between atoms: _2  and  _12
REMARK    2  A    between atoms: _7  and  _22
REMARK    3  A    between atoms: _9  and  _10
REMARK    4  A    between atoms: _9  and  _22
REMARK    5  A    between atoms: _12  and  _13
REMARK    6  A    between atoms: _18  and  _38
REMARK    7  A    between atoms: _20  and  _26
REMARK    8  A    between atoms: _21  and  _25
REMARK    9  A    between atoms: _25  and  _26
REMARK   10  A    between atoms: _28  and  _29
REMARK   11  A    between atoms: _30  and  _31
REMARK   12  A    between atoms: _32  and  _34
REMARK   13  A    between atoms: _34  and  _35
REMARK   14  A    between atoms: _34  and  _36
REMARK   15  A    between atoms: _36  and  _37
REMARK   16  A    between atoms: _36  and  _38
REMARK   17  A    between atoms: _39  and  _41
REMARK                            x       y       z     vdW  Elec       q    Type
REMARK                         _______ _______ _______ _____ _____    ______ ____
ROOT
ATOM      1  C   UNL     1      -4.922   8.685  24.919  0.00  0.00    +0.163 C 
ENDROOT
BRANCH   1   2
ATOM      2  O   UNL     1      -4.847   8.096  23.610  0.00  0.00    -0.388 OA
ATOM      3  H   UNL     1      -5.196   8.711  22.961  0.00  0.00    +0.210 HD
ENDBRANCH   1   2
BRANCH   1   4
ATOM      4  C   UNL     1      -5.402   7.650  25.931  0.00  0.00    +0.141 C 
BRANCH   4   7
ATOM      5  C   UNL     1      -3.589   7.105  27.518  0.00  0.00    +0.401 C 
ATOM      6  O   UNL     1      -3.037   6.305  26.759  0.00  0.00    -0.226 OA
ATOM      7  N   UNL     1      -4.702   7.774  27.215  0.00  0.00    -0.279 N 
ATOM      8  H   UNL     1      -5.085   8.402  27.908  0.00  0.00    +0.152 HD
BRANCH   5   9
ATOM      9  O   UNL     1      -3.021   7.343  28.808  0.00  0.00    -0.444 OA
BRANCH   9  10
ATOM     10  C   UNL     1      -4.021   7.154  29.813  0.00  0.00    +0.292 C 
BRANCH  10  12
ATOM     11  N   UNL     1      -5.836   8.816  30.139  0.00  0.00    -0.131 NA
ATOM     12  C   UNL     1      -4.522   8.458  30.289  0.00  0.00    +0.120 A 
ATOM     13  C   UNL     1      -3.850   9.478  30.920  0.00  0.00    +0.137 A 
ATOM     14  N   UNL     1      -4.802  10.435  31.116  0.00  0.00    -0.242 N 
ATOM     15  N   UNL     1      -5.999  10.027  30.657  0.00  0.00    -0.065 NA
BRANCH  14  16
ATOM     16  C   UNL     1      -4.686  11.696  31.821  0.00  0.00    +0.241 C 
BRANCH  16  17
ATOM     17  C   UNL     1      -5.325  12.825  31.055  0.00  0.00    +0.241 C 
ATOM     18  O   UNL     1      -5.865  13.751  31.659  0.00  0.00    -0.273 OA
ATOM     19  N   UNL     1      -5.308  12.670  29.685  0.00  0.00    -0.253 N 
ATOM     20  H   UNL     1      -5.037  11.804  29.246  0.00  0.00    +0.158 HD
ATOM     21  C   UNL     1      -5.822  13.604  28.793  0.00  0.00    +0.221 A 
ATOM     22  N   UNL     1      -5.984  13.168  27.535  0.00  0.00    -0.223 NA
ATOM     23  C   UNL     1      -6.552  14.038  26.672  0.00  0.00    +0.116 A 
ATOM     24  C   UNL     1      -6.928  15.315  27.011  0.00  0.00    +0.039 A 
ATOM     25  C   UNL     1      -6.675  15.674  28.308  0.00  0.00    +0.116 A 
ATOM     26  N   UNL     1      -6.127  14.839  29.204  0.00  0.00    -0.223 NA
ENDBRANCH  16  17
ENDBRANCH  14  16
ENDBRANCH  10  12
ENDBRANCH   9  10
ENDBRANCH   5   9
ENDBRANCH   4   7
ENDBRANCH   1   4
BRANCH   1  27
ATOM     27  C   UNL     1      -5.878   9.891  24.925  0.00  0.00    +0.175 C 
BRANCH  27  28
ATOM     28  C   UNL     1      -5.248  11.131  24.273  0.00  0.00    +0.176 C 
ATOM     29  O   UNL     1      -5.246  10.926  22.833  0.00  0.00    -0.332 OA
ATOM     30  C   UNL     1      -4.773  12.060  22.032  0.00  0.00    +0.277 C 
ATOM     31  C   UNL     1      -3.366  12.504  22.500  0.00  0.00    +0.110 C 
ATOM     32  C   UNL     1      -3.310  12.703  24.029  0.00  0.00    +0.143 C 
ATOM     33  C   UNL     1      -3.827  11.465  24.763  0.00  0.00    +0.133 C 
BRANCH  33  34
ATOM     34  N   UNL     1      -3.851  11.700  26.216  0.00  0.00    -0.308 N 
ATOM     35  H   UNL     1      -4.542  12.341  26.578  0.00  0.00    +0.149 HD
ATOM     36  C   UNL     1      -3.018  11.121  27.085  0.00  0.00    +0.210 C 
ATOM     37  C   UNL     1      -1.959  10.170  26.498  0.00  0.00    +0.109 C 
ATOM     38  O   UNL     1      -3.071  11.325  28.299  0.00  0.00    -0.276 OA
ENDBRANCH  33  34
BRANCH  30  39
ATOM     39  C   UNL     1      -5.751  13.249  22.138  0.00  0.00    +0.414 C 
ATOM     40  O   UNL     1      -5.331  14.404  22.079  0.00  0.00    -0.240 OA
ATOM     41  O   UNL     1      -6.958  13.054  22.284  0.00  0.00    -0.240 OA
ENDBRANCH  30  39
BRANCH  30  42
ATOM     42  O   UNL     1      -4.681  11.626  20.651  0.00  0.00    -0.343 OA
ATOM     43  C   UNL     1      -4.779  10.193  20.451  0.00  0.00    +0.198 C 
ENDBRANCH  30  42
BRANCH  32  44
ATOM     44  O   UNL     1      -1.965  12.963  24.433  0.00  0.00    -0.390 OA
ATOM     45  H   UNL     1      -1.946  13.173  25.369  0.00  0.00    +0.210 HD
ENDBRANCH  32  44
ENDBRANCH  27  28
BRANCH  27  46
ATOM     46  O   UNL     1      -6.287  10.194  26.273  0.00  0.00    -0.387 OA
ATOM     47  H   UNL     1      -7.000  10.836  26.255  0.00  0.00    +0.210 HD
ENDBRANCH  27  46
ENDBRANCH   1  27
TORSDOF 15
