REMARK VINA RESULT:    -4.536      3.654      7.849
REMARK INTER + INTRA:         -10.349
REMARK INTER:                  -6.850
REMARK INTRA:                  -3.499
REMARK UNBOUND:                -2.233
REMARK  Name = lig_assembled_61.pdb
REMARK  17 active torsions:
REMARK  status: ('A' for Active; 'I' for Inactive)
REMARK    1  A    between atoms: _2  and  _9
REMARK    2  A    between atoms: _4  and  _17
REMARK    3  A    between atoms: _6  and  _7
REMARK    4  A    between atoms: _6  and  _17
REMARK    5  A    between atoms: _9  and  _10
REMARK    6  A    between atoms: _13  and  _33
REMARK    7  A    between atoms: _15  and  _21
REMARK    8  A    between atoms: _16  and  _20
REMARK    9  A    between atoms: _20  and  _21
REMARK   10  A    between atoms: _23  and  _24
REMARK   11  A    between atoms: _25  and  _26
REMARK   12  A    between atoms: _27  and  _29
REMARK   13  A    between atoms: _29  and  _30
REMARK   14  A    between atoms: _29  and  _31
REMARK   15  A    between atoms: _31  and  _32
REMARK   16  A    between atoms: _31  and  _33
REMARK   17  A    between atoms: _34  and  _36
REMARK                            x       y       z     vdW  Elec       q    Type
REMARK                         _______ _______ _______ _____ _____    ______ ____
ROOT
ATOM      1  C   UNL     1      -2.842  11.998  23.989  0.00  0.00    +0.163 C 
ENDROOT
BRANCH   1   2
ATOM      2  O   UNL     1      -2.159  11.771  25.233  0.00  0.00    -0.388 OA
ATOM      3  H   UNL     1      -1.415  12.374  25.305  0.00  0.00    +0.210 HD
ENDBRANCH   1   2
BRANCH   1   4
ATOM      4  C   UNL     1      -3.708  13.249  24.091  0.00  0.00    +0.141 C 
BRANCH   4   7
ATOM      5  C   UNL     1      -5.806  13.116  25.389  0.00  0.00    +0.401 C 
ATOM      6  O   UNL     1      -6.518  12.937  24.398  0.00  0.00    -0.226 OA
ATOM      7  N   UNL     1      -4.484  13.278  25.337  0.00  0.00    -0.279 N 
ATOM      8  H   UNL     1      -3.987  13.430  26.204  0.00  0.00    +0.152 HD
BRANCH   5   9
ATOM      9  O   UNL     1      -6.414  13.162  26.682  0.00  0.00    -0.444 OA
BRANCH   9  10
ATOM     10  C   UNL     1      -6.251  11.898  27.331  0.00  0.00    +0.292 C 
BRANCH  10  12
ATOM     11  N   UNL     1      -4.285  12.734  28.581  0.00  0.00    -0.131 NA
ATOM     12  C   UNL     1      -5.476  12.054  28.576  0.00  0.00    +0.120 A 
ATOM     13  C   UNL     1      -5.747  11.607  29.851  0.00  0.00    +0.137 A 
ATOM     14  N   UNL     1      -4.656  11.996  30.572  0.00  0.00    -0.247 N 
ATOM     15  N   UNL     1      -3.800  12.708  29.816  0.00  0.00    -0.065 NA
BRANCH  14  16
ATOM     16  C   UNL     1      -4.377  11.762  31.977  0.00  0.00    +0.180 C 
BRANCH  16  17
ATOM     17  C   UNL     1      -4.365  10.296  32.308  0.00  0.00    -0.019 A 
ATOM     18  C   UNL     1      -3.325   9.382  31.925  0.00  0.00    +0.013 A 
ATOM     19  C   UNL     1      -3.579   8.087  32.321  0.00  0.00    +0.045 A 
ATOM     20  S   UNL     1      -5.056   7.953  33.165  0.00  0.00    -0.105 S 
ATOM     21  C   UNL     1      -5.366   9.625  32.993  0.00  0.00    +0.050 A 
ENDBRANCH  16  17
ENDBRANCH  14  16
ENDBRANCH  10  12
ENDBRANCH   9  10
ENDBRANCH   5   9
ENDBRANCH   4   7
ENDBRANCH   1   4
BRANCH   1  22
ATOM     22  C   UNL     1      -3.722  10.793  23.616  0.00  0.00    +0.175 C 
BRANCH  22  23
ATOM     23  C   UNL     1      -4.051   9.918  24.835  0.00  0.00    +0.176 C 
ATOM     24  O   UNL     1      -2.872   9.126  25.148  0.00  0.00    -0.332 OA
ATOM     25  C   UNL     1      -2.966   8.302  26.357  0.00  0.00    +0.277 C 
ATOM     26  C   UNL     1      -4.211   7.384  26.291  0.00  0.00    +0.110 C 
ATOM     27  C   UNL     1      -5.484   8.177  25.929  0.00  0.00    +0.143 C 
ATOM     28  C   UNL     1      -5.275   9.001  24.658  0.00  0.00    +0.133 C 
BRANCH  28  29
ATOM     29  N   UNL     1      -6.465   9.818  24.373  0.00  0.00    -0.308 N 
ATOM     30  H   UNL     1      -6.738  10.509  25.058  0.00  0.00    +0.149 HD
ATOM     31  C   UNL     1      -7.206   9.708  23.267  0.00  0.00    +0.210 C 
ATOM     32  C   UNL     1      -6.779   8.629  22.255  0.00  0.00    +0.109 C 
ATOM     33  O   UNL     1      -8.189  10.416  23.048  0.00  0.00    -0.276 OA
ENDBRANCH  28  29
BRANCH  25  34
ATOM     34  C   UNL     1      -3.044   9.187  27.618  0.00  0.00    +0.414 C 
ATOM     35  O   UNL     1      -2.379  10.219  27.693  0.00  0.00    -0.240 OA
ATOM     36  O   UNL     1      -3.771   8.869  28.560  0.00  0.00    -0.240 OA
ENDBRANCH  25  34
BRANCH  25  37
ATOM     37  O   UNL     1      -1.783   7.464  26.421  0.00  0.00    -0.343 OA
ATOM     38  C   UNL     1      -2.045   6.042  26.534  0.00  0.00    +0.198 C 
ENDBRANCH  25  37
BRANCH  27  39
ATOM     39  O   UNL     1      -6.574   7.274  25.731  0.00  0.00    -0.390 OA
ATOM     40  H   UNL     1      -6.374   6.687  24.998  0.00  0.00    +0.210 HD
ENDBRANCH  27  39
ENDBRANCH  22  23
BRANCH  22  41
ATOM     41  O   UNL     1      -3.076  10.003  22.598  0.00  0.00    -0.387 OA
ATOM     42  H   UNL     1      -3.242  10.393  21.736  0.00  0.00    +0.210 HD
ENDBRANCH  22  41
ENDBRANCH   1  22
TORSDOF 15
