REMARK VINA RESULT:    -5.047      3.627      7.352
REMARK INTER + INTRA:         -12.108
REMARK INTER:                  -9.410
REMARK INTRA:                  -2.699
REMARK UNBOUND:                -3.373
REMARK  Name = lig_assembled_27.pdb
REMARK  16 active torsions:
REMARK  status: ('A' for Active; 'I' for Inactive)
REMARK    1  A    between atoms: _2  and  _9
REMARK    2  A    between atoms: _4  and  _18
REMARK    3  A    between atoms: _6  and  _7
REMARK    4  A    between atoms: _6  and  _18
REMARK    5  A    between atoms: _14  and  _34
REMARK    6  A    between atoms: _16  and  _22
REMARK    7  A    between atoms: _17  and  _21
REMARK    8  A    between atoms: _21  and  _22
REMARK    9  A    between atoms: _24  and  _25
REMARK   10  A    between atoms: _26  and  _27
REMARK   11  A    between atoms: _28  and  _30
REMARK   12  A    between atoms: _30  and  _31
REMARK   13  A    between atoms: _30  and  _32
REMARK   14  A    between atoms: _32  and  _33
REMARK   15  A    between atoms: _32  and  _34
REMARK   16  A    between atoms: _35  and  _37
REMARK                            x       y       z     vdW  Elec       q    Type
REMARK                         _______ _______ _______ _____ _____    ______ ____
ROOT
ATOM      1  C   UNL     1      -2.287   9.676  26.996  0.00  0.00    +0.163 C 
ENDROOT
BRANCH   1   2
ATOM      2  O   UNL     1      -1.130   9.893  26.172  0.00  0.00    -0.388 OA
ATOM      3  H   UNL     1      -1.408  10.178  25.297  0.00  0.00    +0.210 HD
ENDBRANCH   1   2
BRANCH   1   4
ATOM      4  C   UNL     1      -1.859   9.223  28.387  0.00  0.00    +0.141 C 
BRANCH   4   7
ATOM      5  C   UNL     1      -3.339   9.505  30.345  0.00  0.00    +0.401 C 
ATOM      6  O   UNL     1      -3.673   8.319  30.383  0.00  0.00    -0.226 OA
ATOM      7  N   UNL     1      -2.501  10.016  29.443  0.00  0.00    -0.279 N 
ATOM      8  H   UNL     1      -2.295  11.004  29.488  0.00  0.00    +0.152 HD
BRANCH   5   9
ATOM      9  O   UNL     1      -3.874  10.408  31.317  0.00  0.00    -0.444 OA
BRANCH   9  10
ATOM     10  C   UNL     1      -2.816  10.908  32.139  0.00  0.00    +0.292 C 
BRANCH  10  12
ATOM     11  N   UNL     1      -1.688  13.080  32.499  0.00  0.00    -0.131 NA
ATOM     12  C   UNL     1      -2.793  12.382  32.106  0.00  0.00    +0.121 A 
ATOM     13  C   UNL     1      -3.767  13.268  31.712  0.00  0.00    +0.143 A 
ATOM     14  N   UNL     1      -3.205  14.514  31.874  0.00  0.00    -0.220 N 
ATOM     15  N   UNL     1      -1.946  14.374  32.358  0.00  0.00    -0.060 NA
BRANCH  14  16
ATOM     16  C   UNL     1      -3.771  15.787  31.608  0.00  0.00    +0.068 A 
ATOM     17  C   UNL     1      -3.598  16.832  32.530  0.00  0.00    +0.028 A 
ATOM     18  C   UNL     1      -4.154  18.089  32.280  0.00  0.00    +0.003 A 
ATOM     19  C   UNL     1      -4.884  18.311  31.114  0.00  0.00    +0.020 A 
ATOM     20  C   UNL     1      -5.054  17.276  30.198  0.00  0.00    +0.043 A 
ATOM     21 CL   UNL     1      -5.955  17.551  28.757  0.00  0.00    -0.083 Cl
ATOM     22  C   UNL     1      -4.503  16.015  30.435  0.00  0.00    +0.047 A 
ENDBRANCH  14  16
ENDBRANCH  10  12
ENDBRANCH   9  10
ENDBRANCH   5   9
ENDBRANCH   4   7
ENDBRANCH   1   4
BRANCH   1  23
ATOM     23  C   UNL     1      -3.215   8.619  26.373  0.00  0.00    +0.175 C 
BRANCH  23  24
ATOM     24  C   UNL     1      -4.086   9.202  25.251  0.00  0.00    +0.176 C 
ATOM     25  O   UNL     1      -3.227   9.452  24.104  0.00  0.00    -0.332 OA
ATOM     26  C   UNL     1      -3.909   9.916  22.891  0.00  0.00    +0.277 C 
ATOM     27  C   UNL     1      -4.757  11.175  23.195  0.00  0.00    +0.110 C 
ATOM     28  C   UNL     1      -5.663  10.968  24.427  0.00  0.00    +0.143 C 
ATOM     29  C   UNL     1      -4.852  10.483  25.629  0.00  0.00    +0.133 C 
BRANCH  29  30
ATOM     30  N   UNL     1      -5.738  10.206  26.771  0.00  0.00    -0.308 N 
ATOM     31  H   UNL     1      -6.354   9.408  26.707  0.00  0.00    +0.149 HD
ATOM     32  C   UNL     1      -5.782  10.941  27.886  0.00  0.00    +0.210 C 
ATOM     33  C   UNL     1      -4.849  12.165  27.941  0.00  0.00    +0.109 C 
ATOM     34  O   UNL     1      -6.524  10.676  28.832  0.00  0.00    -0.276 OA
ENDBRANCH  29  30
BRANCH  26  35
ATOM     35  C   UNL     1      -4.817   8.809  22.317  0.00  0.00    +0.414 C 
ATOM     36  O   UNL     1      -4.451   7.634  22.336  0.00  0.00    -0.240 OA
ATOM     37  O   UNL     1      -5.916   9.090  21.836  0.00  0.00    -0.240 OA
ENDBRANCH  26  35
BRANCH  28  38
ATOM     38  O   UNL     1      -6.310  12.197  24.761  0.00  0.00    -0.390 OA
ATOM     39  H   UNL     1      -7.261  12.090  24.682  0.00  0.00    +0.210 HD
ENDBRANCH  28  38
BRANCH  26  40
ATOM     40  O   UNL     1      -2.896  10.271  21.915  0.00  0.00    -0.343 OA
ATOM     41  C   UNL     1      -3.154  11.496  21.183  0.00  0.00    +0.198 C 
ENDBRANCH  26  40
ENDBRANCH  23  24
BRANCH  23  42
ATOM     42  O   UNL     1      -4.048   8.028  27.391  0.00  0.00    -0.387 OA
ATOM     43  H   UNL     1      -3.872   8.452  28.235  0.00  0.00    +0.210 HD
ENDBRANCH  23  42
ENDBRANCH   1  23
TORSDOF 14
