REMARK VINA RESULT:    -4.016      8.743     12.865
REMARK INTER + INTRA:         -10.808
REMARK INTER:                  -6.839
REMARK INTRA:                  -3.969
REMARK UNBOUND:                -3.505
REMARK  Name = lig_assembled_22.pdb
REMARK  20 active torsions:
REMARK  status: ('A' for Active; 'I' for Inactive)
REMARK    1  A    between atoms: _2  and  _9
REMARK    2  A    between atoms: _4  and  _18
REMARK    3  A    between atoms: _5  and  _9
REMARK    4  A    between atoms: _5  and  _12
REMARK    5  A    between atoms: _6  and  _7
REMARK    6  A    between atoms: _6  and  _18
REMARK    7  A    between atoms: _9  and  _10
REMARK    8  A    between atoms: _9  and  _11
REMARK    9  A    between atoms: _14  and  _34
REMARK   10  A    between atoms: _16  and  _22
REMARK   11  A    between atoms: _17  and  _21
REMARK   12  A    between atoms: _21  and  _22
REMARK   13  A    between atoms: _24  and  _25
REMARK   14  A    between atoms: _26  and  _27
REMARK   15  A    between atoms: _28  and  _30
REMARK   16  A    between atoms: _30  and  _31
REMARK   17  A    between atoms: _30  and  _32
REMARK   18  A    between atoms: _32  and  _33
REMARK   19  A    between atoms: _32  and  _34
REMARK   20  A    between atoms: _35  and  _37
REMARK                            x       y       z     vdW  Elec       q    Type
REMARK                         _______ _______ _______ _____ _____    ______ ____
ROOT
ATOM      1  C   UNL     1      -2.389   7.994  15.617  0.00  0.00    +0.163 C 
ENDROOT
BRANCH   1   2
ATOM      2  O   UNL     1      -2.106   9.382  15.380  0.00  0.00    -0.388 OA
ATOM      3  H   UNL     1      -2.012   9.839  16.219  0.00  0.00    +0.210 HD
ENDBRANCH   1   2
BRANCH   1   4
ATOM      4  C   UNL     1      -2.019   7.168  14.390  0.00  0.00    +0.141 C 
BRANCH   4   7
ATOM      5  C   UNL     1      -3.007   7.880  12.239  0.00  0.00    +0.401 C 
ATOM      6  O   UNL     1      -3.964   7.106  12.315  0.00  0.00    -0.226 OA
ATOM      7  N   UNL     1      -2.047   7.971  13.161  0.00  0.00    -0.279 N 
ATOM      8  H   UNL     1      -1.297   8.630  13.005  0.00  0.00    +0.152 HD
BRANCH   5   9
ATOM      9  O   UNL     1      -2.896   8.739  11.101  0.00  0.00    -0.444 OA
BRANCH   9  10
ATOM     10  C   UNL     1      -3.882   9.771  11.184  0.00  0.00    +0.292 C 
BRANCH  10  12
ATOM     11  N   UNL     1      -2.010  11.127  12.051  0.00  0.00    -0.131 NA
ATOM     12  C   UNL     1      -3.240  11.070  11.460  0.00  0.00    +0.120 A 
ATOM     13  C   UNL     1      -3.681  12.353  11.216  0.00  0.00    +0.138 A 
ATOM     14  N   UNL     1      -2.673  13.149  11.682  0.00  0.00    -0.235 N 
ATOM     15  N   UNL     1      -1.674  12.399  12.186  0.00  0.00    -0.064 NA
BRANCH  14  16
ATOM     16  C   UNL     1      -2.581  14.610  11.712  0.00  0.00    +0.155 C 
ATOM     17  C   UNL     1      -3.925  15.285  11.361  0.00  0.00    +0.048 C 
ATOM     18  C   UNL     1      -1.528  15.059  10.682  0.00  0.00    +0.048 C 
BRANCH  16  19
ATOM     19  C   UNL     1      -2.174  15.090  13.107  0.00  0.00    +0.332 C 
ATOM     20  O   UNL     1      -1.456  16.061  13.319  0.00  0.00    -0.248 OA
BRANCH  19  21
ATOM     21  O   UNL     1      -2.666  14.360  14.138  0.00  0.00    -0.479 OA
ATOM     22  H   UNL     1      -2.807  14.836  14.979  0.00  0.00    +0.295 HD
ENDBRANCH  19  21
ENDBRANCH  16  19
ENDBRANCH  14  16
ENDBRANCH  10  12
ENDBRANCH   9  10
ENDBRANCH   5   9
ENDBRANCH   4   7
ENDBRANCH   1   4
BRANCH   1  23
ATOM     23  C   UNL     1      -3.877   7.785  15.948  0.00  0.00    +0.175 C 
BRANCH  23  24
ATOM     24  C   UNL     1      -4.727   9.013  15.589  0.00  0.00    +0.176 C 
ATOM     25  O   UNL     1      -4.646   9.952  16.696  0.00  0.00    -0.332 OA
ATOM     26  C   UNL     1      -5.315  11.239  16.486  0.00  0.00    +0.277 C 
ATOM     27  C   UNL     1      -6.796  11.021  16.092  0.00  0.00    +0.110 C 
ATOM     28  C   UNL     1      -6.935  10.005  14.939  0.00  0.00    +0.143 C 
ATOM     29  C   UNL     1      -6.200   8.704  15.262  0.00  0.00    +0.133 C 
BRANCH  29  30
ATOM     30  N   UNL     1      -6.266   7.778  14.121  0.00  0.00    -0.308 N 
ATOM     31  H   UNL     1      -5.830   8.063  13.256  0.00  0.00    +0.149 HD
ATOM     32  C   UNL     1      -6.866   6.584  14.154  0.00  0.00    +0.210 C 
ATOM     33  C   UNL     1      -7.544   6.190  15.479  0.00  0.00    +0.109 C 
ATOM     34  O   UNL     1      -6.893   5.823  13.187  0.00  0.00    -0.276 OA
ENDBRANCH  29  30
BRANCH  26  35
ATOM     35  C   UNL     1      -4.603  12.052  15.384  0.00  0.00    +0.414 C 
ATOM     36  O   UNL     1      -3.450  11.775  15.056  0.00  0.00    -0.240 OA
ATOM     37  O   UNL     1      -5.181  12.985  14.825  0.00  0.00    -0.240 OA
ENDBRANCH  26  35
BRANCH  26  38
ATOM     38  O   UNL     1      -5.277  11.974  17.736  0.00  0.00    -0.343 OA
ATOM     39  C   UNL     1      -4.717  11.246  18.858  0.00  0.00    +0.198 C 
ENDBRANCH  26  38
BRANCH  28  40
ATOM     40  O   UNL     1      -8.316   9.721  14.712  0.00  0.00    -0.390 OA
ATOM     41  H   UNL     1      -8.486   9.690  13.767  0.00  0.00    +0.210 HD
ENDBRANCH  28  40
ENDBRANCH  23  24
BRANCH  23  42
ATOM     42  O   UNL     1      -4.035   7.462  17.344  0.00  0.00    -0.387 OA
ATOM     43  H   UNL     1      -3.300   6.917  17.632  0.00  0.00    +0.210 HD
ENDBRANCH  23  42
ENDBRANCH   1  23
TORSDOF 16
