REMARK VINA RESULT:    -4.730      6.914      9.292
REMARK INTER + INTRA:         -11.491
REMARK INTER:                  -8.691
REMARK INTRA:                  -2.800
REMARK UNBOUND:                -2.890
REMARK  Name = lig_assembled_73.pdb
REMARK  18 active torsions:
REMARK  status: ('A' for Active; 'I' for Inactive)
REMARK    1  A    between atoms: _2  and  _10
REMARK    2  A    between atoms: _3  and  _14
REMARK    3  A    between atoms: _5  and  _22
REMARK    4  A    between atoms: _7  and  _8
REMARK    5  A    between atoms: _7  and  _22
REMARK    6  A    between atoms: _13  and  _16
REMARK    7  A    between atoms: _18  and  _38
REMARK    8  A    between atoms: _20  and  _26
REMARK    9  A    between atoms: _21  and  _25
REMARK   10  A    between atoms: _25  and  _26
REMARK   11  A    between atoms: _28  and  _29
REMARK   12  A    between atoms: _30  and  _31
REMARK   13  A    between atoms: _32  and  _34
REMARK   14  A    between atoms: _34  and  _35
REMARK   15  A    between atoms: _34  and  _36
REMARK   16  A    between atoms: _36  and  _37
REMARK   17  A    between atoms: _36  and  _38
REMARK   18  A    between atoms: _39  and  _41
REMARK                            x       y       z     vdW  Elec       q    Type
REMARK                         _______ _______ _______ _____ _____    ______ ____
ROOT
ATOM      1  C   UNL     1      -5.618  11.503  13.796  0.00  0.00    +0.163 C 
ENDROOT
BRANCH   1   2
ATOM      2  O   UNL     1      -4.198  11.648  13.631  0.00  0.00    -0.388 OA
ATOM      3  H   UNL     1      -3.975  12.581  13.580  0.00  0.00    +0.210 HD
ENDBRANCH   1   2
BRANCH   1   4
ATOM      4  C   UNL     1      -5.986  10.048  14.135  0.00  0.00    +0.175 C 
BRANCH   4   5
ATOM      5  C   UNL     1      -4.745   9.155  14.274  0.00  0.00    +0.176 C 
ATOM      6  O   UNL     1      -4.318   8.770  12.939  0.00  0.00    -0.332 OA
ATOM      7  C   UNL     1      -3.075   7.996  12.869  0.00  0.00    +0.277 C 
ATOM      8  C   UNL     1      -3.168   6.741  13.770  0.00  0.00    +0.110 C 
ATOM      9  C   UNL     1      -3.649   7.096  15.193  0.00  0.00    +0.143 C 
ATOM     10  C   UNL     1      -4.947   7.903  15.148  0.00  0.00    +0.133 C 
BRANCH  10  11
ATOM     11  N   UNL     1      -5.348   8.309  16.504  0.00  0.00    -0.308 N 
ATOM     12  H   UNL     1      -4.706   8.882  17.034  0.00  0.00    +0.149 HD
ATOM     13  C   UNL     1      -6.505   7.971  17.080  0.00  0.00    +0.210 C 
ATOM     14  C   UNL     1      -7.450   7.077  16.256  0.00  0.00    +0.109 C 
ATOM     15  O   UNL     1      -6.821   8.339  18.212  0.00  0.00    -0.276 OA
ENDBRANCH  10  11
BRANCH   7  16
ATOM     16  C   UNL     1      -1.870   8.855  13.304  0.00  0.00    +0.414 C 
ATOM     17  O   UNL     1      -1.937  10.083  13.263  0.00  0.00    -0.240 OA
ATOM     18  O   UNL     1      -0.832   8.321  13.696  0.00  0.00    -0.240 OA
ENDBRANCH   7  16
BRANCH   9  19
ATOM     19  O   UNL     1      -3.865   5.899  15.941  0.00  0.00    -0.390 OA
ATOM     20  H   UNL     1      -3.042   5.409  16.007  0.00  0.00    +0.210 HD
ENDBRANCH   9  19
BRANCH   7  21
ATOM     21  O   UNL     1      -2.895   7.561  11.496  0.00  0.00    -0.343 OA
ATOM     22  C   UNL     1      -2.757   6.128  11.321  0.00  0.00    +0.198 C 
ENDBRANCH   7  21
ENDBRANCH   4   5
BRANCH   4  23
ATOM     23  O   UNL     1      -6.873   9.514  13.131  0.00  0.00    -0.387 OA
ATOM     24  H   UNL     1      -6.366   9.272  12.352  0.00  0.00    +0.210 HD
ENDBRANCH   4  23
ENDBRANCH   1   4
BRANCH   1  25
ATOM     25  C   UNL     1      -6.112  12.426  14.905  0.00  0.00    +0.141 C 
BRANCH  25  28
ATOM     26  C   UNL     1      -4.937  11.780  16.981  0.00  0.00    +0.401 C 
ATOM     27  O   UNL     1      -3.869  12.300  16.650  0.00  0.00    -0.226 OA
ATOM     28  N   UNL     1      -6.035  11.786  16.224  0.00  0.00    -0.279 N 
ATOM     29  H   UNL     1      -6.861  11.324  16.578  0.00  0.00    +0.152 HD
BRANCH  26  30
ATOM     30  O   UNL     1      -5.026  11.121  18.247  0.00  0.00    -0.444 OA
BRANCH  30  31
ATOM     31  C   UNL     1      -5.362  12.074  19.259  0.00  0.00    +0.292 C 
BRANCH  31  33
ATOM     32  N   UNL     1      -3.883  10.645  20.636  0.00  0.00    -0.131 NA
ATOM     33  C   UNL     1      -4.763  11.685  20.549  0.00  0.00    +0.121 A 
ATOM     34  C   UNL     1      -4.941  12.227  21.800  0.00  0.00    +0.143 A 
ATOM     35  N   UNL     1      -4.135  11.483  22.629  0.00  0.00    -0.220 N 
ATOM     36  N   UNL     1      -3.506  10.529  21.901  0.00  0.00    -0.060 NA
BRANCH  35  37
ATOM     37  C   UNL     1      -3.934  11.612  24.028  0.00  0.00    +0.074 A 
ATOM     38  C   UNL     1      -4.528  12.682  24.722  0.00  0.00    +0.032 A 
ATOM     39  C   UNL     1      -4.336  12.835  26.102  0.00  0.00    +0.054 A 
ATOM     40  C   UNL     1      -3.548  11.924  26.801  0.00  0.00    +0.195 A 
ATOM     41  C   UNL     1      -2.963  10.864  26.108  0.00  0.00    +0.316 A 
ATOM     42  C   UNL     1      -3.149  10.689  24.730  0.00  0.00    +0.116 A 
BRANCH  41  43
ATOM     43  N   UNL     1      -2.130   9.905  26.806  0.00  0.00    +0.083 N 
ATOM     44  O   UNL     1      -1.002   9.686  26.346  0.00  0.00    +0.042 OA
ATOM     45  O   UNL     1      -2.650   9.307  27.759  0.00  0.00    -0.576 OA
ENDBRANCH  41  43
BRANCH  40  46
ATOM     46  O   UNL     1      -3.380  12.061  28.146  0.00  0.00    -0.501 OA
ATOM     47  H   UNL     1      -2.513  11.708  28.412  0.00  0.00    +0.292 HD
ENDBRANCH  40  46
ENDBRANCH  35  37
ENDBRANCH  31  33
ENDBRANCH  30  31
ENDBRANCH  26  30
ENDBRANCH  25  28
ENDBRANCH   1  25
TORSDOF 16
