REMARK VINA RESULT:    -4.788      4.171      9.471
REMARK INTER + INTRA:         -11.284
REMARK INTER:                  -8.986
REMARK INTRA:                  -2.298
REMARK UNBOUND:                -2.997
REMARK  Name = lig_assembled_15.pdb
REMARK  16 active torsions:
REMARK  status: ('A' for Active; 'I' for Inactive)
REMARK    1  A    between atoms: _2  and  _9
REMARK    2  A    between atoms: _4  and  _18
REMARK    3  A    between atoms: _6  and  _7
REMARK    4  A    between atoms: _6  and  _18
REMARK    5  A    between atoms: _14  and  _34
REMARK    6  A    between atoms: _16  and  _22
REMARK    7  A    between atoms: _17  and  _21
REMARK    8  A    between atoms: _21  and  _22
REMARK    9  A    between atoms: _24  and  _25
REMARK   10  A    between atoms: _26  and  _27
REMARK   11  A    between atoms: _28  and  _30
REMARK   12  A    between atoms: _30  and  _31
REMARK   13  A    between atoms: _30  and  _32
REMARK   14  A    between atoms: _32  and  _33
REMARK   15  A    between atoms: _32  and  _34
REMARK   16  A    between atoms: _35  and  _37
REMARK                            x       y       z     vdW  Elec       q    Type
REMARK                         _______ _______ _______ _____ _____    ______ ____
ROOT
ATOM      1  C   UNL     1      -3.221  11.801  25.096  0.00  0.00    +0.163 C 
ENDROOT
BRANCH   1   2
ATOM      2  O   UNL     1      -2.011  11.033  24.991  0.00  0.00    -0.388 OA
ATOM      3  H   UNL     1      -1.459  11.398  24.296  0.00  0.00    +0.210 HD
ENDBRANCH   1   2
BRANCH   1   4
ATOM      4  C   UNL     1      -3.056  13.136  24.377  0.00  0.00    +0.141 C 
BRANCH   4   7
ATOM      5  C   UNL     1      -5.127  13.466  23.071  0.00  0.00    +0.401 C 
ATOM      6  O   UNL     1      -5.824  13.705  24.060  0.00  0.00    -0.226 OA
ATOM      7  N   UNL     1      -3.825  13.183  23.127  0.00  0.00    -0.279 N 
ATOM      8  H   UNL     1      -3.341  12.991  22.262  0.00  0.00    +0.152 HD
BRANCH   5   9
ATOM      9  O   UNL     1      -5.731  13.482  21.775  0.00  0.00    -0.444 OA
BRANCH   9  10
ATOM     10  C   UNL     1      -6.329  12.211  21.510  0.00  0.00    +0.292 C 
BRANCH  10  12
ATOM     11  N   UNL     1      -5.364  10.250  20.349  0.00  0.00    -0.131 NA
ATOM     12  C   UNL     1      -5.686  11.576  20.343  0.00  0.00    +0.121 A 
ATOM     13  C   UNL     1      -5.325  12.121  19.132  0.00  0.00    +0.143 A 
ATOM     14  N   UNL     1      -4.806  11.070  18.411  0.00  0.00    -0.220 N 
ATOM     15  N   UNL     1      -4.824   9.952  19.175  0.00  0.00    -0.060 NA
BRANCH  14  16
ATOM     16  C   UNL     1      -4.336  11.060  17.071  0.00  0.00    +0.067 A 
ATOM     17  C   UNL     1      -4.166  12.255  16.358  0.00  0.00    +0.029 A 
ATOM     18  C   UNL     1      -3.742  12.222  15.025  0.00  0.00    +0.017 A 
ATOM     19  C   UNL     1      -3.483  11.000  14.408  0.00  0.00    +0.018 A 
ATOM     20 BR   UNL     1      -2.935  10.964  12.599  0.00  0.00    -0.050 Br
ATOM     21  C   UNL     1      -3.633   9.807  15.111  0.00  0.00    +0.017 A 
ATOM     22  C   UNL     1      -4.057   9.835  16.443  0.00  0.00    +0.029 A 
ENDBRANCH  14  16
ENDBRANCH  10  12
ENDBRANCH   9  10
ENDBRANCH   5   9
ENDBRANCH   4   7
ENDBRANCH   1   4
BRANCH   1  23
ATOM     23  C   UNL     1      -3.587  12.053  26.569  0.00  0.00    +0.175 C 
BRANCH  23  24
ATOM     24  C   UNL     1      -3.338  10.817  27.445  0.00  0.00    +0.176 C 
ATOM     25  O   UNL     1      -3.952   9.673  26.790  0.00  0.00    -0.332 OA
ATOM     26  C   UNL     1      -3.724   8.376  27.435  0.00  0.00    +0.277 C 
ATOM     27  C   UNL     1      -4.161   8.425  28.919  0.00  0.00    +0.110 C 
ATOM     28  C   UNL     1      -3.559   9.643  29.650  0.00  0.00    +0.143 C 
ATOM     29  C   UNL     1      -3.853  10.938  28.892  0.00  0.00    +0.133 C 
BRANCH  29  30
ATOM     30  N   UNL     1      -3.200  12.081  29.551  0.00  0.00    -0.308 N 
ATOM     31  H   UNL     1      -2.190  12.101  29.568  0.00  0.00    +0.149 HD
ATOM     32  C   UNL     1      -3.855  13.092  30.128  0.00  0.00    +0.210 C 
ATOM     33  C   UNL     1      -5.394  13.017  30.108  0.00  0.00    +0.109 C 
ATOM     34  O   UNL     1      -3.282  14.043  30.660  0.00  0.00    -0.276 OA
ENDBRANCH  29  30
BRANCH  26  35
ATOM     35  C   UNL     1      -2.237   7.975  27.348  0.00  0.00    +0.414 C 
ATOM     36  O   UNL     1      -1.572   8.269  26.355  0.00  0.00    -0.240 OA
ATOM     37  O   UNL     1      -1.701   7.360  28.271  0.00  0.00    -0.240 OA
ENDBRANCH  26  35
BRANCH  28  38
ATOM     38  O   UNL     1      -4.105   9.734  30.966  0.00  0.00    -0.390 OA
ATOM     39  H   UNL     1      -4.153   8.858  31.355  0.00  0.00    +0.210 HD
ENDBRANCH  28  38
BRANCH  26  40
ATOM     40  O   UNL     1      -4.537   7.386  26.751  0.00  0.00    -0.343 OA
ATOM     41  C   UNL     1      -4.950   7.754  25.411  0.00  0.00    +0.198 C 
ENDBRANCH  26  40
ENDBRANCH  23  24
BRANCH  23  42
ATOM     42  O   UNL     1      -4.964  12.468  26.675  0.00  0.00    -0.387 OA
ATOM     43  H   UNL     1      -5.063  13.346  26.300  0.00  0.00    +0.210 HD
ENDBRANCH  23  42
ENDBRANCH   1  23
TORSDOF 14
