REMARK VINA RESULT:    -4.842      8.330     12.825
REMARK INTER + INTRA:         -12.245
REMARK INTER:                  -7.603
REMARK INTRA:                  -4.643
REMARK UNBOUND:                -3.157
REMARK  Name = lig_assembled_64.pdb
REMARK  19 active torsions:
REMARK  status: ('A' for Active; 'I' for Inactive)
REMARK    1  A    between atoms: _2  and  _10
REMARK    2  A    between atoms: _5  and  _27
REMARK    3  A    between atoms: _7  and  _8
REMARK    4  A    between atoms: _7  and  _27
REMARK    5  A    between atoms: _12  and  _13
REMARK    6  A    between atoms: _13  and  _21
REMARK    7  A    between atoms: _14  and  _15
REMARK    8  A    between atoms: _23  and  _43
REMARK    9  A    between atoms: _25  and  _31
REMARK   10  A    between atoms: _26  and  _30
REMARK   11  A    between atoms: _30  and  _31
REMARK   12  A    between atoms: _33  and  _34
REMARK   13  A    between atoms: _35  and  _36
REMARK   14  A    between atoms: _37  and  _39
REMARK   15  A    between atoms: _39  and  _40
REMARK   16  A    between atoms: _39  and  _41
REMARK   17  A    between atoms: _41  and  _42
REMARK   18  A    between atoms: _41  and  _43
REMARK   19  A    between atoms: _44  and  _46
REMARK                            x       y       z     vdW  Elec       q    Type
REMARK                         _______ _______ _______ _____ _____    ______ ____
ROOT
ATOM      1  C   UNL     1      -6.122  13.532  32.053  0.00  0.00    +0.401 C 
ATOM      2  O   UNL     1      -5.246  14.253  32.536  0.00  0.00    -0.226 OA
ATOM      3  N   UNL     1      -5.895  12.314  31.558  0.00  0.00    -0.279 N 
ATOM      4  H   UNL     1      -6.681  11.794  31.192  0.00  0.00    +0.152 HD
ENDROOT
BRANCH   3   5
ATOM      5  C   UNL     1      -4.569  11.686  31.517  0.00  0.00    +0.141 C 
BRANCH   5   6
ATOM      6  C   UNL     1      -4.055  11.536  30.089  0.00  0.00    +0.163 C 
BRANCH   6   7
ATOM      7  O   UNL     1      -2.888  10.699  30.072  0.00  0.00    -0.388 OA
ATOM      8  H   UNL     1      -2.243  11.034  30.700  0.00  0.00    +0.210 HD
ENDBRANCH   6   7
BRANCH   6   9
ATOM      9  C   UNL     1      -5.166  10.948  29.202  0.00  0.00    +0.175 C 
BRANCH   9  10
ATOM     10  C   UNL     1      -4.600  10.161  28.011  0.00  0.00    +0.176 C 
ATOM     11  O   UNL     1      -3.533  10.952  27.419  0.00  0.00    -0.332 OA
ATOM     12  C   UNL     1      -2.799  10.308  26.326  0.00  0.00    +0.277 C 
ATOM     13  C   UNL     1      -3.776   9.838  25.221  0.00  0.00    +0.110 C 
ATOM     14  C   UNL     1      -4.946   9.019  25.806  0.00  0.00    +0.143 C 
ATOM     15  C   UNL     1      -5.637   9.781  26.938  0.00  0.00    +0.133 C 
BRANCH  15  16
ATOM     16  N   UNL     1      -6.693   8.956  27.545  0.00  0.00    -0.308 N 
ATOM     17  H   UNL     1      -6.411   8.128  28.052  0.00  0.00    +0.149 HD
ATOM     18  C   UNL     1      -7.998   9.228  27.470  0.00  0.00    +0.210 C 
ATOM     19  C   UNL     1      -8.395  10.482  26.669  0.00  0.00    +0.109 C 
ATOM     20  O   UNL     1      -8.859   8.527  28.002  0.00  0.00    -0.276 OA
ENDBRANCH  15  16
BRANCH  12  21
ATOM     21  C   UNL     1      -1.989   9.102  26.846  0.00  0.00    +0.414 C 
ATOM     22  O   UNL     1      -1.933   8.063  26.189  0.00  0.00    -0.240 OA
ATOM     23  O   UNL     1      -1.392   9.168  27.921  0.00  0.00    -0.240 OA
ENDBRANCH  12  21
BRANCH  12  24
ATOM     24  O   UNL     1      -1.898  11.290  25.751  0.00  0.00    -0.343 OA
ATOM     25  C   UNL     1      -2.548  12.424  25.123  0.00  0.00    +0.198 C 
ENDBRANCH  12  24
BRANCH  14  26
ATOM     26  O   UNL     1      -5.897   8.736  24.780  0.00  0.00    -0.390 OA
ATOM     27  H   UNL     1      -5.857   9.421  24.108  0.00  0.00    +0.210 HD
ENDBRANCH  14  26
ENDBRANCH   9  10
BRANCH   9  28
ATOM     28  O   UNL     1      -6.036  11.999  28.734  0.00  0.00    -0.387 OA
ATOM     29  H   UNL     1      -5.582  12.517  28.065  0.00  0.00    +0.210 HD
ENDBRANCH   9  28
ENDBRANCH   6   9
ENDBRANCH   5   6
ENDBRANCH   3   5
BRANCH   1  30
ATOM     30  O   UNL     1      -7.470  14.007  32.012  0.00  0.00    -0.444 OA
BRANCH  30  31
ATOM     31  C   UNL     1      -7.515  15.255  31.316  0.00  0.00    +0.292 C 
BRANCH  31  33
ATOM     32  N   UNL     1      -8.085  13.913  29.308  0.00  0.00    -0.131 NA
ATOM     33  C   UNL     1      -7.531  15.033  29.857  0.00  0.00    +0.121 A 
ATOM     34  C   UNL     1      -7.040  15.830  28.850  0.00  0.00    +0.143 A 
ATOM     35  N   UNL     1      -7.313  15.144  27.689  0.00  0.00    -0.220 N 
ATOM     36  N   UNL     1      -7.950  13.988  27.990  0.00  0.00    -0.060 NA
BRANCH  35  37
ATOM     37  C   UNL     1      -7.014  15.517  26.356  0.00  0.00    +0.071 A 
ATOM     38  C   UNL     1      -7.439  16.744  25.858  0.00  0.00    +0.063 A 
ATOM     39  CA  UNL     1      -7.116  17.047  24.550  0.00  0.00    +0.150 A 
ATOM     40  N   UNL     1      -6.418  16.231  23.710  0.00  0.00    -0.240 NA
ATOM     41  C   UNL     1      -6.017  15.026  24.201  0.00  0.00    +0.074 A 
ATOM     42  C   UNL     1      -6.291  14.651  25.520  0.00  0.00    +0.056 A 
BRANCH  41  43
ATOM     43  C   UNL     1      -5.306  14.147  23.241  0.00  0.00    +0.000 A 
ATOM     44  C   UNL     1      -4.223  14.607  22.468  0.00  0.00    +0.010 A 
ATOM     45  C   UNL     1      -3.535  13.757  21.592  0.00  0.00    +0.001 A 
ATOM     46  C   UNL     1      -3.915  12.425  21.468  0.00  0.00    +0.000 A 
ATOM     47  C   UNL     1      -4.987  11.944  22.213  0.00  0.00    +0.001 A 
ATOM     48  C   UNL     1      -5.673  12.796  23.087  0.00  0.00    +0.010 A 
ENDBRANCH  41  43
BRANCH  39  49
ATOM     49  C   UNL     1      -7.552  18.352  23.974  0.00  0.00    +0.355 C 
ATOM     50  OXT UNL     1      -8.487  19.012  24.391  0.00  0.00    -0.243 OA
BRANCH  49  51
ATOM     51  O   UNL     1      -6.771  18.697  22.926  0.00  0.00    -0.476 OA
ATOM     52  H   UNL     1      -5.825  18.632  23.196  0.00  0.00    +0.295 HD
ENDBRANCH  49  51
ENDBRANCH  39  49
ENDBRANCH  35  37
ENDBRANCH  31  33
ENDBRANCH  30  31
ENDBRANCH   1  30
TORSDOF 17
