REMARK VINA RESULT:    -6.212      2.643      4.340
REMARK INTER + INTRA:         -15.056
REMARK INTER:                 -11.681
REMARK INTRA:                  -3.375
REMARK UNBOUND:                -3.396
REMARK  Name = lig_assembled_34.pdb
REMARK  19 active torsions:
REMARK  status: ('A' for Active; 'I' for Inactive)
REMARK    1  A    between atoms: _2  and  _9
REMARK    2  A    between atoms: _4  and  _37
REMARK    3  A    between atoms: _6  and  _7
REMARK    4  A    between atoms: _6  and  _37
REMARK    5  A    between atoms: _11  and  _12
REMARK    6  A    between atoms: _13  and  _14
REMARK    7  A    between atoms: _18  and  _31
REMARK    8  A    between atoms: _33  and  _53
REMARK    9  A    between atoms: _35  and  _41
REMARK   10  A    between atoms: _36  and  _40
REMARK   11  A    between atoms: _40  and  _41
REMARK   12  A    between atoms: _43  and  _44
REMARK   13  A    between atoms: _45  and  _46
REMARK   14  A    between atoms: _47  and  _49
REMARK   15  A    between atoms: _49  and  _50
REMARK   16  A    between atoms: _49  and  _51
REMARK   17  A    between atoms: _51  and  _52
REMARK   18  A    between atoms: _51  and  _53
REMARK   19  A    between atoms: _54  and  _56
REMARK                            x       y       z     vdW  Elec       q    Type
REMARK                         _______ _______ _______ _____ _____    ______ ____
ROOT
ATOM      1  N   UNL     1      -6.953  12.116  19.071  0.00  0.00    -0.131 NA
ATOM      2  C   UNL     1      -5.747  12.065  19.711  0.00  0.00    +0.121 A 
ATOM      3  C   UNL     1      -4.750  11.969  18.771  0.00  0.00    +0.143 A 
ATOM      4  N   UNL     1      -5.390  11.992  17.551  0.00  0.00    -0.220 N 
ATOM      5  N   UNL     1      -6.732  12.056  17.760  0.00  0.00    -0.060 NA
ENDROOT
BRANCH   4   6
ATOM      6  C   UNL     1      -4.804  12.002  16.256  0.00  0.00    +0.068 A 
ATOM      7  C   UNL     1      -5.222  12.947  15.314  0.00  0.00    +0.038 A 
ATOM      8  C   UNL     1      -4.777  12.935  13.970  0.00  0.00    +0.007 A 
ATOM      9  C   UNL     1      -3.816  11.977  13.588  0.00  0.00    -0.008 A 
ATOM     10  C   UNL     1      -3.360  11.055  14.561  0.00  0.00    +0.011 A 
ATOM     11  C   UNL     1      -3.857  11.051  15.876  0.00  0.00    +0.028 A 
BRANCH   9  12
ATOM     12  C   UNL     1      -3.291  11.805  12.194  0.00  0.00    +0.004 A 
ATOM     13  C   UNL     1      -2.220  12.507  11.725  0.00  0.00    +0.026 A 
ATOM     14  C   UNL     1      -1.532  13.531  12.522  0.00  0.00    +0.016 A 
ATOM     15  C   UNL     1      -0.608  14.337  11.980  0.00  0.00    +0.051 A 
ATOM     16  C   UNL     1      -0.223  14.195  10.556  0.00  0.00    +0.183 A 
ATOM     17  O   UNL     1       0.574  14.968  10.031  0.00  0.00    -0.288 OA
ATOM     18  C   UNL     1      -0.776  13.045   9.813  0.00  0.00    +0.097 A 
ATOM     19  C   UNL     1      -1.683  12.240  10.377  0.00  0.00    +0.140 A 
ATOM     20  O   UNL     1      -2.066  11.097   9.692  0.00  0.00    -0.455 OA
ATOM     21  C   UNL     1      -3.164  10.406  10.132  0.00  0.00    +0.140 A 
ATOM     22  C   UNL     1      -3.562   9.318   9.354  0.00  0.00    +0.092 A 
ATOM     23  C   UNL     1      -4.700   8.610   9.709  0.00  0.00    +0.120 A 
ATOM     24  C   UNL     1      -5.483   9.024  10.780  0.00  0.00    +0.046 A 
ATOM     25  C   UNL     1      -5.064  10.108  11.557  0.00  0.00    +0.016 A 
ATOM     26  C   UNL     1      -3.862  10.775  11.279  0.00  0.00    +0.026 A 
BRANCH  23  27
ATOM     27  O   UNL     1      -5.018   7.497   8.988  0.00  0.00    -0.507 OA
ATOM     28  H   UNL     1      -5.987   7.440   8.950  0.00  0.00    +0.292 HD
ENDBRANCH  23  27
ENDBRANCH   9  12
BRANCH   8  29
ATOM     29  C   UNL     1      -5.441  13.920  13.029  0.00  0.00    +0.072 C 
ATOM     30  O   UNL     1      -6.399  13.463  12.325  0.00  0.00    -0.545 OA
ATOM     31  O   UNL     1      -4.963  15.089  12.947  0.00  0.00    -0.545 OA
ENDBRANCH   8  29
ENDBRANCH   4   6
BRANCH   2  32
ATOM     32  C   UNL     1      -5.627  12.115  21.181  0.00  0.00    +0.292 C 
BRANCH  32  33
ATOM     33  O   UNL     1      -5.460  13.462  21.631  0.00  0.00    -0.444 OA
BRANCH  33  34
ATOM     34  C   UNL     1      -4.904  13.459  22.948  0.00  0.00    +0.401 C 
ATOM     35  O   UNL     1      -5.598  13.847  23.892  0.00  0.00    -0.226 OA
ATOM     36  N   UNL     1      -3.649  13.026  23.074  0.00  0.00    -0.279 N 
ATOM     37  H   UNL     1      -3.165  12.719  22.242  0.00  0.00    +0.152 HD
BRANCH  36  38
ATOM     38  C   UNL     1      -2.932  12.970  24.354  0.00  0.00    +0.141 C 
BRANCH  38  39
ATOM     39  C   UNL     1      -3.247  11.694  25.127  0.00  0.00    +0.163 C 
BRANCH  39  40
ATOM     40  O   UNL     1      -2.130  10.791  25.062  0.00  0.00    -0.388 OA
ATOM     41  H   UNL     1      -1.395  11.154  25.562  0.00  0.00    +0.210 HD
ENDBRANCH  39  40
BRANCH  39  42
ATOM     42  C   UNL     1      -3.585  12.046  26.586  0.00  0.00    +0.175 C 
BRANCH  42  43
ATOM     43  C   UNL     1      -3.364  10.858  27.534  0.00  0.00    +0.176 C 
ATOM     44  O   UNL     1      -4.003   9.692  26.946  0.00  0.00    -0.332 OA
ATOM     45  C   UNL     1      -3.805   8.430  27.665  0.00  0.00    +0.277 C 
ATOM     46  C   UNL     1      -4.241   8.577  29.144  0.00  0.00    +0.110 C 
ATOM     47  C   UNL     1      -3.610   9.822  29.803  0.00  0.00    +0.143 C 
ATOM     48  C   UNL     1      -3.875  11.076  28.970  0.00  0.00    +0.133 C 
BRANCH  48  49
ATOM     49  N   UNL     1      -3.196  12.240  29.562  0.00  0.00    -0.308 N 
ATOM     50  H   UNL     1      -2.186  12.237  29.583  0.00  0.00    +0.149 HD
ATOM     51  C   UNL     1      -3.828  13.301  30.072  0.00  0.00    +0.210 C 
ATOM     52  C   UNL     1      -5.368  13.264  30.048  0.00  0.00    +0.109 C 
ATOM     53  O   UNL     1      -3.233  14.268  30.548  0.00  0.00    -0.276 OA
ENDBRANCH  48  49
BRANCH  45  54
ATOM     54  C   UNL     1      -2.327   7.992  27.604  0.00  0.00    +0.414 C 
ATOM     55  O   UNL     1      -1.815   7.405  28.556  0.00  0.00    -0.240 OA
ATOM     56  O   UNL     1      -1.648   8.225  26.603  0.00  0.00    -0.240 OA
ENDBRANCH  45  54
BRANCH  47  57
ATOM     57  O   UNL     1      -4.154  10.002  31.111  0.00  0.00    -0.390 OA
ATOM     58  H   UNL     1      -3.444  10.174  31.733  0.00  0.00    +0.210 HD
ENDBRANCH  47  57
BRANCH  45  59
ATOM     59  O   UNL     1      -4.640   7.422  27.040  0.00  0.00    -0.343 OA
ATOM     60  C   UNL     1      -5.460   6.652  27.956  0.00  0.00    +0.198 C 
ENDBRANCH  45  59
ENDBRANCH  42  43
BRANCH  42  61
ATOM     61  O   UNL     1      -4.945  12.512  26.682  0.00  0.00    -0.387 OA
ATOM     62  H   UNL     1      -5.031  13.099  27.436  0.00  0.00    +0.210 HD
ENDBRANCH  42  61
ENDBRANCH  39  42
ENDBRANCH  38  39
ENDBRANCH  36  38
ENDBRANCH  33  34
ENDBRANCH  32  33
ENDBRANCH   2  32
TORSDOF 17
