REMARK VINA RESULT:    -4.893      4.075      6.900
REMARK INTER + INTRA:         -10.465
REMARK INTER:                  -6.248
REMARK INTRA:                  -4.216
REMARK UNBOUND:                -1.997
REMARK  Name = lig_assembled_57.pdb
REMARK  17 active torsions:
REMARK  status: ('A' for Active; 'I' for Inactive)
REMARK    1  A    between atoms: _2  and  _10
REMARK    2  A    between atoms: _3  and  _13
REMARK    3  A    between atoms: _5  and  _19
REMARK    4  A    between atoms: _7  and  _8
REMARK    5  A    between atoms: _7  and  _19
REMARK    6  A    between atoms: _15  and  _35
REMARK    7  A    between atoms: _17  and  _23
REMARK    8  A    between atoms: _18  and  _22
REMARK    9  A    between atoms: _22  and  _23
REMARK   10  A    between atoms: _25  and  _26
REMARK   11  A    between atoms: _27  and  _28
REMARK   12  A    between atoms: _29  and  _31
REMARK   13  A    between atoms: _31  and  _32
REMARK   14  A    between atoms: _31  and  _33
REMARK   15  A    between atoms: _33  and  _34
REMARK   16  A    between atoms: _33  and  _35
REMARK   17  A    between atoms: _36  and  _38
REMARK                            x       y       z     vdW  Elec       q    Type
REMARK                         _______ _______ _______ _____ _____    ______ ____
ROOT
ATOM      1  C   UNL     1      -3.144  11.711  24.693  0.00  0.00    +0.163 C 
ENDROOT
BRANCH   1   2
ATOM      2  O   UNL     1      -1.966  11.579  25.505  0.00  0.00    -0.388 OA
ATOM      3  H   UNL     1      -1.973  10.725  25.945  0.00  0.00    +0.210 HD
ENDBRANCH   1   2
BRANCH   1   4
ATOM      4  C   UNL     1      -3.332  13.167  24.279  0.00  0.00    +0.141 C 
BRANCH   4   7
ATOM      5  C   UNL     1      -4.621  13.477  22.194  0.00  0.00    +0.401 C 
ATOM      6  O   UNL     1      -3.629  13.438  21.463  0.00  0.00    -0.226 OA
ATOM      7  N   UNL     1      -4.574  13.365  23.522  0.00  0.00    -0.279 N 
ATOM      8  H   UNL     1      -5.442  13.419  24.037  0.00  0.00    +0.152 HD
BRANCH   5   9
ATOM      9  O   UNL     1      -5.911  13.657  21.604  0.00  0.00    -0.444 OA
BRANCH   9  10
ATOM     10  C   UNL     1      -6.116  12.668  20.592  0.00  0.00    +0.292 C 
BRANCH  10  12
ATOM     11  N   UNL     1      -7.448  11.285  22.145  0.00  0.00    -0.131 NA
ATOM     12  C   UNL     1      -6.454  11.374  21.212  0.00  0.00    +0.120 A 
ATOM     13  C   UNL     1      -5.927  10.119  20.994  0.00  0.00    +0.137 A 
ATOM     14  N   UNL     1      -6.701   9.295  21.756  0.00  0.00    -0.248 N 
ATOM     15  N   UNL     1      -7.565  10.016  22.501  0.00  0.00    -0.065 NA
BRANCH  14  16
ATOM     16  C   UNL     1      -6.769   7.840  21.827  0.00  0.00    +0.111 C 
ATOM     17  C   UNL     1      -5.387   7.218  21.578  0.00  0.00    +0.042 C 
ATOM     18  C   UNL     1      -4.486   7.408  22.796  0.00  0.00    +0.086 C 
ATOM     19  N   UNL     1      -5.042   6.811  24.016  0.00  0.00    -0.305 NA
ATOM     20  C   UNL     1      -6.395   7.284  24.307  0.00  0.00    +0.086 C 
ATOM     21  C   UNL     1      -4.937   5.355  24.018  0.00  0.00    +0.104 C 
ATOM     22  C   UNL     1      -7.364   7.250  23.116  0.00  0.00    +0.042 C 
ENDBRANCH  14  16
ENDBRANCH  10  12
ENDBRANCH   9  10
ENDBRANCH   5   9
ENDBRANCH   4   7
ENDBRANCH   1   4
BRANCH   1  23
ATOM     23  C   UNL     1      -4.392  11.227  25.452  0.00  0.00    +0.175 C 
BRANCH  23  24
ATOM     24  C   UNL     1      -4.060  10.122  26.465  0.00  0.00    +0.176 C 
ATOM     25  O   UNL     1      -3.197   9.155  25.805  0.00  0.00    -0.332 OA
ATOM     26  C   UNL     1      -2.689   8.075  26.656  0.00  0.00    +0.277 C 
ATOM     27  C   UNL     1      -3.859   7.340  27.355  0.00  0.00    +0.110 C 
ATOM     28  C   UNL     1      -4.822   8.330  28.044  0.00  0.00    +0.143 C 
ATOM     29  C   UNL     1      -5.286   9.413  27.070  0.00  0.00    +0.133 C 
BRANCH  29  30
ATOM     30  N   UNL     1      -6.133  10.398  27.760  0.00  0.00    -0.308 N 
ATOM     31  H   UNL     1      -5.699  10.987  28.457  0.00  0.00    +0.149 HD
ATOM     32  C   UNL     1      -7.437  10.566  27.525  0.00  0.00    +0.210 C 
ATOM     33  C   UNL     1      -8.074   9.636  26.476  0.00  0.00    +0.109 C 
ATOM     34  O   UNL     1      -8.119  11.410  28.108  0.00  0.00    -0.276 OA
ENDBRANCH  29  30
BRANCH  26  35
ATOM     35  C   UNL     1      -1.718   8.627  27.719  0.00  0.00    +0.414 C 
ATOM     36  O   UNL     1      -1.658   8.108  28.834  0.00  0.00    -0.240 OA
ATOM     37  O   UNL     1      -0.995   9.591  27.464  0.00  0.00    -0.240 OA
ENDBRANCH  26  35
BRANCH  28  38
ATOM     38  O   UNL     1      -5.960   7.626  28.543  0.00  0.00    -0.390 OA
ATOM     39  H   UNL     1      -6.762   8.049  28.227  0.00  0.00    +0.210 HD
ENDBRANCH  28  38
BRANCH  26  40
ATOM     40  O   UNL     1      -1.995   7.124  25.807  0.00  0.00    -0.343 OA
ATOM     41  C   UNL     1      -2.039   5.749  26.264  0.00  0.00    +0.198 C 
ENDBRANCH  26  40
ENDBRANCH  23  24
BRANCH  23  42
ATOM     42  O   UNL     1      -5.391  10.765  24.521  0.00  0.00    -0.387 OA
ATOM     43  H   UNL     1      -6.247  11.127  24.764  0.00  0.00    +0.210 HD
ENDBRANCH  23  42
ENDBRANCH   1  23
TORSDOF 14
