REMARK VINA RESULT:    -5.211      0.000      0.000
REMARK INTER + INTRA:         -11.932
REMARK INTER:                  -8.838
REMARK INTRA:                  -3.094
REMARK UNBOUND:                -2.913
REMARK  Name = lig_assembled_93.pdb
REMARK  16 active torsions:
REMARK  status: ('A' for Active; 'I' for Inactive)
REMARK    1  A    between atoms: _2  and  _9
REMARK    2  A    between atoms: _4  and  _18
REMARK    3  A    between atoms: _6  and  _7
REMARK    4  A    between atoms: _6  and  _18
REMARK    5  A    between atoms: _14  and  _34
REMARK    6  A    between atoms: _16  and  _22
REMARK    7  A    between atoms: _17  and  _21
REMARK    8  A    between atoms: _21  and  _22
REMARK    9  A    between atoms: _24  and  _25
REMARK   10  A    between atoms: _26  and  _27
REMARK   11  A    between atoms: _28  and  _30
REMARK   12  A    between atoms: _30  and  _31
REMARK   13  A    between atoms: _30  and  _32
REMARK   14  A    between atoms: _32  and  _33
REMARK   15  A    between atoms: _32  and  _34
REMARK   16  A    between atoms: _35  and  _37
REMARK                            x       y       z     vdW  Elec       q    Type
REMARK                         _______ _______ _______ _____ _____    ______ ____
ROOT
ATOM      1  C   UNL     1      -6.932   8.731  23.832  0.00  0.00    +0.163 C 
ENDROOT
BRANCH   1   2
ATOM      2  O   UNL     1      -6.366   8.775  25.152  0.00  0.00    -0.388 OA
ATOM      3  H   UNL     1      -5.483   8.400  25.136  0.00  0.00    +0.210 HD
ENDBRANCH   1   2
BRANCH   1   4
ATOM      4  C   UNL     1      -6.369   7.539  23.064  0.00  0.00    +0.141 C 
BRANCH   4   7
ATOM      5  C   UNL     1      -3.976   7.018  23.393  0.00  0.00    +0.401 C 
ATOM      6  O   UNL     1      -3.605   7.649  22.400  0.00  0.00    -0.226 OA
ATOM      7  N   UNL     1      -5.249   6.909  23.774  0.00  0.00    -0.279 N 
ATOM      8  H   UNL     1      -5.456   6.362  24.598  0.00  0.00    +0.152 HD
BRANCH   5   9
ATOM      9  O   UNL     1      -2.999   6.352  24.198  0.00  0.00    -0.444 OA
BRANCH   9  10
ATOM     10  C   UNL     1      -3.614   5.875  25.398  0.00  0.00    +0.292 C 
BRANCH  10  12
ATOM     11  N   UNL     1      -1.842   7.116  26.586  0.00  0.00    -0.131 NA
ATOM     12  C   UNL     1      -3.109   6.623  26.564  0.00  0.00    +0.121 A 
ATOM     13  C   UNL     1      -3.735   6.956  27.742  0.00  0.00    +0.143 A 
ATOM     14  N   UNL     1      -2.805   7.682  28.467  0.00  0.00    -0.219 N 
ATOM     15  N   UNL     1      -1.669   7.746  27.738  0.00  0.00    -0.060 NA
BRANCH  14  16
ATOM     16  C   UNL     1      -2.965   8.292  29.751  0.00  0.00    +0.080 A 
ATOM     17  C   UNL     1      -2.851   9.701  29.826  0.00  0.00    +0.029 A 
ATOM     18  C   UNL     1      -2.974  10.385  31.038  0.00  0.00    +0.002 A 
ATOM     19  C   UNL     1      -3.216   9.685  32.207  0.00  0.00    +0.001 A 
ATOM     20  C   UNL     1      -3.340   8.299  32.163  0.00  0.00    +0.016 A 
ATOM     21  C   UNL     1      -3.220   7.590  30.948  0.00  0.00    +0.039 A 
ATOM     22  I   UNL     1      -3.462   5.504  31.206  0.00  0.00    -0.042 I 
ENDBRANCH  14  16
ENDBRANCH  10  12
ENDBRANCH   9  10
ENDBRANCH   5   9
ENDBRANCH   4   7
ENDBRANCH   1   4
BRANCH   1  23
ATOM     23  C   UNL     1      -6.632  10.027  23.061  0.00  0.00    +0.175 C 
BRANCH  23  24
ATOM     24  C   UNL     1      -5.211  10.545  23.330  0.00  0.00    +0.176 C 
ATOM     25  O   UNL     1      -5.285  11.512  24.414  0.00  0.00    -0.332 OA
ATOM     26  C   UNL     1      -4.000  12.038  24.882  0.00  0.00    +0.277 C 
ATOM     27  C   UNL     1      -3.197  12.636  23.701  0.00  0.00    +0.110 C 
ATOM     28  C   UNL     1      -3.118  11.656  22.512  0.00  0.00    +0.143 C 
ATOM     29  C   UNL     1      -4.510  11.169  22.109  0.00  0.00    +0.133 C 
BRANCH  29  30
ATOM     30  N   UNL     1      -4.415  10.170  21.033  0.00  0.00    -0.308 N 
ATOM     31  H   UNL     1      -3.983   9.283  21.250  0.00  0.00    +0.149 HD
ATOM     32  C   UNL     1      -4.863  10.359  19.789  0.00  0.00    +0.210 C 
ATOM     33  C   UNL     1      -5.493  11.731  19.483  0.00  0.00    +0.109 C 
ATOM     34  O   UNL     1      -4.783   9.498  18.911  0.00  0.00    -0.276 OA
ENDBRANCH  29  30
BRANCH  26  35
ATOM     35  C   UNL     1      -3.169  10.929  25.561  0.00  0.00    +0.414 C 
ATOM     36  O   UNL     1      -3.728  10.042  26.205  0.00  0.00    -0.240 OA
ATOM     37  O   UNL     1      -1.941  10.922  25.465  0.00  0.00    -0.240 OA
ENDBRANCH  26  35
BRANCH  28  38
ATOM     38  O   UNL     1      -2.504  12.302  21.396  0.00  0.00    -0.390 OA
ATOM     39  H   UNL     1      -2.003  13.062  21.700  0.00  0.00    +0.210 HD
ENDBRANCH  28  38
BRANCH  26  40
ATOM     40  O   UNL     1      -4.270  13.099  25.835  0.00  0.00    -0.343 OA
ATOM     41  C   UNL     1      -5.664  13.250  26.204  0.00  0.00    +0.198 C 
ENDBRANCH  26  40
ENDBRANCH  23  24
BRANCH  23  42
ATOM     42  O   UNL     1      -7.601  11.040  23.396  0.00  0.00    -0.387 OA
ATOM     43  H   UNL     1      -7.178  11.729  23.915  0.00  0.00    +0.210 HD
ENDBRANCH  23  42
ENDBRANCH   1  23
TORSDOF 14
