REMARK VINA RESULT:    -4.735      3.772      9.366
REMARK INTER + INTRA:         -11.340
REMARK INTER:                  -7.758
REMARK INTRA:                  -3.582
REMARK UNBOUND:                -2.869
REMARK  Name = lig_assembled_71.pdb
REMARK  17 active torsions:
REMARK  status: ('A' for Active; 'I' for Inactive)
REMARK    1  A    between atoms: _2  and  _12
REMARK    2  A    between atoms: _7  and  _22
REMARK    3  A    between atoms: _9  and  _10
REMARK    4  A    between atoms: _9  and  _22
REMARK    5  A    between atoms: _12  and  _13
REMARK    6  A    between atoms: _18  and  _38
REMARK    7  A    between atoms: _20  and  _26
REMARK    8  A    between atoms: _21  and  _25
REMARK    9  A    between atoms: _25  and  _26
REMARK   10  A    between atoms: _28  and  _29
REMARK   11  A    between atoms: _30  and  _31
REMARK   12  A    between atoms: _32  and  _34
REMARK   13  A    between atoms: _34  and  _35
REMARK   14  A    between atoms: _34  and  _36
REMARK   15  A    between atoms: _36  and  _37
REMARK   16  A    between atoms: _36  and  _38
REMARK   17  A    between atoms: _39  and  _41
REMARK                            x       y       z     vdW  Elec       q    Type
REMARK                         _______ _______ _______ _____ _____    ______ ____
ROOT
ATOM      1  C   UNL     1      -2.960  12.100  24.254  0.00  0.00    +0.163 C 
ENDROOT
BRANCH   1   2
ATOM      2  O   UNL     1      -2.040  11.778  25.309  0.00  0.00    -0.388 OA
ATOM      3  H   UNL     1      -2.529  11.498  26.087  0.00  0.00    +0.210 HD
ENDBRANCH   1   2
BRANCH   1   4
ATOM      4  C   UNL     1      -3.898  13.216  24.702  0.00  0.00    +0.141 C 
BRANCH   4   7
ATOM      5  C   UNL     1      -6.195  13.413  23.814  0.00  0.00    +0.401 C 
ATOM      6  O   UNL     1      -6.728  12.968  24.833  0.00  0.00    -0.226 OA
ATOM      7  N   UNL     1      -4.878  13.557  23.664  0.00  0.00    -0.279 N 
ATOM      8  H   UNL     1      -4.535  13.923  22.786  0.00  0.00    +0.152 HD
BRANCH   5   9
ATOM      9  O   UNL     1      -7.019  13.800  22.711  0.00  0.00    -0.444 OA
BRANCH   9  10
ATOM     10  C   UNL     1      -6.216  13.923  21.534  0.00  0.00    +0.292 C 
BRANCH  10  12
ATOM     11  N   UNL     1      -4.724  12.037  20.917  0.00  0.00    -0.131 NA
ATOM     12  C   UNL     1      -5.976  12.596  20.936  0.00  0.00    +0.120 A 
ATOM     13  C   UNL     1      -6.861  11.730  20.340  0.00  0.00    +0.137 A 
ATOM     14  N   UNL     1      -6.090  10.669  19.964  0.00  0.00    -0.242 N 
ATOM     15  N   UNL     1      -4.807  10.852  20.326  0.00  0.00    -0.065 NA
BRANCH  14  16
ATOM     16  C   UNL     1      -6.504   9.414  19.370  0.00  0.00    +0.241 C 
BRANCH  16  17
ATOM     17  C   UNL     1      -5.500   8.913  18.365  0.00  0.00    +0.241 C 
ATOM     18  O   UNL     1      -4.981   7.807  18.511  0.00  0.00    -0.273 OA
ATOM     19  N   UNL     1      -5.189   9.814  17.368  0.00  0.00    -0.253 N 
ATOM     20  H   UNL     1      -5.485  10.777  17.403  0.00  0.00    +0.158 HD
ATOM     21  C   UNL     1      -4.306   9.545  16.329  0.00  0.00    +0.221 A 
ATOM     22  N   UNL     1      -3.902  10.615  15.627  0.00  0.00    -0.223 NA
ATOM     23  C   UNL     1      -2.987  10.382  14.662  0.00  0.00    +0.116 A 
ATOM     24  C   UNL     1      -2.492   9.136  14.362  0.00  0.00    +0.039 A 
ATOM     25  C   UNL     1      -3.006   8.108  15.107  0.00  0.00    +0.116 A 
ATOM     26  N   UNL     1      -3.905   8.293  16.086  0.00  0.00    -0.223 NA
ENDBRANCH  16  17
ENDBRANCH  14  16
ENDBRANCH  10  12
ENDBRANCH   9  10
ENDBRANCH   5   9
ENDBRANCH   4   7
ENDBRANCH   1   4
BRANCH   1  27
ATOM     27  C   UNL     1      -3.786  10.867  23.848  0.00  0.00    +0.175 C 
BRANCH  27  28
ATOM     28  C   UNL     1      -4.043   9.927  25.036  0.00  0.00    +0.176 C 
ATOM     29  O   UNL     1      -2.849   9.121  25.235  0.00  0.00    -0.332 OA
ATOM     30  C   UNL     1      -2.871   8.233  26.401  0.00  0.00    +0.277 C 
ATOM     31  C   UNL     1      -4.120   7.318  26.360  0.00  0.00    +0.110 C 
ATOM     32  C   UNL     1      -5.411   8.127  26.118  0.00  0.00    +0.143 C 
ATOM     33  C   UNL     1      -5.277   9.019  24.883  0.00  0.00    +0.133 C 
BRANCH  33  34
ATOM     34  N   UNL     1      -6.480   9.849  24.714  0.00  0.00    -0.308 N 
ATOM     35  H   UNL     1      -6.659  10.566  25.403  0.00  0.00    +0.149 HD
ATOM     36  C   UNL     1      -7.350   9.716  23.709  0.00  0.00    +0.210 C 
ATOM     37  C   UNL     1      -7.062   8.598  22.690  0.00  0.00    +0.109 C 
ATOM     38  O   UNL     1      -8.342  10.436  23.584  0.00  0.00    -0.276 OA
ENDBRANCH  33  34
BRANCH  30  39
ATOM     39  C   UNL     1      -2.872   9.048  27.710  0.00  0.00    +0.414 C 
ATOM     40  O   UNL     1      -2.322  10.148  27.757  0.00  0.00    -0.240 OA
ATOM     41  O   UNL     1      -3.424   8.608  28.720  0.00  0.00    -0.240 OA
ENDBRANCH  30  39
BRANCH  30  42
ATOM     42  O   UNL     1      -1.688   7.395  26.349  0.00  0.00    -0.343 OA
ATOM     43  C   UNL     1      -1.948   5.968  26.343  0.00  0.00    +0.198 C 
ENDBRANCH  30  42
BRANCH  32  44
ATOM     44  O   UNL     1      -6.512   7.235  25.937  0.00  0.00    -0.390 OA
ATOM     45  H   UNL     1      -6.520   6.588  26.645  0.00  0.00    +0.210 HD
ENDBRANCH  32  44
ENDBRANCH  27  28
BRANCH  27  46
ATOM     46  O   UNL     1      -3.123  10.154  22.785  0.00  0.00    -0.387 OA
ATOM     47  H   UNL     1      -3.678   9.426  22.493  0.00  0.00    +0.210 HD
ENDBRANCH  27  46
ENDBRANCH   1  27
TORSDOF 15
