REMARK VINA RESULT:    -4.939      9.911     14.476
REMARK INTER + INTRA:         -11.537
REMARK INTER:                  -7.750
REMARK INTRA:                  -3.788
REMARK UNBOUND:                -2.989
REMARK  Name = lig_assembled_51.pdb
REMARK  16 active torsions:
REMARK  status: ('A' for Active; 'I' for Inactive)
REMARK    1  A    between atoms: _2  and  _9
REMARK    2  A    between atoms: _4  and  _22
REMARK    3  A    between atoms: _6  and  _7
REMARK    4  A    between atoms: _6  and  _22
REMARK    5  A    between atoms: _18  and  _38
REMARK    6  A    between atoms: _20  and  _26
REMARK    7  A    between atoms: _21  and  _25
REMARK    8  A    between atoms: _25  and  _26
REMARK    9  A    between atoms: _28  and  _29
REMARK   10  A    between atoms: _30  and  _31
REMARK   11  A    between atoms: _32  and  _34
REMARK   12  A    between atoms: _34  and  _35
REMARK   13  A    between atoms: _34  and  _36
REMARK   14  A    between atoms: _36  and  _37
REMARK   15  A    between atoms: _36  and  _38
REMARK   16  A    between atoms: _39  and  _41
REMARK                            x       y       z     vdW  Elec       q    Type
REMARK                         _______ _______ _______ _____ _____    ______ ____
ROOT
ATOM      1  C   UNL     1      -4.710   7.388  16.167  0.00  0.00    +0.163 C 
ENDROOT
BRANCH   1   2
ATOM      2  O   UNL     1      -3.969   7.857  17.305  0.00  0.00    -0.388 OA
ATOM      3  H   UNL     1      -3.112   7.425  17.331  0.00  0.00    +0.210 HD
ENDBRANCH   1   2
BRANCH   1   4
ATOM      4  C   UNL     1      -3.816   6.524  15.283  0.00  0.00    +0.141 C 
BRANCH   4   7
ATOM      5  C   UNL     1      -2.113   7.380  13.711  0.00  0.00    +0.401 C 
ATOM      6  O   UNL     1      -1.159   6.940  14.358  0.00  0.00    -0.226 OA
ATOM      7  N   UNL     1      -3.388   7.237  14.073  0.00  0.00    -0.279 N 
ATOM      8  H   UNL     1      -4.100   7.642  13.482  0.00  0.00    +0.152 HD
BRANCH   5   9
ATOM      9  O   UNL     1      -1.859   8.094  12.499  0.00  0.00    -0.444 OA
BRANCH   9  10
ATOM     10  C   UNL     1      -3.022   8.843  12.133  0.00  0.00    +0.292 C 
BRANCH  10  12
ATOM     11  N   UNL     1      -2.847  10.664  13.802  0.00  0.00    -0.131 NA
ATOM     12  C   UNL     1      -2.853  10.263  12.494  0.00  0.00    +0.120 A 
ATOM     13  C   UNL     1      -2.685  11.364  11.687  0.00  0.00    +0.137 A 
ATOM     14  N   UNL     1      -2.588  12.412  12.560  0.00  0.00    -0.245 N 
ATOM     15  N   UNL     1      -2.685  11.979  13.831  0.00  0.00    -0.065 NA
BRANCH  14  16
ATOM     16  C   UNL     1      -2.413  13.831  12.241  0.00  0.00    +0.066 C 
ATOM     17  C   UNL     1      -0.945  14.261  12.512  0.00  0.00    +0.034 C 
ATOM     18  C   UNL     1      -0.728  15.738  12.140  0.00  0.00    -0.008 C 
ATOM     19  C   UNL     1      -1.054  15.937  10.650  0.00  0.00    +0.007 C 
ATOM     20  C   UNL     1      -2.518  15.559  10.374  0.00  0.00    -0.008 C 
ATOM     21  C   UNL     1      -3.441  16.440  11.230  0.00  0.00    +0.007 C 
ATOM     22  C   UNL     1      -3.125  16.236  12.720  0.00  0.00    -0.008 C 
ATOM     23  C   UNL     1      -1.660  16.617  12.985  0.00  0.00    +0.007 C 
ATOM     24  C   UNL     1      -2.738  14.082  10.743  0.00  0.00    +0.034 C 
ATOM     25  C   UNL     1      -3.339  14.757  13.087  0.00  0.00    +0.034 C 
ENDBRANCH  14  16
ENDBRANCH  10  12
ENDBRANCH   9  10
ENDBRANCH   5   9
ENDBRANCH   4   7
ENDBRANCH   1   4
BRANCH   1  26
ATOM     26  C   UNL     1      -5.259   8.567  15.345  0.00  0.00    +0.175 C 
BRANCH  26  27
ATOM     27  C   UNL     1      -5.644   9.760  16.232  0.00  0.00    +0.176 C 
ATOM     28  O   UNL     1      -6.276   9.239  17.433  0.00  0.00    -0.332 OA
ATOM     29  C   UNL     1      -6.619  10.235  18.453  0.00  0.00    +0.277 C 
ATOM     30  C   UNL     1      -7.498  11.353  17.842  0.00  0.00    +0.110 C 
ATOM     31  C   UNL     1      -6.883  11.917  16.544  0.00  0.00    +0.143 C 
ATOM     32  C   UNL     1      -6.563  10.795  15.556  0.00  0.00    +0.133 C 
BRANCH  32  33
ATOM     33  N   UNL     1      -5.898  11.336  14.360  0.00  0.00    -0.308 N 
ATOM     34  H   UNL     1      -4.950  11.670  14.458  0.00  0.00    +0.149 HD
ATOM     35  C   UNL     1      -6.466  11.414  13.154  0.00  0.00    +0.210 C 
ATOM     36  C   UNL     1      -7.921  10.921  13.043  0.00  0.00    +0.109 C 
ATOM     37  O   UNL     1      -5.879  11.858  12.166  0.00  0.00    -0.276 OA
ENDBRANCH  32  33
BRANCH  29  38
ATOM     38  C   UNL     1      -5.344  10.856  19.061  0.00  0.00    +0.414 C 
ATOM     39  O   UNL     1      -5.328  12.041  19.390  0.00  0.00    -0.240 OA
ATOM     40  O   UNL     1      -4.332  10.172  19.222  0.00  0.00    -0.240 OA
ENDBRANCH  29  38
BRANCH  31  41
ATOM     41  O   UNL     1      -7.795  12.833  15.937  0.00  0.00    -0.390 OA
ATOM     42  H   UNL     1      -8.466  12.345  15.454  0.00  0.00    +0.210 HD
ENDBRANCH  31  41
BRANCH  29  43
ATOM     43  O   UNL     1      -7.381   9.569  19.492  0.00  0.00    -0.343 OA
ATOM     44  C   UNL     1      -7.194   8.133  19.565  0.00  0.00    +0.198 C 
ENDBRANCH  29  43
ENDBRANCH  26  27
BRANCH  26  45
ATOM     45  O   UNL     1      -6.394   8.142  14.564  0.00  0.00    -0.387 OA
ATOM     46  H   UNL     1      -6.181   7.323  14.109  0.00  0.00    +0.210 HD
ENDBRANCH  26  45
ENDBRANCH   1  26
TORSDOF 14
