REMARK VINA RESULT:    -4.203      2.959      5.250
REMARK INTER + INTRA:         -10.733
REMARK INTER:                  -8.030
REMARK INTRA:                  -2.703
REMARK UNBOUND:                -3.213
REMARK  Name = lig_assembled_46.pdb
REMARK  17 active torsions:
REMARK  status: ('A' for Active; 'I' for Inactive)
REMARK    1  A    between atoms: _2  and  _9
REMARK    2  A    between atoms: _4  and  _19
REMARK    3  A    between atoms: _6  and  _7
REMARK    4  A    between atoms: _6  and  _19
REMARK    5  A    between atoms: _9  and  _10
REMARK    6  A    between atoms: _15  and  _35
REMARK    7  A    between atoms: _17  and  _23
REMARK    8  A    between atoms: _18  and  _22
REMARK    9  A    between atoms: _22  and  _23
REMARK   10  A    between atoms: _25  and  _26
REMARK   11  A    between atoms: _27  and  _28
REMARK   12  A    between atoms: _29  and  _31
REMARK   13  A    between atoms: _31  and  _32
REMARK   14  A    between atoms: _31  and  _33
REMARK   15  A    between atoms: _33  and  _34
REMARK   16  A    between atoms: _33  and  _35
REMARK   17  A    between atoms: _36  and  _38
REMARK                            x       y       z     vdW  Elec       q    Type
REMARK                         _______ _______ _______ _____ _____    ______ ____
ROOT
ATOM      1  C   UNL     1      -6.438   9.336  23.452  0.00  0.00    +0.163 C 
ENDROOT
BRANCH   1   2
ATOM      2  O   UNL     1      -7.117   9.157  24.706  0.00  0.00    -0.388 OA
ATOM      3  H   UNL     1      -7.900   8.618  24.572  0.00  0.00    +0.210 HD
ENDBRANCH   1   2
BRANCH   1   4
ATOM      4  C   UNL     1      -7.289   8.782  22.314  0.00  0.00    +0.141 C 
BRANCH   4   7
ATOM      5  C   UNL     1      -7.016   9.800  20.079  0.00  0.00    +0.401 C 
ATOM      6  O   UNL     1      -6.208   8.954  19.689  0.00  0.00    -0.226 OA
ATOM      7  N   UNL     1      -7.567   9.800  21.293  0.00  0.00    -0.279 N 
ATOM      8  H   UNL     1      -8.213  10.542  21.524  0.00  0.00    +0.152 HD
BRANCH   5   9
ATOM      9  O   UNL     1      -7.397  10.857  19.194  0.00  0.00    -0.444 OA
BRANCH   9  10
ATOM     10  C   UNL     1      -7.590  10.331  17.878  0.00  0.00    +0.292 C 
BRANCH  10  12
ATOM     11  N   UNL     1      -5.942  12.084  17.298  0.00  0.00    -0.131 NA
ATOM     12  C   UNL     1      -6.697  11.008  16.918  0.00  0.00    +0.120 A 
ATOM     13  C   UNL     1      -6.428  10.711  15.600  0.00  0.00    +0.137 A 
ATOM     14  N   UNL     1      -5.458  11.606  15.250  0.00  0.00    -0.247 N 
ATOM     15  N   UNL     1      -5.179  12.440  16.272  0.00  0.00    -0.065 NA
BRANCH  14  16
ATOM     16  C   UNL     1      -4.595  11.566  14.082  0.00  0.00    +0.180 C 
BRANCH  16  17
ATOM     17  C   UNL     1      -3.758  10.315  13.989  0.00  0.00    -0.026 A 
ATOM     18  C   UNL     1      -3.727   9.554  12.810  0.00  0.00    +0.005 A 
ATOM     19  C   UNL     1      -2.875   8.452  12.701  0.00  0.00    +0.000 A 
ATOM     20  C   UNL     1      -2.045   8.101  13.762  0.00  0.00    +0.000 A 
ATOM     21  C   UNL     1      -2.072   8.843  14.941  0.00  0.00    +0.000 A 
ATOM     22  C   UNL     1      -2.923   9.944  15.054  0.00  0.00    +0.005 A 
ENDBRANCH  16  17
ENDBRANCH  14  16
ENDBRANCH  10  12
ENDBRANCH   9  10
ENDBRANCH   5   9
ENDBRANCH   4   7
ENDBRANCH   1   4
BRANCH   1  23
ATOM     23  C   UNL     1      -5.071   8.630  23.461  0.00  0.00    +0.175 C 
BRANCH  23  24
ATOM     24  C   UNL     1      -3.999   9.454  24.190  0.00  0.00    +0.176 C 
ATOM     25  O   UNL     1      -4.315   9.441  25.610  0.00  0.00    -0.332 OA
ATOM     26  C   UNL     1      -3.335  10.095  26.482  0.00  0.00    +0.277 C 
ATOM     27  C   UNL     1      -3.080  11.549  26.016  0.00  0.00    +0.110 C 
ATOM     28  C   UNL     1      -2.771  11.617  24.505  0.00  0.00    +0.143 C 
ATOM     29  C   UNL     1      -3.853  10.904  23.692  0.00  0.00    +0.133 C 
BRANCH  29  30
ATOM     30  N   UNL     1      -3.504  10.900  22.263  0.00  0.00    -0.308 N 
ATOM     31  H   UNL     1      -2.744  10.304  21.964  0.00  0.00    +0.149 HD
ATOM     32  C   UNL     1      -4.126  11.631  21.334  0.00  0.00    +0.210 C 
ATOM     33  C   UNL     1      -5.262  12.547  21.824  0.00  0.00    +0.109 C 
ATOM     34  O   UNL     1      -3.821  11.596  20.141  0.00  0.00    -0.276 OA
ENDBRANCH  29  30
BRANCH  26  35
ATOM     35  C   UNL     1      -2.003   9.315  26.490  0.00  0.00    +0.414 C 
ATOM     36  O   UNL     1      -0.931   9.918  26.516  0.00  0.00    -0.240 OA
ATOM     37  O   UNL     1      -2.001   8.084  26.471  0.00  0.00    -0.240 OA
ENDBRANCH  26  35
BRANCH  26  38
ATOM     38  O   UNL     1      -3.885  10.135  27.824  0.00  0.00    -0.343 OA
ATOM     39  C   UNL     1      -5.328  10.265  27.891  0.00  0.00    +0.198 C 
ENDBRANCH  26  38
BRANCH  28  40
ATOM     40  O   UNL     1      -2.693  12.981  24.090  0.00  0.00    -0.390 OA
ATOM     41  H   UNL     1      -2.008  13.075  23.425  0.00  0.00    +0.210 HD
ENDBRANCH  28  40
ENDBRANCH  23  24
BRANCH  23  42
ATOM     42  O   UNL     1      -4.648   8.348  22.112  0.00  0.00    -0.387 OA
ATOM     43  H   UNL     1      -3.859   7.802  22.131  0.00  0.00    +0.210 HD
ENDBRANCH  23  42
ENDBRANCH   1  23
TORSDOF 15
