REMARK VINA RESULT:    -5.247      5.556     11.961
REMARK INTER + INTRA:         -13.610
REMARK INTER:                 -10.989
REMARK INTRA:                  -2.621
REMARK UNBOUND:                -3.302
REMARK  Name = lig_assembled_84.pdb
REMARK  21 active torsions:
REMARK  status: ('A' for Active; 'I' for Inactive)
REMARK    1  A    between atoms: _2  and  _11
REMARK    2  A    between atoms: _3  and  _14
REMARK    3  A    between atoms: _4  and  _17
REMARK    4  A    between atoms: _6  and  _28
REMARK    5  A    between atoms: _8  and  _9
REMARK    6  A    between atoms: _8  and  _28
REMARK    7  A    between atoms: _11  and  _12
REMARK    8  A    between atoms: _12  and  _13
REMARK    9  A    between atoms: _12  and  _14
REMARK   10  A    between atoms: _24  and  _44
REMARK   11  A    between atoms: _26  and  _32
REMARK   12  A    between atoms: _27  and  _31
REMARK   13  A    between atoms: _31  and  _32
REMARK   14  A    between atoms: _34  and  _35
REMARK   15  A    between atoms: _36  and  _37
REMARK   16  A    between atoms: _38  and  _40
REMARK   17  A    between atoms: _40  and  _41
REMARK   18  A    between atoms: _40  and  _42
REMARK   19  A    between atoms: _42  and  _43
REMARK   20  A    between atoms: _42  and  _44
REMARK   21  A    between atoms: _45  and  _47
REMARK                            x       y       z     vdW  Elec       q    Type
REMARK                         _______ _______ _______ _____ _____    ______ ____
ROOT
ATOM      1  C   UNL     1      -3.681  12.984  23.189  0.00  0.00    +0.401 C 
ATOM      2  O   UNL     1      -3.938  14.173  22.988  0.00  0.00    -0.226 OA
ATOM      3  N   UNL     1      -3.979  12.338  24.317  0.00  0.00    -0.279 N 
ATOM      4  H   UNL     1      -3.737  11.359  24.384  0.00  0.00    +0.152 HD
ENDROOT
BRANCH   1   5
ATOM      5  O   UNL     1      -3.029  12.231  22.163  0.00  0.00    -0.444 OA
BRANCH   5   6
ATOM      6  C   UNL     1      -3.561  12.601  20.888  0.00  0.00    +0.292 C 
BRANCH   6   8
ATOM      7  N   UNL     1      -4.220  10.211  20.831  0.00  0.00    -0.131 NA
ATOM      8  C   UNL     1      -4.172  11.437  20.218  0.00  0.00    +0.120 A 
ATOM      9  C   UNL     1      -4.727  11.333  18.962  0.00  0.00    +0.137 A 
ATOM     10  N   UNL     1      -5.031  10.010  18.846  0.00  0.00    -0.251 N 
ATOM     11  N   UNL     1      -4.748   9.343  19.978  0.00  0.00    -0.065 NA
BRANCH  10  12
ATOM     12  C   UNL     1      -5.459   9.299  17.656  0.00  0.00    +0.149 C 
BRANCH  12  13
ATOM     13  C   UNL     1      -4.628   9.610  16.400  0.00  0.00    +0.021 C 
ATOM     14  C   UNL     1      -3.576   8.522  16.144  0.00  0.00    +0.010 C 
BRANCH  13  15
ATOM     15  C   UNL     1      -5.530   9.736  15.148  0.00  0.00    +0.089 C 
BRANCH  15  16
ATOM     16  N   UNL     1      -5.314  10.934  14.326  0.00  0.00    -0.299 NA
ATOM     17  C   UNL     1      -4.259  10.671  13.311  0.00  0.00    +0.103 C 
ATOM     18  C   UNL     1      -4.060  11.877  12.369  0.00  0.00    +0.120 C 
ATOM     19  N   UNL     1      -3.705  13.064  13.155  0.00  0.00    -0.327 N 
ATOM     20  C   UNL     1      -4.656  13.384  14.230  0.00  0.00    +0.120 C 
ATOM     21  C   UNL     1      -4.909  12.127  15.112  0.00  0.00    +0.103 C 
BRANCH  19  22
ATOM     22  C   UNL     1      -2.606  13.841  12.871  0.00  0.00    +0.030 A 
ATOM     23  C   UNL     1      -1.517  13.329  12.143  0.00  0.00    +0.024 A 
ATOM     24  C   UNL     1      -0.379  14.096  11.867  0.00  0.00    +0.022 A 
ATOM     25  C   UNL     1      -0.312  15.405  12.312  0.00  0.00    +0.041 A 
ATOM     26 CL   UNL     1       1.085  16.353  11.981  0.00  0.00    -0.084 Cl
ATOM     27  C   UNL     1      -1.369  15.951  13.032  0.00  0.00    +0.022 A 
ATOM     28  C   UNL     1      -2.500  15.170  13.308  0.00  0.00    +0.024 A 
ENDBRANCH  19  22
ENDBRANCH  15  16
ENDBRANCH  13  15
ENDBRANCH  12  13
ENDBRANCH  10  12
ENDBRANCH   6   8
ENDBRANCH   5   6
ENDBRANCH   1   5
BRANCH   3  29
ATOM     29  C   UNL     1      -4.638  12.968  25.467  0.00  0.00    +0.141 C 
BRANCH  29  30
ATOM     30  C   UNL     1      -5.898  12.216  25.883  0.00  0.00    +0.163 C 
BRANCH  30  31
ATOM     31  O   UNL     1      -6.080  11.062  25.047  0.00  0.00    -0.388 OA
ATOM     32  H   UNL     1      -5.235  10.802  24.671  0.00  0.00    +0.210 HD
ENDBRANCH  30  31
BRANCH  30  33
ATOM     33  C   UNL     1      -5.790  11.811  27.363  0.00  0.00    +0.175 C 
BRANCH  33  34
ATOM     34  C   UNL     1      -4.473  11.083  27.669  0.00  0.00    +0.176 C 
ATOM     35  O   UNL     1      -4.427   9.881  26.852  0.00  0.00    -0.332 OA
ATOM     36  C   UNL     1      -3.184   9.107  26.933  0.00  0.00    +0.277 C 
ATOM     37  C   UNL     1      -2.862   8.753  28.405  0.00  0.00    +0.110 C 
ATOM     38  C   UNL     1      -2.931   9.995  29.318  0.00  0.00    +0.143 C 
ATOM     39  C   UNL     1      -4.263  10.726  29.152  0.00  0.00    +0.133 C 
BRANCH  39  40
ATOM     40  N   UNL     1      -4.282  11.954  29.961  0.00  0.00    -0.308 N 
ATOM     41  H   UNL     1      -3.612  12.677  29.737  0.00  0.00    +0.149 HD
ATOM     42  C   UNL     1      -5.126  12.177  30.972  0.00  0.00    +0.210 C 
ATOM     43  C   UNL     1      -6.117  11.046  31.305  0.00  0.00    +0.109 C 
ATOM     44  O   UNL     1      -5.128  13.222  31.623  0.00  0.00    -0.276 OA
ENDBRANCH  39  40
BRANCH  36  45
ATOM     45  C   UNL     1      -2.007   9.898  26.324  0.00  0.00    +0.414 C 
ATOM     46  O   UNL     1      -0.921   9.937  26.902  0.00  0.00    -0.240 OA
ATOM     47  O   UNL     1      -2.143  10.495  25.256  0.00  0.00    -0.240 OA
ENDBRANCH  36  45
BRANCH  36  48
ATOM     48  O   UNL     1      -3.376   7.872  26.196  0.00  0.00    -0.343 OA
ATOM     49  C   UNL     1      -4.482   7.884  25.259  0.00  0.00    +0.198 C 
ENDBRANCH  36  48
BRANCH  38  50
ATOM     50  O   UNL     1      -2.778   9.599  30.682  0.00  0.00    -0.390 OA
ATOM     51  H   UNL     1      -3.460  10.015  31.215  0.00  0.00    +0.210 HD
ENDBRANCH  38  50
ENDBRANCH  33  34
BRANCH  33  52
ATOM     52  O   UNL     1      -6.912  10.986  27.735  0.00  0.00    -0.387 OA
ATOM     53  H   UNL     1      -7.341  10.652  26.944  0.00  0.00    +0.210 HD
ENDBRANCH  33  52
ENDBRANCH  30  33
ENDBRANCH  29  30
ENDBRANCH   3  29
TORSDOF 18
