REMARK VINA RESULT:    -3.997      6.437     10.228
REMARK INTER + INTRA:         -11.364
REMARK INTER:                  -9.121
REMARK INTRA:                  -2.244
REMARK UNBOUND:                -3.979
REMARK  Name = lig_assembled_24.pdb
REMARK  19 active torsions:
REMARK  status: ('A' for Active; 'I' for Inactive)
REMARK    1  A    between atoms: _2  and  _9
REMARK    2  A    between atoms: _4  and  _21
REMARK    3  A    between atoms: _6  and  _7
REMARK    4  A    between atoms: _6  and  _21
REMARK    5  A    between atoms: _9  and  _10
REMARK    6  A    between atoms: _13  and  _16
REMARK    7  A    between atoms: _14  and  _16
REMARK    8  A    between atoms: _17  and  _37
REMARK    9  A    between atoms: _19  and  _25
REMARK   10  A    between atoms: _20  and  _24
REMARK   11  A    between atoms: _24  and  _25
REMARK   12  A    between atoms: _27  and  _28
REMARK   13  A    between atoms: _29  and  _30
REMARK   14  A    between atoms: _31  and  _33
REMARK   15  A    between atoms: _33  and  _34
REMARK   16  A    between atoms: _33  and  _35
REMARK   17  A    between atoms: _35  and  _36
REMARK   18  A    between atoms: _35  and  _37
REMARK   19  A    between atoms: _38  and  _40
REMARK                            x       y       z     vdW  Elec       q    Type
REMARK                         _______ _______ _______ _____ _____    ______ ____
ROOT
ATOM      1  C   UNL     1      -2.979  11.079  14.299  0.00  0.00    +0.163 C 
ENDROOT
BRANCH   1   2
ATOM      2  O   UNL     1      -2.180  10.488  13.261  0.00  0.00    -0.388 OA
ATOM      3  H   UNL     1      -2.521  10.752  12.403  0.00  0.00    +0.210 HD
ENDBRANCH   1   2
BRANCH   1   4
ATOM      4  C   UNL     1      -4.077  11.977  13.703  0.00  0.00    +0.175 C 
BRANCH   4   5
ATOM      5  C   UNL     1      -3.526  12.933  12.635  0.00  0.00    +0.176 C 
ATOM      6  O   UNL     1      -2.217  13.389  13.075  0.00  0.00    -0.332 OA
ATOM      7  C   UNL     1      -1.487  14.233  12.125  0.00  0.00    +0.277 C 
ATOM      8  C   UNL     1      -2.351  15.448  11.706  0.00  0.00    +0.110 C 
ATOM      9  C   UNL     1      -3.764  15.015  11.260  0.00  0.00    +0.143 C 
ATOM     10  C   UNL     1      -4.430  14.139  12.321  0.00  0.00    +0.133 C 
BRANCH  10  11
ATOM     11  N   UNL     1      -5.739  13.662  11.848  0.00  0.00    -0.308 N 
ATOM     12  H   UNL     1      -5.751  12.978  11.105  0.00  0.00    +0.149 HD
ATOM     13  C   UNL     1      -6.912  14.074  12.337  0.00  0.00    +0.210 C 
ATOM     14  C   UNL     1      -6.860  15.137  13.451  0.00  0.00    +0.109 C 
ATOM     15  O   UNL     1      -7.993  13.646  11.931  0.00  0.00    -0.276 OA
ENDBRANCH  10  11
BRANCH   7  16
ATOM     16  C   UNL     1      -1.089  13.427  10.871  0.00  0.00    +0.414 C 
ATOM     17  O   UNL     1      -0.914  13.999   9.795  0.00  0.00    -0.240 OA
ATOM     18  O   UNL     1      -0.943  12.206  10.934  0.00  0.00    -0.240 OA
ENDBRANCH   7  16
BRANCH   7  19
ATOM     19  O   UNL     1      -0.294  14.727  12.787  0.00  0.00    -0.343 OA
ATOM     20  C   UNL     1       0.106  16.068  12.408  0.00  0.00    +0.198 C 
ENDBRANCH   7  19
BRANCH   9  21
ATOM     21  O   UNL     1      -4.571  16.171  11.029  0.00  0.00    -0.390 OA
ATOM     22  H   UNL     1      -5.304  16.179  11.650  0.00  0.00    +0.210 HD
ENDBRANCH   9  21
ENDBRANCH   4   5
BRANCH   4  23
ATOM     23  O   UNL     1      -4.729  12.725  14.750  0.00  0.00    -0.387 OA
ATOM     24  H   UNL     1      -4.872  13.628  14.457  0.00  0.00    +0.210 HD
ENDBRANCH   4  23
ENDBRANCH   1   4
BRANCH   1  25
ATOM     25  C   UNL     1      -3.619   9.988  15.150  0.00  0.00    +0.141 C 
BRANCH  25  28
ATOM     26  C   UNL     1      -5.335  10.122  16.924  0.00  0.00    +0.401 C 
ATOM     27  O   UNL     1      -6.064   9.268  16.413  0.00  0.00    -0.226 OA
ATOM     28  N   UNL     1      -4.177  10.523  16.398  0.00  0.00    -0.279 N 
ATOM     29  H   UNL     1      -3.653  11.237  16.886  0.00  0.00    +0.152 HD
BRANCH  26  30
ATOM     30  O   UNL     1      -5.737  10.734  18.151  0.00  0.00    -0.444 OA
BRANCH  30  31
ATOM     31  C   UNL     1      -4.711  10.558  19.132  0.00  0.00    +0.292 C 
BRANCH  31  33
ATOM     32  N   UNL     1      -5.848  12.401  20.331  0.00  0.00    -0.131 NA
ATOM     33  C   UNL     1      -4.707  11.687  20.080  0.00  0.00    +0.120 A 
ATOM     34  C   UNL     1      -3.681  12.195  20.845  0.00  0.00    +0.137 A 
ATOM     35  N   UNL     1      -4.273  13.170  21.593  0.00  0.00    -0.247 N 
ATOM     36  N   UNL     1      -5.571  13.313  21.251  0.00  0.00    -0.065 NA
BRANCH  35  37
ATOM     37  C   UNL     1      -3.750  13.984  22.679  0.00  0.00    +0.180 C 
BRANCH  37  38
ATOM     38  C   UNL     1      -3.766  13.317  24.033  0.00  0.00    -0.026 A 
ATOM     39  C   UNL     1      -4.903  13.388  24.848  0.00  0.00    +0.009 A 
ATOM     40  C   UNL     1      -4.909  12.766  26.100  0.00  0.00    +0.046 A 
ATOM     41  C   UNL     1      -3.795  12.054  26.547  0.00  0.00    +0.120 A 
ATOM     42  C   UNL     1      -2.653  12.000  25.753  0.00  0.00    +0.046 A 
ATOM     43  C   UNL     1      -2.637  12.627  24.501  0.00  0.00    +0.009 A 
BRANCH  41  44
ATOM     44  O   UNL     1      -3.912  11.507  27.795  0.00  0.00    -0.495 OA
ATOM     45  C   UNL     1      -4.192  10.110  27.827  0.00  0.00    +0.277 C 
ENDBRANCH  41  44
ENDBRANCH  37  38
ENDBRANCH  35  37
ENDBRANCH  31  33
ENDBRANCH  30  31
ENDBRANCH  26  30
ENDBRANCH  25  28
ENDBRANCH   1  25
TORSDOF 16
