REMARK VINA RESULT:    -5.025      2.139      3.795
REMARK INTER + INTRA:         -12.257
REMARK INTER:                  -9.357
REMARK INTRA:                  -2.899
REMARK UNBOUND:                -2.678
REMARK  Name = lig_assembled_26.pdb
REMARK  20 active torsions:
REMARK  status: ('A' for Active; 'I' for Inactive)
REMARK    1  A    between atoms: _2  and  _9
REMARK    2  A    between atoms: _4  and  _23
REMARK    3  A    between atoms: _6  and  _7
REMARK    4  A    between atoms: _6  and  _23
REMARK    5  A    between atoms: _9  and  _10
REMARK    6  A    between atoms: _9  and  _11
REMARK    7  A    between atoms: _11  and  _12
REMARK    8  A    between atoms: _12  and  _13
REMARK    9  A    between atoms: _19  and  _39
REMARK   10  A    between atoms: _21  and  _27
REMARK   11  A    between atoms: _22  and  _26
REMARK   12  A    between atoms: _26  and  _27
REMARK   13  A    between atoms: _29  and  _30
REMARK   14  A    between atoms: _31  and  _32
REMARK   15  A    between atoms: _33  and  _35
REMARK   16  A    between atoms: _35  and  _36
REMARK   17  A    between atoms: _35  and  _37
REMARK   18  A    between atoms: _37  and  _38
REMARK   19  A    between atoms: _37  and  _39
REMARK   20  A    between atoms: _40  and  _42
REMARK                            x       y       z     vdW  Elec       q    Type
REMARK                         _______ _______ _______ _____ _____    ______ ____
ROOT
ATOM      1  C   UNL     1      -6.342   9.438  23.069  0.00  0.00    +0.163 C 
ENDROOT
BRANCH   1   2
ATOM      2  O   UNL     1      -7.165   9.326  24.242  0.00  0.00    -0.388 OA
ATOM      3  H   UNL     1      -6.739   8.747  24.879  0.00  0.00    +0.210 HD
ENDBRANCH   1   2
BRANCH   1   4
ATOM      4  C   UNL     1      -5.030   8.654  23.241  0.00  0.00    +0.175 C 
BRANCH   4   5
ATOM      5  C   UNL     1      -3.995   9.433  24.066  0.00  0.00    +0.176 C 
ATOM      6  O   UNL     1      -4.373   9.333  25.467  0.00  0.00    -0.332 OA
ATOM      7  C   UNL     1      -3.435   9.933  26.421  0.00  0.00    +0.277 C 
ATOM      8  C   UNL     1      -3.165  11.413  26.056  0.00  0.00    +0.110 C 
ATOM      9  C   UNL     1      -2.791  11.574  24.568  0.00  0.00    +0.143 C 
ATOM     10  C   UNL     1      -3.832  10.911  23.665  0.00  0.00    +0.133 C 
BRANCH  10  11
ATOM     11  N   UNL     1      -3.420  10.995  22.255  0.00  0.00    -0.308 N 
ATOM     12  H   UNL     1      -2.667  10.396  21.947  0.00  0.00    +0.149 HD
ATOM     13  C   UNL     1      -3.976  11.811  21.356  0.00  0.00    +0.210 C 
ATOM     14  C   UNL     1      -5.103  12.731  21.863  0.00  0.00    +0.109 C 
ATOM     15  O   UNL     1      -3.620  11.850  20.178  0.00  0.00    -0.276 OA
ENDBRANCH  10  11
BRANCH   7  16
ATOM     16  C   UNL     1      -2.102   9.156  26.440  0.00  0.00    +0.414 C 
ATOM     17  O   UNL     1      -2.101   7.925  26.411  0.00  0.00    -0.240 OA
ATOM     18  O   UNL     1      -1.029   9.758  26.485  0.00  0.00    -0.240 OA
ENDBRANCH   7  16
BRANCH   7  19
ATOM     19  O   UNL     1      -4.044   9.890  27.737  0.00  0.00    -0.343 OA
ATOM     20  C   UNL     1      -5.329  10.555  27.839  0.00  0.00    +0.198 C 
ENDBRANCH   7  19
BRANCH   9  21
ATOM     21  O   UNL     1      -2.700  12.961  24.241  0.00  0.00    -0.390 OA
ATOM     22  H   UNL     1      -3.339  13.455  24.760  0.00  0.00    +0.210 HD
ENDBRANCH   9  21
ENDBRANCH   4   5
BRANCH   4  23
ATOM     23  O   UNL     1      -4.482   8.313  21.952  0.00  0.00    -0.387 OA
ATOM     24  H   UNL     1      -4.650   9.028  21.333  0.00  0.00    +0.210 HD
ENDBRANCH   4  23
ENDBRANCH   1   4
BRANCH   1  25
ATOM     25  C   UNL     1      -7.094   8.910  21.852  0.00  0.00    +0.141 C 
BRANCH  25  28
ATOM     26  C   UNL     1      -6.501   9.995  19.712  0.00  0.00    +0.401 C 
ATOM     27  O   UNL     1      -5.597   9.198  19.451  0.00  0.00    -0.226 OA
ATOM     28  N   UNL     1      -7.248   9.939  20.816  0.00  0.00    -0.279 N 
ATOM     29  H   UNL     1      -7.960  10.644  20.946  0.00  0.00    +0.152 HD
BRANCH  26  30
ATOM     30  O   UNL     1      -6.781  11.054  18.793  0.00  0.00    -0.444 OA
BRANCH  30  31
ATOM     31  C   UNL     1      -6.827  10.532  17.462  0.00  0.00    +0.292 C 
BRANCH  31  33
ATOM     32  N   UNL     1      -4.840  11.957  17.036  0.00  0.00    -0.131 NA
ATOM     33  C   UNL     1      -5.960  11.322  16.570  0.00  0.00    +0.120 A 
ATOM     34  C   UNL     1      -6.082  11.556  15.220  0.00  0.00    +0.137 A 
ATOM     35  N   UNL     1      -5.025  12.362  14.923  0.00  0.00    -0.248 N 
ATOM     36  N   UNL     1      -4.263  12.577  16.015  0.00  0.00    -0.065 NA
BRANCH  35  37
ATOM     37  C   UNL     1      -4.611  12.911  13.641  0.00  0.00    +0.113 C 
ATOM     38  C   UNL     1      -3.507  13.974  13.733  0.00  0.00    +0.033 C 
BRANCH  37  39
ATOM     39  C   UNL     1      -4.268  11.820  12.610  0.00  0.00    +0.106 C 
BRANCH  39  40
ATOM     40  C   UNL     1      -2.908  11.180  12.818  0.00  0.00    +0.165 C 
ATOM     41  O   UNL     1      -1.863  11.729  12.475  0.00  0.00    -0.292 OA
BRANCH  40  42
ATOM     42  C   UNL     1      -2.840   9.815  13.424  0.00  0.00    +0.017 A 
ATOM     43  C   UNL     1      -2.812   9.609  14.809  0.00  0.00    +0.011 A 
ATOM     44  C   UNL     1      -2.790   8.309  15.322  0.00  0.00    +0.001 A 
ATOM     45  C   UNL     1      -2.789   7.214  14.459  0.00  0.00    +0.000 A 
ATOM     46  C   UNL     1      -2.805   7.411  13.082  0.00  0.00    +0.001 A 
ATOM     47  C   UNL     1      -2.831   8.708  12.565  0.00  0.00    +0.011 A 
ENDBRANCH  40  42
ENDBRANCH  39  40
ENDBRANCH  37  39
ENDBRANCH  35  37
ENDBRANCH  31  33
ENDBRANCH  30  31
ENDBRANCH  26  30
ENDBRANCH  25  28
ENDBRANCH   1  25
TORSDOF 17
