REMARK VINA RESULT:    -5.036      4.469      8.205
REMARK INTER + INTRA:         -11.015
REMARK INTER:                  -8.579
REMARK INTRA:                  -2.436
REMARK UNBOUND:                -2.004
REMARK  Name = lig_assembled_6.pdb
REMARK  17 active torsions:
REMARK  status: ('A' for Active; 'I' for Inactive)
REMARK    1  A    between atoms: _2  and  _10
REMARK    2  A    between atoms: _3  and  _13
REMARK    3  A    between atoms: _5  and  _21
REMARK    4  A    between atoms: _7  and  _8
REMARK    5  A    between atoms: _7  and  _21
REMARK    6  A    between atoms: _17  and  _37
REMARK    7  A    between atoms: _19  and  _25
REMARK    8  A    between atoms: _20  and  _24
REMARK    9  A    between atoms: _24  and  _25
REMARK   10  A    between atoms: _27  and  _28
REMARK   11  A    between atoms: _29  and  _30
REMARK   12  A    between atoms: _31  and  _33
REMARK   13  A    between atoms: _33  and  _34
REMARK   14  A    between atoms: _33  and  _35
REMARK   15  A    between atoms: _35  and  _36
REMARK   16  A    between atoms: _35  and  _37
REMARK   17  A    between atoms: _38  and  _40
REMARK                            x       y       z     vdW  Elec       q    Type
REMARK                         _______ _______ _______ _____ _____    ______ ____
ROOT
ATOM      1  C   UNL     1      -6.437  11.470  30.718  0.00  0.00    +0.163 C 
ENDROOT
BRANCH   1   2
ATOM      2  O   UNL     1      -7.442  11.991  29.833  0.00  0.00    -0.388 OA
ATOM      3  H   UNL     1      -7.219  12.893  29.590  0.00  0.00    +0.210 HD
ENDBRANCH   1   2
BRANCH   1   4
ATOM      4  C   UNL     1      -6.674   9.983  30.960  0.00  0.00    +0.141 C 
BRANCH   4   7
ATOM      5  C   UNL     1      -5.293   8.134  30.077  0.00  0.00    +0.401 C 
ATOM      6  O   UNL     1      -4.890   7.779  31.188  0.00  0.00    -0.226 OA
ATOM      7  N   UNL     1      -6.124   9.158  29.878  0.00  0.00    -0.279 N 
ATOM      8  H   UNL     1      -6.390   9.378  28.928  0.00  0.00    +0.152 HD
BRANCH   5   9
ATOM      9  O   UNL     1      -4.852   7.422  28.919  0.00  0.00    -0.444 OA
BRANCH   9  10
ATOM     10  C   UNL     1      -3.423   7.421  28.873  0.00  0.00    +0.292 C 
BRANCH  10  12
ATOM     11  N   UNL     1      -1.619   8.430  27.510  0.00  0.00    -0.131 NA
ATOM     12  C   UNL     1      -2.942   8.353  27.836  0.00  0.00    +0.121 A 
ATOM     13  C   UNL     1      -3.649   9.237  27.053  0.00  0.00    +0.143 A 
ATOM     14  N   UNL     1      -2.709   9.816  26.232  0.00  0.00    -0.220 N 
ATOM     15  N   UNL     1      -1.484   9.326  26.541  0.00  0.00    -0.060 NA
BRANCH  14  16
ATOM     16  C   UNL     1      -2.903  10.749  25.179  0.00  0.00    +0.067 A 
ATOM     17  C   UNL     1      -2.706  12.122  25.394  0.00  0.00    +0.034 A 
ATOM     18  C   UNL     1      -2.960  13.037  24.366  0.00  0.00    +0.086 A 
ATOM     19  C   UNL     1      -3.409  12.579  23.122  0.00  0.00    +0.273 A 
ATOM     20  C   UNL     1      -3.584  11.210  22.889  0.00  0.00    +0.086 A 
ATOM     21  C   UNL     1      -3.328  10.297  23.918  0.00  0.00    +0.034 A 
BRANCH  19  22
ATOM     22  N   UNL     1      -3.715  13.548  22.061  0.00  0.00    +0.080 N 
ATOM     23  O   UNL     1      -3.396  14.731  22.253  0.00  0.00    +0.041 OA
ATOM     24  O   UNL     1      -4.280  13.128  21.042  0.00  0.00    -0.576 OA
ENDBRANCH  19  22
ENDBRANCH  14  16
ENDBRANCH  10  12
ENDBRANCH   9  10
ENDBRANCH   5   9
ENDBRANCH   4   7
ENDBRANCH   1   4
BRANCH   1  25
ATOM     25  C   UNL     1      -6.447  12.218  32.063  0.00  0.00    +0.175 C 
BRANCH  25  26
ATOM     26  C   UNL     1      -5.478  13.409  32.069  0.00  0.00    +0.176 C 
ATOM     27  O   UNL     1      -6.036  14.443  31.212  0.00  0.00    -0.332 OA
ATOM     28  C   UNL     1      -5.294  15.707  31.179  0.00  0.00    +0.277 C 
ATOM     29  C   UNL     1      -3.813  15.455  30.800  0.00  0.00    +0.110 C 
ATOM     30  C   UNL     1      -3.186  14.341  31.664  0.00  0.00    +0.143 C 
ATOM     31  C   UNL     1      -4.041  13.073  31.629  0.00  0.00    +0.133 C 
BRANCH  31  32
ATOM     32  N   UNL     1      -3.480  12.049  32.524  0.00  0.00    -0.308 N 
ATOM     33  H   UNL     1      -3.502  12.228  33.518  0.00  0.00    +0.149 HD
ATOM     34  C   UNL     1      -2.943  10.899  32.108  0.00  0.00    +0.210 C 
ATOM     35  C   UNL     1      -2.900  10.668  30.586  0.00  0.00    +0.109 C 
ATOM     36  O   UNL     1      -2.494  10.052  32.882  0.00  0.00    -0.276 OA
ENDBRANCH  31  32
BRANCH  28  37
ATOM     37  C   UNL     1      -5.362  16.418  32.546  0.00  0.00    +0.414 C 
ATOM     38  O   UNL     1      -6.448  16.599  33.097  0.00  0.00    -0.240 OA
ATOM     39  O   UNL     1      -4.334  16.810  33.098  0.00  0.00    -0.240 OA
ENDBRANCH  28  37
BRANCH  30  40
ATOM     40  O   UNL     1      -1.876  14.038  31.183  0.00  0.00    -0.390 OA
ATOM     41  H   UNL     1      -1.913  13.262  30.620  0.00  0.00    +0.210 HD
ENDBRANCH  30  40
BRANCH  28  42
ATOM     42  O   UNL     1      -5.889  16.550  30.159  0.00  0.00    -0.343 OA
ATOM     43  C   UNL     1      -5.079  17.681  29.750  0.00  0.00    +0.198 C 
ENDBRANCH  28  42
ENDBRANCH  25  26
BRANCH  25  44
ATOM     44  O   UNL     1      -6.127  11.311  33.137  0.00  0.00    -0.387 OA
ATOM     45  H   UNL     1      -5.343  11.623  33.596  0.00  0.00    +0.210 HD
ENDBRANCH  25  44
ENDBRANCH   1  25
TORSDOF 15
