REMARK VINA RESULT:    -4.098      2.966      5.493
REMARK INTER + INTRA:         -10.860
REMARK INTER:                  -6.779
REMARK INTRA:                  -4.081
REMARK UNBOUND:                -3.048
REMARK  Name = lig_assembled_50.pdb
REMARK  20 active torsions:
REMARK  status: ('A' for Active; 'I' for Inactive)
REMARK    1  A    between atoms: _2  and  _9
REMARK    2  A    between atoms: _4  and  _17
REMARK    3  A    between atoms: _5  and  _10
REMARK    4  A    between atoms: _5  and  _11
REMARK    5  A    between atoms: _6  and  _7
REMARK    6  A    between atoms: _6  and  _17
REMARK    7  A    between atoms: _9  and  _10
REMARK    8  A    between atoms: _10  and  _12
REMARK    9  A    between atoms: _13  and  _33
REMARK   10  A    between atoms: _15  and  _21
REMARK   11  A    between atoms: _16  and  _20
REMARK   12  A    between atoms: _20  and  _21
REMARK   13  A    between atoms: _23  and  _24
REMARK   14  A    between atoms: _25  and  _26
REMARK   15  A    between atoms: _27  and  _29
REMARK   16  A    between atoms: _29  and  _30
REMARK   17  A    between atoms: _29  and  _31
REMARK   18  A    between atoms: _31  and  _32
REMARK   19  A    between atoms: _31  and  _33
REMARK   20  A    between atoms: _34  and  _36
REMARK                            x       y       z     vdW  Elec       q    Type
REMARK                         _______ _______ _______ _____ _____    ______ ____
ROOT
ATOM      1  C   UNL     1      -3.862  12.767  30.210  0.00  0.00    +0.163 C 
ENDROOT
BRANCH   1   2
ATOM      2  O   UNL     1      -2.756  12.386  31.044  0.00  0.00    -0.388 OA
ATOM      3  H   UNL     1      -2.264  13.170  31.302  0.00  0.00    +0.210 HD
ENDBRANCH   1   2
BRANCH   1   4
ATOM      4  C   UNL     1      -4.588  11.527  29.660  0.00  0.00    +0.175 C 
BRANCH   4   5
ATOM      5  C   UNL     1      -3.629  10.569  28.938  0.00  0.00    +0.176 C 
ATOM      6  O   UNL     1      -4.134  10.363  27.590  0.00  0.00    -0.332 OA
ATOM      7  C   UNL     1      -3.284   9.553  26.712  0.00  0.00    +0.277 C 
ATOM      8  C   UNL     1      -2.974   8.186  27.369  0.00  0.00    +0.110 C 
ATOM      9  C   UNL     1      -2.464   8.353  28.816  0.00  0.00    +0.143 C 
ATOM     10  C   UNL     1      -3.422   9.214  29.640  0.00  0.00    +0.133 C 
BRANCH  10  11
ATOM     11  N   UNL     1      -2.883   9.438  30.990  0.00  0.00    -0.308 N 
ATOM     12  H   UNL     1      -1.995   9.914  31.071  0.00  0.00    +0.149 HD
ATOM     13  C   UNL     1      -3.489   9.052  32.116  0.00  0.00    +0.210 C 
ATOM     14  C   UNL     1      -4.826   8.305  31.959  0.00  0.00    +0.109 C 
ATOM     15  O   UNL     1      -3.020   9.266  33.235  0.00  0.00    -0.276 OA
ENDBRANCH  10  11
BRANCH   7  16
ATOM     16  C   UNL     1      -1.963  10.287  26.400  0.00  0.00    +0.414 C 
ATOM     17  O   UNL     1      -1.980  11.399  25.875  0.00  0.00    -0.240 OA
ATOM     18  O   UNL     1      -0.880   9.766  26.674  0.00  0.00    -0.240 OA
ENDBRANCH   7  16
BRANCH   9  19
ATOM     19  O   UNL     1      -2.337   7.071  29.433  0.00  0.00    -0.390 OA
ATOM     20  H   UNL     1      -3.209   6.705  29.596  0.00  0.00    +0.210 HD
ENDBRANCH   9  19
BRANCH   7  21
ATOM     21  O   UNL     1      -4.011   9.313  25.479  0.00  0.00    -0.343 OA
ATOM     22  C   UNL     1      -5.380   8.867  25.653  0.00  0.00    +0.198 C 
ENDBRANCH   7  21
ENDBRANCH   4   5
BRANCH   4  23
ATOM     23  O   UNL     1      -5.652  11.927  28.773  0.00  0.00    -0.387 OA
ATOM     24  H   UNL     1      -5.372  11.807  27.862  0.00  0.00    +0.210 HD
ENDBRANCH   4  23
ENDBRANCH   1   4
BRANCH   1  25
ATOM     25  C   UNL     1      -4.845  13.621  31.005  0.00  0.00    +0.141 C 
BRANCH  25  28
ATOM     26  C   UNL     1      -6.349  15.546  30.633  0.00  0.00    +0.401 C 
ATOM     27  O   UNL     1      -6.752  15.576  31.798  0.00  0.00    -0.226 OA
ATOM     28  N   UNL     1      -5.462  14.662  30.174  0.00  0.00    -0.279 N 
ATOM     29  H   UNL     1      -5.200  14.712  29.200  0.00  0.00    +0.152 HD
BRANCH  26  30
ATOM     30  O   UNL     1      -6.851  16.505  29.699  0.00  0.00    -0.444 OA
BRANCH  30  31
ATOM     31  C   UNL     1      -7.992  15.964  29.027  0.00  0.00    +0.292 C 
BRANCH  31  33
ATOM     32  N   UNL     1      -7.799  13.757  27.916  0.00  0.00    -0.131 NA
ATOM     33  C   UNL     1      -7.569  15.110  27.899  0.00  0.00    +0.120 A 
ATOM     34  C   UNL     1      -6.938  15.445  26.719  0.00  0.00    +0.137 A 
ATOM     35  N   UNL     1      -6.807  14.258  26.071  0.00  0.00    -0.249 N 
ATOM     36  N   UNL     1      -7.340  13.247  26.783  0.00  0.00    -0.065 NA
BRANCH  35  37
ATOM     37  C   UNL     1      -6.188  13.998  24.791  0.00  0.00    +0.178 C 
BRANCH  37  38
ATOM     38  C   UNL     1      -4.767  13.430  24.888  0.00  0.00    +0.161 C 
BRANCH  38  39
ATOM     39  O   UNL     1      -4.506  12.809  26.150  0.00  0.00    -0.388 OA
ATOM     40  H   UNL     1      -3.651  12.337  26.094  0.00  0.00    +0.210 HD
ENDBRANCH  38  39
BRANCH  38  41
ATOM     41  C   UNL     1      -4.414  12.461  23.752  0.00  0.00    +0.189 C 
BRANCH  41  42
ATOM     42  O   UNL     1      -3.031  12.542  23.411  0.00  0.00    -0.392 OA
ATOM     43  H   UNL     1      -2.595  11.723  23.713  0.00  0.00    +0.210 HD
ENDBRANCH  41  42
ENDBRANCH  38  41
ENDBRANCH  37  38
ENDBRANCH  35  37
ENDBRANCH  31  33
ENDBRANCH  30  31
ENDBRANCH  26  30
ENDBRANCH  25  28
ENDBRANCH   1  25
TORSDOF 18
