REMARK VINA RESULT:    -4.790      2.716      6.272
REMARK INTER + INTRA:         -12.216
REMARK INTER:                  -9.343
REMARK INTRA:                  -2.873
REMARK UNBOUND:                -3.505
REMARK  Name = lig_assembled_22.pdb
REMARK  20 active torsions:
REMARK  status: ('A' for Active; 'I' for Inactive)
REMARK    1  A    between atoms: _2  and  _9
REMARK    2  A    between atoms: _4  and  _18
REMARK    3  A    between atoms: _5  and  _9
REMARK    4  A    between atoms: _5  and  _12
REMARK    5  A    between atoms: _6  and  _7
REMARK    6  A    between atoms: _6  and  _18
REMARK    7  A    between atoms: _9  and  _10
REMARK    8  A    between atoms: _9  and  _11
REMARK    9  A    between atoms: _14  and  _34
REMARK   10  A    between atoms: _16  and  _22
REMARK   11  A    between atoms: _17  and  _21
REMARK   12  A    between atoms: _21  and  _22
REMARK   13  A    between atoms: _24  and  _25
REMARK   14  A    between atoms: _26  and  _27
REMARK   15  A    between atoms: _28  and  _30
REMARK   16  A    between atoms: _30  and  _31
REMARK   17  A    between atoms: _30  and  _32
REMARK   18  A    between atoms: _32  and  _33
REMARK   19  A    between atoms: _32  and  _34
REMARK   20  A    between atoms: _35  and  _37
REMARK                            x       y       z     vdW  Elec       q    Type
REMARK                         _______ _______ _______ _____ _____    ______ ____
ROOT
ATOM      1  C   UNL     1      -3.320  10.096  30.818  0.00  0.00    +0.163 C 
ENDROOT
BRANCH   1   2
ATOM      2  O   UNL     1      -2.291  10.946  31.352  0.00  0.00    -0.388 OA
ATOM      3  H   UNL     1      -2.677  11.566  31.974  0.00  0.00    +0.210 HD
ENDBRANCH   1   2
BRANCH   1   4
ATOM      4  C   UNL     1      -2.716   9.098  29.837  0.00  0.00    +0.141 C 
BRANCH   4   7
ATOM      5  C   UNL     1      -1.754   9.089  27.561  0.00  0.00    +0.401 C 
ATOM      6  O   UNL     1      -1.572   7.869  27.541  0.00  0.00    -0.226 OA
ATOM      7  N   UNL     1      -2.278   9.748  28.595  0.00  0.00    -0.279 N 
ATOM      8  H   UNL     1      -2.379  10.750  28.521  0.00  0.00    +0.152 HD
BRANCH   5   9
ATOM      9  O   UNL     1      -1.385   9.865  26.418  0.00  0.00    -0.444 OA
BRANCH   9  10
ATOM     10  C   UNL     1      -2.074  11.118  26.448  0.00  0.00    +0.292 C 
BRANCH  10  12
ATOM     11  N   UNL     1      -3.125  10.405  24.331  0.00  0.00    -0.131 NA
ATOM     12  C   UNL     1      -2.657  11.412  25.126  0.00  0.00    +0.120 A 
ATOM     13  C   UNL     1      -2.835  12.615  24.478  0.00  0.00    +0.138 A 
ATOM     14  N   UNL     1      -3.419  12.274  23.290  0.00  0.00    -0.235 N 
ATOM     15  N   UNL     1      -3.585  10.939  23.211  0.00  0.00    -0.064 NA
BRANCH  14  16
ATOM     16  C   UNL     1      -3.827  13.130  22.175  0.00  0.00    +0.155 C 
ATOM     17  C   UNL     1      -3.136  12.734  20.852  0.00  0.00    +0.048 C 
ATOM     18  C   UNL     1      -3.447  14.586  22.505  0.00  0.00    +0.048 C 
BRANCH  16  19
ATOM     19  C   UNL     1      -5.339  13.031  21.953  0.00  0.00    +0.332 C 
ATOM     20  O   UNL     1      -5.878  13.072  20.853  0.00  0.00    -0.248 OA
BRANCH  19  21
ATOM     21  O   UNL     1      -6.082  12.889  23.078  0.00  0.00    -0.479 OA
ATOM     22  H   UNL     1      -6.985  12.537  22.961  0.00  0.00    +0.295 HD
ENDBRANCH  19  21
ENDBRANCH  16  19
ENDBRANCH  14  16
ENDBRANCH  10  12
ENDBRANCH   9  10
ENDBRANCH   5   9
ENDBRANCH   4   7
ENDBRANCH   1   4
BRANCH   1  23
ATOM     23  C   UNL     1      -4.404  10.925  30.107  0.00  0.00    +0.175 C 
BRANCH  23  24
ATOM     24  C   UNL     1      -4.344  12.410  30.496  0.00  0.00    +0.176 C 
ATOM     25  O   UNL     1      -4.554  12.505  31.932  0.00  0.00    -0.332 OA
ATOM     26  C   UNL     1      -4.425  13.848  32.505  0.00  0.00    +0.277 C 
ATOM     27  C   UNL     1      -5.361  14.840  31.772  0.00  0.00    +0.110 C 
ATOM     28  C   UNL     1      -5.197  14.753  30.240  0.00  0.00    +0.143 C 
ATOM     29  C   UNL     1      -5.347  13.312  29.753  0.00  0.00    +0.133 C 
BRANCH  29  30
ATOM     30  N   UNL     1      -5.102  13.229  28.305  0.00  0.00    -0.308 N 
ATOM     31  H   UNL     1      -4.183  13.476  27.967  0.00  0.00    +0.149 HD
ATOM     32  C   UNL     1      -6.016  12.849  27.407  0.00  0.00    +0.210 C 
ATOM     33  C   UNL     1      -7.415  12.504  27.951  0.00  0.00    +0.109 C 
ATOM     34  O   UNL     1      -5.778  12.775  26.201  0.00  0.00    -0.276 OA
ENDBRANCH  29  30
BRANCH  26  35
ATOM     35  C   UNL     1      -2.968  14.347  32.407  0.00  0.00    +0.414 C 
ATOM     36  O   UNL     1      -2.035  13.545  32.436  0.00  0.00    -0.240 OA
ATOM     37  O   UNL     1      -2.726  15.549  32.300  0.00  0.00    -0.240 OA
ENDBRANCH  26  35
BRANCH  26  38
ATOM     38  O   UNL     1      -4.826  13.783  33.897  0.00  0.00    -0.343 OA
ATOM     39  C   UNL     1      -5.584  14.926  34.370  0.00  0.00    +0.198 C 
ENDBRANCH  26  38
BRANCH  28  40
ATOM     40  O   UNL     1      -6.180  15.570  29.603  0.00  0.00    -0.390 OA
ATOM     41  H   UNL     1      -6.577  15.086  28.875  0.00  0.00    +0.210 HD
ENDBRANCH  28  40
ENDBRANCH  23  24
BRANCH  23  42
ATOM     42  O   UNL     1      -5.710  10.388  30.397  0.00  0.00    -0.387 OA
ATOM     43  H   UNL     1      -5.733   9.458  30.162  0.00  0.00    +0.210 HD
ENDBRANCH  23  42
ENDBRANCH   1  23
TORSDOF 16
