REMARK VINA RESULT:    -4.499      0.000      0.000
REMARK INTER + INTRA:         -12.292
REMARK INTER:                  -8.504
REMARK INTRA:                  -3.788
REMARK UNBOUND:                -3.979
REMARK  Name = lig_assembled_24.pdb
REMARK  19 active torsions:
REMARK  status: ('A' for Active; 'I' for Inactive)
REMARK    1  A    between atoms: _2  and  _9
REMARK    2  A    between atoms: _4  and  _21
REMARK    3  A    between atoms: _6  and  _7
REMARK    4  A    between atoms: _6  and  _21
REMARK    5  A    between atoms: _9  and  _10
REMARK    6  A    between atoms: _13  and  _16
REMARK    7  A    between atoms: _14  and  _16
REMARK    8  A    between atoms: _17  and  _37
REMARK    9  A    between atoms: _19  and  _25
REMARK   10  A    between atoms: _20  and  _24
REMARK   11  A    between atoms: _24  and  _25
REMARK   12  A    between atoms: _27  and  _28
REMARK   13  A    between atoms: _29  and  _30
REMARK   14  A    between atoms: _31  and  _33
REMARK   15  A    between atoms: _33  and  _34
REMARK   16  A    between atoms: _33  and  _35
REMARK   17  A    between atoms: _35  and  _36
REMARK   18  A    between atoms: _35  and  _37
REMARK   19  A    between atoms: _38  and  _40
REMARK                            x       y       z     vdW  Elec       q    Type
REMARK                         _______ _______ _______ _____ _____    ______ ____
ROOT
ATOM      1  C   UNL     1      -6.950   8.634  24.206  0.00  0.00    +0.163 C 
ENDROOT
BRANCH   1   2
ATOM      2  O   UNL     1      -6.269   8.588  25.471  0.00  0.00    -0.388 OA
ATOM      3  H   UNL     1      -6.735   7.993  26.064  0.00  0.00    +0.210 HD
ENDBRANCH   1   2
BRANCH   1   4
ATOM      4  C   UNL     1      -6.622   9.935  23.453  0.00  0.00    +0.175 C 
BRANCH   4   5
ATOM      5  C   UNL     1      -5.186  10.410  23.716  0.00  0.00    +0.176 C 
ATOM      6  O   UNL     1      -5.217  11.327  24.844  0.00  0.00    -0.332 OA
ATOM      7  C   UNL     1      -3.912  11.804  25.310  0.00  0.00    +0.277 C 
ATOM      8  C   UNL     1      -3.120  12.439  24.141  0.00  0.00    +0.110 C 
ATOM      9  C   UNL     1      -3.085  11.514  22.907  0.00  0.00    +0.143 C 
ATOM     10  C   UNL     1      -4.496  11.075  22.511  0.00  0.00    +0.133 C 
BRANCH  10  11
ATOM     11  N   UNL     1      -4.444  10.125  21.389  0.00  0.00    -0.308 N 
ATOM     12  H   UNL     1      -4.052   9.210  21.563  0.00  0.00    +0.149 HD
ATOM     13  C   UNL     1      -4.880  10.392  20.155  0.00  0.00    +0.210 C 
ATOM     14  C   UNL     1      -5.447  11.804  19.915  0.00  0.00    +0.109 C 
ATOM     15  O   UNL     1      -4.837   9.572  19.238  0.00  0.00    -0.276 OA
ENDBRANCH  10  11
BRANCH   7  16
ATOM     16  C   UNL     1      -3.093  10.648  25.920  0.00  0.00    +0.414 C 
ATOM     17  O   UNL     1      -3.658   9.746  26.538  0.00  0.00    -0.240 OA
ATOM     18  O   UNL     1      -1.868  10.617  25.795  0.00  0.00    -0.240 OA
ENDBRANCH   7  16
BRANCH   7  19
ATOM     19  O   UNL     1      -4.140  12.825  26.316  0.00  0.00    -0.343 OA
ATOM     20  C   UNL     1      -5.476  12.842  26.879  0.00  0.00    +0.198 C 
ENDBRANCH   7  19
BRANCH   9  21
ATOM     21  O   UNL     1      -2.479  12.197  21.809  0.00  0.00    -0.390 OA
ATOM     22  H   UNL     1      -3.128  12.767  21.389  0.00  0.00    +0.210 HD
ENDBRANCH   9  21
ENDBRANCH   4   5
BRANCH   4  23
ATOM     23  O   UNL     1      -7.561  10.968  23.815  0.00  0.00    -0.387 OA
ATOM     24  H   UNL     1      -7.273  11.393  24.626  0.00  0.00    +0.210 HD
ENDBRANCH   4  23
ENDBRANCH   1   4
BRANCH   1  25
ATOM     25  C   UNL     1      -6.547   7.436  23.353  0.00  0.00    +0.141 C 
BRANCH  25  28
ATOM     26  C   UNL     1      -4.145   6.868  23.244  0.00  0.00    +0.401 C 
ATOM     27  O   UNL     1      -3.952   7.477  22.189  0.00  0.00    -0.226 OA
ATOM     28  N   UNL     1      -5.328   6.792  23.856  0.00  0.00    -0.279 N 
ATOM     29  H   UNL     1      -5.388   6.260  24.713  0.00  0.00    +0.152 HD
BRANCH  26  30
ATOM     30  O   UNL     1      -3.049   6.192  23.866  0.00  0.00    -0.444 OA
BRANCH  30  31
ATOM     31  C   UNL     1      -3.518   5.473  25.010  0.00  0.00    +0.292 C 
BRANCH  31  33
ATOM     32  N   UNL     1      -1.925   6.929  26.221  0.00  0.00    -0.131 NA
ATOM     33  C   UNL     1      -3.002   6.085  26.248  0.00  0.00    +0.120 A 
ATOM     34  C   UNL     1      -3.453   5.972  27.544  0.00  0.00    +0.137 A 
ATOM     35  N   UNL     1      -2.656   6.823  28.251  0.00  0.00    -0.247 N 
ATOM     36  N   UNL     1      -1.714   7.368  27.453  0.00  0.00    -0.065 NA
BRANCH  35  37
ATOM     37  C   UNL     1      -2.714   7.244  29.642  0.00  0.00    +0.180 C 
BRANCH  37  38
ATOM     38  C   UNL     1      -3.408   8.564  29.875  0.00  0.00    -0.026 A 
ATOM     39  C   UNL     1      -2.667   9.715  30.170  0.00  0.00    +0.009 A 
ATOM     40  C   UNL     1      -3.318  10.934  30.383  0.00  0.00    +0.046 A 
ATOM     41  C   UNL     1      -4.708  11.025  30.288  0.00  0.00    +0.120 A 
ATOM     42  C   UNL     1      -5.452   9.879  30.019  0.00  0.00    +0.046 A 
ATOM     43  C   UNL     1      -4.807   8.654  29.813  0.00  0.00    +0.009 A 
BRANCH  41  44
ATOM     44  O   UNL     1      -5.232  12.263  30.537  0.00  0.00    -0.495 OA
ATOM     45  C   UNL     1      -4.332  13.354  30.367  0.00  0.00    +0.277 C 
ENDBRANCH  41  44
ENDBRANCH  37  38
ENDBRANCH  35  37
ENDBRANCH  31  33
ENDBRANCH  30  31
ENDBRANCH  26  30
ENDBRANCH  25  28
ENDBRANCH   1  25
TORSDOF 16
