REMARK VINA RESULT:    -5.174      3.062      6.976
REMARK INTER + INTRA:         -11.561
REMARK INTER:                  -7.592
REMARK INTRA:                  -3.969
REMARK UNBOUND:                -2.303
REMARK  Name = lig_assembled_4.pdb
REMARK  19 active torsions:
REMARK  status: ('A' for Active; 'I' for Inactive)
REMARK    1  A    between atoms: _2  and  _9
REMARK    2  A    between atoms: _4  and  _21
REMARK    3  A    between atoms: _6  and  _7
REMARK    4  A    between atoms: _6  and  _21
REMARK    5  A    between atoms: _10  and  _11
REMARK    6  A    between atoms: _11  and  _12
REMARK    7  A    between atoms: _11  and  _13
REMARK    8  A    between atoms: _17  and  _37
REMARK    9  A    between atoms: _19  and  _25
REMARK   10  A    between atoms: _20  and  _24
REMARK   11  A    between atoms: _24  and  _25
REMARK   12  A    between atoms: _27  and  _28
REMARK   13  A    between atoms: _29  and  _30
REMARK   14  A    between atoms: _31  and  _33
REMARK   15  A    between atoms: _33  and  _34
REMARK   16  A    between atoms: _33  and  _35
REMARK   17  A    between atoms: _35  and  _36
REMARK   18  A    between atoms: _35  and  _37
REMARK   19  A    between atoms: _38  and  _40
REMARK                            x       y       z     vdW  Elec       q    Type
REMARK                         _______ _______ _______ _____ _____    ______ ____
ROOT
ATOM      1  C   UNL     1      -5.292   8.255  23.711  0.00  0.00    +0.163 C 
ENDROOT
BRANCH   1   2
ATOM      2  O   UNL     1      -3.891   8.560  23.815  0.00  0.00    -0.388 OA
ATOM      3  H   UNL     1      -3.378   7.758  23.690  0.00  0.00    +0.210 HD
ENDBRANCH   1   2
BRANCH   1   4
ATOM      4  C   UNL     1      -5.761   8.441  22.272  0.00  0.00    +0.141 C 
BRANCH   4   7
ATOM      5  C   UNL     1      -4.986   9.942  20.469  0.00  0.00    +0.401 C 
ATOM      6  O   UNL     1      -4.913   9.046  19.625  0.00  0.00    -0.226 OA
ATOM      7  N   UNL     1      -5.367   9.748  21.732  0.00  0.00    -0.279 N 
ATOM      8  H   UNL     1      -5.385  10.545  22.353  0.00  0.00    +0.152 HD
BRANCH   5   9
ATOM      9  O   UNL     1      -4.641  11.279  20.094  0.00  0.00    -0.444 OA
BRANCH   9  10
ATOM     10  C   UNL     1      -5.769  12.136  20.290  0.00  0.00    +0.292 C 
BRANCH  10  12
ATOM     11  N   UNL     1      -4.568  12.979  22.275  0.00  0.00    -0.131 NA
ATOM     12  C   UNL     1      -5.455  13.195  21.266  0.00  0.00    +0.121 A 
ATOM     13  C   UNL     1      -5.965  14.469  21.379  0.00  0.00    +0.143 A 
ATOM     14  N   UNL     1      -5.449  14.953  22.567  0.00  0.00    -0.219 N 
ATOM     15  N   UNL     1      -4.553  14.061  23.042  0.00  0.00    -0.060 NA
BRANCH  14  16
ATOM     16  C   UNL     1      -5.791  16.169  23.231  0.00  0.00    +0.070 A 
ATOM     17  C   UNL     1      -5.350  17.448  22.794  0.00  0.00    -0.019 A 
ATOM     18  C   UNL     1      -5.738  18.569  23.563  0.00  0.00    +0.006 A 
ATOM     19  C   UNL     1      -6.512  18.444  24.718  0.00  0.00    +0.000 A 
ATOM     20  C   UNL     1      -6.942  17.192  25.130  0.00  0.00    +0.002 A 
ATOM     21  C   UNL     1      -6.584  16.063  24.395  0.00  0.00    +0.028 A 
BRANCH  17  22
ATOM     22  C   UNL     1      -4.480  17.685  21.558  0.00  0.00    +0.015 C 
ATOM     23  C   UNL     1      -2.972  17.790  21.833  0.00  0.00    +0.012 C 
ATOM     24  C   UNL     1      -4.960  18.933  20.813  0.00  0.00    +0.012 C 
ENDBRANCH  17  22
ENDBRANCH  14  16
ENDBRANCH  10  12
ENDBRANCH   9  10
ENDBRANCH   5   9
ENDBRANCH   4   7
ENDBRANCH   1   4
BRANCH   1  25
ATOM     25  C   UNL     1      -6.122   9.156  24.642  0.00  0.00    +0.175 C 
BRANCH  25  26
ATOM     26  C   UNL     1      -5.273  10.265  25.281  0.00  0.00    +0.176 C 
ATOM     27  O   UNL     1      -4.650   9.719  26.476  0.00  0.00    -0.332 OA
ATOM     28  C   UNL     1      -3.712  10.610  27.165  0.00  0.00    +0.277 C 
ATOM     29  C   UNL     1      -4.393  11.960  27.500  0.00  0.00    +0.110 C 
ATOM     30  C   UNL     1      -5.097  12.563  26.266  0.00  0.00    +0.143 C 
ATOM     31  C   UNL     1      -6.047  11.551  25.626  0.00  0.00    +0.133 C 
BRANCH  31  32
ATOM     32  N   UNL     1      -6.646  12.107  24.403  0.00  0.00    -0.308 N 
ATOM     33  H   UNL     1      -6.025  12.357  23.646  0.00  0.00    +0.149 HD
ATOM     34  C   UNL     1      -7.956  12.304  24.228  0.00  0.00    +0.210 C 
ATOM     35  C   UNL     1      -8.872  11.938  25.410  0.00  0.00    +0.109 C 
ATOM     36  O   UNL     1      -8.430  12.759  23.186  0.00  0.00    -0.276 OA
ENDBRANCH  31  32
BRANCH  28  37
ATOM     37  C   UNL     1      -2.462  10.866  26.297  0.00  0.00    +0.414 C 
ATOM     38  O   UNL     1      -1.982   9.958  25.619  0.00  0.00    -0.240 OA
ATOM     39  O   UNL     1      -1.935  11.978  26.274  0.00  0.00    -0.240 OA
ENDBRANCH  28  37
BRANCH  30  40
ATOM     40  O   UNL     1      -5.837  13.723  26.653  0.00  0.00    -0.390 OA
ATOM     41  H   UNL     1      -6.546  13.467  27.247  0.00  0.00    +0.210 HD
ENDBRANCH  30  40
BRANCH  28  42
ATOM     42  O   UNL     1      -3.320   9.975  28.409  0.00  0.00    -0.343 OA
ATOM     43  C   UNL     1      -4.163   8.871  28.824  0.00  0.00    +0.198 C 
ENDBRANCH  28  42
ENDBRANCH  25  26
BRANCH  25  44
ATOM     44  O   UNL     1      -6.754   8.362  25.666  0.00  0.00    -0.387 OA
ATOM     45  H   UNL     1      -7.531   7.930  25.303  0.00  0.00    +0.210 HD
ENDBRANCH  25  44
ENDBRANCH   1  25
TORSDOF 15
