REMARK VINA RESULT:    -4.778      4.187     10.154
REMARK INTER + INTRA:         -10.774
REMARK INTER:                  -8.635
REMARK INTRA:                  -2.139
REMARK UNBOUND:                -2.505
REMARK  Name = lig_assembled_3.pdb
REMARK  16 active torsions:
REMARK  status: ('A' for Active; 'I' for Inactive)
REMARK    1  A    between atoms: _2  and  _9
REMARK    2  A    between atoms: _4  and  _18
REMARK    3  A    between atoms: _6  and  _7
REMARK    4  A    between atoms: _6  and  _18
REMARK    5  A    between atoms: _14  and  _34
REMARK    6  A    between atoms: _16  and  _22
REMARK    7  A    between atoms: _17  and  _21
REMARK    8  A    between atoms: _21  and  _22
REMARK    9  A    between atoms: _24  and  _25
REMARK   10  A    between atoms: _26  and  _27
REMARK   11  A    between atoms: _28  and  _30
REMARK   12  A    between atoms: _30  and  _31
REMARK   13  A    between atoms: _30  and  _32
REMARK   14  A    between atoms: _32  and  _33
REMARK   15  A    between atoms: _32  and  _34
REMARK   16  A    between atoms: _35  and  _37
REMARK                            x       y       z     vdW  Elec       q    Type
REMARK                         _______ _______ _______ _____ _____    ______ ____
ROOT
ATOM      1  C   UNL     1      -3.441  12.671  24.244  0.00  0.00    +0.163 C 
ENDROOT
BRANCH   1   2
ATOM      2  O   UNL     1      -2.018  12.723  24.438  0.00  0.00    -0.388 OA
ATOM      3  H   UNL     1      -1.710  13.624  24.317  0.00  0.00    +0.210 HD
ENDBRANCH   1   2
BRANCH   1   4
ATOM      4  C   UNL     1      -3.880  13.791  23.305  0.00  0.00    +0.141 C 
BRANCH   4   7
ATOM      5  C   UNL     1      -6.100  13.727  22.221  0.00  0.00    +0.401 C 
ATOM      6  O   UNL     1      -6.607  14.538  22.998  0.00  0.00    -0.226 OA
ATOM      7  N   UNL     1      -4.833  13.315  22.295  0.00  0.00    -0.279 N 
ATOM      8  H   UNL     1      -4.511  12.639  21.617  0.00  0.00    +0.152 HD
BRANCH   5   9
ATOM      9  O   UNL     1      -6.900  13.176  21.172  0.00  0.00    -0.444 OA
BRANCH   9  10
ATOM     10  C   UNL     1      -6.550  11.804  20.974  0.00  0.00    +0.292 C 
BRANCH  10  12
ATOM     11  N   UNL     1      -6.602  12.369  18.566  0.00  0.00    -0.131 NA
ATOM     12  C   UNL     1      -6.137  11.577  19.575  0.00  0.00    +0.121 A 
ATOM     13  C   UNL     1      -5.285  10.632  19.051  0.00  0.00    +0.143 A 
ATOM     14  N   UNL     1      -5.237  10.904  17.702  0.00  0.00    -0.220 N 
ATOM     15  N   UNL     1      -6.056  11.952  17.431  0.00  0.00    -0.060 NA
BRANCH  14  16
ATOM     16  C   UNL     1      -4.471  10.265  16.694  0.00  0.00    +0.067 A 
ATOM     17  C   UNL     1      -3.842  11.010  15.686  0.00  0.00    +0.028 A 
ATOM     18  C   UNL     1      -3.118  10.359  14.684  0.00  0.00    +0.002 A 
ATOM     19  C   UNL     1      -3.015   8.970  14.682  0.00  0.00    +0.000 A 
ATOM     20  C   UNL     1      -3.630   8.224  15.686  0.00  0.00    +0.002 A 
ATOM     21  C   UNL     1      -4.356   8.867  16.691  0.00  0.00    +0.028 A 
ENDBRANCH  14  16
ENDBRANCH  10  12
ENDBRANCH   9  10
ENDBRANCH   5   9
ENDBRANCH   4   7
ENDBRANCH   1   4
BRANCH   1  22
ATOM     22  C   UNL     1      -4.184  12.803  25.584  0.00  0.00    +0.175 C 
BRANCH  22  23
ATOM     23  C   UNL     1      -3.856  11.649  26.543  0.00  0.00    +0.176 C 
ATOM     24  O   UNL     1      -3.826  10.419  25.768  0.00  0.00    -0.332 OA
ATOM     25  C   UNL     1      -3.422   9.216  26.502  0.00  0.00    +0.277 C 
ATOM     26  C   UNL     1      -4.311   9.024  27.755  0.00  0.00    +0.110 C 
ATOM     27  C   UNL     1      -4.400  10.316  28.595  0.00  0.00    +0.143 C 
ATOM     28  C   UNL     1      -4.825  11.504  27.731  0.00  0.00    +0.133 C 
BRANCH  28  29
ATOM     29  N   UNL     1      -4.821  12.744  28.523  0.00  0.00    -0.308 N 
ATOM     30  H   UNL     1      -3.929  13.100  28.837  0.00  0.00    +0.149 HD
ATOM     31  C   UNL     1      -5.919  13.429  28.853  0.00  0.00    +0.210 C 
ATOM     32  C   UNL     1      -7.264  12.846  28.382  0.00  0.00    +0.109 C 
ATOM     33  O   UNL     1      -5.884  14.474  29.505  0.00  0.00    -0.276 OA
ENDBRANCH  28  29
BRANCH  25  34
ATOM     34  C   UNL     1      -1.943   9.307  26.929  0.00  0.00    +0.414 C 
ATOM     35  O   UNL     1      -1.129   9.901  26.222  0.00  0.00    -0.240 OA
ATOM     36  O   UNL     1      -1.563   8.788  27.979  0.00  0.00    -0.240 OA
ENDBRANCH  25  34
BRANCH  27  37
ATOM     37  O   UNL     1      -5.345  10.140  29.651  0.00  0.00    -0.390 OA
ATOM     38  H   UNL     1      -4.984   9.539  30.307  0.00  0.00    +0.210 HD
ENDBRANCH  27  37
BRANCH  25  39
ATOM     39  O   UNL     1      -3.609   8.073  25.629  0.00  0.00    -0.343 OA
ATOM     40  C   UNL     1      -4.969   7.868  25.170  0.00  0.00    +0.198 C 
ENDBRANCH  25  39
ENDBRANCH  22  23
BRANCH  22  41
ATOM     41  O   UNL     1      -5.606  12.873  25.358  0.00  0.00    -0.387 OA
ATOM     42  H   UNL     1      -5.924  13.750  25.586  0.00  0.00    +0.210 HD
ENDBRANCH  22  41
ENDBRANCH   1  22
TORSDOF 14
