REMARK VINA RESULT:    -5.159      2.485      5.363
REMARK INTER + INTRA:         -11.918
REMARK INTER:                  -9.398
REMARK INTRA:                  -2.519
REMARK UNBOUND:                -2.989
REMARK  Name = lig_assembled_51.pdb
REMARK  16 active torsions:
REMARK  status: ('A' for Active; 'I' for Inactive)
REMARK    1  A    between atoms: _2  and  _9
REMARK    2  A    between atoms: _4  and  _22
REMARK    3  A    between atoms: _6  and  _7
REMARK    4  A    between atoms: _6  and  _22
REMARK    5  A    between atoms: _18  and  _38
REMARK    6  A    between atoms: _20  and  _26
REMARK    7  A    between atoms: _21  and  _25
REMARK    8  A    between atoms: _25  and  _26
REMARK    9  A    between atoms: _28  and  _29
REMARK   10  A    between atoms: _30  and  _31
REMARK   11  A    between atoms: _32  and  _34
REMARK   12  A    between atoms: _34  and  _35
REMARK   13  A    between atoms: _34  and  _36
REMARK   14  A    between atoms: _36  and  _37
REMARK   15  A    between atoms: _36  and  _38
REMARK   16  A    between atoms: _39  and  _41
REMARK                            x       y       z     vdW  Elec       q    Type
REMARK                         _______ _______ _______ _____ _____    ______ ____
ROOT
ATOM      1  C   UNL     1      -2.262   9.739  26.987  0.00  0.00    +0.163 C 
ENDROOT
BRANCH   1   2
ATOM      2  O   UNL     1      -1.094   9.922  26.170  0.00  0.00    -0.388 OA
ATOM      3  H   UNL     1      -0.415  10.374  26.678  0.00  0.00    +0.210 HD
ENDBRANCH   1   2
BRANCH   1   4
ATOM      4  C   UNL     1      -1.862   9.198  28.356  0.00  0.00    +0.141 C 
BRANCH   4   7
ATOM      5  C   UNL     1      -3.027   9.330  30.531  0.00  0.00    +0.401 C 
ATOM      6  O   UNL     1      -2.997   8.113  30.727  0.00  0.00    -0.226 OA
ATOM      7  N   UNL     1      -2.526   9.922  29.446  0.00  0.00    -0.279 N 
ATOM      8  H   UNL     1      -2.608  10.927  29.371  0.00  0.00    +0.152 HD
BRANCH   5   9
ATOM      9  O   UNL     1      -3.636  10.177  31.509  0.00  0.00    -0.444 OA
BRANCH   9  10
ATOM     10  C   UNL     1      -2.620  10.791  32.308  0.00  0.00    +0.292 C 
BRANCH  10  12
ATOM     11  N   UNL     1      -1.624  13.055  32.225  0.00  0.00    -0.131 NA
ATOM     12  C   UNL     1      -2.735  12.259  32.246  0.00  0.00    +0.120 A 
ATOM     13  C   UNL     1      -3.858  13.055  32.202  0.00  0.00    +0.137 A 
ATOM     14  N   UNL     1      -3.366  14.331  32.162  0.00  0.00    -0.245 N 
ATOM     15  N   UNL     1      -2.020  14.319  32.174  0.00  0.00    -0.065 NA
BRANCH  14  16
ATOM     16  C   UNL     1      -4.125  15.583  32.120  0.00  0.00    +0.066 C 
ATOM     17  C   UNL     1      -5.589  15.333  32.576  0.00  0.00    +0.034 C 
ATOM     18  C   UNL     1      -6.392  16.646  32.584  0.00  0.00    -0.008 C 
ATOM     19  C   UNL     1      -5.720  17.645  33.540  0.00  0.00    +0.007 C 
ATOM     20  C   UNL     1      -4.284  17.937  33.076  0.00  0.00    -0.008 C 
ATOM     21  C   UNL     1      -4.318  18.520  31.655  0.00  0.00    +0.007 C 
ATOM     22  C   UNL     1      -4.980  17.520  30.694  0.00  0.00    -0.008 C 
ATOM     23  C   UNL     1      -6.415  17.236  31.166  0.00  0.00    +0.007 C 
ATOM     24  C   UNL     1      -3.477  16.628  33.069  0.00  0.00    +0.034 C 
ATOM     25  C   UNL     1      -4.176  16.208  30.693  0.00  0.00    +0.034 C 
ENDBRANCH  14  16
ENDBRANCH  10  12
ENDBRANCH   9  10
ENDBRANCH   5   9
ENDBRANCH   4   7
ENDBRANCH   1   4
BRANCH   1  26
ATOM     26  C   UNL     1      -3.253   8.770  26.320  0.00  0.00    +0.175 C 
BRANCH  26  27
ATOM     27  C   UNL     1      -4.115   9.466  25.256  0.00  0.00    +0.176 C 
ATOM     28  O   UNL     1      -3.266   9.752  24.111  0.00  0.00    -0.332 OA
ATOM     29  C   UNL     1      -3.945  10.326  22.945  0.00  0.00    +0.277 C 
ATOM     30  C   UNL     1      -4.728  11.600  23.348  0.00  0.00    +0.110 C 
ATOM     31  C   UNL     1      -5.621  11.353  24.582  0.00  0.00    +0.143 C 
ATOM     32  C   UNL     1      -4.813  10.753  25.733  0.00  0.00    +0.133 C 
BRANCH  32  33
ATOM     33  N   UNL     1      -5.691  10.442  26.872  0.00  0.00    -0.308 N 
ATOM     34  H   UNL     1      -6.353   9.686  26.765  0.00  0.00    +0.149 HD
ATOM     35  C   UNL     1      -5.672  11.094  28.037  0.00  0.00    +0.210 C 
ATOM     36  C   UNL     1      -4.671  12.259  28.160  0.00  0.00    +0.109 C 
ATOM     37  O   UNL     1      -6.410  10.802  28.979  0.00  0.00    -0.276 OA
ENDBRANCH  32  33
BRANCH  29  38
ATOM     38  C   UNL     1      -4.915   9.302  22.319  0.00  0.00    +0.414 C 
ATOM     39  O   UNL     1      -4.570   8.130  22.173  0.00  0.00    -0.240 OA
ATOM     40  O   UNL     1      -6.041   9.648  21.959  0.00  0.00    -0.240 OA
ENDBRANCH  29  38
BRANCH  31  41
ATOM     41  O   UNL     1      -6.204  12.586  25.009  0.00  0.00    -0.390 OA
ATOM     42  H   UNL     1      -5.741  12.907  25.785  0.00  0.00    +0.210 HD
ENDBRANCH  31  41
BRANCH  29  43
ATOM     43  O   UNL     1      -2.934  10.698  21.974  0.00  0.00    -0.343 OA
ATOM     44  C   UNL     1      -3.228  11.897  21.212  0.00  0.00    +0.198 C 
ENDBRANCH  29  43
ENDBRANCH  26  27
BRANCH  26  45
ATOM     45  O   UNL     1      -4.095   8.157  27.317  0.00  0.00    -0.387 OA
ATOM     46  H   UNL     1      -4.924   8.637  27.375  0.00  0.00    +0.210 HD
ENDBRANCH  26  45
ENDBRANCH   1  26
TORSDOF 14
