REMARK VINA RESULT:    -4.565      5.627     11.592
REMARK INTER + INTRA:         -10.741
REMARK INTER:                  -8.518
REMARK INTRA:                  -2.224
REMARK UNBOUND:                -2.841
REMARK  Name = lig_assembled_86.pdb
REMARK  17 active torsions:
REMARK  status: ('A' for Active; 'I' for Inactive)
REMARK    1  A    between atoms: _2  and  _10
REMARK    2  A    between atoms: _3  and  _13
REMARK    3  A    between atoms: _5  and  _21
REMARK    4  A    between atoms: _7  and  _8
REMARK    5  A    between atoms: _7  and  _21
REMARK    6  A    between atoms: _17  and  _37
REMARK    7  A    between atoms: _19  and  _25
REMARK    8  A    between atoms: _20  and  _24
REMARK    9  A    between atoms: _24  and  _25
REMARK   10  A    between atoms: _27  and  _28
REMARK   11  A    between atoms: _29  and  _30
REMARK   12  A    between atoms: _31  and  _33
REMARK   13  A    between atoms: _33  and  _34
REMARK   14  A    between atoms: _33  and  _35
REMARK   15  A    between atoms: _35  and  _36
REMARK   16  A    between atoms: _35  and  _37
REMARK   17  A    between atoms: _38  and  _40
REMARK                            x       y       z     vdW  Elec       q    Type
REMARK                         _______ _______ _______ _____ _____    ______ ____
ROOT
ATOM      1  C   UNL     1      -3.336  12.662  24.163  0.00  0.00    +0.163 C 
ENDROOT
BRANCH   1   2
ATOM      2  O   UNL     1      -1.941  12.844  24.457  0.00  0.00    -0.388 OA
ATOM      3  H   UNL     1      -1.825  12.954  25.404  0.00  0.00    +0.210 HD
ENDBRANCH   1   2
BRANCH   1   4
ATOM      4  C   UNL     1      -3.802  13.721  23.169  0.00  0.00    +0.141 C 
BRANCH   4   7
ATOM      5  C   UNL     1      -5.764  13.362  21.710  0.00  0.00    +0.401 C 
ATOM      6  O   UNL     1      -6.506  14.095  22.368  0.00  0.00    -0.226 OA
ATOM      7  N   UNL     1      -4.488  13.125  22.016  0.00  0.00    -0.279 N 
ATOM      8  H   UNL     1      -3.963  12.500  21.420  0.00  0.00    +0.152 HD
BRANCH   5   9
ATOM      9  O   UNL     1      -6.284  12.712  20.548  0.00  0.00    -0.444 OA
BRANCH   9  10
ATOM     10  C   UNL     1      -5.609  11.466  20.355  0.00  0.00    +0.292 C 
BRANCH  10  12
ATOM     11  N   UNL     1      -5.740  12.146  17.974  0.00  0.00    -0.131 NA
ATOM     12  C   UNL     1      -5.435  11.198  18.915  0.00  0.00    +0.120 A 
ATOM     13  C   UNL     1      -4.967  10.072  18.279  0.00  0.00    +0.137 A 
ATOM     14  N   UNL     1      -4.976  10.409  16.960  0.00  0.00    -0.248 N 
ATOM     15  N   UNL     1      -5.471  11.645  16.775  0.00  0.00    -0.065 NA
BRANCH  14  16
ATOM     16  C   UNL     1      -4.520   9.601  15.839  0.00  0.00    +0.112 C 
ATOM     17  C   UNL     1      -5.632   9.393  14.790  0.00  0.00    +0.045 C 
ATOM     18  C   UNL     1      -5.191   9.611  13.340  0.00  0.00    +0.059 C 
ATOM     19  C   UNL     1      -5.065  11.104  13.020  0.00  0.00    +0.020 C 
ATOM     20  C   UNL     1      -3.594  11.429  13.270  0.00  0.00    +0.020 C 
ATOM     21  C   UNL     1      -2.997  10.122  13.796  0.00  0.00    +0.059 C 
ATOM     22  N   UNL     1      -3.827   9.147  13.087  0.00  0.00    -0.299 NA
ATOM     23  C   UNL     1      -3.551   7.748  13.356  0.00  0.00    +0.105 C 
ATOM     24  C   UNL     1      -3.126  10.024  15.322  0.00  0.00    +0.045 C 
ENDBRANCH  14  16
ENDBRANCH  10  12
ENDBRANCH   9  10
ENDBRANCH   5   9
ENDBRANCH   4   7
ENDBRANCH   1   4
BRANCH   1  25
ATOM     25  C   UNL     1      -4.184  12.749  25.443  0.00  0.00    +0.175 C 
BRANCH  25  26
ATOM     26  C   UNL     1      -3.887  11.597  26.413  0.00  0.00    +0.176 C 
ATOM     27  O   UNL     1      -3.745  10.379  25.631  0.00  0.00    -0.332 OA
ATOM     28  C   UNL     1      -3.351   9.184  26.384  0.00  0.00    +0.277 C 
ATOM     29  C   UNL     1      -4.329   8.940  27.560  0.00  0.00    +0.110 C 
ATOM     30  C   UNL     1      -4.536  10.216  28.402  0.00  0.00    +0.143 C 
ATOM     31  C   UNL     1      -4.940  11.397  27.519  0.00  0.00    +0.133 C 
BRANCH  31  32
ATOM     32  N   UNL     1      -5.050  12.626  28.321  0.00  0.00    -0.308 N 
ATOM     33  H   UNL     1      -4.200  13.021  28.697  0.00  0.00    +0.149 HD
ATOM     34  C   UNL     1      -6.200  13.253  28.583  0.00  0.00    +0.210 C 
ATOM     35  C   UNL     1      -7.480  12.611  28.017  0.00  0.00    +0.109 C 
ATOM     36  O   UNL     1      -6.260  14.289  29.245  0.00  0.00    -0.276 OA
ENDBRANCH  31  32
BRANCH  28  37
ATOM     37  C   UNL     1      -1.915   9.329  26.929  0.00  0.00    +0.414 C 
ATOM     38  O   UNL     1      -1.045   9.869  26.247  0.00  0.00    -0.240 OA
ATOM     39  O   UNL     1      -1.627   8.905  28.049  0.00  0.00    -0.240 OA
ENDBRANCH  28  37
BRANCH  30  40
ATOM     40  O   UNL     1      -5.554   9.988  29.378  0.00  0.00    -0.390 OA
ATOM     41  H   UNL     1      -5.253   9.330  30.008  0.00  0.00    +0.210 HD
ENDBRANCH  30  40
BRANCH  28  42
ATOM     42  O   UNL     1      -3.421   8.045  25.487  0.00  0.00    -0.343 OA
ATOM     43  C   UNL     1      -4.150   8.280  24.256  0.00  0.00    +0.198 C 
ENDBRANCH  28  42
ENDBRANCH  25  26
BRANCH  25  44
ATOM     44  O   UNL     1      -5.587  12.768  25.109  0.00  0.00    -0.387 OA
ATOM     45  H   UNL     1      -6.001  11.959  25.420  0.00  0.00    +0.210 HD
ENDBRANCH  25  44
ENDBRANCH   1  25
TORSDOF 14
