REMARK VINA RESULT:    -4.421      3.434      9.354
REMARK INTER + INTRA:         -11.565
REMARK INTER:                  -8.695
REMARK INTRA:                  -2.871
REMARK UNBOUND:                -3.914
REMARK  Name = lig_assembled_20.pdb
REMARK  16 active torsions:
REMARK  status: ('A' for Active; 'I' for Inactive)
REMARK    1  A    between atoms: _2  and  _11
REMARK    2  A    between atoms: _6  and  _21
REMARK    3  A    between atoms: _8  and  _9
REMARK    4  A    between atoms: _8  and  _21
REMARK    5  A    between atoms: _17  and  _37
REMARK    6  A    between atoms: _19  and  _25
REMARK    7  A    between atoms: _20  and  _24
REMARK    8  A    between atoms: _24  and  _25
REMARK    9  A    between atoms: _27  and  _28
REMARK   10  A    between atoms: _29  and  _30
REMARK   11  A    between atoms: _31  and  _33
REMARK   12  A    between atoms: _33  and  _34
REMARK   13  A    between atoms: _33  and  _35
REMARK   14  A    between atoms: _35  and  _36
REMARK   15  A    between atoms: _35  and  _37
REMARK   16  A    between atoms: _38  and  _40
REMARK                            x       y       z     vdW  Elec       q    Type
REMARK                         _______ _______ _______ _____ _____    ______ ____
ROOT
ATOM      1  C   UNL     1      -2.949  11.748  24.845  0.00  0.00    +0.163 C 
ENDROOT
BRANCH   1   2
ATOM      2  O   UNL     1      -3.282  11.633  26.239  0.00  0.00    -0.388 OA
ATOM      3  H   UNL     1      -4.213  11.831  26.364  0.00  0.00    +0.210 HD
ENDBRANCH   1   2
BRANCH   1   4
ATOM      4  C   UNL     1      -3.145  13.187  24.380  0.00  0.00    +0.141 C 
BRANCH   4   7
ATOM      5  C   UNL     1      -4.418  14.333  22.599  0.00  0.00    +0.401 C 
ATOM      6  O   UNL     1      -3.635  15.282  22.520  0.00  0.00    -0.226 OA
ATOM      7  N   UNL     1      -4.269  13.312  23.445  0.00  0.00    -0.279 N 
ATOM      8  H   UNL     1      -4.970  12.584  23.442  0.00  0.00    +0.152 HD
BRANCH   5   9
ATOM      9  O   UNL     1      -5.564  14.304  21.744  0.00  0.00    -0.444 OA
BRANCH   9  10
ATOM     10  C   UNL     1      -6.039  12.961  21.627  0.00  0.00    +0.292 C 
BRANCH  10  12
ATOM     11  N   UNL     1      -7.125  12.506  19.444  0.00  0.00    -0.131 NA
ATOM     12  C   UNL     1      -6.002  12.519  20.220  0.00  0.00    +0.121 A 
ATOM     13  C   UNL     1      -4.937  12.074  19.474  0.00  0.00    +0.143 A 
ATOM     14  N   UNL     1      -5.459  11.797  18.231  0.00  0.00    -0.220 N 
ATOM     15  N   UNL     1      -6.788  12.066  18.237  0.00  0.00    -0.060 NA
BRANCH  14  16
ATOM     16  C   UNL     1      -4.786  11.309  17.081  0.00  0.00    +0.068 A 
ATOM     17  C   UNL     1      -4.615   9.926  16.906  0.00  0.00    +0.030 A 
ATOM     18  C   UNL     1      -3.960   9.410  15.778  0.00  0.00    +0.030 A 
ATOM     19  C   UNL     1      -3.486  10.330  14.839  0.00  0.00    +0.066 A 
ATOM     20  C   UNL     1      -3.637  11.703  14.984  0.00  0.00    +0.021 A 
ATOM     21  C   UNL     1      -3.026  12.253  13.837  0.00  0.00    +0.142 A 
ATOM     22  N   UNL     1      -2.526  11.320  13.023  0.00  0.00    -0.181 NA
ATOM     23  N   UNL     1      -2.820  10.168  13.651  0.00  0.00    -0.277 N 
ATOM     24  H   UNL     1      -2.535   9.298  13.218  0.00  0.00    +0.189 HD
ATOM     25  C   UNL     1      -4.295  12.211  16.118  0.00  0.00    +0.039 A 
ENDBRANCH  14  16
ENDBRANCH  10  12
ENDBRANCH   9  10
ENDBRANCH   5   9
ENDBRANCH   4   7
ENDBRANCH   1   4
BRANCH   1  26
ATOM     26  C   UNL     1      -3.820  10.810  23.992  0.00  0.00    +0.175 C 
BRANCH  26  27
ATOM     27  C   UNL     1      -4.184   9.519  24.742  0.00  0.00    +0.176 C 
ATOM     28  O   UNL     1      -2.952   8.930  25.241  0.00  0.00    -0.332 OA
ATOM     29  C   UNL     1      -3.114   7.737  26.078  0.00  0.00    +0.277 C 
ATOM     30  C   UNL     1      -3.945   6.663  25.335  0.00  0.00    +0.110 C 
ATOM     31  C   UNL     1      -5.251   7.251  24.758  0.00  0.00    +0.143 C 
ATOM     32  C   UNL     1      -4.966   8.488  23.907  0.00  0.00    +0.133 C 
BRANCH  32  33
ATOM     33  N   UNL     1      -6.223   9.089  23.435  0.00  0.00    -0.308 N 
ATOM     34  H   UNL     1      -6.860   9.455  24.128  0.00  0.00    +0.149 HD
ATOM     35  C   UNL     1      -6.577   9.183  22.150  0.00  0.00    +0.210 C 
ATOM     36  C   UNL     1      -5.596   8.593  21.120  0.00  0.00    +0.109 C 
ATOM     37  O   UNL     1      -7.630   9.705  21.783  0.00  0.00    -0.276 OA
ENDBRANCH  32  33
BRANCH  29  38
ATOM     38  C   UNL     1      -3.807   8.094  27.410  0.00  0.00    +0.414 C 
ATOM     39  O   UNL     1      -4.528   7.272  27.974  0.00  0.00    -0.240 OA
ATOM     40  O   UNL     1      -3.644   9.203  27.921  0.00  0.00    -0.240 OA
ENDBRANCH  29  38
BRANCH  31  41
ATOM     41  O   UNL     1      -5.908   6.268  23.956  0.00  0.00    -0.390 OA
ATOM     42  H   UNL     1      -5.595   6.332  23.051  0.00  0.00    +0.210 HD
ENDBRANCH  31  41
BRANCH  29  43
ATOM     43  O   UNL     1      -1.796   7.193  26.344  0.00  0.00    -0.343 OA
ATOM     44  C   UNL     1      -1.702   5.748  26.261  0.00  0.00    +0.198 C 
ENDBRANCH  29  43
ENDBRANCH  26  27
BRANCH  26  45
ATOM     45  O   UNL     1      -3.147  10.494  22.757  0.00  0.00    -0.387 OA
ATOM     46  H   UNL     1      -2.219  10.322  22.933  0.00  0.00    +0.210 HD
ENDBRANCH  26  45
ENDBRANCH   1  26
TORSDOF 14
