REMARK VINA RESULT:    -5.290      5.046     11.038
REMARK INTER + INTRA:         -12.248
REMARK INTER:                 -10.021
REMARK INTRA:                  -2.227
REMARK UNBOUND:                -3.093
REMARK  Name = lig_assembled_80.pdb
REMARK  16 active torsions:
REMARK  status: ('A' for Active; 'I' for Inactive)
REMARK    1  A    between atoms: _2  and  _10
REMARK    2  A    between atoms: _5  and  _24
REMARK    3  A    between atoms: _7  and  _8
REMARK    4  A    between atoms: _7  and  _24
REMARK    5  A    between atoms: _20  and  _40
REMARK    6  A    between atoms: _22  and  _28
REMARK    7  A    between atoms: _23  and  _27
REMARK    8  A    between atoms: _27  and  _28
REMARK    9  A    between atoms: _30  and  _31
REMARK   10  A    between atoms: _32  and  _33
REMARK   11  A    between atoms: _34  and  _36
REMARK   12  A    between atoms: _36  and  _37
REMARK   13  A    between atoms: _36  and  _38
REMARK   14  A    between atoms: _38  and  _39
REMARK   15  A    between atoms: _38  and  _40
REMARK   16  A    between atoms: _41  and  _43
REMARK                            x       y       z     vdW  Elec       q    Type
REMARK                         _______ _______ _______ _____ _____    ______ ____
ROOT
ATOM      1  C   UNL     1      -3.332  12.254  21.104  0.00  0.00    +0.141 C 
ENDROOT
BRANCH   1   4
ATOM      2  C   UNL     1      -5.346  11.641  19.810  0.00  0.00    +0.401 C 
ATOM      3  O   UNL     1      -5.974  12.653  20.131  0.00  0.00    -0.226 OA
ATOM      4  N   UNL     1      -4.107  11.371  20.224  0.00  0.00    -0.279 N 
ATOM      5  H   UNL     1      -3.678  10.510  19.914  0.00  0.00    +0.152 HD
BRANCH   2   6
ATOM      6  O   UNL     1      -5.964  10.684  18.947  0.00  0.00    -0.444 OA
BRANCH   6   7
ATOM      7  C   UNL     1      -4.956   9.937  18.262  0.00  0.00    +0.292 C 
BRANCH   7   9
ATOM      8  N   UNL     1      -5.575   9.718  15.887  0.00  0.00    -0.131 NA
ATOM      9  C   UNL     1      -4.860  10.370  16.853  0.00  0.00    +0.120 A 
ATOM     10  C   UNL     1      -4.137  11.392  16.279  0.00  0.00    +0.138 A 
ATOM     11  N   UNL     1      -4.412  11.273  14.943  0.00  0.00    -0.239 N 
ATOM     12  N   UNL     1      -5.307  10.286  14.719  0.00  0.00    -0.065 NA
BRANCH  11  13
ATOM     13  C   UNL     1      -4.024  12.140  13.824  0.00  0.00    +0.195 C 
ATOM     14  C   UNL     1      -4.112  13.589  14.284  0.00  0.00    +0.041 C 
ATOM     15  C   UNL     1      -4.009  14.540  13.110  0.00  0.00    +0.039 C 
ATOM     16  C   UNL     1      -2.570  14.801  12.792  0.00  0.00    -0.026 A 
ATOM     17  C   UNL     1      -1.708  13.801  12.340  0.00  0.00    +0.037 A 
ATOM     18  C   UNL     1      -0.404  14.147  11.946  0.00  0.00    +0.023 A 
ATOM     19  C   UNL     1       0.078  15.444  12.109  0.00  0.00    +0.002 A 
ATOM     20  C   UNL     1      -0.756  16.424  12.628  0.00  0.00    +0.000 A 
ATOM     21  N   UNL     1      -1.991  12.424  12.314  0.00  0.00    -0.284 N 
ATOM     22  H   UNL     1      -1.251  11.846  11.926  0.00  0.00    +0.155 HD
ATOM     23  C   UNL     1      -2.077  16.111  12.943  0.00  0.00    +0.005 A 
ATOM     24  C   UNL     1      -2.727  11.666  13.178  0.00  0.00    +0.242 C 
ATOM     25  O   UNL     1      -2.323  10.505  13.317  0.00  0.00    -0.273 OA
ENDBRANCH  11  13
ENDBRANCH   7   9
ENDBRANCH   6   7
ENDBRANCH   2   6
ENDBRANCH   1   4
BRANCH   1  26
ATOM     26  C   UNL     1      -2.829  11.522  22.344  0.00  0.00    +0.163 C 
BRANCH  26  27
ATOM     27  O   UNL     1      -2.727  12.437  23.447  0.00  0.00    -0.388 OA
ATOM     28  H   UNL     1      -1.809  12.690  23.570  0.00  0.00    +0.210 HD
ENDBRANCH  26  27
BRANCH  26  29
ATOM     29  C   UNL     1      -3.782  10.362  22.677  0.00  0.00    +0.175 C 
BRANCH  29  30
ATOM     30  C   UNL     1      -4.078  10.271  24.182  0.00  0.00    +0.176 C 
ATOM     31  O   UNL     1      -2.951   9.609  24.820  0.00  0.00    -0.332 OA
ATOM     32  C   UNL     1      -3.010   9.526  26.282  0.00  0.00    +0.277 C 
ATOM     33  C   UNL     1      -4.333   8.861  26.734  0.00  0.00    +0.110 C 
ATOM     34  C   UNL     1      -5.558   9.511  26.057  0.00  0.00    +0.143 C 
ATOM     35  C   UNL     1      -5.390   9.547  24.538  0.00  0.00    +0.133 C 
BRANCH  35  36
ATOM     36  N   UNL     1      -6.522  10.246  23.911  0.00  0.00    -0.308 N 
ATOM     37  H   UNL     1      -6.724  11.187  24.217  0.00  0.00    +0.149 HD
ATOM     38  C   UNL     1      -7.301   9.718  22.963  0.00  0.00    +0.210 C 
ATOM     39  C   UNL     1      -6.984   8.272  22.536  0.00  0.00    +0.109 C 
ATOM     40  O   UNL     1      -8.234  10.332  22.445  0.00  0.00    -0.276 OA
ENDBRANCH  35  36
BRANCH  32  41
ATOM     41  C   UNL     1      -2.897  10.930  26.914  0.00  0.00    +0.414 C 
ATOM     42  O   UNL     1      -3.459  11.177  27.980  0.00  0.00    -0.240 OA
ATOM     43  O   UNL     1      -2.243  11.813  26.358  0.00  0.00    -0.240 OA
ENDBRANCH  32  41
BRANCH  34  44
ATOM     44  O   UNL     1      -6.736   8.773  26.383  0.00  0.00    -0.390 OA
ATOM     45  H   UNL     1      -6.757   8.602  27.327  0.00  0.00    +0.210 HD
ENDBRANCH  34  44
BRANCH  32  46
ATOM     46  O   UNL     1      -1.905   8.699  26.730  0.00  0.00    -0.343 OA
ATOM     47  C   UNL     1      -2.142   7.978  27.966  0.00  0.00    +0.198 C 
ENDBRANCH  32  46
ENDBRANCH  29  30
BRANCH  29  48
ATOM     48  O   UNL     1      -3.233   9.116  22.203  0.00  0.00    -0.387 OA
ATOM     49  H   UNL     1      -2.752   8.686  22.915  0.00  0.00    +0.210 HD
ENDBRANCH  29  48
ENDBRANCH  26  29
ENDBRANCH   1  26
TORSDOF 14
