REMARK VINA RESULT:    -4.520      3.067      7.885
REMARK INTER + INTRA:         -11.940
REMARK INTER:                  -6.879
REMARK INTRA:                  -5.061
REMARK UNBOUND:                -3.060
REMARK  Name = lig_assembled_37.pdb
REMARK  21 active torsions:
REMARK  status: ('A' for Active; 'I' for Inactive)
REMARK    1  A    between atoms: _2  and  _9
REMARK    2  A    between atoms: _4  and  _24
REMARK    3  A    between atoms: _6  and  _7
REMARK    4  A    between atoms: _6  and  _24
REMARK    5  A    between atoms: _9  and  _10
REMARK    6  A    between atoms: _9  and  _11
REMARK    7  A    between atoms: _11  and  _18
REMARK    8  A    between atoms: _12  and  _13
REMARK    9  A    between atoms: _12  and  _18
REMARK   10  A    between atoms: _20  and  _40
REMARK   11  A    between atoms: _22  and  _28
REMARK   12  A    between atoms: _23  and  _27
REMARK   13  A    between atoms: _27  and  _28
REMARK   14  A    between atoms: _30  and  _31
REMARK   15  A    between atoms: _32  and  _33
REMARK   16  A    between atoms: _34  and  _36
REMARK   17  A    between atoms: _36  and  _37
REMARK   18  A    between atoms: _36  and  _38
REMARK   19  A    between atoms: _38  and  _39
REMARK   20  A    between atoms: _38  and  _40
REMARK   21  A    between atoms: _41  and  _43
REMARK                            x       y       z     vdW  Elec       q    Type
REMARK                         _______ _______ _______ _____ _____    ______ ____
ROOT
ATOM      1  C   UNL     1      -7.772  13.483  27.817  0.00  0.00    +0.141 C 
ENDROOT
BRANCH   1   4
ATOM      2  C   UNL     1      -8.136  11.322  28.957  0.00  0.00    +0.401 C 
ATOM      3  O   UNL     1      -8.083  11.804  30.090  0.00  0.00    -0.226 OA
ATOM      4  N   UNL     1      -7.995  12.032  27.837  0.00  0.00    -0.279 N 
ATOM      5  H   UNL     1      -8.044  11.545  26.953  0.00  0.00    +0.152 HD
BRANCH   2   6
ATOM      6  O   UNL     1      -8.357   9.917  28.809  0.00  0.00    -0.444 OA
BRANCH   6   7
ATOM      7  C   UNL     1      -7.200   9.202  29.251  0.00  0.00    +0.292 C 
BRANCH   7   9
ATOM      8  N   UNL     1      -6.477   9.466  26.895  0.00  0.00    -0.131 NA
ATOM      9  C   UNL     1      -6.353   8.830  28.102  0.00  0.00    +0.120 A 
ATOM     10  C   UNL     1      -5.367   7.874  28.007  0.00  0.00    +0.138 A 
ATOM     11  N   UNL     1      -4.947   7.956  26.713  0.00  0.00    -0.238 N 
ATOM     12  N   UNL     1      -5.605   8.928  26.053  0.00  0.00    -0.065 NA
BRANCH  11  13
ATOM     13  C   UNL     1      -3.899   7.216  26.038  0.00  0.00    +0.214 C 
ATOM     14  C   UNL     1      -3.993   7.374  24.520  0.00  0.00    +0.045 C 
BRANCH  13  15
ATOM     15  C   UNL     1      -2.531   7.639  26.524  0.00  0.00    +0.332 C 
ATOM     16  O   UNL     1      -1.711   6.872  27.017  0.00  0.00    -0.248 OA
BRANCH  15  17
ATOM     17  O   UNL     1      -2.337   8.973  26.346  0.00  0.00    -0.458 OA
BRANCH  17  18
ATOM     18  C   UNL     1      -1.663   9.661  27.411  0.00  0.00    +0.267 C 
BRANCH  18  19
ATOM     19  C   UNL     1      -2.672  10.288  28.338  0.00  0.00    -0.010 A 
ATOM     20  C   UNL     1      -2.806   9.829  29.656  0.00  0.00    +0.007 A 
ATOM     21  C   UNL     1      -3.721  10.428  30.525  0.00  0.00    +0.000 A 
ATOM     22  C   UNL     1      -4.511  11.488  30.085  0.00  0.00    +0.000 A 
ATOM     23  C   UNL     1      -4.391  11.948  28.776  0.00  0.00    +0.000 A 
ATOM     24  C   UNL     1      -3.478  11.350  27.905  0.00  0.00    +0.007 A 
ENDBRANCH  18  19
ENDBRANCH  17  18
ENDBRANCH  15  17
ENDBRANCH  13  15
ENDBRANCH  11  13
ENDBRANCH   7   9
ENDBRANCH   6   7
ENDBRANCH   2   6
ENDBRANCH   1   4
BRANCH   1  25
ATOM     25  C   UNL     1      -7.637  14.018  26.394  0.00  0.00    +0.163 C 
BRANCH  25  26
ATOM     26  O   UNL     1      -7.743  15.451  26.396  0.00  0.00    -0.388 OA
ATOM     27  H   UNL     1      -8.403  15.723  27.039  0.00  0.00    +0.210 HD
ENDBRANCH  25  26
BRANCH  25  28
ATOM     28  C   UNL     1      -6.291  13.567  25.801  0.00  0.00    +0.175 C 
BRANCH  28  29
ATOM     29  C   UNL     1      -5.981  14.270  24.472  0.00  0.00    +0.176 C 
ATOM     30  O   UNL     1      -7.227  14.405  23.735  0.00  0.00    -0.332 OA
ATOM     31  C   UNL     1      -7.143  15.153  22.477  0.00  0.00    +0.277 C 
ATOM     32  C   UNL     1      -6.055  14.545  21.558  0.00  0.00    +0.110 C 
ATOM     33  C   UNL     1      -4.719  14.353  22.307  0.00  0.00    +0.143 C 
ATOM     34  C   UNL     1      -4.924  13.565  23.601  0.00  0.00    +0.133 C 
BRANCH  34  35
ATOM     35  N   UNL     1      -3.660  13.464  24.348  0.00  0.00    -0.308 N 
ATOM     36  H   UNL     1      -3.307  14.300  24.793  0.00  0.00    +0.149 HD
ATOM     37  C   UNL     1      -2.949  12.341  24.477  0.00  0.00    +0.210 C 
ATOM     38  C   UNL     1      -3.501  11.091  23.765  0.00  0.00    +0.109 C 
ATOM     39  O   UNL     1      -1.902  12.282  25.121  0.00  0.00    -0.276 OA
ENDBRANCH  34  35
BRANCH  31  40
ATOM     40  C   UNL     1      -6.821  16.638  22.745  0.00  0.00    +0.414 C 
ATOM     41  O   UNL     1      -7.198  17.177  23.785  0.00  0.00    -0.240 OA
ATOM     42  O   UNL     1      -6.185  17.297  21.921  0.00  0.00    -0.240 OA
ENDBRANCH  31  40
BRANCH  31  43
ATOM     43  O   UNL     1      -8.423  15.045  21.804  0.00  0.00    -0.343 OA
ATOM     44  C   UNL     1      -8.990  13.710  21.778  0.00  0.00    +0.198 C 
ENDBRANCH  31  43
BRANCH  33  45
ATOM     45  O   UNL     1      -3.795  13.654  21.472  0.00  0.00    -0.390 OA
ATOM     46  H   UNL     1      -4.054  12.732  21.408  0.00  0.00    +0.210 HD
ENDBRANCH  33  45
ENDBRANCH  28  29
BRANCH  28  47
ATOM     47  O   UNL     1      -6.283  12.137  25.620  0.00  0.00    -0.387 OA
ATOM     48  H   UNL     1      -6.712  11.716  26.369  0.00  0.00    +0.210 HD
ENDBRANCH  28  47
ENDBRANCH  25  28
ENDBRANCH   1  25
TORSDOF 18
