REMARK VINA RESULT:    -4.591      2.313      6.418
REMARK INTER + INTRA:         -12.132
REMARK INTER:                  -8.536
REMARK INTRA:                  -3.596
REMARK UNBOUND:                -3.114
REMARK  Name = lig_assembled_10.pdb
REMARK  21 active torsions:
REMARK  status: ('A' for Active; 'I' for Inactive)
REMARK    1  A    between atoms: _2  and  _9
REMARK    2  A    between atoms: _4  and  _20
REMARK    3  A    between atoms: _5  and  _9
REMARK    4  A    between atoms: _5  and  _12
REMARK    5  A    between atoms: _6  and  _7
REMARK    6  A    between atoms: _6  and  _20
REMARK    7  A    between atoms: _9  and  _10
REMARK    8  A    between atoms: _10  and  _11
REMARK    9  A    between atoms: _11  and  _14
REMARK   10  A    between atoms: _16  and  _36
REMARK   11  A    between atoms: _18  and  _24
REMARK   12  A    between atoms: _19  and  _23
REMARK   13  A    between atoms: _23  and  _24
REMARK   14  A    between atoms: _26  and  _27
REMARK   15  A    between atoms: _28  and  _29
REMARK   16  A    between atoms: _30  and  _32
REMARK   17  A    between atoms: _32  and  _33
REMARK   18  A    between atoms: _32  and  _34
REMARK   19  A    between atoms: _34  and  _35
REMARK   20  A    between atoms: _34  and  _36
REMARK   21  A    between atoms: _37  and  _39
REMARK                            x       y       z     vdW  Elec       q    Type
REMARK                         _______ _______ _______ _____ _____    ______ ____
ROOT
ATOM      1  C   UNL     1      -3.095  12.067  23.751  0.00  0.00    +0.163 C 
ENDROOT
BRANCH   1   2
ATOM      2  O   UNL     1      -2.150  12.007  24.832  0.00  0.00    -0.388 OA
ATOM      3  H   UNL     1      -1.485  11.342  24.641  0.00  0.00    +0.210 HD
ENDBRANCH   1   2
BRANCH   1   4
ATOM      4  C   UNL     1      -3.841  10.730  23.598  0.00  0.00    +0.175 C 
BRANCH   4   5
ATOM      5  C   UNL     1      -4.028  10.015  24.944  0.00  0.00    +0.176 C 
ATOM      6  O   UNL     1      -2.914   9.098  25.122  0.00  0.00    -0.332 OA
ATOM      7  C   UNL     1      -2.867   8.399  26.409  0.00  0.00    +0.277 C 
ATOM      8  C   UNL     1      -4.202   7.658  26.671  0.00  0.00    +0.110 C 
ATOM      9  C   UNL     1      -5.418   8.585  26.463  0.00  0.00    +0.143 C 
ATOM     10  C   UNL     1      -5.363   9.263  25.094  0.00  0.00    +0.133 C 
BRANCH  10  11
ATOM     11  N   UNL     1      -6.480  10.208  24.942  0.00  0.00    -0.308 N 
ATOM     12  H   UNL     1      -6.558  10.958  25.615  0.00  0.00    +0.149 HD
ATOM     13  C   UNL     1      -7.397  10.141  23.973  0.00  0.00    +0.210 C 
ATOM     14  C   UNL     1      -7.265   8.973  22.978  0.00  0.00    +0.109 C 
ATOM     15  O   UNL     1      -8.313  10.957  23.862  0.00  0.00    -0.276 OA
ENDBRANCH  10  11
BRANCH   7  16
ATOM     16  C   UNL     1      -2.593   9.390  27.560  0.00  0.00    +0.414 C 
ATOM     17  O   UNL     1      -3.050   9.178  28.683  0.00  0.00    -0.240 OA
ATOM     18  O   UNL     1      -1.916  10.400  27.366  0.00  0.00    -0.240 OA
ENDBRANCH   7  16
BRANCH   7  19
ATOM     19  O   UNL     1      -1.802   7.415  26.348  0.00  0.00    -0.343 OA
ATOM     20  C   UNL     1      -2.128   6.124  26.921  0.00  0.00    +0.198 C 
ENDBRANCH   7  19
BRANCH   9  21
ATOM     21  O   UNL     1      -6.624   7.827  26.566  0.00  0.00    -0.390 OA
ATOM     22  H   UNL     1      -7.305   8.233  26.024  0.00  0.00    +0.210 HD
ENDBRANCH   9  21
ENDBRANCH   4   5
BRANCH   4  23
ATOM     23  O   UNL     1      -3.141   9.874  22.673  0.00  0.00    -0.387 OA
ATOM     24  H   UNL     1      -2.838  10.391  21.923  0.00  0.00    +0.210 HD
ENDBRANCH   4  23
ENDBRANCH   1   4
BRANCH   1  25
ATOM     25  C   UNL     1      -4.100  13.186  23.998  0.00  0.00    +0.141 C 
BRANCH  25  28
ATOM     26  C   UNL     1      -5.673  13.752  25.818  0.00  0.00    +0.401 C 
ATOM     27  O   UNL     1      -6.532  14.210  25.061  0.00  0.00    -0.226 OA
ATOM     28  N   UNL     1      -4.504  13.259  25.408  0.00  0.00    -0.279 N 
ATOM     29  H   UNL     1      -3.859  12.915  26.106  0.00  0.00    +0.152 HD
BRANCH  26  30
ATOM     30  O   UNL     1      -5.921  13.745  27.226  0.00  0.00    -0.444 OA
BRANCH  30  31
ATOM     31  C   UNL     1      -6.300  12.428  27.637  0.00  0.00    +0.292 C 
BRANCH  31  33
ATOM     32  N   UNL     1      -6.100  11.089  29.711  0.00  0.00    -0.131 NA
ATOM     33  C   UNL     1      -5.608  12.065  28.888  0.00  0.00    +0.120 A 
ATOM     34  C   UNL     1      -4.446  12.567  29.430  0.00  0.00    +0.138 A 
ATOM     35  N   UNL     1      -4.258  11.830  30.558  0.00  0.00    -0.237 N 
ATOM     36  N   UNL     1      -5.271  10.958  30.735  0.00  0.00    -0.065 NA
BRANCH  35  37
ATOM     37  C   UNL     1      -3.185  11.845  31.539  0.00  0.00    +0.227 C 
BRANCH  37  38
ATOM     38  C   UNL     1      -2.927  10.514  32.211  0.00  0.00    +0.330 C 
ATOM     39  O   UNL     1      -2.884  10.406  33.432  0.00  0.00    -0.249 OA
BRANCH  38  40
ATOM     40  O   UNL     1      -2.789   9.433  31.416  0.00  0.00    -0.479 OA
ATOM     41  H   UNL     1      -1.894   9.288  31.013  0.00  0.00    +0.295 HD
ENDBRANCH  38  40
ENDBRANCH  37  38
BRANCH  37  42
ATOM     42  C   UNL     1      -3.268  13.000  32.547  0.00  0.00    +0.158 C 
BRANCH  42  43
ATOM     43  C   UNL     1      -2.012  13.826  32.566  0.00  0.00    +0.307 C 
ATOM     44  O   UNL     1      -1.601  14.413  33.559  0.00  0.00    -0.251 OA
BRANCH  43  45
ATOM     45  O   UNL     1      -1.330  13.799  31.406  0.00  0.00    -0.481 OA
ATOM     46  H   UNL     1      -1.549  14.514  30.777  0.00  0.00    +0.295 HD
ENDBRANCH  43  45
ENDBRANCH  42  43
ENDBRANCH  37  42
ENDBRANCH  35  37
ENDBRANCH  31  33
ENDBRANCH  30  31
ENDBRANCH  26  30
ENDBRANCH  25  28
ENDBRANCH   1  25
TORSDOF 19
