REMARK VINA RESULT:    -5.130      5.610      8.400
REMARK INTER + INTRA:         -13.138
REMARK INTER:                 -11.193
REMARK INTRA:                  -1.945
REMARK UNBOUND:                -3.060
REMARK  Name = lig_assembled_37.pdb
REMARK  21 active torsions:
REMARK  status: ('A' for Active; 'I' for Inactive)
REMARK    1  A    between atoms: _2  and  _9
REMARK    2  A    between atoms: _4  and  _24
REMARK    3  A    between atoms: _6  and  _7
REMARK    4  A    between atoms: _6  and  _24
REMARK    5  A    between atoms: _9  and  _10
REMARK    6  A    between atoms: _9  and  _11
REMARK    7  A    between atoms: _11  and  _18
REMARK    8  A    between atoms: _12  and  _13
REMARK    9  A    between atoms: _12  and  _18
REMARK   10  A    between atoms: _20  and  _40
REMARK   11  A    between atoms: _22  and  _28
REMARK   12  A    between atoms: _23  and  _27
REMARK   13  A    between atoms: _27  and  _28
REMARK   14  A    between atoms: _30  and  _31
REMARK   15  A    between atoms: _32  and  _33
REMARK   16  A    between atoms: _34  and  _36
REMARK   17  A    between atoms: _36  and  _37
REMARK   18  A    between atoms: _36  and  _38
REMARK   19  A    between atoms: _38  and  _39
REMARK   20  A    between atoms: _38  and  _40
REMARK   21  A    between atoms: _41  and  _43
REMARK                            x       y       z     vdW  Elec       q    Type
REMARK                         _______ _______ _______ _____ _____    ______ ____
ROOT
ATOM      1  C   UNL     1      -4.170  12.485  21.190  0.00  0.00    +0.141 C 
ENDROOT
BRANCH   1   4
ATOM      2  C   UNL     1      -5.638  12.136  19.233  0.00  0.00    +0.401 C 
ATOM      3  O   UNL     1      -6.606  12.707  19.739  0.00  0.00    -0.226 OA
ATOM      4  N   UNL     1      -4.462  11.981  19.842  0.00  0.00    -0.279 N 
ATOM      5  H   UNL     1      -3.730  11.489  19.349  0.00  0.00    +0.152 HD
BRANCH   2   6
ATOM      6  O   UNL     1      -5.761  11.594  17.915  0.00  0.00    -0.444 OA
BRANCH   6   7
ATOM      7  C   UNL     1      -5.237  10.264  17.893  0.00  0.00    +0.292 C 
BRANCH   7   9
ATOM      8  N   UNL     1      -5.441   8.949  15.802  0.00  0.00    -0.131 NA
ATOM      9  C   UNL     1      -4.791   9.908  16.533  0.00  0.00    +0.120 A 
ATOM     10  C   UNL     1      -3.748  10.410  15.789  0.00  0.00    +0.138 A 
ATOM     11  N   UNL     1      -3.795   9.698  14.627  0.00  0.00    -0.238 N 
ATOM     12  N   UNL     1      -4.827   8.834  14.633  0.00  0.00    -0.065 NA
BRANCH  11  13
ATOM     13  C   UNL     1      -2.963   9.810  13.445  0.00  0.00    +0.214 C 
ATOM     14  C   UNL     1      -3.457   8.895  12.325  0.00  0.00    +0.045 C 
BRANCH  13  15
ATOM     15  C   UNL     1      -2.893  11.241  12.959  0.00  0.00    +0.332 C 
ATOM     16  O   UNL     1      -3.805  12.052  13.080  0.00  0.00    -0.248 OA
BRANCH  15  17
ATOM     17  O   UNL     1      -1.695  11.502  12.372  0.00  0.00    -0.458 OA
BRANCH  17  18
ATOM     18  C   UNL     1      -1.722  12.399  11.252  0.00  0.00    +0.267 C 
BRANCH  18  19
ATOM     19  C   UNL     1      -0.734  13.517  11.464  0.00  0.00    -0.010 A 
ATOM     20  C   UNL     1      -0.875  14.394  12.549  0.00  0.00    +0.007 A 
ATOM     21  C   UNL     1       0.055  15.413  12.762  0.00  0.00    +0.000 A 
ATOM     22  C   UNL     1       1.133  15.568  11.892  0.00  0.00    +0.000 A 
ATOM     23  C   UNL     1       1.280  14.707  10.807  0.00  0.00    +0.000 A 
ATOM     24  C   UNL     1       0.350  13.688  10.591  0.00  0.00    +0.007 A 
ENDBRANCH  18  19
ENDBRANCH  17  18
ENDBRANCH  15  17
ENDBRANCH  13  15
ENDBRANCH  11  13
ENDBRANCH   7   9
ENDBRANCH   6   7
ENDBRANCH   2   6
ENDBRANCH   1   4
BRANCH   1  25
ATOM     25  C   UNL     1      -3.978  11.351  22.192  0.00  0.00    +0.163 C 
BRANCH  25  26
ATOM     26  O   UNL     1      -3.590  10.149  21.506  0.00  0.00    -0.388 OA
ATOM     27  H   UNL     1      -2.633  10.116  21.435  0.00  0.00    +0.210 HD
ENDBRANCH  25  26
BRANCH  25  28
ATOM     28  C   UNL     1      -2.920  11.758  23.232  0.00  0.00    +0.175 C 
BRANCH  28  29
ATOM     29  C   UNL     1      -3.265  11.245  24.638  0.00  0.00    +0.176 C 
ATOM     30  O   UNL     1      -3.002   9.816  24.670  0.00  0.00    -0.332 OA
ATOM     31  C   UNL     1      -3.176   9.168  25.974  0.00  0.00    +0.277 C 
ATOM     32  C   UNL     1      -4.590   9.452  26.535  0.00  0.00    +0.110 C 
ATOM     33  C   UNL     1      -4.928  10.958  26.492  0.00  0.00    +0.143 C 
ATOM     34  C   UNL     1      -4.710  11.529  25.091  0.00  0.00    +0.133 C 
BRANCH  34  35
ATOM     35  N   UNL     1      -4.951  12.981  25.083  0.00  0.00    -0.308 N 
ATOM     36  H   UNL     1      -4.291  13.571  25.570  0.00  0.00    +0.149 HD
ATOM     37  C   UNL     1      -5.984  13.569  24.474  0.00  0.00    +0.210 C 
ATOM     38  C   UNL     1      -6.986  12.639  23.763  0.00  0.00    +0.109 C 
ATOM     39  O   UNL     1      -6.153  14.789  24.472  0.00  0.00    -0.276 OA
ENDBRANCH  34  35
BRANCH  31  40
ATOM     40  C   UNL     1      -2.113   9.664  26.976  0.00  0.00    +0.414 C 
ATOM     41  O   UNL     1      -2.441   9.986  28.118  0.00  0.00    -0.240 OA
ATOM     42  O   UNL     1      -0.930   9.743  26.644  0.00  0.00    -0.240 OA
ENDBRANCH  31  40
BRANCH  31  43
ATOM     43  O   UNL     1      -3.038   7.736  25.785  0.00  0.00    -0.343 OA
ATOM     44  C   UNL     1      -3.614   6.922  26.838  0.00  0.00    +0.198 C 
ENDBRANCH  31  43
BRANCH  33  45
ATOM     45  O   UNL     1      -6.289  11.157  26.875  0.00  0.00    -0.390 OA
ATOM     46  H   UNL     1      -6.593  12.008  26.550  0.00  0.00    +0.210 HD
ENDBRANCH  33  45
ENDBRANCH  28  29
BRANCH  28  47
ATOM     47  O   UNL     1      -2.766  13.191  23.250  0.00  0.00    -0.387 OA
ATOM     48  H   UNL     1      -1.929  13.418  23.660  0.00  0.00    +0.210 HD
ENDBRANCH  28  47
ENDBRANCH  25  28
ENDBRANCH   1  25
TORSDOF 18
