REMARK VINA RESULT:    -4.349      3.223      6.796
REMARK INTER + INTRA:         -10.595
REMARK INTER:                  -7.643
REMARK INTRA:                  -2.952
REMARK UNBOUND:                -3.067
REMARK  Name = lig_assembled_8.pdb
REMARK  16 active torsions:
REMARK  status: ('A' for Active; 'I' for Inactive)
REMARK    1  A    between atoms: _2  and  _9
REMARK    2  A    between atoms: _4  and  _18
REMARK    3  A    between atoms: _6  and  _7
REMARK    4  A    between atoms: _6  and  _18
REMARK    5  A    between atoms: _14  and  _34
REMARK    6  A    between atoms: _16  and  _22
REMARK    7  A    between atoms: _17  and  _21
REMARK    8  A    between atoms: _21  and  _22
REMARK    9  A    between atoms: _24  and  _25
REMARK   10  A    between atoms: _26  and  _27
REMARK   11  A    between atoms: _28  and  _30
REMARK   12  A    between atoms: _30  and  _31
REMARK   13  A    between atoms: _30  and  _32
REMARK   14  A    between atoms: _32  and  _33
REMARK   15  A    between atoms: _32  and  _34
REMARK   16  A    between atoms: _35  and  _37
REMARK                            x       y       z     vdW  Elec       q    Type
REMARK                         _______ _______ _______ _____ _____    ______ ____
ROOT
ATOM      1  C   UNL     1      -2.803  10.930  31.372  0.00  0.00    +0.163 C 
ENDROOT
BRANCH   1   2
ATOM      2  O   UNL     1      -1.726  11.166  32.293  0.00  0.00    -0.388 OA
ATOM      3  H   UNL     1      -0.970  11.520  31.819  0.00  0.00    +0.210 HD
ENDBRANCH   1   2
BRANCH   1   4
ATOM      4  C   UNL     1      -3.969  11.863  31.681  0.00  0.00    +0.141 C 
BRANCH   4   7
ATOM      5  C   UNL     1      -6.022  12.037  30.317  0.00  0.00    +0.401 C 
ATOM      6  O   UNL     1      -6.746  11.518  31.170  0.00  0.00    -0.226 OA
ATOM      7  N   UNL     1      -4.711  12.232  30.469  0.00  0.00    -0.279 N 
ATOM      8  H   UNL     1      -4.200  12.657  29.709  0.00  0.00    +0.152 HD
BRANCH   5   9
ATOM      9  O   UNL     1      -6.600  12.460  29.079  0.00  0.00    -0.444 OA
BRANCH   9  10
ATOM     10  C   UNL     1      -5.634  13.200  28.329  0.00  0.00    +0.292 C 
BRANCH  10  12
ATOM     11  N   UNL     1      -6.745  12.243  26.344  0.00  0.00    -0.131 NA
ATOM     12  C   UNL     1      -5.626  12.753  26.924  0.00  0.00    +0.121 A 
ATOM     13  C   UNL     1      -4.609  12.760  25.998  0.00  0.00    +0.143 A 
ATOM     14  N   UNL     1      -5.164  12.256  24.834  0.00  0.00    -0.219 N 
ATOM     15  N   UNL     1      -6.454  11.941  25.087  0.00  0.00    -0.060 NA
BRANCH  14  16
ATOM     16  C   UNL     1      -4.539  12.092  23.559  0.00  0.00    +0.081 A 
ATOM     17  C   UNL     1      -4.080  10.803  23.204  0.00  0.00    +0.029 A 
ATOM     18  C   UNL     1      -3.439  10.563  21.986  0.00  0.00    +0.002 A 
ATOM     19  C   UNL     1      -3.242  11.603  21.091  0.00  0.00    +0.001 A 
ATOM     20  C   UNL     1      -3.691  12.880  21.413  0.00  0.00    +0.017 A 
ATOM     21  C   UNL     1      -4.341  13.139  22.636  0.00  0.00    +0.043 A 
ATOM     22 BR   UNL     1      -4.869  14.958  22.847  0.00  0.00    -0.048 Br
ENDBRANCH  14  16
ENDBRANCH  10  12
ENDBRANCH   9  10
ENDBRANCH   5   9
ENDBRANCH   4   7
ENDBRANCH   1   4
BRANCH   1  23
ATOM     23  C   UNL     1      -3.280   9.469  31.446  0.00  0.00    +0.175 C 
BRANCH  23  24
ATOM     24  C   UNL     1      -3.070   8.724  30.119  0.00  0.00    +0.176 C 
ATOM     25  O   UNL     1      -3.932   9.338  29.121  0.00  0.00    -0.332 OA
ATOM     26  C   UNL     1      -3.788   8.823  27.756  0.00  0.00    +0.277 C 
ATOM     27  C   UNL     1      -3.976   7.286  27.736  0.00  0.00    +0.110 C 
ATOM     28  C   UNL     1      -3.103   6.591  28.802  0.00  0.00    +0.143 C 
ATOM     29  C   UNL     1      -3.330   7.208  30.183  0.00  0.00    +0.133 C 
BRANCH  29  30
ATOM     30  N   UNL     1      -2.430   6.597  31.174  0.00  0.00    -0.308 N 
ATOM     31  H   UNL     1      -1.435   6.676  31.020  0.00  0.00    +0.149 HD
ATOM     32  C   UNL     1      -2.843   5.944  32.264  0.00  0.00    +0.210 C 
ATOM     33  C   UNL     1      -4.366   5.818  32.457  0.00  0.00    +0.109 C 
ATOM     34  O   UNL     1      -2.066   5.455  33.085  0.00  0.00    -0.276 OA
ENDBRANCH  29  30
BRANCH  26  35
ATOM     35  C   UNL     1      -2.402   9.180  27.179  0.00  0.00    +0.414 C 
ATOM     36  O   UNL     1      -1.920  10.295  27.372  0.00  0.00    -0.240 OA
ATOM     37  O   UNL     1      -1.768   8.354  26.522  0.00  0.00    -0.240 OA
ENDBRANCH  26  35
BRANCH  28  38
ATOM     38  O   UNL     1      -3.419   5.199  28.851  0.00  0.00    -0.390 OA
ATOM     39  H   UNL     1      -2.608   4.686  28.842  0.00  0.00    +0.210 HD
ENDBRANCH  28  38
BRANCH  26  40
ATOM     40  O   UNL     1      -4.826   9.421  26.939  0.00  0.00    -0.343 OA
ATOM     41  C   UNL     1      -5.342   8.571  25.884  0.00  0.00    +0.198 C 
ENDBRANCH  26  40
ENDBRANCH  23  24
BRANCH  23  42
ATOM     42  O   UNL     1      -4.668   9.419  31.830  0.00  0.00    -0.387 OA
ATOM     43  H   UNL     1      -5.182   9.023  31.122  0.00  0.00    +0.210 HD
ENDBRANCH  23  42
ENDBRANCH   1  23
TORSDOF 14
