REMARK VINA RESULT:    -4.862      5.483      9.562
REMARK INTER + INTRA:         -12.854
REMARK INTER:                  -9.851
REMARK INTRA:                  -3.003
REMARK UNBOUND:                -3.302
REMARK  Name = lig_assembled_84.pdb
REMARK  21 active torsions:
REMARK  status: ('A' for Active; 'I' for Inactive)
REMARK    1  A    between atoms: _2  and  _11
REMARK    2  A    between atoms: _3  and  _14
REMARK    3  A    between atoms: _4  and  _17
REMARK    4  A    between atoms: _6  and  _28
REMARK    5  A    between atoms: _8  and  _9
REMARK    6  A    between atoms: _8  and  _28
REMARK    7  A    between atoms: _11  and  _12
REMARK    8  A    between atoms: _12  and  _13
REMARK    9  A    between atoms: _12  and  _14
REMARK   10  A    between atoms: _24  and  _44
REMARK   11  A    between atoms: _26  and  _32
REMARK   12  A    between atoms: _27  and  _31
REMARK   13  A    between atoms: _31  and  _32
REMARK   14  A    between atoms: _34  and  _35
REMARK   15  A    between atoms: _36  and  _37
REMARK   16  A    between atoms: _38  and  _40
REMARK   17  A    between atoms: _40  and  _41
REMARK   18  A    between atoms: _40  and  _42
REMARK   19  A    between atoms: _42  and  _43
REMARK   20  A    between atoms: _42  and  _44
REMARK   21  A    between atoms: _45  and  _47
REMARK                            x       y       z     vdW  Elec       q    Type
REMARK                         _______ _______ _______ _____ _____    ______ ____
ROOT
ATOM      1  C   UNL     1      -5.080   8.181  16.786  0.00  0.00    +0.401 C 
ATOM      2  O   UNL     1      -6.200   7.931  16.336  0.00  0.00    -0.226 OA
ATOM      3  N   UNL     1      -3.943   7.936  16.135  0.00  0.00    -0.279 N 
ATOM      4  H   UNL     1      -3.073   8.185  16.584  0.00  0.00    +0.152 HD
ENDROOT
BRANCH   1   5
ATOM      5  O   UNL     1      -4.970   8.773  18.083  0.00  0.00    -0.444 OA
BRANCH   5   6
ATOM      6  C   UNL     1      -6.276   9.020  18.609  0.00  0.00    +0.292 C 
BRANCH   6   8
ATOM      7  N   UNL     1      -7.355  11.215  19.013  0.00  0.00    -0.131 NA
ATOM      8  C   UNL     1      -6.334  10.337  19.270  0.00  0.00    +0.120 A 
ATOM      9  C   UNL     1      -5.455  10.918  20.156  0.00  0.00    +0.137 A 
ATOM     10  N   UNL     1      -5.960  12.170  20.347  0.00  0.00    -0.251 N 
ATOM     11  N   UNL     1      -7.113  12.337  19.677  0.00  0.00    -0.065 NA
BRANCH  10  12
ATOM     12  C   UNL     1      -5.333  13.284  21.031  0.00  0.00    +0.149 C 
BRANCH  12  13
ATOM     13  C   UNL     1      -4.082  12.907  21.842  0.00  0.00    +0.021 C 
ATOM     14  C   UNL     1      -2.806  13.448  21.181  0.00  0.00    +0.010 C 
BRANCH  13  15
ATOM     15  C   UNL     1      -4.165  13.454  23.288  0.00  0.00    +0.089 C 
BRANCH  15  16
ATOM     16  N   UNL     1      -4.179  12.440  24.352  0.00  0.00    -0.299 NA
ATOM     17  C   UNL     1      -5.167  12.814  25.398  0.00  0.00    +0.103 C 
ATOM     18  C   UNL     1      -5.278  11.733  26.493  0.00  0.00    +0.120 C 
ATOM     19  N   UNL     1      -3.963  11.516  27.108  0.00  0.00    -0.327 N 
ATOM     20  C   UNL     1      -2.893  11.195  26.152  0.00  0.00    +0.120 C 
ATOM     21  C   UNL     1      -2.861  12.251  25.009  0.00  0.00    +0.103 C 
BRANCH  19  22
ATOM     22  C   UNL     1      -3.764  11.557  28.468  0.00  0.00    +0.030 A 
ATOM     23  C   UNL     1      -4.102  12.696  29.223  0.00  0.00    +0.024 A 
ATOM     24  C   UNL     1      -3.884  12.766  30.603  0.00  0.00    +0.022 A 
ATOM     25  C   UNL     1      -3.324  11.684  31.263  0.00  0.00    +0.041 A 
ATOM     26 CL   UNL     1      -3.048  11.764  32.960  0.00  0.00    -0.084 Cl
ATOM     27  C   UNL     1      -2.979  10.539  30.555  0.00  0.00    +0.022 A 
ATOM     28  C   UNL     1      -3.197  10.484  29.171  0.00  0.00    +0.024 A 
ENDBRANCH  19  22
ENDBRANCH  15  16
ENDBRANCH  13  15
ENDBRANCH  12  13
ENDBRANCH  10  12
ENDBRANCH   6   8
ENDBRANCH   5   6
ENDBRANCH   1   5
BRANCH   3  29
ATOM     29  C   UNL     1      -3.884   7.325  14.801  0.00  0.00    +0.141 C 
BRANCH  29  30
ATOM     30  C   UNL     1      -3.941   8.372  13.693  0.00  0.00    +0.163 C 
BRANCH  30  31
ATOM     31  O   UNL     1      -5.306   8.740  13.435  0.00  0.00    -0.388 OA
ATOM     32  H   UNL     1      -5.885   8.014  13.677  0.00  0.00    +0.210 HD
ENDBRANCH  30  31
BRANCH  30  33
ATOM     33  C   UNL     1      -3.107   9.598  14.101  0.00  0.00    +0.175 C 
BRANCH  33  34
ATOM     34  C   UNL     1      -3.304  10.778  13.138  0.00  0.00    +0.176 C 
ATOM     35  O   UNL     1      -1.997  11.168  12.635  0.00  0.00    -0.332 OA
ATOM     36  C   UNL     1      -1.998  12.219  11.614  0.00  0.00    +0.277 C 
ATOM     37  C   UNL     1      -2.758  13.469  12.123  0.00  0.00    +0.110 C 
ATOM     38  C   UNL     1      -4.142  13.099  12.696  0.00  0.00    +0.143 C 
ATOM     39  C   UNL     1      -4.024  11.995  13.748  0.00  0.00    +0.133 C 
BRANCH  39  40
ATOM     40  N   UNL     1      -5.356  11.591  14.223  0.00  0.00    -0.308 N 
ATOM     41  H   UNL     1      -6.035  11.300  13.533  0.00  0.00    +0.149 HD
ATOM     42  C   UNL     1      -5.728  11.584  15.506  0.00  0.00    +0.210 C 
ATOM     43  C   UNL     1      -4.679  12.058  16.530  0.00  0.00    +0.109 C 
ATOM     44  O   UNL     1      -6.847  11.226  15.876  0.00  0.00    -0.276 OA
ENDBRANCH  39  40
BRANCH  36  45
ATOM     45  C   UNL     1      -2.652  11.715  10.311  0.00  0.00    +0.414 C 
ATOM     46  O   UNL     1      -3.248  12.497   9.572  0.00  0.00    -0.240 OA
ATOM     47  O   UNL     1      -2.583  10.525   9.998  0.00  0.00    -0.240 OA
ENDBRANCH  36  45
BRANCH  36  48
ATOM     48  O   UNL     1      -0.621  12.595  11.355  0.00  0.00    -0.343 OA
ATOM     49  C   UNL     1      -0.413  14.002  11.073  0.00  0.00    +0.198 C 
ENDBRANCH  36  48
BRANCH  38  50
ATOM     50  O   UNL     1      -4.741  14.252  13.290  0.00  0.00    -0.390 OA
ATOM     51  H   UNL     1      -5.218  13.993  14.082  0.00  0.00    +0.210 HD
ENDBRANCH  38  50
ENDBRANCH  33  34
BRANCH  33  52
ATOM     52  O   UNL     1      -1.711   9.247  14.177  0.00  0.00    -0.387 OA
ATOM     53  H   UNL     1      -1.194  10.032  14.374  0.00  0.00    +0.210 HD
ENDBRANCH  33  52
ENDBRANCH  30  33
ENDBRANCH  29  30
ENDBRANCH   3  29
TORSDOF 18
