REMARK VINA RESULT:    -5.329      4.243      8.660
REMARK INTER + INTRA:         -12.054
REMARK INTER:                  -9.709
REMARK INTRA:                  -2.345
REMARK UNBOUND:                -2.363
REMARK  Name = lig_assembled_59.pdb
REMARK  18 active torsions:
REMARK  status: ('A' for Active; 'I' for Inactive)
REMARK    1  A    between atoms: _2  and  _10
REMARK    2  A    between atoms: _5  and  _20
REMARK    3  A    between atoms: _7  and  _8
REMARK    4  A    between atoms: _7  and  _20
REMARK    5  A    between atoms: _13  and  _14
REMARK    6  A    between atoms: _14  and  _15
REMARK    7  A    between atoms: _16  and  _36
REMARK    8  A    between atoms: _18  and  _24
REMARK    9  A    between atoms: _19  and  _23
REMARK   10  A    between atoms: _23  and  _24
REMARK   11  A    between atoms: _26  and  _27
REMARK   12  A    between atoms: _28  and  _29
REMARK   13  A    between atoms: _30  and  _32
REMARK   14  A    between atoms: _32  and  _33
REMARK   15  A    between atoms: _32  and  _34
REMARK   16  A    between atoms: _34  and  _35
REMARK   17  A    between atoms: _34  and  _36
REMARK   18  A    between atoms: _37  and  _39
REMARK                            x       y       z     vdW  Elec       q    Type
REMARK                         _______ _______ _______ _____ _____    ______ ____
ROOT
ATOM      1  C   UNL     1      -3.134  11.532  25.357  0.00  0.00    +0.163 C 
ENDROOT
BRANCH   1   2
ATOM      2  O   UNL     1      -1.938  10.735  25.363  0.00  0.00    -0.388 OA
ATOM      3  H   UNL     1      -2.153   9.836  25.624  0.00  0.00    +0.210 HD
ENDBRANCH   1   2
BRANCH   1   4
ATOM      4  C   UNL     1      -3.505  11.977  26.782  0.00  0.00    +0.175 C 
BRANCH   4   5
ATOM      5  C   UNL     1      -3.287  10.858  27.812  0.00  0.00    +0.176 C 
ATOM      6  O   UNL     1      -3.894   9.645  27.290  0.00  0.00    -0.332 OA
ATOM      7  C   UNL     1      -3.693   8.437  28.096  0.00  0.00    +0.277 C 
ATOM      8  C   UNL     1      -4.164   8.674  29.552  0.00  0.00    +0.110 C 
ATOM      9  C   UNL     1      -3.569   9.971  30.140  0.00  0.00    +0.143 C 
ATOM     10  C   UNL     1      -3.834  11.162  29.219  0.00  0.00    +0.133 C 
BRANCH  10  11
ATOM     11  N   UNL     1      -3.188  12.375  29.746  0.00  0.00    -0.308 N 
ATOM     12  H   UNL     1      -2.178  12.397  29.774  0.00  0.00    +0.149 HD
ATOM     13  C   UNL     1      -3.848  13.447  30.191  0.00  0.00    +0.210 C 
ATOM     14  C   UNL     1      -5.386  13.371  30.161  0.00  0.00    +0.109 C 
ATOM     15  O   UNL     1      -3.280  14.455  30.614  0.00  0.00    -0.276 OA
ENDBRANCH  10  11
BRANCH   7  16
ATOM     16  C   UNL     1      -2.207   8.022  28.096  0.00  0.00    +0.414 C 
ATOM     17  O   UNL     1      -1.500   8.245  27.114  0.00  0.00    -0.240 OA
ATOM     18  O   UNL     1      -1.715   7.463  29.078  0.00  0.00    -0.240 OA
ENDBRANCH   7  16
BRANCH   7  19
ATOM     19  O   UNL     1      -4.497   7.375  27.523  0.00  0.00    -0.343 OA
ATOM     20  C   UNL     1      -4.883   7.578  26.140  0.00  0.00    +0.198 C 
ENDBRANCH   7  19
BRANCH   9  21
ATOM     21  O   UNL     1      -4.145  10.228  31.421  0.00  0.00    -0.390 OA
ATOM     22  H   UNL     1      -4.836  10.889  31.335  0.00  0.00    +0.210 HD
ENDBRANCH   9  21
ENDBRANCH   4   5
BRANCH   4  23
ATOM     23  O   UNL     1      -4.874  12.427  26.821  0.00  0.00    -0.387 OA
ATOM     24  H   UNL     1      -5.321  12.032  27.574  0.00  0.00    +0.210 HD
ENDBRANCH   4  23
ENDBRANCH   1   4
BRANCH   1  25
ATOM     25  C   UNL     1      -2.939  12.760  24.475  0.00  0.00    +0.141 C 
BRANCH  25  28
ATOM     26  C   UNL     1      -4.994  13.047  23.134  0.00  0.00    +0.401 C 
ATOM     27  O   UNL     1      -5.657  13.496  24.073  0.00  0.00    -0.226 OA
ATOM     28  N   UNL     1      -3.719  12.673  23.234  0.00  0.00    -0.279 N 
ATOM     29  H   UNL     1      -3.263  12.308  22.409  0.00  0.00    +0.152 HD
BRANCH  26  30
ATOM     30  O   UNL     1      -5.613  12.908  21.853  0.00  0.00    -0.444 OA
BRANCH  30  31
ATOM     31  C   UNL     1      -5.924  11.532  21.619  0.00  0.00    +0.292 C 
BRANCH  31  33
ATOM     32  N   UNL     1      -5.010   9.814  20.095  0.00  0.00    -0.131 NA
ATOM     33  C   UNL     1      -5.404  11.106  20.306  0.00  0.00    +0.121 A 
ATOM     34  C   UNL     1      -5.220  11.828  19.149  0.00  0.00    +0.145 A 
ATOM     35  N   UNL     1      -4.707  10.923  18.248  0.00  0.00    -0.202 N 
ATOM     36  N   UNL     1      -4.591   9.708  18.841  0.00  0.00    -0.059 NA
BRANCH  35  37
ATOM     37  C   UNL     1      -4.325  11.168  16.901  0.00  0.00    +0.156 A 
ATOM     38  C   UNL     1      -3.904  10.100  16.110  0.00  0.00    +0.048 A 
ATOM     39  C   UNL     1      -3.492  10.355  14.804  0.00  0.00    +0.011 A 
ATOM     40  C   UNL     1      -3.511  11.660  14.307  0.00  0.00    -0.004 A 
ATOM     41  C   UNL     1      -3.947  12.662  15.169  0.00  0.00    +0.119 A 
ATOM     42  N   UNL     1      -4.361  12.449  16.441  0.00  0.00    -0.236 NA
BRANCH  40  43
ATOM     43  C   UNL     1      -2.984  11.968  12.937  0.00  0.00    +0.192 C 
BRANCH  43  44
ATOM     44  O   UNL     1      -1.888  11.130  12.603  0.00  0.00    -0.390 OA
ATOM     45  H   UNL     1      -1.949  10.952  11.647  0.00  0.00    +0.210 HD
ENDBRANCH  43  44
ENDBRANCH  40  43
ENDBRANCH  35  37
ENDBRANCH  31  33
ENDBRANCH  30  31
ENDBRANCH  26  30
ENDBRANCH  25  28
ENDBRANCH   1  25
TORSDOF 16
