REMARK VINA RESULT:    -4.708      6.290     11.802
REMARK INTER + INTRA:         -11.267
REMARK INTER:                  -8.423
REMARK INTRA:                  -2.844
REMARK UNBOUND:                -2.844
REMARK  Name = lig_assembled_44.pdb
REMARK  17 active torsions:
REMARK  status: ('A' for Active; 'I' for Inactive)
REMARK    1  A    between atoms: _2  and  _9
REMARK    2  A    between atoms: _4  and  _19
REMARK    3  A    between atoms: _6  and  _7
REMARK    4  A    between atoms: _6  and  _19
REMARK    5  A    between atoms: _9  and  _10
REMARK    6  A    between atoms: _15  and  _35
REMARK    7  A    between atoms: _17  and  _23
REMARK    8  A    between atoms: _18  and  _22
REMARK    9  A    between atoms: _22  and  _23
REMARK   10  A    between atoms: _25  and  _26
REMARK   11  A    between atoms: _27  and  _28
REMARK   12  A    between atoms: _29  and  _31
REMARK   13  A    between atoms: _31  and  _32
REMARK   14  A    between atoms: _31  and  _33
REMARK   15  A    between atoms: _33  and  _34
REMARK   16  A    between atoms: _33  and  _35
REMARK   17  A    between atoms: _36  and  _38
REMARK                            x       y       z     vdW  Elec       q    Type
REMARK                         _______ _______ _______ _____ _____    ______ ____
ROOT
ATOM      1  C   UNL     1      -4.768  13.325  12.681  0.00  0.00    +0.163 C 
ENDROOT
BRANCH   1   2
ATOM      2  O   UNL     1      -5.270  12.502  13.747  0.00  0.00    -0.388 OA
ATOM      3  H   UNL     1      -5.856  11.833  13.386  0.00  0.00    +0.210 HD
ENDBRANCH   1   2
BRANCH   1   4
ATOM      4  C   UNL     1      -3.923  12.486  11.728  0.00  0.00    +0.141 C 
BRANCH   4   7
ATOM      5  C   UNL     1      -2.933  10.355  12.491  0.00  0.00    +0.401 C 
ATOM      6  O   UNL     1      -3.791   9.654  11.950  0.00  0.00    -0.226 OA
ATOM      7  N   UNL     1      -2.920  11.688  12.443  0.00  0.00    -0.279 N 
ATOM      8  H   UNL     1      -2.179  12.176  12.927  0.00  0.00    +0.152 HD
BRANCH   5   9
ATOM      9  O   UNL     1      -1.879   9.723  13.222  0.00  0.00    -0.444 OA
BRANCH   9  10
ATOM     10  C   UNL     1      -2.433   8.971  14.305  0.00  0.00    +0.292 C 
BRANCH  10  12
ATOM     11  N   UNL     1      -2.829  11.208  15.296  0.00  0.00    -0.131 NA
ATOM     12  C   UNL     1      -3.108   9.867  15.262  0.00  0.00    +0.120 A 
ATOM     13  C   UNL     1      -4.068   9.584  16.206  0.00  0.00    +0.137 A 
ATOM     14  N   UNL     1      -4.388  10.804  16.725  0.00  0.00    -0.247 N 
ATOM     15  N   UNL     1      -3.612  11.773  16.205  0.00  0.00    -0.065 NA
BRANCH  14  16
ATOM     16  C   UNL     1      -5.407  11.123  17.706  0.00  0.00    +0.180 C 
BRANCH  16  17
ATOM     17  C   UNL     1      -4.845  11.125  19.107  0.00  0.00    -0.026 A 
ATOM     18  C   UNL     1      -5.048  10.030  19.962  0.00  0.00    +0.006 A 
ATOM     19  C   UNL     1      -4.541  10.041  21.263  0.00  0.00    +0.015 A 
ATOM     20  C   UNL     1      -3.827  11.148  21.717  0.00  0.00    +0.018 A 
ATOM     21 BR   UNL     1      -3.126  11.154  23.473  0.00  0.00    -0.050 Br
ATOM     22  C   UNL     1      -3.625  12.249  20.888  0.00  0.00    +0.015 A 
ATOM     23  C   UNL     1      -4.138  12.240  19.587  0.00  0.00    +0.006 A 
ENDBRANCH  16  17
ENDBRANCH  14  16
ENDBRANCH  10  12
ENDBRANCH   9  10
ENDBRANCH   5   9
ENDBRANCH   4   7
ENDBRANCH   1   4
BRANCH   1  24
ATOM     24  C   UNL     1      -3.921  14.485  13.234  0.00  0.00    +0.175 C 
BRANCH  24  25
ATOM     25  C   UNL     1      -2.966  15.058  12.176  0.00  0.00    +0.176 C 
ATOM     26  O   UNL     1      -1.622  15.040  12.731  0.00  0.00    -0.332 OA
ATOM     27  C   UNL     1      -0.554  15.457  11.817  0.00  0.00    +0.277 C 
ATOM     28  C   UNL     1      -0.859  16.857  11.230  0.00  0.00    +0.110 C 
ATOM     29  C   UNL     1      -2.290  16.934  10.656  0.00  0.00    +0.143 C 
ATOM     30  C   UNL     1      -3.320  16.475  11.689  0.00  0.00    +0.133 C 
BRANCH  30  31
ATOM     31  N   UNL     1      -4.670  16.471  11.103  0.00  0.00    -0.308 N 
ATOM     32  H   UNL     1      -4.848  15.840  10.333  0.00  0.00    +0.149 HD
ATOM     33  C   UNL     1      -5.675  17.244  11.521  0.00  0.00    +0.210 C 
ATOM     34  C   UNL     1      -5.365  18.212  12.679  0.00  0.00    +0.109 C 
ATOM     35  O   UNL     1      -6.800  17.208  11.021  0.00  0.00    -0.276 OA
ENDBRANCH  30  31
BRANCH  27  36
ATOM     36  C   UNL     1      -0.389  14.441  10.668  0.00  0.00    +0.414 C 
ATOM     37  O   UNL     1      -0.466  13.233  10.893  0.00  0.00    -0.240 OA
ATOM     38  O   UNL     1      -0.180  14.827   9.518  0.00  0.00    -0.240 OA
ENDBRANCH  27  36
BRANCH  27  39
ATOM     39  O   UNL     1       0.680  15.539  12.577  0.00  0.00    -0.343 OA
ATOM     40  C   UNL     1       1.732  16.317  11.953  0.00  0.00    +0.198 C 
ENDBRANCH  27  39
BRANCH  29  41
ATOM     41  O   UNL     1      -2.581  18.276  10.265  0.00  0.00    -0.390 OA
ATOM     42  H   UNL     1      -3.523  18.367  10.105  0.00  0.00    +0.210 HD
ENDBRANCH  29  41
ENDBRANCH  24  25
BRANCH  24  43
ATOM     43  O   UNL     1      -3.178  14.050  14.390  0.00  0.00    -0.387 OA
ATOM     44  H   UNL     1      -3.760  13.567  14.982  0.00  0.00    +0.210 HD
ENDBRANCH  24  43
ENDBRANCH   1  24
TORSDOF 15
