REMARK VINA RESULT:    -4.509      2.237      6.332
REMARK INTER + INTRA:         -11.134
REMARK INTER:                  -7.053
REMARK INTRA:                  -4.082
REMARK UNBOUND:                -2.934
REMARK  Name = lig_assembled_72.pdb
REMARK  20 active torsions:
REMARK  status: ('A' for Active; 'I' for Inactive)
REMARK    1  A    between atoms: _2  and  _9
REMARK    2  A    between atoms: _4  and  _17
REMARK    3  A    between atoms: _5  and  _9
REMARK    4  A    between atoms: _5  and  _12
REMARK    5  A    between atoms: _6  and  _7
REMARK    6  A    between atoms: _6  and  _17
REMARK    7  A    between atoms: _9  and  _10
REMARK    8  A    between atoms: _9  and  _11
REMARK    9  A    between atoms: _13  and  _33
REMARK   10  A    between atoms: _15  and  _21
REMARK   11  A    between atoms: _16  and  _20
REMARK   12  A    between atoms: _20  and  _21
REMARK   13  A    between atoms: _23  and  _24
REMARK   14  A    between atoms: _25  and  _26
REMARK   15  A    between atoms: _27  and  _29
REMARK   16  A    between atoms: _29  and  _30
REMARK   17  A    between atoms: _29  and  _31
REMARK   18  A    between atoms: _31  and  _32
REMARK   19  A    between atoms: _31  and  _33
REMARK   20  A    between atoms: _34  and  _36
REMARK                            x       y       z     vdW  Elec       q    Type
REMARK                         _______ _______ _______ _____ _____    ______ ____
ROOT
ATOM      1  C   UNL     1      -2.845  11.871  23.951  0.00  0.00    +0.163 C 
ENDROOT
BRANCH   1   2
ATOM      2  O   UNL     1      -2.221  11.677  25.231  0.00  0.00    -0.388 OA
ATOM      3  H   UNL     1      -2.613  10.916  25.666  0.00  0.00    +0.210 HD
ENDBRANCH   1   2
BRANCH   1   4
ATOM      4  C   UNL     1      -3.753  10.681  23.595  0.00  0.00    +0.175 C 
BRANCH   4   5
ATOM      5  C   UNL     1      -4.101   9.832  24.826  0.00  0.00    +0.176 C 
ATOM      6  O   UNL     1      -2.945   9.008  25.142  0.00  0.00    -0.332 OA
ATOM      7  C   UNL     1      -3.056   8.201  26.361  0.00  0.00    +0.277 C 
ATOM      8  C   UNL     1      -4.328   7.320  26.313  0.00  0.00    +0.110 C 
ATOM      9  C   UNL     1      -5.580   8.147  25.949  0.00  0.00    +0.143 C 
ATOM     10  C   UNL     1      -5.353   8.949  24.667  0.00  0.00    +0.133 C 
BRANCH  10  11
ATOM     11  N   UNL     1      -6.519   9.799  24.379  0.00  0.00    -0.308 N 
ATOM     12  H   UNL     1      -6.750  10.525  25.043  0.00  0.00    +0.149 HD
ATOM     13  C   UNL     1      -7.292   9.674  23.297  0.00  0.00    +0.210 C 
ATOM     14  C   UNL     1      -6.930   8.542  22.317  0.00  0.00    +0.109 C 
ATOM     15  O   UNL     1      -8.254  10.410  23.073  0.00  0.00    -0.276 OA
ENDBRANCH  10  11
BRANCH   7  16
ATOM     16  C   UNL     1      -3.100   9.102  27.612  0.00  0.00    +0.414 C 
ATOM     17  O   UNL     1      -3.944   8.910  28.486  0.00  0.00    -0.240 OA
ATOM     18  O   UNL     1      -2.291  10.022  27.748  0.00  0.00    -0.240 OA
ENDBRANCH   7  16
BRANCH   9  19
ATOM     19  O   UNL     1      -6.697   7.276  25.767  0.00  0.00    -0.390 OA
ATOM     20  H   UNL     1      -7.385   7.502  26.397  0.00  0.00    +0.210 HD
ENDBRANCH   9  19
BRANCH   7  21
ATOM     21  O   UNL     1      -1.898   7.328  26.428  0.00  0.00    -0.343 OA
ATOM     22  C   UNL     1      -2.030   6.205  27.336  0.00  0.00    +0.198 C 
ENDBRANCH   7  21
ENDBRANCH   4   5
BRANCH   4  23
ATOM     23  O   UNL     1      -3.126   9.863  22.587  0.00  0.00    -0.387 OA
ATOM     24  H   UNL     1      -3.511  10.059  21.730  0.00  0.00    +0.210 HD
ENDBRANCH   4  23
ENDBRANCH   1   4
BRANCH   1  25
ATOM     25  C   UNL     1      -3.668  13.155  23.961  0.00  0.00    +0.141 C 
BRANCH  25  28
ATOM     26  C   UNL     1      -5.794  13.181  25.221  0.00  0.00    +0.401 C 
ATOM     27  O   UNL     1      -6.495  12.978  24.227  0.00  0.00    -0.226 OA
ATOM     28  N   UNL     1      -4.465  13.284  25.188  0.00  0.00    -0.279 N 
ATOM     29  H   UNL     1      -3.979  13.461  26.055  0.00  0.00    +0.152 HD
BRANCH  26  30
ATOM     30  O   UNL     1      -6.424  13.322  26.497  0.00  0.00    -0.444 OA
BRANCH  30  31
ATOM     31  C   UNL     1      -6.456  12.054  27.157  0.00  0.00    +0.292 C 
BRANCH  31  33
ATOM     32  N   UNL     1      -4.368  12.681  28.325  0.00  0.00    -0.131 NA
ATOM     33  C   UNL     1      -5.595  12.077  28.353  0.00  0.00    +0.120 A 
ATOM     34  C   UNL     1      -5.810  11.557  29.611  0.00  0.00    +0.137 A 
ATOM     35  N   UNL     1      -4.677  11.878  30.307  0.00  0.00    -0.244 N 
ATOM     36  N   UNL     1      -3.816  12.554  29.521  0.00  0.00    -0.065 NA
BRANCH  35  37
ATOM     37  C   UNL     1      -4.356  11.578  31.710  0.00  0.00    +0.083 C 
ATOM     38  C   UNL     1      -5.338  10.516  32.239  0.00  0.00    +0.038 C 
ATOM     39  C   UNL     1      -4.483  12.861  32.556  0.00  0.00    +0.038 C 
BRANCH  37  40
ATOM     40  C   UNL     1      -2.918  11.011  31.860  0.00  0.00    +0.185 C 
BRANCH  40  41
ATOM     41  O   UNL     1      -2.456  10.361  30.677  0.00  0.00    -0.393 OA
ATOM     42  H   UNL     1      -3.196  10.413  30.034  0.00  0.00    +0.209 HD
ENDBRANCH  40  41
ENDBRANCH  37  40
ENDBRANCH  35  37
ENDBRANCH  31  33
ENDBRANCH  30  31
ENDBRANCH  26  30
ENDBRANCH  25  28
ENDBRANCH   1  25
TORSDOF 16
