REMARK VINA RESULT:    -4.398      2.669      6.358
REMARK INTER + INTRA:         -10.918
REMARK INTER:                  -7.869
REMARK INTRA:                  -3.049
REMARK UNBOUND:                -3.049
REMARK  Name = lig_assembled_28.pdb
REMARK  17 active torsions:
REMARK  status: ('A' for Active; 'I' for Inactive)
REMARK    1  A    between atoms: _2  and  _9
REMARK    2  A    between atoms: _4  and  _22
REMARK    3  A    between atoms: _6  and  _7
REMARK    4  A    between atoms: _6  and  _22
REMARK    5  A    between atoms: _9  and  _10
REMARK    6  A    between atoms: _18  and  _38
REMARK    7  A    between atoms: _20  and  _26
REMARK    8  A    between atoms: _21  and  _25
REMARK    9  A    between atoms: _25  and  _26
REMARK   10  A    between atoms: _28  and  _29
REMARK   11  A    between atoms: _30  and  _31
REMARK   12  A    between atoms: _32  and  _34
REMARK   13  A    between atoms: _34  and  _35
REMARK   14  A    between atoms: _34  and  _36
REMARK   15  A    between atoms: _36  and  _37
REMARK   16  A    between atoms: _36  and  _38
REMARK   17  A    between atoms: _39  and  _41
REMARK                            x       y       z     vdW  Elec       q    Type
REMARK                         _______ _______ _______ _____ _____    ______ ____
ROOT
ATOM      1  C   UNL     1      -4.339  10.469  28.600  0.00  0.00    +0.163 C 
ENDROOT
BRANCH   1   2
ATOM      2  O   UNL     1      -5.111  11.676  28.713  0.00  0.00    -0.388 OA
ATOM      3  H   UNL     1      -6.044  11.469  28.621  0.00  0.00    +0.210 HD
ENDBRANCH   1   2
BRANCH   1   4
ATOM      4  C   UNL     1      -3.821  10.050  29.971  0.00  0.00    +0.141 C 
BRANCH   4   7
ATOM      5  C   UNL     1      -2.811  11.261  31.874  0.00  0.00    +0.401 C 
ATOM      6  O   UNL     1      -3.414  10.610  32.730  0.00  0.00    -0.226 OA
ATOM      7  N   UNL     1      -2.946  11.071  30.561  0.00  0.00    -0.279 N 
ATOM      8  H   UNL     1      -2.415  11.662  29.936  0.00  0.00    +0.152 HD
BRANCH   5   9
ATOM      9  O   UNL     1      -1.911  12.291  32.291  0.00  0.00    -0.444 OA
BRANCH   9  10
ATOM     10  C   UNL     1      -2.537  13.096  33.293  0.00  0.00    +0.292 C 
BRANCH  10  12
ATOM     11  N   UNL     1      -2.708  15.055  31.783  0.00  0.00    -0.131 NA
ATOM     12  C   UNL     1      -3.299  14.194  32.667  0.00  0.00    +0.120 A 
ATOM     13  C   UNL     1      -4.628  14.525  32.798  0.00  0.00    +0.137 A 
ATOM     14  N   UNL     1      -4.810  15.534  31.895  0.00  0.00    -0.247 N 
ATOM     15  N   UNL     1      -3.640  15.881  31.325  0.00  0.00    -0.065 NA
BRANCH  14  16
ATOM     16  C   UNL     1      -6.034  16.173  31.429  0.00  0.00    +0.180 C 
BRANCH  16  17
ATOM     17  C   UNL     1      -6.260  16.040  29.941  0.00  0.00    -0.022 A 
ATOM     18  C   UNL     1      -6.410  14.768  29.361  0.00  0.00    +0.055 A 
ATOM     19  C   UNL     1      -6.729  14.702  28.021  0.00  0.00    +0.167 A 
ATOM     20  O   UNL     1      -6.963  13.560  27.318  0.00  0.00    -0.453 OA
ATOM     21  C   UNL     1      -7.365  14.108  26.045  0.00  0.00    +0.466 C 
ATOM     22  O   UNL     1      -7.219  15.542  25.967  0.00  0.00    -0.453 OA
ATOM     23  C   UNL     1      -6.872  15.829  27.251  0.00  0.00    +0.166 A 
ATOM     24  C   UNL     1      -6.698  17.092  27.776  0.00  0.00    +0.050 A 
ATOM     25  C   UNL     1      -6.397  17.195  29.137  0.00  0.00    +0.009 A 
ENDBRANCH  16  17
ENDBRANCH  14  16
ENDBRANCH  10  12
ENDBRANCH   9  10
ENDBRANCH   5   9
ENDBRANCH   4   7
ENDBRANCH   1   4
BRANCH   1  26
ATOM     26  C   UNL     1      -3.153  10.663  27.639  0.00  0.00    +0.175 C 
BRANCH  26  27
ATOM     27  C   UNL     1      -3.464  10.151  26.225  0.00  0.00    +0.176 C 
ATOM     28  O   UNL     1      -4.438  11.051  25.628  0.00  0.00    -0.332 OA
ATOM     29  C   UNL     1      -4.778  10.778  24.228  0.00  0.00    +0.277 C 
ATOM     30  C   UNL     1      -5.250   9.312  24.063  0.00  0.00    +0.110 C 
ATOM     31  C   UNL     1      -4.262   8.319  24.711  0.00  0.00    +0.143 C 
ATOM     32  C   UNL     1      -3.976   8.700  26.164  0.00  0.00    +0.133 C 
BRANCH  32  33
ATOM     33  N   UNL     1      -2.968   7.798  26.743  0.00  0.00    -0.308 N 
ATOM     34  H   UNL     1      -2.022   7.861  26.394  0.00  0.00    +0.149 HD
ATOM     35  C   UNL     1      -3.222   6.901  27.700  0.00  0.00    +0.210 C 
ATOM     36  C   UNL     1      -4.679   6.812  28.193  0.00  0.00    +0.109 C 
ATOM     37  O   UNL     1      -2.354   6.169  28.178  0.00  0.00    -0.276 OA
ENDBRANCH  32  33
BRANCH  29  38
ATOM     38  C   UNL     1      -3.566  11.036  23.310  0.00  0.00    +0.414 C 
ATOM     39  O   UNL     1      -3.006  12.132  23.316  0.00  0.00    -0.240 OA
ATOM     40  O   UNL     1      -3.148  10.150  22.563  0.00  0.00    -0.240 OA
ENDBRANCH  29  38
BRANCH  29  41
ATOM     41  O   UNL     1      -5.871  11.655  23.853  0.00  0.00    -0.343 OA
ATOM     42  C   UNL     1      -6.625  11.232  22.689  0.00  0.00    +0.198 C 
ENDBRANCH  29  41
BRANCH  31  43
ATOM     43  O   UNL     1      -4.808   7.000  24.668  0.00  0.00    -0.390 OA
ATOM     44  H   UNL     1      -5.603   6.965  25.204  0.00  0.00    +0.210 HD
ENDBRANCH  31  43
ENDBRANCH  26  27
BRANCH  26  45
ATOM     45  O   UNL     1      -1.981  10.005  28.159  0.00  0.00    -0.387 OA
ATOM     46  H   UNL     1      -1.971  10.077  29.116  0.00  0.00    +0.210 HD
ENDBRANCH  26  45
ENDBRANCH   1  26
TORSDOF 15
