REMARK VINA RESULT:    -4.874      7.725     12.116
REMARK INTER + INTRA:         -10.722
REMARK INTER:                  -8.435
REMARK INTRA:                  -2.287
REMARK UNBOUND:                -2.287
REMARK  Name = lig_assembled_52.pdb
REMARK  16 active torsions:
REMARK  status: ('A' for Active; 'I' for Inactive)
REMARK    1  A    between atoms: _2  and  _10
REMARK    2  A    between atoms: _5  and  _18
REMARK    3  A    between atoms: _7  and  _8
REMARK    4  A    between atoms: _7  and  _18
REMARK    5  A    between atoms: _14  and  _34
REMARK    6  A    between atoms: _16  and  _22
REMARK    7  A    between atoms: _17  and  _21
REMARK    8  A    between atoms: _21  and  _22
REMARK    9  A    between atoms: _24  and  _25
REMARK   10  A    between atoms: _26  and  _27
REMARK   11  A    between atoms: _28  and  _30
REMARK   12  A    between atoms: _30  and  _31
REMARK   13  A    between atoms: _30  and  _32
REMARK   14  A    between atoms: _32  and  _33
REMARK   15  A    between atoms: _32  and  _34
REMARK   16  A    between atoms: _35  and  _37
REMARK                            x       y       z     vdW  Elec       q    Type
REMARK                         _______ _______ _______ _____ _____    ______ ____
ROOT
ATOM      1  C   UNL     1      -4.552   8.926  13.559  0.00  0.00    +0.163 C 
ENDROOT
BRANCH   1   2
ATOM      2  O   UNL     1      -5.826   9.590  13.533  0.00  0.00    -0.388 OA
ATOM      3  H   UNL     1      -6.039   9.910  14.413  0.00  0.00    +0.210 HD
ENDBRANCH   1   2
BRANCH   1   4
ATOM      4  C   UNL     1      -4.578   7.787  14.573  0.00  0.00    +0.141 C 
BRANCH   4   7
ATOM      5  C   UNL     1      -5.115   8.750  16.784  0.00  0.00    +0.401 C 
ATOM      6  O   UNL     1      -6.314   8.891  16.536  0.00  0.00    -0.226 OA
ATOM      7  N   UNL     1      -4.229   8.247  15.923  0.00  0.00    -0.279 N 
ATOM      8  H   UNL     1      -3.265   8.180  16.215  0.00  0.00    +0.152 HD
BRANCH   5   9
ATOM      9  O   UNL     1      -4.619   9.145  18.066  0.00  0.00    -0.444 OA
BRANCH   9  10
ATOM     10  C   UNL     1      -5.661   9.790  18.803  0.00  0.00    +0.292 C 
BRANCH  10  12
ATOM     11  N   UNL     1      -4.934  11.972  19.712  0.00  0.00    -0.131 NA
ATOM     12  C   UNL     1      -5.089  10.626  19.875  0.00  0.00    +0.121 A 
ATOM     13  C   UNL     1      -4.645  10.272  21.128  0.00  0.00    +0.143 A 
ATOM     14  N   UNL     1      -4.241  11.452  21.710  0.00  0.00    -0.218 N 
ATOM     15  N   UNL     1      -4.415  12.466  20.829  0.00  0.00    -0.060 NA
BRANCH  14  16
ATOM     16  C   UNL     1      -3.734  11.667  23.008  0.00  0.00    +0.085 A 
ATOM     17  C   UNL     1      -3.852  12.901  23.654  0.00  0.00    +0.031 A 
ATOM     18  C   UNL     1      -3.311  13.057  24.929  0.00  0.00    +0.022 A 
ATOM     19  C   UNL     1      -2.675  11.975  25.514  0.00  0.00    +0.111 A 
ATOM     20  N   UNL     1      -2.553  10.769  24.920  0.00  0.00    -0.261 NA
ATOM     21  C   UNL     1      -3.084  10.638  23.680  0.00  0.00    +0.138 A 
ENDBRANCH  14  16
ENDBRANCH  10  12
ENDBRANCH   9  10
ENDBRANCH   5   9
ENDBRANCH   4   7
ENDBRANCH   1   4
BRANCH   1  22
ATOM     22  C   UNL     1      -3.426   9.910  13.921  0.00  0.00    +0.175 C 
BRANCH  22  23
ATOM     23  C   UNL     1      -3.439  11.157  13.025  0.00  0.00    +0.176 C 
ATOM     24  O   UNL     1      -2.146  11.247  12.364  0.00  0.00    -0.332 OA
ATOM     25  C   UNL     1      -2.010  12.326  11.381  0.00  0.00    +0.277 C 
ATOM     26  C   UNL     1      -2.366  13.690  12.022  0.00  0.00    +0.110 C 
ATOM     27  C   UNL     1      -3.718  13.635  12.764  0.00  0.00    +0.143 C 
ATOM     28  C   UNL     1      -3.752  12.475  13.759  0.00  0.00    +0.133 C 
BRANCH  28  29
ATOM     29  N   UNL     1      -5.075  12.380  14.396  0.00  0.00    -0.308 N 
ATOM     30  H   UNL     1      -5.880  12.270  13.796  0.00  0.00    +0.149 HD
ATOM     31  C   UNL     1      -5.281  12.430  15.714  0.00  0.00    +0.210 C 
ATOM     32  C   UNL     1      -4.036  12.625  16.600  0.00  0.00    +0.109 C 
ATOM     33  O   UNL     1      -6.399  12.333  16.221  0.00  0.00    -0.276 OA
ENDBRANCH  28  29
BRANCH  25  34
ATOM     34  C   UNL     1      -2.923  12.075  10.163  0.00  0.00    +0.414 C 
ATOM     35  O   UNL     1      -3.000  10.951   9.667  0.00  0.00    -0.240 OA
ATOM     36  O   UNL     1      -3.583  12.994   9.677  0.00  0.00    -0.240 OA
ENDBRANCH  25  34
BRANCH  27  37
ATOM     37  O   UNL     1      -3.934  14.861  13.463  0.00  0.00    -0.390 OA
ATOM     38  H   UNL     1      -3.234  14.991  14.107  0.00  0.00    +0.210 HD
ENDBRANCH  27  37
BRANCH  25  39
ATOM     39  O   UNL     1      -0.625  12.370  10.952  0.00  0.00    -0.343 OA
ATOM     40  C   UNL     1      -0.094  13.701  10.733  0.00  0.00    +0.198 C 
ENDBRANCH  25  39
ENDBRANCH  22  23
BRANCH  22  41
ATOM     41  O   UNL     1      -2.146   9.252  13.838  0.00  0.00    -0.387 OA
ATOM     42  H   UNL     1      -2.153   8.466  14.389  0.00  0.00    +0.210 HD
ENDBRANCH  22  41
ENDBRANCH   1  22
TORSDOF 14
