REMARK VINA RESULT:    -4.261      2.157      7.746
REMARK INTER + INTRA:         -10.682
REMARK INTER:                  -8.182
REMARK INTRA:                  -2.500
REMARK UNBOUND:                -2.934
REMARK  Name = lig_assembled_72.pdb
REMARK  20 active torsions:
REMARK  status: ('A' for Active; 'I' for Inactive)
REMARK    1  A    between atoms: _2  and  _9
REMARK    2  A    between atoms: _4  and  _17
REMARK    3  A    between atoms: _5  and  _9
REMARK    4  A    between atoms: _5  and  _12
REMARK    5  A    between atoms: _6  and  _7
REMARK    6  A    between atoms: _6  and  _17
REMARK    7  A    between atoms: _9  and  _10
REMARK    8  A    between atoms: _9  and  _11
REMARK    9  A    between atoms: _13  and  _33
REMARK   10  A    between atoms: _15  and  _21
REMARK   11  A    between atoms: _16  and  _20
REMARK   12  A    between atoms: _20  and  _21
REMARK   13  A    between atoms: _23  and  _24
REMARK   14  A    between atoms: _25  and  _26
REMARK   15  A    between atoms: _27  and  _29
REMARK   16  A    between atoms: _29  and  _30
REMARK   17  A    between atoms: _29  and  _31
REMARK   18  A    between atoms: _31  and  _32
REMARK   19  A    between atoms: _31  and  _33
REMARK   20  A    between atoms: _34  and  _36
REMARK                            x       y       z     vdW  Elec       q    Type
REMARK                         _______ _______ _______ _____ _____    ______ ____
ROOT
ATOM      1  C   UNL     1      -2.569  11.595  26.053  0.00  0.00    +0.163 C 
ENDROOT
BRANCH   1   2
ATOM      2  O   UNL     1      -2.089  12.144  24.815  0.00  0.00    -0.388 OA
ATOM      3  H   UNL     1      -1.202  12.488  24.939  0.00  0.00    +0.210 HD
ENDBRANCH   1   2
BRANCH   1   4
ATOM      4  C   UNL     1      -4.083  11.331  25.988  0.00  0.00    +0.175 C 
BRANCH   4   5
ATOM      5  C   UNL     1      -4.490  10.617  24.691  0.00  0.00    +0.176 C 
ATOM      6  O   UNL     1      -4.991  11.621  23.765  0.00  0.00    -0.332 OA
ATOM      7  C   UNL     1      -5.331  11.135  22.425  0.00  0.00    +0.277 C 
ATOM      8  C   UNL     1      -6.334   9.959  22.514  0.00  0.00    +0.110 C 
ATOM      9  C   UNL     1      -5.861   8.880  23.511  0.00  0.00    +0.143 C 
ATOM     10  C   UNL     1      -5.531   9.497  24.871  0.00  0.00    +0.133 C 
BRANCH  10  11
ATOM     11  N   UNL     1      -4.999   8.474  25.785  0.00  0.00    -0.308 N 
ATOM     12  H   UNL     1      -4.151   7.995  25.515  0.00  0.00    +0.149 HD
ATOM     13  C   UNL     1      -5.563   8.136  26.948  0.00  0.00    +0.210 C 
ATOM     14  C   UNL     1      -6.868   8.865  27.318  0.00  0.00    +0.109 C 
ATOM     15  O   UNL     1      -5.086   7.286  27.700  0.00  0.00    -0.276 OA
ENDBRANCH  10  11
BRANCH   7  16
ATOM     16  C   UNL     1      -4.065  10.675  21.672  0.00  0.00    +0.414 C 
ATOM     17  O   UNL     1      -4.157   9.915  20.709  0.00  0.00    -0.240 OA
ATOM     18  O   UNL     1      -2.951  11.065  22.028  0.00  0.00    -0.240 OA
ENDBRANCH   7  16
BRANCH   9  19
ATOM     19  O   UNL     1      -6.881   7.895  23.676  0.00  0.00    -0.390 OA
ATOM     20  H   UNL     1      -6.544   7.169  24.206  0.00  0.00    +0.210 HD
ENDBRANCH   9  19
BRANCH   7  21
ATOM     21  O   UNL     1      -5.962  12.221  21.700  0.00  0.00    -0.343 OA
ATOM     22  C   UNL     1      -5.443  13.541  22.000  0.00  0.00    +0.198 C 
ENDBRANCH   7  21
ENDBRANCH   4   5
BRANCH   4  23
ATOM     23  O   UNL     1      -4.809  12.570  26.122  0.00  0.00    -0.387 OA
ATOM     24  H   UNL     1      -5.546  12.445  26.726  0.00  0.00    +0.210 HD
ENDBRANCH   4  23
ENDBRANCH   1   4
BRANCH   1  25
ATOM     25  C   UNL     1      -1.838  10.293  26.365  0.00  0.00    +0.141 C 
BRANCH  25  28
ATOM     26  C   UNL     1      -1.861   8.699  28.252  0.00  0.00    +0.401 C 
ATOM     27  O   UNL     1      -1.747   7.703  27.535  0.00  0.00    -0.226 OA
ATOM     28  N   UNL     1      -1.918   9.948  27.789  0.00  0.00    -0.279 N 
ATOM     29  H   UNL     1      -2.021  10.700  28.457  0.00  0.00    +0.152 HD
BRANCH  26  30
ATOM     30  O   UNL     1      -1.943   8.529  29.670  0.00  0.00    -0.444 OA
BRANCH  30  31
ATOM     31  C   UNL     1      -3.279   8.792  30.106  0.00  0.00    +0.292 C 
BRANCH  31  33
ATOM     32  N   UNL     1      -2.625  10.518  31.752  0.00  0.00    -0.131 NA
ATOM     33  C   UNL     1      -3.376  10.150  30.670  0.00  0.00    +0.120 A 
ATOM     34  C   UNL     1      -4.150  11.220  30.277  0.00  0.00    +0.137 A 
ATOM     35  N   UNL     1      -3.826  12.214  31.160  0.00  0.00    -0.244 N 
ATOM     36  N   UNL     1      -2.907  11.778  32.044  0.00  0.00    -0.065 NA
BRANCH  35  37
ATOM     37  C   UNL     1      -4.346  13.588  31.214  0.00  0.00    +0.083 C 
ATOM     38  C   UNL     1      -5.289  13.726  32.424  0.00  0.00    +0.038 C 
ATOM     39  C   UNL     1      -5.123  13.899  29.920  0.00  0.00    +0.038 C 
BRANCH  37  40
ATOM     40  C   UNL     1      -3.203  14.626  31.383  0.00  0.00    +0.185 C 
BRANCH  40  41
ATOM     41  O   UNL     1      -1.960  14.169  30.852  0.00  0.00    -0.393 OA
ATOM     42  H   UNL     1      -2.111  13.239  30.576  0.00  0.00    +0.209 HD
ENDBRANCH  40  41
ENDBRANCH  37  40
ENDBRANCH  35  37
ENDBRANCH  31  33
ENDBRANCH  30  31
ENDBRANCH  26  30
ENDBRANCH  25  28
ENDBRANCH   1  25
TORSDOF 16
