REMARK VINA RESULT:    -4.683      3.051      9.611
REMARK INTER + INTRA:         -10.600
REMARK INTER:                  -7.393
REMARK INTRA:                  -3.206
REMARK UNBOUND:                -2.494
REMARK  Name = lig_assembled_56.pdb
REMARK  16 active torsions:
REMARK  status: ('A' for Active; 'I' for Inactive)
REMARK    1  A    between atoms: _2  and  _10
REMARK    2  A    between atoms: _5  and  _18
REMARK    3  A    between atoms: _7  and  _8
REMARK    4  A    between atoms: _7  and  _18
REMARK    5  A    between atoms: _14  and  _34
REMARK    6  A    between atoms: _16  and  _22
REMARK    7  A    between atoms: _17  and  _21
REMARK    8  A    between atoms: _21  and  _22
REMARK    9  A    between atoms: _24  and  _25
REMARK   10  A    between atoms: _26  and  _27
REMARK   11  A    between atoms: _28  and  _30
REMARK   12  A    between atoms: _30  and  _31
REMARK   13  A    between atoms: _30  and  _32
REMARK   14  A    between atoms: _32  and  _33
REMARK   15  A    between atoms: _32  and  _34
REMARK   16  A    between atoms: _35  and  _37
REMARK                            x       y       z     vdW  Elec       q    Type
REMARK                         _______ _______ _______ _____ _____    ______ ____
ROOT
ATOM      1  C   UNL     1      -6.081   8.365  24.395  0.00  0.00    +0.163 C 
ENDROOT
BRANCH   1   2
ATOM      2  O   UNL     1      -5.894   8.950  25.693  0.00  0.00    -0.388 OA
ATOM      3  H   UNL     1      -6.468   8.514  26.328  0.00  0.00    +0.210 HD
ENDBRANCH   1   2
BRANCH   1   4
ATOM      4  C   UNL     1      -4.926   7.421  24.076  0.00  0.00    +0.141 C 
BRANCH   4   7
ATOM      5  C   UNL     1      -2.893   6.625  25.233  0.00  0.00    +0.401 C 
ATOM      6  O   UNL     1      -2.861   5.547  24.635  0.00  0.00    -0.226 OA
ATOM      7  N   UNL     1      -3.826   7.558  25.039  0.00  0.00    -0.279 N 
ATOM      8  H   UNL     1      -3.774   8.406  25.585  0.00  0.00    +0.152 HD
BRANCH   5   9
ATOM      9  O   UNL     1      -1.881   6.912  26.202  0.00  0.00    -0.444 OA
BRANCH   9  10
ATOM     10  C   UNL     1      -2.362   6.583  27.508  0.00  0.00    +0.292 C 
BRANCH  10  12
ATOM     11  N   UNL     1      -4.309   8.010  28.052  0.00  0.00    -0.131 NA
ATOM     12  C   UNL     1      -2.969   7.767  28.144  0.00  0.00    +0.121 A 
ATOM     13  C   UNL     1      -2.382   8.766  28.888  0.00  0.00    +0.143 A 
ATOM     14  N   UNL     1      -3.418   9.597  29.247  0.00  0.00    -0.220 N 
ATOM     15  N   UNL     1      -4.574   9.123  28.721  0.00  0.00    -0.060 NA
BRANCH  14  16
ATOM     16  C   UNL     1      -3.382  10.768  30.043  0.00  0.00    +0.070 A 
ATOM     17  C   UNL     1      -2.790  10.760  31.308  0.00  0.00    +0.047 A 
ATOM     18  C   UNL     1      -2.804  11.938  32.040  0.00  0.00    +0.113 A 
ATOM     19  N   UNL     1      -3.355  13.089  31.602  0.00  0.00    -0.263 NA
ATOM     20  C   UNL     1      -3.919  13.070  30.375  0.00  0.00    +0.113 A 
ATOM     21  C   UNL     1      -3.957  11.949  29.564  0.00  0.00    +0.047 A 
ENDBRANCH  14  16
ENDBRANCH  10  12
ENDBRANCH   9  10
ENDBRANCH   5   9
ENDBRANCH   4   7
ENDBRANCH   1   4
BRANCH   1  22
ATOM     22  C   UNL     1      -6.171   9.451  23.309  0.00  0.00    +0.175 C 
BRANCH  22  23
ATOM     23  C   UNL     1      -5.029  10.473  23.418  0.00  0.00    +0.176 C 
ATOM     24  O   UNL     1      -5.351  11.390  24.499  0.00  0.00    -0.332 OA
ATOM     25  C   UNL     1      -4.317  12.378  24.821  0.00  0.00    +0.277 C 
ATOM     26  C   UNL     1      -3.922  13.179  23.556  0.00  0.00    +0.110 C 
ATOM     27  C   UNL     1      -3.601  12.246  22.369  0.00  0.00    +0.143 C 
ATOM     28  C   UNL     1      -4.742  11.258  22.124  0.00  0.00    +0.133 C 
BRANCH  28  29
ATOM     29  N   UNL     1      -4.388  10.319  21.048  0.00  0.00    -0.308 N 
ATOM     30  H   UNL     1      -3.579   9.729  21.183  0.00  0.00    +0.149 HD
ATOM     31  C   UNL     1      -5.066  10.195  19.904  0.00  0.00    +0.210 C 
ATOM     32  C   UNL     1      -6.279  11.127  19.717  0.00  0.00    +0.109 C 
ATOM     33  O   UNL     1      -4.756   9.390  19.026  0.00  0.00    -0.276 OA
ENDBRANCH  28  29
BRANCH  25  34
ATOM     34  C   UNL     1      -3.066  11.690  25.407  0.00  0.00    +0.414 C 
ATOM     35  O   UNL     1      -1.974  12.255  25.370  0.00  0.00    -0.240 OA
ATOM     36  O   UNL     1      -3.150  10.573  25.918  0.00  0.00    -0.240 OA
ENDBRANCH  25  34
BRANCH  27  37
ATOM     37  O   UNL     1      -3.391  13.023  21.189  0.00  0.00    -0.390 OA
ATOM     38  H   UNL     1      -3.803  13.884  21.294  0.00  0.00    +0.210 HD
ENDBRANCH  27  37
BRANCH  25  39
ATOM     39  O   UNL     1      -4.867  13.303  25.794  0.00  0.00    -0.343 OA
ATOM     40  C   UNL     1      -6.299  13.197  25.998  0.00  0.00    +0.198 C 
ENDBRANCH  25  39
ENDBRANCH  22  23
BRANCH  22  41
ATOM     41  O   UNL     1      -7.445  10.122  23.382  0.00  0.00    -0.387 OA
ATOM     42  H   UNL     1      -7.352  11.023  23.066  0.00  0.00    +0.210 HD
ENDBRANCH  22  41
ENDBRANCH   1  22
TORSDOF 14
