REMARK VINA RESULT:    -4.928      8.426     14.042
REMARK INTER + INTRA:         -11.442
REMARK INTER:                  -8.595
REMARK INTRA:                  -2.847
REMARK UNBOUND:                -2.913
REMARK  Name = lig_assembled_93.pdb
REMARK  16 active torsions:
REMARK  status: ('A' for Active; 'I' for Inactive)
REMARK    1  A    between atoms: _2  and  _9
REMARK    2  A    between atoms: _4  and  _18
REMARK    3  A    between atoms: _6  and  _7
REMARK    4  A    between atoms: _6  and  _18
REMARK    5  A    between atoms: _14  and  _34
REMARK    6  A    between atoms: _16  and  _22
REMARK    7  A    between atoms: _17  and  _21
REMARK    8  A    between atoms: _21  and  _22
REMARK    9  A    between atoms: _24  and  _25
REMARK   10  A    between atoms: _26  and  _27
REMARK   11  A    between atoms: _28  and  _30
REMARK   12  A    between atoms: _30  and  _31
REMARK   13  A    between atoms: _30  and  _32
REMARK   14  A    between atoms: _32  and  _33
REMARK   15  A    between atoms: _32  and  _34
REMARK   16  A    between atoms: _35  and  _37
REMARK                            x       y       z     vdW  Elec       q    Type
REMARK                         _______ _______ _______ _____ _____    ______ ____
ROOT
ATOM      1  C   UNL     1      -3.040   9.322  15.080  0.00  0.00    +0.163 C 
ENDROOT
BRANCH   1   2
ATOM      2  O   UNL     1      -1.662   9.233  14.680  0.00  0.00    -0.388 OA
ATOM      3  H   UNL     1      -1.452   8.323  14.455  0.00  0.00    +0.210 HD
ENDBRANCH   1   2
BRANCH   1   4
ATOM      4  C   UNL     1      -3.948   9.038  13.888  0.00  0.00    +0.141 C 
BRANCH   4   7
ATOM      5  C   UNL     1      -3.126   9.205  11.564  0.00  0.00    +0.401 C 
ATOM      6  O   UNL     1      -3.042   7.985  11.406  0.00  0.00    -0.226 OA
ATOM      7  N   UNL     1      -3.535   9.784  12.694  0.00  0.00    -0.279 N 
ATOM      8  H   UNL     1      -3.561  10.794  12.730  0.00  0.00    +0.152 HD
BRANCH   5   9
ATOM      9  O   UNL     1      -2.765  10.071  10.485  0.00  0.00    -0.444 OA
BRANCH   9  10
ATOM     10  C   UNL     1      -3.322  11.370  10.708  0.00  0.00    +0.292 C 
BRANCH  10  12
ATOM     11  N   UNL     1      -1.956  12.425  12.472  0.00  0.00    -0.131 NA
ATOM     12  C   UNL     1      -2.273  12.306  11.156  0.00  0.00    +0.121 A 
ATOM     13  C   UNL     1      -1.475  13.157  10.428  0.00  0.00    +0.143 A 
ATOM     14  N   UNL     1      -0.654  13.779  11.353  0.00  0.00    -0.219 N 
ATOM     15  N   UNL     1      -0.984  13.319  12.579  0.00  0.00    -0.060 NA
BRANCH  14  16
ATOM     16  C   UNL     1       0.385  14.733  11.111  0.00  0.00    +0.080 A 
ATOM     17  C   UNL     1       1.622  14.246  10.627  0.00  0.00    +0.029 A 
ATOM     18  C   UNL     1       2.702  15.097  10.378  0.00  0.00    +0.002 A 
ATOM     19  C   UNL     1       2.578  16.457  10.603  0.00  0.00    +0.001 A 
ATOM     20  C   UNL     1       1.369  16.967  11.072  0.00  0.00    +0.016 A 
ATOM     21  C   UNL     1       0.267  16.123  11.328  0.00  0.00    +0.039 A 
ATOM     22  I   UNL     1      -1.421  17.192  12.024  0.00  0.00    -0.042 I 
ENDBRANCH  14  16
ENDBRANCH  10  12
ENDBRANCH   9  10
ENDBRANCH   5   9
ENDBRANCH   4   7
ENDBRANCH   1   4
BRANCH   1  23
ATOM     23  C   UNL     1      -3.358  10.716  15.648  0.00  0.00    +0.175 C 
BRANCH  23  24
ATOM     24  C   UNL     1      -4.837  11.088  15.470  0.00  0.00    +0.176 C 
ATOM     25  O   UNL     1      -4.906  12.230  14.572  0.00  0.00    -0.332 OA
ATOM     26  C   UNL     1      -6.256  12.663  14.200  0.00  0.00    +0.277 C 
ATOM     27  C   UNL     1      -7.104  12.941  15.466  0.00  0.00    +0.110 C 
ATOM     28  C   UNL     1      -7.036  11.767  16.466  0.00  0.00    +0.143 C 
ATOM     29  C   UNL     1      -5.586  11.397  16.780  0.00  0.00    +0.133 C 
BRANCH  29  30
ATOM     30  N   UNL     1      -5.534  10.223  17.665  0.00  0.00    -0.308 N 
ATOM     31  H   UNL     1      -5.925   9.356  17.322  0.00  0.00    +0.149 HD
ATOM     32  C   UNL     1      -5.004  10.227  18.891  0.00  0.00    +0.210 C 
ATOM     33  C   UNL     1      -4.440  11.569  19.394  0.00  0.00    +0.109 C 
ATOM     34  O   UNL     1      -4.961   9.224  19.604  0.00  0.00    -0.276 OA
ENDBRANCH  29  30
BRANCH  26  35
ATOM     35  C   UNL     1      -6.956  11.593  13.337  0.00  0.00    +0.414 C 
ATOM     36  O   UNL     1      -6.340  11.022  12.438  0.00  0.00    -0.240 OA
ATOM     37  O   UNL     1      -8.135  11.300  13.539  0.00  0.00    -0.240 OA
ENDBRANCH  26  35
BRANCH  28  38
ATOM     38  O   UNL     1      -7.703  12.126  17.676  0.00  0.00    -0.390 OA
ATOM     39  H   UNL     1      -7.282  12.900  18.057  0.00  0.00    +0.210 HD
ENDBRANCH  28  38
BRANCH  26  40
ATOM     40  O   UNL     1      -6.140  13.898  13.448  0.00  0.00    -0.343 OA
ATOM     41  C   UNL     1      -4.781  14.340  13.203  0.00  0.00    +0.198 C 
ENDBRANCH  26  40
ENDBRANCH  23  24
BRANCH  23  42
ATOM     42  O   UNL     1      -2.518  11.709  15.027  0.00  0.00    -0.387 OA
ATOM     43  H   UNL     1      -2.125  11.344  14.230  0.00  0.00    +0.210 HD
ENDBRANCH  23  42
ENDBRANCH   1  23
TORSDOF 14
