REMARK VINA RESULT:    -4.444      6.056     11.650
REMARK INTER + INTRA:         -12.312
REMARK INTER:                  -9.588
REMARK INTRA:                  -2.724
REMARK UNBOUND:                -3.581
REMARK  Name = lig_assembled_31.pdb
REMARK  20 active torsions:
REMARK  status: ('A' for Active; 'I' for Inactive)
REMARK    1  A    between atoms: _2  and  _11
REMARK    2  A    between atoms: _3  and  _12
REMARK    3  A    between atoms: _4  and  _14
REMARK    4  A    between atoms: _6  and  _24
REMARK    5  A    between atoms: _8  and  _9
REMARK    6  A    between atoms: _8  and  _24
REMARK    7  A    between atoms: _11  and  _12
REMARK    8  A    between atoms: _14  and  _15
REMARK    9  A    between atoms: _20  and  _40
REMARK   10  A    between atoms: _22  and  _28
REMARK   11  A    between atoms: _23  and  _27
REMARK   12  A    between atoms: _27  and  _28
REMARK   13  A    between atoms: _30  and  _31
REMARK   14  A    between atoms: _32  and  _33
REMARK   15  A    between atoms: _34  and  _36
REMARK   16  A    between atoms: _36  and  _37
REMARK   17  A    between atoms: _36  and  _38
REMARK   18  A    between atoms: _38  and  _39
REMARK   19  A    between atoms: _38  and  _40
REMARK   20  A    between atoms: _41  and  _43
REMARK                            x       y       z     vdW  Elec       q    Type
REMARK                         _______ _______ _______ _____ _____    ______ ____
ROOT
ATOM      1  C   UNL     1      -6.943   9.128  19.973  0.00  0.00    +0.401 C 
ATOM      2  O   UNL     1      -6.303   8.084  19.823  0.00  0.00    -0.226 OA
ATOM      3  N   UNL     1      -7.491   9.507  21.128  0.00  0.00    -0.279 N 
ATOM      4  H   UNL     1      -7.988  10.386  21.154  0.00  0.00    +0.152 HD
ENDROOT
BRANCH   1   5
ATOM      5  O   UNL     1      -7.116  10.003  18.855  0.00  0.00    -0.444 OA
BRANCH   5   6
ATOM      6  C   UNL     1      -6.909   9.275  17.642  0.00  0.00    +0.292 C 
BRANCH   6   8
ATOM      7  N   UNL     1      -4.742  10.064  16.740  0.00  0.00    -0.131 NA
ATOM      8  C   UNL     1      -6.110  10.075  16.692  0.00  0.00    +0.120 A 
ATOM      9  C   UNL     1      -6.517  10.906  15.672  0.00  0.00    +0.137 A 
ATOM     10  N   UNL     1      -5.350  11.376  15.147  0.00  0.00    -0.250 N 
ATOM     11  N   UNL     1      -4.285  10.865  15.786  0.00  0.00    -0.065 NA
BRANCH  10  12
ATOM     12  C   UNL     1      -5.172  12.307  14.052  0.00  0.00    +0.164 C 
BRANCH  12  13
ATOM     13  C   UNL     1      -4.544  11.629  12.844  0.00  0.00    +0.129 C 
BRANCH  13  14
ATOM     14  N   UNL     1      -3.824  12.525  11.949  0.00  0.00    -0.298 N 
ATOM     15  H   UNL     1      -4.312  13.034  11.226  0.00  0.00    +0.150 HD
ATOM     16  C   UNL     1      -2.472  12.354  11.807  0.00  0.00    +0.300 C 
ATOM     17  O   UNL     1      -1.831  11.546  12.475  0.00  0.00    -0.253 OA
ATOM     18  N   UNL     1      -1.896  13.172  10.886  0.00  0.00    -0.292 N 
ATOM     19  H   UNL     1      -2.429  13.806  10.308  0.00  0.00    +0.151 HD
BRANCH  18  20
ATOM     20  C   UNL     1      -0.471  13.072  10.668  0.00  0.00    +0.180 C 
BRANCH  20  21
ATOM     21  C   UNL     1       0.285  14.247  11.170  0.00  0.00    +0.122 A 
ATOM     22  O   UNL     1       1.354  14.705  10.451  0.00  0.00    -0.466 OA
ATOM     23  C   UNL     1       1.853  15.775  11.130  0.00  0.00    +0.195 A 
ATOM     24  C   UNL     1       1.125  16.009  12.273  0.00  0.00    +0.041 A 
ATOM     25  C   UNL     1       0.113  15.023  12.301  0.00  0.00    +0.046 A 
ENDBRANCH  20  21
ENDBRANCH  18  20
ENDBRANCH  13  14
ENDBRANCH  12  13
ENDBRANCH  10  12
ENDBRANCH   6   8
ENDBRANCH   5   6
ENDBRANCH   1   5
BRANCH   3  26
ATOM     26  C   UNL     1      -7.412   8.719  22.365  0.00  0.00    +0.141 C 
BRANCH  26  27
ATOM     27  C   UNL     1      -6.522   9.386  23.408  0.00  0.00    +0.163 C 
BRANCH  27  28
ATOM     28  O   UNL     1      -7.215   9.468  24.665  0.00  0.00    -0.388 OA
ATOM     29  H   UNL     1      -6.581   9.421  25.384  0.00  0.00    +0.210 HD
ENDBRANCH  27  28
BRANCH  27  30
ATOM     30  C   UNL     1      -5.214   8.591  23.553  0.00  0.00    +0.175 C 
BRANCH  30  31
ATOM     31  C   UNL     1      -4.100   9.423  24.206  0.00  0.00    +0.176 C 
ATOM     32  O   UNL     1      -4.400   9.536  25.624  0.00  0.00    -0.332 OA
ATOM     33  C   UNL     1      -3.384  10.213  26.435  0.00  0.00    +0.277 C 
ATOM     34  C   UNL     1      -3.072  11.614  25.853  0.00  0.00    +0.110 C 
ATOM     35  C   UNL     1      -2.778  11.549  24.339  0.00  0.00    +0.143 C 
ATOM     36  C   UNL     1      -3.897  10.821  23.593  0.00  0.00    +0.133 C 
BRANCH  36  37
ATOM     37  N   UNL     1      -3.565  10.689  22.166  0.00  0.00    -0.308 N 
ATOM     38  H   UNL     1      -2.823  10.052  21.912  0.00  0.00    +0.149 HD
ATOM     39  C   UNL     1      -4.179  11.356  21.185  0.00  0.00    +0.210 C 
ATOM     40  C   UNL     1      -5.287  12.339  21.608  0.00  0.00    +0.109 C 
ATOM     41  O   UNL     1      -3.889  11.214  19.997  0.00  0.00    -0.276 OA
ENDBRANCH  36  37
BRANCH  33  42
ATOM     42  C   UNL     1      -2.087   9.380  26.495  0.00  0.00    +0.414 C 
ATOM     43  O   UNL     1      -2.141   8.153  26.576  0.00  0.00    -0.240 OA
ATOM     44  O   UNL     1      -0.987   9.933  26.461  0.00  0.00    -0.240 OA
ENDBRANCH  33  42
BRANCH  35  45
ATOM     45  O   UNL     1      -2.647  12.871  23.816  0.00  0.00    -0.390 OA
ATOM     46  H   UNL     1      -2.939  12.885  22.902  0.00  0.00    +0.210 HD
ENDBRANCH  35  45
BRANCH  33  47
ATOM     47  O   UNL     1      -3.917  10.383  27.774  0.00  0.00    -0.343 OA
ATOM     48  C   UNL     1      -3.997  11.757  28.231  0.00  0.00    +0.198 C 
ENDBRANCH  33  47
ENDBRANCH  30  31
BRANCH  30  49
ATOM     49  O   UNL     1      -4.782   8.107  22.265  0.00  0.00    -0.387 OA
ATOM     50  H   UNL     1      -5.127   8.679  21.576  0.00  0.00    +0.210 HD
ENDBRANCH  30  49
ENDBRANCH  27  30
ENDBRANCH  26  27
ENDBRANCH   3  26
TORSDOF 18
