REMARK VINA RESULT:    -4.149      5.189     10.049
REMARK INTER + INTRA:         -12.112
REMARK INTER:                  -8.029
REMARK INTRA:                  -4.083
REMARK UNBOUND:                -4.083
REMARK  Name = lig_assembled_83.pdb
REMARK  20 active torsions:
REMARK  status: ('A' for Active; 'I' for Inactive)
REMARK    1  A    between atoms: _2  and  _12
REMARK    2  A    between atoms: _3  and  _14
REMARK    3  A    between atoms: _7  and  _24
REMARK    4  A    between atoms: _9  and  _10
REMARK    5  A    between atoms: _9  and  _24
REMARK    6  A    between atoms: _12  and  _13
REMARK    7  A    between atoms: _13  and  _14
REMARK    8  A    between atoms: _13  and  _18
REMARK    9  A    between atoms: _20  and  _40
REMARK   10  A    between atoms: _22  and  _28
REMARK   11  A    between atoms: _23  and  _27
REMARK   12  A    between atoms: _27  and  _28
REMARK   13  A    between atoms: _30  and  _31
REMARK   14  A    between atoms: _32  and  _33
REMARK   15  A    between atoms: _34  and  _36
REMARK   16  A    between atoms: _36  and  _37
REMARK   17  A    between atoms: _36  and  _38
REMARK   18  A    between atoms: _38  and  _39
REMARK   19  A    between atoms: _38  and  _40
REMARK   20  A    between atoms: _41  and  _43
REMARK                            x       y       z     vdW  Elec       q    Type
REMARK                         _______ _______ _______ _____ _____    ______ ____
ROOT
ATOM      1  C   UNL     1      -4.818  13.174  21.914  0.00  0.00    +0.141 C 
ENDROOT
BRANCH   1   4
ATOM      2  C   UNL     1      -5.581  15.301  22.914  0.00  0.00    +0.401 C 
ATOM      3  O   UNL     1      -5.779  15.850  21.828  0.00  0.00    -0.226 OA
ATOM      4  N   UNL     1      -5.127  14.054  23.048  0.00  0.00    -0.279 N 
ATOM      5  H   UNL     1      -4.987  13.695  23.982  0.00  0.00    +0.152 HD
BRANCH   2   6
ATOM      6  O   UNL     1      -5.844  16.027  24.117  0.00  0.00    -0.444 OA
BRANCH   6   7
ATOM      7  C   UNL     1      -7.202  15.820  24.514  0.00  0.00    +0.292 C 
BRANCH   7   9
ATOM      8  N   UNL     1      -7.363  13.463  25.279  0.00  0.00    -0.131 NA
ATOM      9  C   UNL     1      -7.281  14.800  25.575  0.00  0.00    +0.120 A 
ATOM     10  C   UNL     1      -7.289  14.956  26.942  0.00  0.00    +0.137 A 
ATOM     11  N   UNL     1      -7.360  13.682  27.417  0.00  0.00    -0.249 N 
ATOM     12  N   UNL     1      -7.417  12.786  26.419  0.00  0.00    -0.065 NA
BRANCH  11  13
ATOM     13  C   UNL     1      -7.416  13.253  28.798  0.00  0.00    +0.178 C 
BRANCH  13  14
ATOM     14  C   UNL     1      -6.023  12.957  29.362  0.00  0.00    +0.156 C 
BRANCH  14  15
ATOM     15  O   UNL     1      -5.030  13.209  28.361  0.00  0.00    -0.388 OA
ATOM     16  H   UNL     1      -4.173  13.410  28.789  0.00  0.00    +0.210 HD
ENDBRANCH  14  15
BRANCH  14  17
ATOM     17  C   UNL     1      -5.754  13.815  30.608  0.00  0.00    +0.162 C 
BRANCH  17  18
ATOM     18  N   UNL     1      -4.492  13.485  31.250  0.00  0.00    -0.269 N 
ATOM     19  C   UNL     1      -3.983  12.207  31.310  0.00  0.00    +0.113 A 
ATOM     20  C   UNL     1      -2.777  12.320  31.961  0.00  0.00    +0.137 A 
ATOM     21  N   UNL     1      -2.542  13.618  32.328  0.00  0.00    -0.172 NA
ATOM     22  C   UNL     1      -3.583  14.298  31.885  0.00  0.00    +0.450 A 
ATOM     23  N   UNL     1      -3.709  15.728  32.063  0.00  0.00    +0.120 N 
ATOM     24  O   UNL     1      -4.725  16.278  31.608  0.00  0.00    +0.045 OA
ATOM     25  O   UNL     1      -2.801  16.309  32.669  0.00  0.00    -0.573 OA
ENDBRANCH  17  18
ENDBRANCH  14  17
ENDBRANCH  13  14
ENDBRANCH  11  13
ENDBRANCH   7   9
ENDBRANCH   6   7
ENDBRANCH   2   6
ENDBRANCH   1   4
BRANCH   1  26
ATOM     26  C   UNL     1      -3.595  12.304  22.186  0.00  0.00    +0.163 C 
BRANCH  26  27
ATOM     27  O   UNL     1      -2.801  12.886  23.233  0.00  0.00    -0.388 OA
ATOM     28  H   UNL     1      -3.291  12.863  24.058  0.00  0.00    +0.210 HD
ENDBRANCH  26  27
BRANCH  26  29
ATOM     29  C   UNL     1      -4.048  10.884  22.565  0.00  0.00    +0.175 C 
BRANCH  29  30
ATOM     30  C   UNL     1      -4.195  10.710  24.084  0.00  0.00    +0.176 C 
ATOM     31  O   UNL     1      -3.055   9.941  24.558  0.00  0.00    -0.332 OA
ATOM     32  C   UNL     1      -2.970   9.764  26.011  0.00  0.00    +0.277 C 
ATOM     33  C   UNL     1      -4.281   9.149  26.559  0.00  0.00    +0.110 C 
ATOM     34  C   UNL     1      -5.523   9.915  26.056  0.00  0.00    +0.143 C 
ATOM     35  C   UNL     1      -5.509  10.043  24.532  0.00  0.00    +0.133 C 
BRANCH  35  36
ATOM     36  N   UNL     1      -6.651  10.849  24.072  0.00  0.00    -0.308 N 
ATOM     37  H   UNL     1      -6.717  11.803  24.398  0.00  0.00    +0.149 HD
ATOM     38  C   UNL     1      -7.606  10.401  23.253  0.00  0.00    +0.210 C 
ATOM     39  C   UNL     1      -7.491   8.935  22.795  0.00  0.00    +0.109 C 
ATOM     40  O   UNL     1      -8.543  11.103  22.872  0.00  0.00    -0.276 OA
ENDBRANCH  35  36
BRANCH  32  41
ATOM     41  C   UNL     1      -2.701  11.112  26.711  0.00  0.00    +0.414 C 
ATOM     42  O   UNL     1      -2.145  12.027  26.103  0.00  0.00    -0.240 OA
ATOM     43  O   UNL     1      -3.038  11.286  27.882  0.00  0.00    -0.240 OA
ENDBRANCH  32  41
BRANCH  32  44
ATOM     44  O   UNL     1      -1.883   8.844  26.288  0.00  0.00    -0.343 OA
ATOM     45  C   UNL     1      -2.110   7.945  27.402  0.00  0.00    +0.198 C 
ENDBRANCH  32  44
BRANCH  34  46
ATOM     46  O   UNL     1      -6.708   9.228  26.459  0.00  0.00    -0.390 OA
ATOM     47  H   UNL     1      -6.521   8.290  26.548  0.00  0.00    +0.210 HD
ENDBRANCH  34  46
ENDBRANCH  29  30
BRANCH  29  48
ATOM     48  O   UNL     1      -3.123   9.911  22.041  0.00  0.00    -0.387 OA
ATOM     49  H   UNL     1      -2.588   9.559  22.756  0.00  0.00    +0.210 HD
ENDBRANCH  29  48
ENDBRANCH  26  29
ENDBRANCH   1  26
TORSDOF 18
