REMARK VINA RESULT:    -5.213      3.011      5.384
REMARK INTER + INTRA:         -11.192
REMARK INTER:                  -8.729
REMARK INTRA:                  -2.463
REMARK UNBOUND:                -2.170
REMARK  Name = lig_assembled_87.pdb
REMARK  17 active torsions:
REMARK  status: ('A' for Active; 'I' for Inactive)
REMARK    1  A    between atoms: _2  and  _10
REMARK    2  A    between atoms: _3  and  _13
REMARK    3  A    between atoms: _5  and  _21
REMARK    4  A    between atoms: _7  and  _8
REMARK    5  A    between atoms: _7  and  _21
REMARK    6  A    between atoms: _17  and  _37
REMARK    7  A    between atoms: _19  and  _25
REMARK    8  A    between atoms: _20  and  _24
REMARK    9  A    between atoms: _24  and  _25
REMARK   10  A    between atoms: _27  and  _28
REMARK   11  A    between atoms: _29  and  _30
REMARK   12  A    between atoms: _31  and  _33
REMARK   13  A    between atoms: _33  and  _34
REMARK   14  A    between atoms: _33  and  _35
REMARK   15  A    between atoms: _35  and  _36
REMARK   16  A    between atoms: _35  and  _37
REMARK   17  A    between atoms: _38  and  _40
REMARK                            x       y       z     vdW  Elec       q    Type
REMARK                         _______ _______ _______ _____ _____    ______ ____
ROOT
ATOM      1  C   UNL     1      -4.275   9.037  23.931  0.00  0.00    +0.163 C 
ENDROOT
BRANCH   1   2
ATOM      2  O   UNL     1      -3.802   8.329  22.774  0.00  0.00    -0.388 OA
ATOM      3  H   UNL     1      -3.498   7.456  23.034  0.00  0.00    +0.210 HD
ENDBRANCH   1   2
BRANCH   1   4
ATOM      4  C   UNL     1      -4.325   8.099  25.133  0.00  0.00    +0.141 C 
BRANCH   4   7
ATOM      5  C   UNL     1      -2.616   8.645  26.832  0.00  0.00    +0.401 C 
ATOM      6  O   UNL     1      -1.733   7.972  26.297  0.00  0.00    -0.226 OA
ATOM      7  N   UNL     1      -3.859   8.756  26.360  0.00  0.00    -0.279 N 
ATOM      8  H   UNL     1      -4.516   9.324  26.876  0.00  0.00    +0.152 HD
BRANCH   5   9
ATOM      9  O   UNL     1      -2.315   9.355  28.037  0.00  0.00    -0.444 OA
BRANCH   9  10
ATOM     10  C   UNL     1      -3.529   9.665  28.725  0.00  0.00    +0.292 C 
BRANCH  10  12
ATOM     11  N   UNL     1      -2.567  10.095  30.960  0.00  0.00    -0.131 NA
ATOM     12  C   UNL     1      -3.251  10.553  29.868  0.00  0.00    +0.120 A 
ATOM     13  C   UNL     1      -3.563  11.880  30.056  0.00  0.00    +0.137 A 
ATOM     14  N   UNL     1      -2.936  12.213  31.228  0.00  0.00    -0.248 N 
ATOM     15  N   UNL     1      -2.445  11.099  31.810  0.00  0.00    -0.065 NA
BRANCH  14  16
ATOM     16  C   UNL     1      -2.752  13.516  31.892  0.00  0.00    +0.112 C 
ATOM     17  C   UNL     1      -3.356  13.611  33.321  0.00  0.00    +0.045 C 
ATOM     18  C   UNL     1      -4.428  14.695  33.521  0.00  0.00    +0.059 C 
ATOM     19  C   UNL     1      -3.812  16.092  33.678  0.00  0.00    +0.020 C 
ATOM     20  C   UNL     1      -3.871  16.701  32.278  0.00  0.00    +0.020 C 
ATOM     21  C   UNL     1      -4.347  15.547  31.395  0.00  0.00    +0.059 C 
ATOM     22  N   UNL     1      -5.252  14.895  32.336  0.00  0.00    -0.299 NA
ATOM     23  C   UNL     1      -6.021  13.766  31.857  0.00  0.00    +0.105 C 
ATOM     24  C   UNL     1      -3.161  14.688  30.949  0.00  0.00    +0.045 C 
ENDBRANCH  14  16
ENDBRANCH  10  12
ENDBRANCH   9  10
ENDBRANCH   5   9
ENDBRANCH   4   7
ENDBRANCH   1   4
BRANCH   1  25
ATOM     25  C   UNL     1      -5.673   9.628  23.682  0.00  0.00    +0.175 C 
BRANCH  25  26
ATOM     26  C   UNL     1      -5.613  10.932  22.872  0.00  0.00    +0.176 C 
ATOM     27  O   UNL     1      -5.286  10.589  21.497  0.00  0.00    -0.332 OA
ATOM     28  C   UNL     1      -5.289  11.707  20.548  0.00  0.00    +0.277 C 
ATOM     29  C   UNL     1      -4.356  12.839  21.042  0.00  0.00    +0.110 C 
ATOM     30  C   UNL     1      -4.645  13.216  22.510  0.00  0.00    +0.143 C 
ATOM     31  C   UNL     1      -4.620  11.979  23.409  0.00  0.00    +0.133 C 
BRANCH  31  32
ATOM     32  N   UNL     1      -4.983  12.338  24.789  0.00  0.00    -0.308 N 
ATOM     33  H   UNL     1      -5.950  12.559  24.981  0.00  0.00    +0.149 HD
ATOM     34  C   UNL     1      -4.117  12.390  25.806  0.00  0.00    +0.210 C 
ATOM     35  C   UNL     1      -2.647  12.073  25.476  0.00  0.00    +0.109 C 
ATOM     36  O   UNL     1      -4.452  12.679  26.955  0.00  0.00    -0.276 OA
ENDBRANCH  31  32
BRANCH  28  37
ATOM     37  C   UNL     1      -6.717  12.260  20.360  0.00  0.00    +0.414 C 
ATOM     38  O   UNL     1      -6.893  13.456  20.130  0.00  0.00    -0.240 OA
ATOM     39  O   UNL     1      -7.692  11.512  20.438  0.00  0.00    -0.240 OA
ENDBRANCH  28  37
BRANCH  30  40
ATOM     40  O   UNL     1      -3.668  14.151  22.969  0.00  0.00    -0.390 OA
ATOM     41  H   UNL     1      -3.649  14.149  23.929  0.00  0.00    +0.210 HD
ENDBRANCH  30  40
BRANCH  28  42
ATOM     42  O   UNL     1      -4.783  11.218  19.279  0.00  0.00    -0.343 OA
ATOM     43  C   UNL     1      -5.041   9.816  19.016  0.00  0.00    +0.198 C 
ENDBRANCH  28  42
ENDBRANCH  25  26
BRANCH  25  44
ATOM     44  O   UNL     1      -6.348   9.852  24.936  0.00  0.00    -0.387 OA
ATOM     45  H   UNL     1      -5.778   9.581  25.660  0.00  0.00    +0.210 HD
ENDBRANCH  25  44
ENDBRANCH   1  25
TORSDOF 14
