REMARK VINA RESULT:    -4.611      4.768      8.048
REMARK INTER + INTRA:         -11.152
REMARK INTER:                  -7.786
REMARK INTRA:                  -3.366
REMARK UNBOUND:                -2.903
REMARK  Name = lig_assembled_69.pdb
REMARK  18 active torsions:
REMARK  status: ('A' for Active; 'I' for Inactive)
REMARK    1  A    between atoms: _2  and  _9
REMARK    2  A    between atoms: _4  and  _21
REMARK    3  A    between atoms: _6  and  _7
REMARK    4  A    between atoms: _6  and  _21
REMARK    5  A    between atoms: _11  and  _16
REMARK    6  A    between atoms: _14  and  _15
REMARK    7  A    between atoms: _17  and  _37
REMARK    8  A    between atoms: _19  and  _25
REMARK    9  A    between atoms: _20  and  _24
REMARK   10  A    between atoms: _24  and  _25
REMARK   11  A    between atoms: _27  and  _28
REMARK   12  A    between atoms: _29  and  _30
REMARK   13  A    between atoms: _31  and  _33
REMARK   14  A    between atoms: _33  and  _34
REMARK   15  A    between atoms: _33  and  _35
REMARK   16  A    between atoms: _35  and  _36
REMARK   17  A    between atoms: _35  and  _37
REMARK   18  A    between atoms: _38  and  _40
REMARK                            x       y       z     vdW  Elec       q    Type
REMARK                         _______ _______ _______ _____ _____    ______ ____
ROOT
ATOM      1  C   UNL     1      -2.841  11.728  24.813  0.00  0.00    +0.163 C 
ENDROOT
BRANCH   1   2
ATOM      2  O   UNL     1      -3.149  11.683  26.216  0.00  0.00    -0.388 OA
ATOM      3  H   UNL     1      -4.063  11.413  26.334  0.00  0.00    +0.210 HD
ENDBRANCH   1   2
BRANCH   1   4
ATOM      4  C   UNL     1      -3.777  10.805  24.014  0.00  0.00    +0.175 C 
BRANCH   4   5
ATOM      5  C   UNL     1      -4.164   9.548  24.806  0.00  0.00    +0.176 C 
ATOM      6  O   UNL     1      -2.941   8.935  25.298  0.00  0.00    -0.332 OA
ATOM      7  C   UNL     1      -3.121   7.772  26.171  0.00  0.00    +0.277 C 
ATOM      8  C   UNL     1      -3.998   6.703  25.475  0.00  0.00    +0.110 C 
ATOM      9  C   UNL     1      -5.297   7.313  24.908  0.00  0.00    +0.143 C 
ATOM     10  C   UNL     1      -4.993   8.518  24.016  0.00  0.00    +0.133 C 
BRANCH  10  11
ATOM     11  N   UNL     1      -6.241   9.143  23.552  0.00  0.00    -0.308 N 
ATOM     12  H   UNL     1      -6.796   9.647  24.229  0.00  0.00    +0.149 HD
ATOM     13  C   UNL     1      -6.688   9.089  22.294  0.00  0.00    +0.210 C 
ATOM     14  C   UNL     1      -5.832   8.292  21.292  0.00  0.00    +0.109 C 
ATOM     15  O   UNL     1      -7.730   9.635  21.931  0.00  0.00    -0.276 OA
ENDBRANCH  10  11
BRANCH   7  16
ATOM     16  C   UNL     1      -3.775   8.186  27.506  0.00  0.00    +0.414 C 
ATOM     17  O   UNL     1      -3.498   9.268  28.023  0.00  0.00    -0.240 OA
ATOM     18  O   UNL     1      -4.579   7.440  28.065  0.00  0.00    -0.240 OA
ENDBRANCH   7  16
BRANCH   7  19
ATOM     19  O   UNL     1      -1.814   7.195  26.426  0.00  0.00    -0.343 OA
ATOM     20  C   UNL     1      -1.808   5.761  26.639  0.00  0.00    +0.198 C 
ENDBRANCH   7  19
BRANCH   9  21
ATOM     21  O   UNL     1      -5.999   6.330  24.147  0.00  0.00    -0.390 OA
ATOM     22  H   UNL     1      -6.807   6.087  24.605  0.00  0.00    +0.210 HD
ENDBRANCH   9  21
ENDBRANCH   4   5
BRANCH   4  23
ATOM     23  O   UNL     1      -3.162  10.435  22.764  0.00  0.00    -0.387 OA
ATOM     24  H   UNL     1      -3.404  11.071  22.086  0.00  0.00    +0.210 HD
ENDBRANCH   4  23
ENDBRANCH   1   4
BRANCH   1  25
ATOM     25  C   UNL     1      -2.971  13.157  24.296  0.00  0.00    +0.141 C 
BRANCH  25  28
ATOM     26  C   UNL     1      -4.226  14.262  22.477  0.00  0.00    +0.401 C 
ATOM     27  O   UNL     1      -3.355  15.108  22.263  0.00  0.00    -0.226 OA
ATOM     28  N   UNL     1      -4.132  13.316  23.413  0.00  0.00    -0.279 N 
ATOM     29  H   UNL     1      -4.904  12.673  23.520  0.00  0.00    +0.152 HD
BRANCH  26  30
ATOM     30  O   UNL     1      -5.420  14.279  21.691  0.00  0.00    -0.444 OA
BRANCH  30  31
ATOM     31  C   UNL     1      -6.038  12.990  21.731  0.00  0.00    +0.292 C 
BRANCH  31  33
ATOM     32  N   UNL     1      -4.475  11.573  20.444  0.00  0.00    -0.131 NA
ATOM     33  C   UNL     1      -5.683  12.212  20.530  0.00  0.00    +0.120 A 
ATOM     34  C   UNL     1      -6.393  11.991  19.371  0.00  0.00    +0.137 A 
ATOM     35  N   UNL     1      -5.559  11.223  18.616  0.00  0.00    -0.248 N 
ATOM     36  N   UNL     1      -4.408  10.975  19.265  0.00  0.00    -0.065 NA
BRANCH  35  37
ATOM     37  C   UNL     1      -5.769  10.735  17.254  0.00  0.00    +0.114 C 
ATOM     38  C   UNL     1      -4.464  10.731  16.449  0.00  0.00    +0.062 C 
ATOM     39  C   UNL     1      -4.077  12.051  15.780  0.00  0.00    +0.139 C 
ATOM     40  C   UNL     1      -4.920  12.483  14.614  0.00  0.00    +0.002 C 
ATOM     41  C   UNL     1      -6.172  12.113  14.300  0.00  0.00    +0.002 C 
ATOM     42  C   UNL     1      -7.113  11.280  15.115  0.00  0.00    +0.139 C 
ATOM     43  C   UNL     1      -6.970  11.455  16.622  0.00  0.00    +0.062 C 
BRANCH  39  44
ATOM     44  O   UNL     1      -2.755  11.883  15.254  0.00  0.00    -0.388 OA
ATOM     45  H   UNL     1      -2.291  12.731  15.356  0.00  0.00    +0.210 HD
ENDBRANCH  39  44
BRANCH  42  46
ATOM     46  O   UNL     1      -6.964   9.915  14.757  0.00  0.00    -0.388 OA
ATOM     47  H   UNL     1      -6.213   9.562  15.265  0.00  0.00    +0.210 HD
ENDBRANCH  42  46
ENDBRANCH  35  37
ENDBRANCH  31  33
ENDBRANCH  30  31
ENDBRANCH  26  30
ENDBRANCH  25  28
ENDBRANCH   1  25
TORSDOF 16
