REMARK VINA RESULT:    -4.378      1.723      1.982
REMARK INTER + INTRA:         -12.557
REMARK INTER:                  -8.685
REMARK INTRA:                  -3.872
REMARK UNBOUND:                -4.083
REMARK  Name = lig_assembled_83.pdb
REMARK  20 active torsions:
REMARK  status: ('A' for Active; 'I' for Inactive)
REMARK    1  A    between atoms: _2  and  _12
REMARK    2  A    between atoms: _3  and  _14
REMARK    3  A    between atoms: _7  and  _24
REMARK    4  A    between atoms: _9  and  _10
REMARK    5  A    between atoms: _9  and  _24
REMARK    6  A    between atoms: _12  and  _13
REMARK    7  A    between atoms: _13  and  _14
REMARK    8  A    between atoms: _13  and  _18
REMARK    9  A    between atoms: _20  and  _40
REMARK   10  A    between atoms: _22  and  _28
REMARK   11  A    between atoms: _23  and  _27
REMARK   12  A    between atoms: _27  and  _28
REMARK   13  A    between atoms: _30  and  _31
REMARK   14  A    between atoms: _32  and  _33
REMARK   15  A    between atoms: _34  and  _36
REMARK   16  A    between atoms: _36  and  _37
REMARK   17  A    between atoms: _36  and  _38
REMARK   18  A    between atoms: _38  and  _39
REMARK   19  A    between atoms: _38  and  _40
REMARK   20  A    between atoms: _41  and  _43
REMARK                            x       y       z     vdW  Elec       q    Type
REMARK                         _______ _______ _______ _____ _____    ______ ____
ROOT
ATOM      1  C   UNL     1      -3.046  13.146  24.344  0.00  0.00    +0.141 C 
ENDROOT
BRANCH   1   4
ATOM      2  C   UNL     1      -4.178  13.977  22.311  0.00  0.00    +0.401 C 
ATOM      3  O   UNL     1      -3.154  14.466  21.827  0.00  0.00    -0.226 OA
ATOM      4  N   UNL     1      -4.220  13.347  23.485  0.00  0.00    -0.279 N 
ATOM      5  H   UNL     1      -5.110  12.988  23.802  0.00  0.00    +0.152 HD
BRANCH   2   6
ATOM      6  O   UNL     1      -5.407  14.083  21.588  0.00  0.00    -0.444 OA
BRANCH   6   7
ATOM      7  C   UNL     1      -6.048  12.806  21.544  0.00  0.00    +0.292 C 
BRANCH   7   9
ATOM      8  N   UNL     1      -4.496  11.556  20.062  0.00  0.00    -0.131 NA
ATOM      9  C   UNL     1      -5.731  12.111  20.283  0.00  0.00    +0.120 A 
ATOM     10  C   UNL     1      -6.521  11.896  19.177  0.00  0.00    +0.137 A 
ATOM     11  N   UNL     1      -5.719  11.195  18.332  0.00  0.00    -0.249 N 
ATOM     12  N   UNL     1      -4.498  11.001  18.857  0.00  0.00    -0.065 NA
BRANCH  11  13
ATOM     13  C   UNL     1      -6.034  10.716  17.003  0.00  0.00    +0.178 C 
BRANCH  13  14
ATOM     14  C   UNL     1      -4.779  10.289  16.237  0.00  0.00    +0.156 C 
BRANCH  14  15
ATOM     15  O   UNL     1      -4.356   8.994  16.679  0.00  0.00    -0.388 OA
ATOM     16  H   UNL     1      -5.134   8.466  16.950  0.00  0.00    +0.210 HD
ENDBRANCH  14  15
BRANCH  14  17
ATOM     17  C   UNL     1      -5.051  10.272  14.724  0.00  0.00    +0.162 C 
BRANCH  17  18
ATOM     18  N   UNL     1      -3.952  10.831  13.953  0.00  0.00    -0.269 N 
ATOM     19  C   UNL     1      -3.797  12.180  13.723  0.00  0.00    +0.113 A 
ATOM     20  C   UNL     1      -2.637  12.298  12.993  0.00  0.00    +0.137 A 
ATOM     21  N   UNL     1      -2.093  11.068  12.743  0.00  0.00    -0.172 NA
ATOM     22  C   UNL     1      -2.897  10.204  13.335  0.00  0.00    +0.450 A 
ATOM     23  N   UNL     1      -2.656   8.779  13.314  0.00  0.00    +0.120 N 
ATOM     24  O   UNL     1      -3.469   8.048  13.902  0.00  0.00    +0.045 OA
ATOM     25  O   UNL     1      -1.660   8.378  12.700  0.00  0.00    -0.573 OA
ENDBRANCH  17  18
ENDBRANCH  14  17
ENDBRANCH  13  14
ENDBRANCH  11  13
ENDBRANCH   7   9
ENDBRANCH   6   7
ENDBRANCH   2   6
ENDBRANCH   1   4
BRANCH   1  26
ATOM     26  C   UNL     1      -2.914  11.695  24.795  0.00  0.00    +0.163 C 
BRANCH  26  27
ATOM     27  O   UNL     1      -3.146  11.597  26.210  0.00  0.00    -0.388 OA
ATOM     28  H   UNL     1      -3.618  10.783  26.402  0.00  0.00    +0.210 HD
ENDBRANCH  26  27
BRANCH  26  29
ATOM     29  C   UNL     1      -3.909  10.821  24.013  0.00  0.00    +0.175 C 
BRANCH  29  30
ATOM     30  C   UNL     1      -4.226   9.509  24.746  0.00  0.00    +0.176 C 
ATOM     31  O   UNL     1      -2.968   8.922  25.178  0.00  0.00    -0.332 OA
ATOM     32  C   UNL     1      -3.081   7.709  25.993  0.00  0.00    +0.277 C 
ATOM     33  C   UNL     1      -3.932   6.642  25.260  0.00  0.00    +0.110 C 
ATOM     34  C   UNL     1      -5.267   7.228  24.755  0.00  0.00    +0.143 C 
ATOM     35  C   UNL     1      -5.033   8.489  23.921  0.00  0.00    +0.133 C 
BRANCH  35  36
ATOM     36  N   UNL     1      -6.316   9.086  23.519  0.00  0.00    -0.308 N 
ATOM     37  H   UNL     1      -6.880   9.518  24.236  0.00  0.00    +0.149 HD
ATOM     38  C   UNL     1      -6.782   9.095  22.267  0.00  0.00    +0.210 C 
ATOM     39  C   UNL     1      -5.910   8.405  21.201  0.00  0.00    +0.109 C 
ATOM     40  O   UNL     1      -7.854   9.616  21.956  0.00  0.00    -0.276 OA
ENDBRANCH  35  36
BRANCH  32  41
ATOM     41  C   UNL     1      -3.718   8.026  27.361  0.00  0.00    +0.414 C 
ATOM     42  O   UNL     1      -3.489   9.099  27.918  0.00  0.00    -0.240 OA
ATOM     43  O   UNL     1      -4.461   7.210  27.908  0.00  0.00    -0.240 OA
ENDBRANCH  32  41
BRANCH  32  44
ATOM     44  O   UNL     1      -1.746   7.173  26.188  0.00  0.00    -0.343 OA
ATOM     45  C   UNL     1      -1.680   5.732  26.329  0.00  0.00    +0.198 C 
ENDBRANCH  32  44
BRANCH  34  46
ATOM     46  O   UNL     1      -5.948   6.258  23.959  0.00  0.00    -0.390 OA
ATOM     47  H   UNL     1      -5.553   6.225  23.085  0.00  0.00    +0.210 HD
ENDBRANCH  34  46
ENDBRANCH  29  30
BRANCH  29  48
ATOM     48  O   UNL     1      -3.395  10.541  22.695  0.00  0.00    -0.387 OA
ATOM     49  H   UNL     1      -2.536  10.958  22.592  0.00  0.00    +0.210 HD
ENDBRANCH  29  48
ENDBRANCH  26  29
ENDBRANCH   1  26
TORSDOF 18
