REMARK VINA RESULT:    -4.842      2.153      2.876
REMARK INTER + INTRA:         -10.668
REMARK INTER:                  -7.631
REMARK INTRA:                  -3.037
REMARK UNBOUND:                -2.287
REMARK  Name = lig_assembled_52.pdb
REMARK  16 active torsions:
REMARK  status: ('A' for Active; 'I' for Inactive)
REMARK    1  A    between atoms: _2  and  _10
REMARK    2  A    between atoms: _5  and  _18
REMARK    3  A    between atoms: _7  and  _8
REMARK    4  A    between atoms: _7  and  _18
REMARK    5  A    between atoms: _14  and  _34
REMARK    6  A    between atoms: _16  and  _22
REMARK    7  A    between atoms: _17  and  _21
REMARK    8  A    between atoms: _21  and  _22
REMARK    9  A    between atoms: _24  and  _25
REMARK   10  A    between atoms: _26  and  _27
REMARK   11  A    between atoms: _28  and  _30
REMARK   12  A    between atoms: _30  and  _31
REMARK   13  A    between atoms: _30  and  _32
REMARK   14  A    between atoms: _32  and  _33
REMARK   15  A    between atoms: _32  and  _34
REMARK   16  A    between atoms: _35  and  _37
REMARK                            x       y       z     vdW  Elec       q    Type
REMARK                         _______ _______ _______ _____ _____    ______ ____
ROOT
ATOM      1  C   UNL     1      -2.293  10.325  26.408  0.00  0.00    +0.163 C 
ENDROOT
BRANCH   1   2
ATOM      2  O   UNL     1      -2.779   9.690  25.214  0.00  0.00    -0.388 OA
ATOM      3  H   UNL     1      -2.041   9.324  24.722  0.00  0.00    +0.210 HD
ENDBRANCH   1   2
BRANCH   1   4
ATOM      4  C   UNL     1      -1.698   9.281  27.348  0.00  0.00    +0.141 C 
BRANCH   4   7
ATOM      5  C   UNL     1      -2.330   8.267  29.511  0.00  0.00    +0.401 C 
ATOM      6  O   UNL     1      -1.783   7.188  29.272  0.00  0.00    -0.226 OA
ATOM      7  N   UNL     1      -2.345   9.299  28.666  0.00  0.00    -0.279 N 
ATOM      8  H   UNL     1      -2.829  10.140  28.948  0.00  0.00    +0.152 HD
BRANCH   5   9
ATOM      9  O   UNL     1      -3.000   8.444  30.762  0.00  0.00    -0.444 OA
BRANCH   9  10
ATOM     10  C   UNL     1      -4.211   9.177  30.556  0.00  0.00    +0.292 C 
BRANCH  10  12
ATOM     11  N   UNL     1      -5.231  10.481  32.394  0.00  0.00    -0.131 NA
ATOM     12  C   UNL     1      -4.256  10.352  31.447  0.00  0.00    +0.121 A 
ATOM     13  C   UNL     1      -3.420  11.442  31.514  0.00  0.00    +0.143 A 
ATOM     14  N   UNL     1      -3.917  12.210  32.541  0.00  0.00    -0.218 N 
ATOM     15  N   UNL     1      -5.021  11.613  33.051  0.00  0.00    -0.060 NA
BRANCH  14  16
ATOM     16  C   UNL     1      -3.415  13.424  33.058  0.00  0.00    +0.085 A 
ATOM     17  C   UNL     1      -2.106  13.541  33.532  0.00  0.00    +0.031 A 
ATOM     18  C   UNL     1      -1.677  14.762  34.051  0.00  0.00    +0.022 A 
ATOM     19  C   UNL     1      -2.569  15.820  34.074  0.00  0.00    +0.111 A 
ATOM     20  N   UNL     1      -3.836  15.740  33.616  0.00  0.00    -0.261 NA
ATOM     21  C   UNL     1      -4.235  14.545  33.117  0.00  0.00    +0.138 A 
ENDBRANCH  14  16
ENDBRANCH  10  12
ENDBRANCH   9  10
ENDBRANCH   5   9
ENDBRANCH   4   7
ENDBRANCH   1   4
BRANCH   1  22
ATOM     22  C   UNL     1      -3.422  11.081  27.129  0.00  0.00    +0.175 C 
BRANCH  22  23
ATOM     23  C   UNL     1      -4.378  11.769  26.143  0.00  0.00    +0.176 C 
ATOM     24  O   UNL     1      -3.574  12.413  25.116  0.00  0.00    -0.332 OA
ATOM     25  C   UNL     1      -4.323  13.036  24.022  0.00  0.00    +0.277 C 
ATOM     26  C   UNL     1      -5.361  14.041  24.581  0.00  0.00    +0.110 C 
ATOM     27  C   UNL     1      -6.219  13.411  25.698  0.00  0.00    +0.143 C 
ATOM     28  C   UNL     1      -5.338  12.789  26.782  0.00  0.00    +0.133 C 
BRANCH  28  29
ATOM     29  N   UNL     1      -6.166  12.117  27.796  0.00  0.00    -0.308 N 
ATOM     30  H   UNL     1      -6.692  11.303  27.511  0.00  0.00    +0.149 HD
ATOM     31  C   UNL     1      -6.267  12.512  29.068  0.00  0.00    +0.210 C 
ATOM     32  C   UNL     1      -5.473  13.771  29.464  0.00  0.00    +0.109 C 
ATOM     33  O   UNL     1      -6.957  11.920  29.899  0.00  0.00    -0.276 OA
ENDBRANCH  28  29
BRANCH  25  34
ATOM     34  C   UNL     1      -5.045  11.968  23.175  0.00  0.00    +0.414 C 
ATOM     35  O   UNL     1      -4.532  10.862  23.003  0.00  0.00    -0.240 OA
ATOM     36  O   UNL     1      -6.138  12.211  22.663  0.00  0.00    -0.240 OA
ENDBRANCH  25  34
BRANCH  27  37
ATOM     37  O   UNL     1      -7.054  14.410  26.285  0.00  0.00    -0.390 OA
ATOM     38  H   UNL     1      -7.136  15.153  25.684  0.00  0.00    +0.210 HD
ENDBRANCH  27  37
BRANCH  25  39
ATOM     39  O   UNL     1      -3.383  13.765  23.192  0.00  0.00    -0.343 OA
ATOM     40  C   UNL     1      -3.953  14.868  22.443  0.00  0.00    +0.198 C 
ENDBRANCH  25  39
ENDBRANCH  22  23
BRANCH  22  41
ATOM     41  O   UNL     1      -2.868  12.049  28.042  0.00  0.00    -0.387 OA
ATOM     42  H   UNL     1      -2.860  11.684  28.930  0.00  0.00    +0.210 HD
ENDBRANCH  22  41
ENDBRANCH   1  22
TORSDOF 14
