REMARK VINA RESULT:    -4.750      1.104      2.426
REMARK INTER + INTRA:         -12.847
REMARK INTER:                  -8.976
REMARK INTRA:                  -3.872
REMARK UNBOUND:                -3.793
REMARK  Name = lig_assembled_21.pdb
REMARK  20 active torsions:
REMARK  status: ('A' for Active; 'I' for Inactive)
REMARK    1  A    between atoms: _2  and  _9
REMARK    2  A    between atoms: _4  and  _23
REMARK    3  A    between atoms: _6  and  _7
REMARK    4  A    between atoms: _6  and  _23
REMARK    5  A    between atoms: _9  and  _10
REMARK    6  A    between atoms: _11  and  _18
REMARK    7  A    between atoms: _12  and  _13
REMARK    8  A    between atoms: _12  and  _18
REMARK    9  A    between atoms: _19  and  _39
REMARK   10  A    between atoms: _21  and  _27
REMARK   11  A    between atoms: _22  and  _26
REMARK   12  A    between atoms: _26  and  _27
REMARK   13  A    between atoms: _29  and  _30
REMARK   14  A    between atoms: _31  and  _32
REMARK   15  A    between atoms: _33  and  _35
REMARK   16  A    between atoms: _35  and  _36
REMARK   17  A    between atoms: _35  and  _37
REMARK   18  A    between atoms: _37  and  _38
REMARK   19  A    between atoms: _37  and  _39
REMARK   20  A    between atoms: _40  and  _42
REMARK                            x       y       z     vdW  Elec       q    Type
REMARK                         _______ _______ _______ _____ _____    ______ ____
ROOT
ATOM      1  C   UNL     1      -3.156  11.760  23.163  0.00  0.00    +0.163 C 
ENDROOT
BRANCH   1   2
ATOM      2  O   UNL     1      -2.346  12.104  24.299  0.00  0.00    -0.388 OA
ATOM      3  H   UNL     1      -2.849  11.965  25.105  0.00  0.00    +0.210 HD
ENDBRANCH   1   2
BRANCH   1   4
ATOM      4  C   UNL     1      -3.923  10.449  23.411  0.00  0.00    +0.175 C 
BRANCH   4   5
ATOM      5  C   UNL     1      -3.904  10.040  24.891  0.00  0.00    +0.176 C 
ATOM      6  O   UNL     1      -2.941   8.961  25.044  0.00  0.00    -0.332 OA
ATOM      7  C   UNL     1      -2.709   8.508  26.418  0.00  0.00    +0.277 C 
ATOM      8  C   UNL     1      -4.047   8.115  27.092  0.00  0.00    +0.110 C 
ATOM      9  C   UNL     1      -5.113   9.219  26.928  0.00  0.00    +0.143 C 
ATOM     10  C   UNL     1      -5.271   9.615  25.460  0.00  0.00    +0.133 C 
BRANCH  10  11
ATOM     11  N   UNL     1      -6.225  10.727  25.326  0.00  0.00    -0.308 N 
ATOM     12  H   UNL     1      -6.017  11.588  25.812  0.00  0.00    +0.149 HD
ATOM     13  C   UNL     1      -7.349  10.673  24.605  0.00  0.00    +0.210 C 
ATOM     14  C   UNL     1      -7.650   9.338  23.898  0.00  0.00    +0.109 C 
ATOM     15  O   UNL     1      -8.122  11.625  24.499  0.00  0.00    -0.276 OA
ENDBRANCH  10  11
BRANCH   7  16
ATOM     16  C   UNL     1      -2.019   9.610  27.248  0.00  0.00    +0.414 C 
ATOM     17  O   UNL     1      -2.508   9.982  28.314  0.00  0.00    -0.240 OA
ATOM     18  O   UNL     1      -0.974  10.128  26.852  0.00  0.00    -0.240 OA
ENDBRANCH   7  16
BRANCH   9  19
ATOM     19  O   UNL     1      -6.368   8.754  27.427  0.00  0.00    -0.390 OA
ATOM     20  H   UNL     1      -7.071   9.326  27.109  0.00  0.00    +0.210 HD
ENDBRANCH   9  19
BRANCH   7  21
ATOM     21  O   UNL     1      -1.861   7.332  26.367  0.00  0.00    -0.343 OA
ATOM     22  C   UNL     1      -2.326   6.206  27.152  0.00  0.00    +0.198 C 
ENDBRANCH   7  21
ENDBRANCH   4   5
BRANCH   4  23
ATOM     23  O   UNL     1      -3.378   9.393  22.596  0.00  0.00    -0.387 OA
ATOM     24  H   UNL     1      -2.439   9.544  22.461  0.00  0.00    +0.210 HD
ENDBRANCH   4  23
ENDBRANCH   1   4
BRANCH   1  25
ATOM     25  C   UNL     1      -4.146  12.882  22.869  0.00  0.00    +0.141 C 
BRANCH  25  28
ATOM     26  C   UNL     1      -5.687  14.264  24.219  0.00  0.00    +0.401 C 
ATOM     27  O   UNL     1      -6.535  14.355  23.328  0.00  0.00    -0.226 OA
ATOM     28  N   UNL     1      -4.538  13.600  24.088  0.00  0.00    -0.279 N 
ATOM     29  H   UNL     1      -3.901  13.590  24.872  0.00  0.00    +0.152 HD
BRANCH  26  30
ATOM     30  O   UNL     1      -5.927  14.904  25.474  0.00  0.00    -0.444 OA
BRANCH  30  31
ATOM     31  C   UNL     1      -6.982  14.227  26.163  0.00  0.00    +0.292 C 
BRANCH  31  33
ATOM     32  N   UNL     1      -5.177  12.983  27.304  0.00  0.00    -0.131 NA
ATOM     33  C   UNL     1      -6.445  13.495  27.324  0.00  0.00    +0.120 A 
ATOM     34  C   UNL     1      -7.018  13.228  28.548  0.00  0.00    +0.137 A 
ATOM     35  N   UNL     1      -6.013  12.632  29.262  0.00  0.00    -0.247 N 
ATOM     36  N   UNL     1      -4.924  12.456  28.493  0.00  0.00    -0.065 NA
BRANCH  35  37
ATOM     37  C   UNL     1      -6.050  12.304  30.683  0.00  0.00    +0.184 C 
BRANCH  37  38
ATOM     38  C   UNL     1      -4.939  11.411  31.179  0.00  0.00    +0.016 A 
ATOM     39  C   UNL     1      -3.885  11.905  31.970  0.00  0.00    +0.137 A 
ATOM     40  C   UNL     1      -2.869  11.062  32.422  0.00  0.00    +0.047 A 
ATOM     41  C   UNL     1      -2.902   9.704  32.101  0.00  0.00    +0.004 A 
ATOM     42  C   UNL     1      -3.930   9.199  31.306  0.00  0.00    +0.001 A 
ATOM     43  C   UNL     1      -4.942  10.045  30.851  0.00  0.00    +0.009 A 
BRANCH  39  44
ATOM     44  O   UNL     1      -3.865  13.299  32.208  0.00  0.00    -0.426 OA
BRANCH  44  45
ATOM     45  C   UNL     1      -2.984  14.161  31.552  0.00  0.00    +0.309 C 
ATOM     46  O   UNL     1      -1.761  14.105  31.545  0.00  0.00    -0.251 OA
ATOM     47  C   UNL     1      -3.778  15.160  30.763  0.00  0.00    +0.136 C 
ENDBRANCH  44  45
ENDBRANCH  39  44
ENDBRANCH  37  38
ENDBRANCH  35  37
ENDBRANCH  31  33
ENDBRANCH  30  31
ENDBRANCH  26  30
ENDBRANCH  25  28
ENDBRANCH   1  25
TORSDOF 17
