REMARK VINA RESULT:    -5.604      6.098     11.709
REMARK INTER + INTRA:         -13.463
REMARK INTER:                 -10.506
REMARK INTRA:                  -2.957
REMARK UNBOUND:                -3.108
REMARK  Name = lig_assembled_58.pdb
REMARK  18 active torsions:
REMARK  status: ('A' for Active; 'I' for Inactive)
REMARK    1  A    between atoms: _2  and  _9
REMARK    2  A    between atoms: _4  and  _25
REMARK    3  A    between atoms: _6  and  _7
REMARK    4  A    between atoms: _6  and  _25
REMARK    5  A    between atoms: _9  and  _10
REMARK    6  A    between atoms: _9  and  _16
REMARK    7  A    between atoms: _21  and  _41
REMARK    8  A    between atoms: _23  and  _29
REMARK    9  A    between atoms: _24  and  _28
REMARK   10  A    between atoms: _28  and  _29
REMARK   11  A    between atoms: _31  and  _32
REMARK   12  A    between atoms: _33  and  _34
REMARK   13  A    between atoms: _35  and  _37
REMARK   14  A    between atoms: _37  and  _38
REMARK   15  A    between atoms: _37  and  _39
REMARK   16  A    between atoms: _39  and  _40
REMARK   17  A    between atoms: _39  and  _41
REMARK   18  A    between atoms: _42  and  _44
REMARK                            x       y       z     vdW  Elec       q    Type
REMARK                         _______ _______ _______ _____ _____    ______ ____
ROOT
ATOM      1  C   UNL     1      -2.787   9.824  29.438  0.00  0.00    +0.141 C 
ENDROOT
BRANCH   1   4
ATOM      2  C   UNL     1      -2.230   9.026  27.166  0.00  0.00    +0.401 C 
ATOM      3  O   UNL     1      -1.598   8.045  27.564  0.00  0.00    -0.226 OA
ATOM      4  N   UNL     1      -2.813   9.914  27.972  0.00  0.00    -0.279 N 
ATOM      5  H   UNL     1      -3.301  10.692  27.552  0.00  0.00    +0.152 HD
BRANCH   2   6
ATOM      6  O   UNL     1      -2.354   9.249  25.759  0.00  0.00    -0.444 OA
BRANCH   6   7
ATOM      7  C   UNL     1      -3.664   9.742  25.467  0.00  0.00    +0.292 C 
BRANCH   7   9
ATOM      8  N   UNL     1      -2.668  12.002  25.193  0.00  0.00    -0.131 NA
ATOM      9  C   UNL     1      -3.579  11.056  24.805  0.00  0.00    +0.120 A 
ATOM     10  C   UNL     1      -4.301  11.542  23.740  0.00  0.00    +0.138 A 
ATOM     11  N   UNL     1      -3.683  12.721  23.422  0.00  0.00    -0.240 N 
ATOM     12  N   UNL     1      -2.752  13.028  24.354  0.00  0.00    -0.064 NA
BRANCH  11  13
ATOM     13  C   UNL     1      -3.880  13.595  22.251  0.00  0.00    +0.169 C 
BRANCH  13  14
ATOM     14  C   UNL     1      -4.581  12.816  21.128  0.00  0.00    -0.019 A 
ATOM     15  C   UNL     1      -3.833  12.004  20.259  0.00  0.00    +0.006 A 
ATOM     16  C   UNL     1      -4.452  11.337  19.199  0.00  0.00    +0.000 A 
ATOM     17  C   UNL     1      -5.826  11.458  18.998  0.00  0.00    +0.000 A 
ATOM     18  C   UNL     1      -6.583  12.260  19.845  0.00  0.00    +0.000 A 
ATOM     19  C   UNL     1      -5.964  12.941  20.892  0.00  0.00    +0.006 A 
ENDBRANCH  13  14
BRANCH  13  20
ATOM     20  C   UNL     1      -4.534  14.936  22.614  0.00  0.00    -0.019 A 
ATOM     21  C   UNL     1      -5.497  15.023  23.635  0.00  0.00    +0.006 A 
ATOM     22  C   UNL     1      -6.091  16.247  23.960  0.00  0.00    +0.000 A 
ATOM     23  C   UNL     1      -5.717  17.407  23.288  0.00  0.00    +0.000 A 
ATOM     24  C   UNL     1      -4.727  17.353  22.315  0.00  0.00    +0.000 A 
ATOM     25  C   UNL     1      -4.130  16.135  21.995  0.00  0.00    +0.006 A 
ENDBRANCH  13  20
ENDBRANCH  11  13
ENDBRANCH   7   9
ENDBRANCH   6   7
ENDBRANCH   2   6
ENDBRANCH   1   4
BRANCH   1  26
ATOM     26  C   UNL     1      -4.137   9.402  30.006  0.00  0.00    +0.163 C 
BRANCH  26  27
ATOM     27  O   UNL     1      -3.987   8.987  31.374  0.00  0.00    -0.388 OA
ATOM     28  H   UNL     1      -4.831   8.672  31.707  0.00  0.00    +0.210 HD
ENDBRANCH  26  27
BRANCH  26  29
ATOM     29  C   UNL     1      -5.131  10.571  29.892  0.00  0.00    +0.175 C 
BRANCH  29  30
ATOM     30  C   UNL     1      -4.519  11.898  30.365  0.00  0.00    +0.176 C 
ATOM     31  O   UNL     1      -4.555  11.913  31.819  0.00  0.00    -0.332 OA
ATOM     32  C   UNL     1      -3.913  13.066  32.457  0.00  0.00    +0.277 C 
ATOM     33  C   UNL     1      -4.501  14.388  31.905  0.00  0.00    +0.110 C 
ATOM     34  C   UNL     1      -4.513  14.405  30.362  0.00  0.00    +0.143 C 
ATOM     35  C   UNL     1      -5.202  13.159  29.804  0.00  0.00    +0.133 C 
BRANCH  35  36
ATOM     36  N   UNL     1      -5.130  13.145  28.335  0.00  0.00    -0.308 N 
ATOM     37  H   UNL     1      -4.215  13.142  27.907  0.00  0.00    +0.149 HD
ATOM     38  C   UNL     1      -6.196  13.134  27.529  0.00  0.00    +0.210 C 
ATOM     39  C   UNL     1      -7.577  13.164  28.211  0.00  0.00    +0.109 C 
ATOM     40  O   UNL     1      -6.105  13.107  26.301  0.00  0.00    -0.276 OA
ENDBRANCH  35  36
BRANCH  32  41
ATOM     41  C   UNL     1      -2.388  13.042  32.221  0.00  0.00    +0.414 C 
ATOM     42  O   UNL     1      -1.756  11.995  32.354  0.00  0.00    -0.240 OA
ATOM     43  O   UNL     1      -1.790  14.070  31.898  0.00  0.00    -0.240 OA
ENDBRANCH  32  41
BRANCH  34  44
ATOM     44  O   UNL     1      -5.198  15.569  29.898  0.00  0.00    -0.390 OA
ATOM     45  H   UNL     1      -4.593  16.117  29.393  0.00  0.00    +0.210 HD
ENDBRANCH  34  44
BRANCH  32  46
ATOM     46  O   UNL     1      -4.188  13.003  33.880  0.00  0.00    -0.343 OA
ATOM     47  C   UNL     1      -5.226  12.065  34.262  0.00  0.00    +0.198 C 
ENDBRANCH  32  46
ENDBRANCH  29  30
BRANCH  29  48
ATOM     48  O   UNL     1      -6.328  10.281  30.641  0.00  0.00    -0.387 OA
ATOM     49  H   UNL     1      -6.394  10.884  31.385  0.00  0.00    +0.210 HD
ENDBRANCH  29  48
ENDBRANCH  26  29
ENDBRANCH   1  26
TORSDOF 16
