REMARK VINA RESULT:    -4.105      3.489      7.861
REMARK INTER + INTRA:         -11.523
REMARK INTER:                  -6.968
REMARK INTRA:                  -4.556
REMARK UNBOUND:                -3.458
REMARK  Name = lig_assembled_43.pdb
REMARK  20 active torsions:
REMARK  status: ('A' for Active; 'I' for Inactive)
REMARK    1  A    between atoms: _2  and  _9
REMARK    2  A    between atoms: _4  and  _18
REMARK    3  A    between atoms: _6  and  _7
REMARK    4  A    between atoms: _6  and  _18
REMARK    5  A    between atoms: _9  and  _10
REMARK    6  A    between atoms: _10  and  _11
REMARK    7  A    between atoms: _11  and  _12
REMARK    8  A    between atoms: _12  and  _13
REMARK    9  A    between atoms: _14  and  _34
REMARK   10  A    between atoms: _16  and  _22
REMARK   11  A    between atoms: _17  and  _21
REMARK   12  A    between atoms: _21  and  _22
REMARK   13  A    between atoms: _24  and  _25
REMARK   14  A    between atoms: _26  and  _27
REMARK   15  A    between atoms: _28  and  _30
REMARK   16  A    between atoms: _30  and  _31
REMARK   17  A    between atoms: _30  and  _32
REMARK   18  A    between atoms: _32  and  _33
REMARK   19  A    between atoms: _32  and  _34
REMARK   20  A    between atoms: _35  and  _37
REMARK                            x       y       z     vdW  Elec       q    Type
REMARK                         _______ _______ _______ _____ _____    ______ ____
ROOT
ATOM      1  C   UNL     1      -3.486  11.152  21.579  0.00  0.00    +0.163 C 
ENDROOT
BRANCH   1   2
ATOM      2  O   UNL     1      -2.779  12.027  22.472  0.00  0.00    -0.388 OA
ATOM      3  H   UNL     1      -1.836  11.973  22.295  0.00  0.00    +0.210 HD
ENDBRANCH   1   2
BRANCH   1   4
ATOM      4  C   UNL     1      -4.318  10.122  22.362  0.00  0.00    +0.175 C 
BRANCH   4   5
ATOM      5  C   UNL     1      -4.300  10.393  23.874  0.00  0.00    +0.176 C 
ATOM      6  O   UNL     1      -3.106   9.771  24.425  0.00  0.00    -0.332 OA
ATOM      7  C   UNL     1      -2.864  10.017  25.850  0.00  0.00    +0.277 C 
ATOM      8  C   UNL     1      -4.101   9.609  26.687  0.00  0.00    +0.110 C 
ATOM      9  C   UNL     1      -5.399  10.220  26.120  0.00  0.00    +0.143 C 
ATOM     10  C   UNL     1      -5.549   9.907  24.631  0.00  0.00    +0.133 C 
BRANCH  10  11
ATOM     11  N   UNL     1      -6.744  10.567  24.083  0.00  0.00    -0.308 N 
ATOM     12  H   UNL     1      -6.808  11.572  24.166  0.00  0.00    +0.149 HD
ATOM     13  C   UNL     1      -7.751   9.926  23.483  0.00  0.00    +0.210 C 
ATOM     14  C   UNL     1      -7.636   8.392  23.395  0.00  0.00    +0.109 C 
ATOM     15  O   UNL     1      -8.733  10.507  23.020  0.00  0.00    -0.276 OA
ENDBRANCH  10  11
BRANCH   7  16
ATOM     16  C   UNL     1      -2.539  11.504  26.101  0.00  0.00    +0.414 C 
ATOM     17  O   UNL     1      -2.032  12.187  25.212  0.00  0.00    -0.240 OA
ATOM     18  O   UNL     1      -2.785  12.021  27.192  0.00  0.00    -0.240 OA
ENDBRANCH   7  16
BRANCH   9  19
ATOM     19  O   UNL     1      -6.526   9.699  26.826  0.00  0.00    -0.390 OA
ATOM     20  H   UNL     1      -6.231   9.041  27.460  0.00  0.00    +0.210 HD
ENDBRANCH   9  19
BRANCH   7  21
ATOM     21  O   UNL     1      -1.741   9.195  26.262  0.00  0.00    -0.343 OA
ATOM     22  C   UNL     1      -2.001   8.327  27.394  0.00  0.00    +0.198 C 
ENDBRANCH   7  21
ENDBRANCH   4   5
BRANCH   4  23
ATOM     23  O   UNL     1      -3.842   8.789  22.091  0.00  0.00    -0.387 OA
ATOM     24  H   UNL     1      -4.476   8.148  22.421  0.00  0.00    +0.210 HD
ENDBRANCH   4  23
ENDBRANCH   1   4
BRANCH   1  25
ATOM     25  C   UNL     1      -4.404  11.964  20.671  0.00  0.00    +0.141 C 
BRANCH  25  28
ATOM     26  C   UNL     1      -5.889  13.379  22.049  0.00  0.00    +0.401 C 
ATOM     27  O   UNL     1      -5.032  14.240  22.258  0.00  0.00    -0.226 OA
ATOM     28  N   UNL     1      -5.681  12.279  21.324  0.00  0.00    -0.279 N 
ATOM     29  H   UNL     1      -6.444  11.626  21.217  0.00  0.00    +0.152 HD
BRANCH  26  30
ATOM     30  O   UNL     1      -7.193  13.546  22.612  0.00  0.00    -0.444 OA
BRANCH  30  31
ATOM     31  C   UNL     1      -7.147  14.545  23.635  0.00  0.00    +0.292 C 
BRANCH  31  33
ATOM     32  N   UNL     1      -8.080  12.973  25.305  0.00  0.00    -0.131 NA
ATOM     33  C   UNL     1      -7.143  13.916  24.968  0.00  0.00    +0.120 A 
ATOM     34  C   UNL     1      -6.302  14.117  26.039  0.00  0.00    +0.137 A 
ATOM     35  N   UNL     1      -6.784  13.273  26.994  0.00  0.00    -0.251 N 
ATOM     36  N   UNL     1      -7.849  12.587  26.552  0.00  0.00    -0.065 NA
BRANCH  35  37
ATOM     37  C   UNL     1      -6.305  13.093  28.349  0.00  0.00    +0.145 C 
BRANCH  37  38
ATOM     38  C   UNL     1      -7.238  12.197  29.157  0.00  0.00    +0.024 C 
BRANCH  38  39
ATOM     39  C   UNL     1      -6.485  11.388  30.215  0.00  0.00    +0.006 C 
BRANCH  39  40
ATOM     40  C   UNL     1      -4.975  11.480  29.986  0.00  0.00    +0.026 C 
BRANCH  40  41
ATOM     41  C   UNL     1      -4.270  10.213  30.372  0.00  0.00    -0.034 C 
ATOM     42  C   UNL     1      -2.961  10.142  30.648  0.00  0.00    +0.004 C 
ENDBRANCH  40  41
ENDBRANCH  39  40
ENDBRANCH  38  39
ENDBRANCH  37  38
ENDBRANCH  35  37
ENDBRANCH  31  33
ENDBRANCH  30  31
ENDBRANCH  26  30
ENDBRANCH  25  28
ENDBRANCH   1  25
TORSDOF 18
