REMARK VINA RESULT:    -4.901      5.034     10.871
REMARK INTER + INTRA:         -10.770
REMARK INTER:                  -8.462
REMARK INTRA:                  -2.307
REMARK UNBOUND:                -2.287
REMARK  Name = lig_assembled_52.pdb
REMARK  16 active torsions:
REMARK  status: ('A' for Active; 'I' for Inactive)
REMARK    1  A    between atoms: _2  and  _10
REMARK    2  A    between atoms: _5  and  _18
REMARK    3  A    between atoms: _7  and  _8
REMARK    4  A    between atoms: _7  and  _18
REMARK    5  A    between atoms: _14  and  _34
REMARK    6  A    between atoms: _16  and  _22
REMARK    7  A    between atoms: _17  and  _21
REMARK    8  A    between atoms: _21  and  _22
REMARK    9  A    between atoms: _24  and  _25
REMARK   10  A    between atoms: _26  and  _27
REMARK   11  A    between atoms: _28  and  _30
REMARK   12  A    between atoms: _30  and  _31
REMARK   13  A    between atoms: _30  and  _32
REMARK   14  A    between atoms: _32  and  _33
REMARK   15  A    between atoms: _32  and  _34
REMARK   16  A    between atoms: _35  and  _37
REMARK                            x       y       z     vdW  Elec       q    Type
REMARK                         _______ _______ _______ _____ _____    ______ ____
ROOT
ATOM      1  C   UNL     1      -5.401   7.346  24.238  0.00  0.00    +0.163 C 
ENDROOT
BRANCH   1   2
ATOM      2  O   UNL     1      -4.242   6.761  24.855  0.00  0.00    -0.388 OA
ATOM      3  H   UNL     1      -3.479   7.323  24.700  0.00  0.00    +0.210 HD
ENDBRANCH   1   2
BRANCH   1   4
ATOM      4  C   UNL     1      -6.051   6.342  23.291  0.00  0.00    +0.141 C 
BRANCH   4   7
ATOM      5  C   UNL     1      -6.158   6.441  20.825  0.00  0.00    +0.401 C 
ATOM      6  O   UNL     1      -7.391   6.455  20.785  0.00  0.00    -0.226 OA
ATOM      7  N   UNL     1      -5.449   6.384  21.953  0.00  0.00    -0.279 N 
ATOM      8  H   UNL     1      -4.442   6.368  21.882  0.00  0.00    +0.152 HD
BRANCH   5   9
ATOM      9  O   UNL     1      -5.424   6.485  19.599  0.00  0.00    -0.444 OA
BRANCH   9  10
ATOM     10  C   UNL     1      -6.191   7.173  18.607  0.00  0.00    +0.292 C 
BRANCH  10  12
ATOM     11  N   UNL     1      -4.189   7.398  17.172  0.00  0.00    -0.131 NA
ATOM     12  C   UNL     1      -5.305   7.956  17.726  0.00  0.00    +0.121 A 
ATOM     13  C   UNL     1      -5.402   9.265  17.314  0.00  0.00    +0.143 A 
ATOM     14  N   UNL     1      -4.322   9.459  16.484  0.00  0.00    -0.218 N 
ATOM     15  N   UNL     1      -3.595   8.317  16.422  0.00  0.00    -0.060 NA
BRANCH  14  16
ATOM     16  C   UNL     1      -3.961  10.616  15.761  0.00  0.00    +0.085 A 
ATOM     17  C   UNL     1      -4.309  11.898  16.194  0.00  0.00    +0.031 A 
ATOM     18  C   UNL     1      -3.942  13.000  15.424  0.00  0.00    +0.022 A 
ATOM     19  C   UNL     1      -3.238  12.782  14.251  0.00  0.00    +0.111 A 
ATOM     20  N   UNL     1      -2.880  11.556  13.811  0.00  0.00    -0.261 NA
ATOM     21  C   UNL     1      -3.248  10.498  14.573  0.00  0.00    +0.138 A 
ENDBRANCH  14  16
ENDBRANCH  10  12
ENDBRANCH   9  10
ENDBRANCH   5   9
ENDBRANCH   4   7
ENDBRANCH   1   4
BRANCH   1  22
ATOM     22  C   UNL     1      -5.026   8.619  23.459  0.00  0.00    +0.175 C 
BRANCH  22  23
ATOM     23  C   UNL     1      -3.962   9.451  24.190  0.00  0.00    +0.176 C 
ATOM     24  O   UNL     1      -4.294   9.458  25.605  0.00  0.00    -0.332 OA
ATOM     25  C   UNL     1      -3.323  10.122  26.481  0.00  0.00    +0.277 C 
ATOM     26  C   UNL     1      -3.060  11.569  25.997  0.00  0.00    +0.110 C 
ATOM     27  C   UNL     1      -2.733  11.616  24.490  0.00  0.00    +0.143 C 
ATOM     28  C   UNL     1      -3.806  10.894  23.674  0.00  0.00    +0.133 C 
BRANCH  28  29
ATOM     29  N   UNL     1      -3.439  10.869  22.249  0.00  0.00    -0.308 N 
ATOM     30  H   UNL     1      -2.643  10.310  21.976  0.00  0.00    +0.149 HD
ATOM     31  C   UNL     1      -4.091  11.536  21.292  0.00  0.00    +0.210 C 
ATOM     32  C   UNL     1      -5.284  12.399  21.744  0.00  0.00    +0.109 C 
ATOM     33  O   UNL     1      -3.770  11.485  20.105  0.00  0.00    -0.276 OA
ENDBRANCH  28  29
BRANCH  25  34
ATOM     34  C   UNL     1      -1.994   9.340  26.516  0.00  0.00    +0.414 C 
ATOM     35  O   UNL     1      -1.996   8.111  26.462  0.00  0.00    -0.240 OA
ATOM     36  O   UNL     1      -0.920   9.938  26.597  0.00  0.00    -0.240 OA
ENDBRANCH  25  34
BRANCH  27  37
ATOM     37  O   UNL     1      -2.647  12.974  24.057  0.00  0.00    -0.390 OA
ATOM     38  H   UNL     1      -2.011  13.444  24.601  0.00  0.00    +0.210 HD
ENDBRANCH  27  37
BRANCH  25  39
ATOM     39  O   UNL     1      -3.890  10.182  27.815  0.00  0.00    -0.343 OA
ATOM     40  C   UNL     1      -4.001  11.515  28.374  0.00  0.00    +0.198 C 
ENDBRANCH  25  39
ENDBRANCH  22  23
BRANCH  22  41
ATOM     41  O   UNL     1      -6.201   9.417  23.217  0.00  0.00    -0.387 OA
ATOM     42  H   UNL     1      -6.333   9.516  22.271  0.00  0.00    +0.210 HD
ENDBRANCH  22  41
ENDBRANCH   1  22
TORSDOF 14
