REMARK VINA RESULT:    -4.727      0.000      0.000
REMARK INTER + INTRA:         -12.870
REMARK INTER:                  -8.757
REMARK INTRA:                  -4.112
REMARK UNBOUND:                -3.997
REMARK  Name = lig_assembled_68.pdb
REMARK  19 active torsions:
REMARK  status: ('A' for Active; 'I' for Inactive)
REMARK    1  A    between atoms: _2  and  _9
REMARK    2  A    between atoms: _4  and  _21
REMARK    3  A    between atoms: _6  and  _7
REMARK    4  A    between atoms: _6  and  _21
REMARK    5  A    between atoms: _9  and  _10
REMARK    6  A    between atoms: _10  and  _11
REMARK    7  A    between atoms: _10  and  _16
REMARK    8  A    between atoms: _17  and  _37
REMARK    9  A    between atoms: _19  and  _25
REMARK   10  A    between atoms: _20  and  _24
REMARK   11  A    between atoms: _24  and  _25
REMARK   12  A    between atoms: _27  and  _28
REMARK   13  A    between atoms: _29  and  _30
REMARK   14  A    between atoms: _31  and  _33
REMARK   15  A    between atoms: _33  and  _34
REMARK   16  A    between atoms: _33  and  _35
REMARK   17  A    between atoms: _35  and  _36
REMARK   18  A    between atoms: _35  and  _37
REMARK   19  A    between atoms: _38  and  _40
REMARK                            x       y       z     vdW  Elec       q    Type
REMARK                         _______ _______ _______ _____ _____    ______ ____
ROOT
ATOM      1  C   UNL     1      -3.680   9.107  28.391  0.00  0.00    +0.163 C 
ENDROOT
BRANCH   1   2
ATOM      2  O   UNL     1      -4.840   9.949  28.498  0.00  0.00    -0.388 OA
ATOM      3  H   UNL     1      -4.748  10.526  29.260  0.00  0.00    +0.210 HD
ENDBRANCH   1   2
BRANCH   1   4
ATOM      4  C   UNL     1      -2.806   9.523  27.196  0.00  0.00    +0.175 C 
BRANCH   4   5
ATOM      5  C   UNL     1      -3.260   8.857  25.889  0.00  0.00    +0.176 C 
ATOM      6  O   UNL     1      -4.470   9.527  25.441  0.00  0.00    -0.332 OA
ATOM      7  C   UNL     1      -4.993   9.090  24.143  0.00  0.00    +0.277 C 
ATOM      8  C   UNL     1      -5.210   7.557  24.134  0.00  0.00    +0.110 C 
ATOM      9  C   UNL     1      -3.960   6.803  24.633  0.00  0.00    +0.143 C 
ATOM     10  C   UNL     1      -3.500   7.339  25.989  0.00  0.00    +0.133 C 
BRANCH  10  11
ATOM     11  N   UNL     1      -2.258   6.672  26.412  0.00  0.00    -0.308 N 
ATOM     12  H   UNL     1      -1.412   6.884  25.903  0.00  0.00    +0.149 HD
ATOM     13  C   UNL     1      -2.177   5.805  27.425  0.00  0.00    +0.210 C 
ATOM     14  C   UNL     1      -3.490   5.484  28.165  0.00  0.00    +0.109 C 
ATOM     15  O   UNL     1      -1.121   5.273  27.767  0.00  0.00    -0.276 OA
ENDBRANCH  10  11
BRANCH   7  16
ATOM     16  C   UNL     1      -4.028   9.481  23.005  0.00  0.00    +0.414 C 
ATOM     17  O   UNL     1      -3.067  10.215  23.232  0.00  0.00    -0.240 OA
ATOM     18  O   UNL     1      -4.210   9.063  21.861  0.00  0.00    -0.240 OA
ENDBRANCH   7  16
BRANCH   7  19
ATOM     19  O   UNL     1      -6.277   9.735  23.937  0.00  0.00    -0.343 OA
ATOM     20  C   UNL     1      -7.412   8.834  23.879  0.00  0.00    +0.198 C 
ENDBRANCH   7  19
BRANCH   9  21
ATOM     21  O   UNL     1      -4.253   5.410  24.752  0.00  0.00    -0.390 OA
ATOM     22  H   UNL     1      -3.435   4.908  24.741  0.00  0.00    +0.210 HD
ENDBRANCH   9  21
ENDBRANCH   4   5
BRANCH   4  23
ATOM     23  O   UNL     1      -1.424   9.212  27.459  0.00  0.00    -0.387 OA
ATOM     24  H   UNL     1      -0.901  10.016  27.416  0.00  0.00    +0.210 HD
ENDBRANCH   4  23
ENDBRANCH   1   4
BRANCH   1  25
ATOM     25  C   UNL     1      -2.859   9.184  29.674  0.00  0.00    +0.141 C 
BRANCH  25  28
ATOM     26  C   UNL     1      -2.716  10.868  31.477  0.00  0.00    +0.401 C 
ATOM     27  O   UNL     1      -2.759  10.036  32.386  0.00  0.00    -0.226 OA
ATOM     28  N   UNL     1      -2.764  10.559  30.180  0.00  0.00    -0.279 N 
ATOM     29  H   UNL     1      -2.732  11.313  29.509  0.00  0.00    +0.152 HD
BRANCH  26  30
ATOM     30  O   UNL     1      -2.614  12.255  31.809  0.00  0.00    -0.444 OA
BRANCH  30  31
ATOM     31  C   UNL     1      -3.918  12.780  32.075  0.00  0.00    +0.292 C 
BRANCH  31  33
ATOM     32  N   UNL     1      -5.783  11.988  30.647  0.00  0.00    -0.131 NA
ATOM     33  C   UNL     1      -4.716  12.829  30.838  0.00  0.00    +0.120 A 
ATOM     34  C   UNL     1      -4.573  13.632  29.731  0.00  0.00    +0.137 A 
ATOM     35  N   UNL     1      -5.587  13.239  28.906  0.00  0.00    -0.249 N 
ATOM     36  N   UNL     1      -6.305  12.243  29.454  0.00  0.00    -0.065 NA
BRANCH  35  37
ATOM     37  C   UNL     1      -5.860  13.693  27.559  0.00  0.00    +0.181 C 
BRANCH  37  38
ATOM     38  C   UNL     1      -5.265  12.755  26.500  0.00  0.00    +0.166 C 
BRANCH  38  39
ATOM     39  C   UNL     1      -4.995  13.417  25.157  0.00  0.00    -0.017 A 
ATOM     40  C   UNL     1      -3.754  13.202  24.530  0.00  0.00    +0.006 A 
ATOM     41  C   UNL     1      -3.474  13.769  23.285  0.00  0.00    +0.000 A 
ATOM     42  C   UNL     1      -4.429  14.552  22.644  0.00  0.00    +0.000 A 
ATOM     43  C   UNL     1      -5.668  14.760  23.239  0.00  0.00    +0.000 A 
ATOM     44  C   UNL     1      -5.952  14.194  24.485  0.00  0.00    +0.006 A 
ENDBRANCH  38  39
BRANCH  38  45
ATOM     45  O   UNL     1      -6.168  11.666  26.282  0.00  0.00    -0.385 OA
ATOM     46  H   UNL     1      -5.789  11.089  25.599  0.00  0.00    +0.210 HD
ENDBRANCH  38  45
ENDBRANCH  37  38
ENDBRANCH  35  37
ENDBRANCH  31  33
ENDBRANCH  30  31
ENDBRANCH  26  30
ENDBRANCH  25  28
ENDBRANCH   1  25
TORSDOF 17
