REMARK VINA RESULT:    -4.355      4.538      8.855
REMARK INTER + INTRA:         -11.575
REMARK INTER:                  -6.984
REMARK INTRA:                  -4.591
REMARK UNBOUND:                -3.657
REMARK  Name = lig_assembled_88.pdb
REMARK  18 active torsions:
REMARK  status: ('A' for Active; 'I' for Inactive)
REMARK    1  A    between atoms: _2  and  _9
REMARK    2  A    between atoms: _4  and  _20
REMARK    3  A    between atoms: _5  and  _15
REMARK    4  A    between atoms: _6  and  _7
REMARK    5  A    between atoms: _6  and  _20
REMARK    6  A    between atoms: _9  and  _10
REMARK    7  A    between atoms: _16  and  _36
REMARK    8  A    between atoms: _18  and  _24
REMARK    9  A    between atoms: _19  and  _23
REMARK   10  A    between atoms: _23  and  _24
REMARK   11  A    between atoms: _26  and  _27
REMARK   12  A    between atoms: _28  and  _29
REMARK   13  A    between atoms: _30  and  _32
REMARK   14  A    between atoms: _32  and  _33
REMARK   15  A    between atoms: _32  and  _34
REMARK   16  A    between atoms: _34  and  _35
REMARK   17  A    between atoms: _34  and  _36
REMARK   18  A    between atoms: _37  and  _39
REMARK                            x       y       z     vdW  Elec       q    Type
REMARK                         _______ _______ _______ _____ _____    ______ ____
ROOT
ATOM      1  C   UNL     1      -3.888  12.073  20.856  0.00  0.00    +0.163 C 
ENDROOT
BRANCH   1   2
ATOM      2  O   UNL     1      -5.295  12.088  20.564  0.00  0.00    -0.388 OA
ATOM      3  H   UNL     1      -5.521  12.907  20.118  0.00  0.00    +0.210 HD
ENDBRANCH   1   2
BRANCH   1   4
ATOM      4  C   UNL     1      -3.546  13.086  21.963  0.00  0.00    +0.175 C 
BRANCH   4   5
ATOM      5  C   UNL     1      -4.804  13.651  22.638  0.00  0.00    +0.176 C 
ATOM      6  O   UNL     1      -4.865  15.075  22.350  0.00  0.00    -0.332 OA
ATOM      7  C   UNL     1      -6.065  15.768  22.829  0.00  0.00    +0.277 C 
ATOM      8  C   UNL     1      -6.255  15.533  24.348  0.00  0.00    +0.110 C 
ATOM      9  C   UNL     1      -6.166  14.035  24.708  0.00  0.00    +0.143 C 
ATOM     10  C   UNL     1      -4.882  13.413  24.158  0.00  0.00    +0.133 C 
BRANCH  10  11
ATOM     11  N   UNL     1      -4.850  11.968  24.432  0.00  0.00    -0.308 N 
ATOM     12  H   UNL     1      -5.597  11.400  24.057  0.00  0.00    +0.149 HD
ATOM     13  C   UNL     1      -3.899  11.357  25.144  0.00  0.00    +0.210 C 
ATOM     14  C   UNL     1      -2.789  12.254  25.724  0.00  0.00    +0.109 C 
ATOM     15  O   UNL     1      -3.890  10.142  25.345  0.00  0.00    -0.276 OA
ENDBRANCH  10  11
BRANCH   7  16
ATOM     16  C   UNL     1      -7.317  15.281  22.071  0.00  0.00    +0.414 C 
ATOM     17  O   UNL     1      -7.253  15.022  20.870  0.00  0.00    -0.240 OA
ATOM     18  O   UNL     1      -8.391  15.148  22.660  0.00  0.00    -0.240 OA
ENDBRANCH   7  16
BRANCH   7  19
ATOM     19  O   UNL     1      -5.881  17.190  22.606  0.00  0.00    -0.343 OA
ATOM     20  C   UNL     1      -6.235  18.036  23.729  0.00  0.00    +0.198 C 
ENDBRANCH   7  19
BRANCH   9  21
ATOM     21  O   UNL     1      -6.195  13.877  26.127  0.00  0.00    -0.390 OA
ATOM     22  H   UNL     1      -5.807  13.032  26.364  0.00  0.00    +0.210 HD
ENDBRANCH   9  21
ENDBRANCH   4   5
BRANCH   4  23
ATOM     23  O   UNL     1      -2.747  14.158  21.425  0.00  0.00    -0.387 OA
ATOM     24  H   UNL     1      -2.804  14.151  20.467  0.00  0.00    +0.210 HD
ENDBRANCH   4  23
ENDBRANCH   1   4
BRANCH   1  25
ATOM     25  C   UNL     1      -3.460  10.676  21.294  0.00  0.00    +0.141 C 
BRANCH  25  28
ATOM     26  C   UNL     1      -4.515   8.676  22.291  0.00  0.00    +0.401 C 
ATOM     27  O   UNL     1      -3.449   8.190  22.676  0.00  0.00    -0.226 OA
ATOM     28  N   UNL     1      -4.613   9.832  21.631  0.00  0.00    -0.279 N 
ATOM     29  H   UNL     1      -5.531  10.143  21.348  0.00  0.00    +0.152 HD
BRANCH  26  30
ATOM     30  O   UNL     1      -5.733   7.974  22.552  0.00  0.00    -0.444 OA
BRANCH  30  31
ATOM     31  C   UNL     1      -6.818   8.905  22.611  0.00  0.00    +0.292 C 
BRANCH  31  33
ATOM     32  N   UNL     1      -7.421  10.585  24.327  0.00  0.00    -0.131 NA
ATOM     33  C   UNL     1      -7.089   9.294  24.007  0.00  0.00    +0.120 A 
ATOM     34  C   UNL     1      -7.051   8.540  25.159  0.00  0.00    +0.137 A 
ATOM     35  N   UNL     1      -7.295   9.446  26.150  0.00  0.00    -0.247 N 
ATOM     36  N   UNL     1      -7.567  10.662  25.643  0.00  0.00    -0.065 NA
BRANCH  35  37
ATOM     37  C   UNL     1      -7.217   9.245  27.589  0.00  0.00    +0.184 C 
BRANCH  37  38
ATOM     38  C   UNL     1      -5.863   9.603  28.169  0.00  0.00    +0.017 A 
ATOM     39  C   UNL     1      -4.813   8.669  28.269  0.00  0.00    +0.024 A 
ATOM     40  C   UNL     1      -3.578   9.034  28.811  0.00  0.00    +0.019 A 
ATOM     41 BR   UNL     1      -2.209   7.740  28.974  0.00  0.00    -0.050 Br
ATOM     42  C   UNL     1      -3.343  10.339  29.234  0.00  0.00    +0.034 A 
ATOM     43  C   UNL     1      -4.355  11.285  29.098  0.00  0.00    +0.061 A 
ATOM     44 BR   UNL     1      -4.019  13.069  29.641  0.00  0.00    -0.046 Br
ATOM     45  C   UNL     1      -5.601  10.921  28.566  0.00  0.00    +0.136 A 
BRANCH  45  46
ATOM     46  O   UNL     1      -6.599  11.848  28.414  0.00  0.00    -0.505 OA
ATOM     47  H   UNL     1      -6.493  12.513  29.120  0.00  0.00    +0.292 HD
ENDBRANCH  45  46
ENDBRANCH  37  38
ENDBRANCH  35  37
ENDBRANCH  31  33
ENDBRANCH  30  31
ENDBRANCH  26  30
ENDBRANCH  25  28
ENDBRANCH   1  25
TORSDOF 16
