REMARK VINA RESULT:    -4.605      2.367      5.578
REMARK INTER + INTRA:         -11.941
REMARK INTER:                  -8.299
REMARK INTRA:                  -3.642
REMARK UNBOUND:                -2.894
REMARK  Name = lig_assembled_17.pdb
REMARK  22 active torsions:
REMARK  status: ('A' for Active; 'I' for Inactive)
REMARK    1  A    between atoms: _2  and  _10
REMARK    2  A    between atoms: _3  and  _11
REMARK    3  A    between atoms: _3  and  _12
REMARK    4  A    between atoms: _3  and  _14
REMARK    5  A    between atoms: _5  and  _19
REMARK    6  A    between atoms: _6  and  _14
REMARK    7  A    between atoms: _7  and  _8
REMARK    8  A    between atoms: _7  and  _19
REMARK    9  A    between atoms: _10  and  _11
REMARK   10  A    between atoms: _12  and  _13
REMARK   11  A    between atoms: _15  and  _35
REMARK   12  A    between atoms: _17  and  _23
REMARK   13  A    between atoms: _18  and  _22
REMARK   14  A    between atoms: _22  and  _23
REMARK   15  A    between atoms: _25  and  _26
REMARK   16  A    between atoms: _27  and  _28
REMARK   17  A    between atoms: _29  and  _31
REMARK   18  A    between atoms: _31  and  _32
REMARK   19  A    between atoms: _31  and  _33
REMARK   20  A    between atoms: _33  and  _34
REMARK   21  A    between atoms: _33  and  _35
REMARK   22  A    between atoms: _36  and  _38
REMARK                            x       y       z     vdW  Elec       q    Type
REMARK                         _______ _______ _______ _____ _____    ______ ____
ROOT
ATOM      1  C   UNL     1      -4.395  13.062  25.431  0.00  0.00    +0.163 C 
ENDROOT
BRANCH   1   2
ATOM      2  O   UNL     1      -5.163  13.629  24.358  0.00  0.00    -0.388 OA
ATOM      3  H   UNL     1      -4.721  13.460  23.522  0.00  0.00    +0.210 HD
ENDBRANCH   1   2
BRANCH   1   4
ATOM      4  C   UNL     1      -5.119  11.852  26.047  0.00  0.00    +0.175 C 
BRANCH   4   5
ATOM      5  C   UNL     1      -4.233  11.095  27.046  0.00  0.00    +0.176 C 
ATOM      6  O   UNL     1      -4.198   9.698  26.644  0.00  0.00    -0.332 OA
ATOM      7  C   UNL     1      -3.308   8.835  27.428  0.00  0.00    +0.277 C 
ATOM      8  C   UNL     1      -3.645   8.938  28.936  0.00  0.00    +0.110 C 
ATOM      9  C   UNL     1      -3.724  10.406  29.403  0.00  0.00    +0.143 C 
ATOM     10  C   UNL     1      -4.674  11.213  28.517  0.00  0.00    +0.133 C 
BRANCH  10  11
ATOM     11  N   UNL     1      -4.675  12.629  28.918  0.00  0.00    -0.308 N 
ATOM     12  H   UNL     1      -3.800  13.131  28.877  0.00  0.00    +0.149 HD
ATOM     13  C   UNL     1      -5.758  13.293  29.332  0.00  0.00    +0.210 C 
ATOM     14  C   UNL     1      -7.071  12.493  29.408  0.00  0.00    +0.109 C 
ATOM     15  O   UNL     1      -5.732  14.483  29.648  0.00  0.00    -0.276 OA
ENDBRANCH  10  11
BRANCH   7  16
ATOM     16  C   UNL     1      -1.832   9.223  27.202  0.00  0.00    +0.414 C 
ATOM     17  O   UNL     1      -1.482   9.743  26.142  0.00  0.00    -0.240 OA
ATOM     18  O   UNL     1      -0.991   9.016  28.077  0.00  0.00    -0.240 OA
ENDBRANCH   7  16
BRANCH   9  19
ATOM     19  O   UNL     1      -4.183  10.458  30.754  0.00  0.00    -0.390 OA
ATOM     20  H   UNL     1      -3.866  11.263  31.170  0.00  0.00    +0.210 HD
ENDBRANCH   9  19
BRANCH   7  21
ATOM     21  O   UNL     1      -3.524   7.465  27.003  0.00  0.00    -0.343 OA
ATOM     22  C   UNL     1      -3.221   6.459  28.002  0.00  0.00    +0.198 C 
ENDBRANCH   7  21
ENDBRANCH   4   5
BRANCH   4  23
ATOM     23  O   UNL     1      -5.568  10.961  25.007  0.00  0.00    -0.387 OA
ATOM     24  H   UNL     1      -6.302  10.433  25.332  0.00  0.00    +0.210 HD
ENDBRANCH   4  23
ENDBRANCH   1   4
BRANCH   1  25
ATOM     25  C   UNL     1      -3.025  12.629  24.920  0.00  0.00    +0.141 C 
BRANCH  25  28
ATOM     26  C   UNL     1      -3.056  11.316  22.826  0.00  0.00    +0.401 C 
ATOM     27  O   UNL     1      -3.114  10.226  23.400  0.00  0.00    -0.226 OA
ATOM     28  N   UNL     1      -3.005  12.490  23.458  0.00  0.00    -0.279 N 
ATOM     29  H   UNL     1      -2.949  13.330  22.900  0.00  0.00    +0.152 HD
BRANCH  26  30
ATOM     30  O   UNL     1      -3.038  11.349  21.397  0.00  0.00    -0.444 OA
BRANCH  30  31
ATOM     31  C   UNL     1      -4.266  10.818  20.891  0.00  0.00    +0.292 C 
BRANCH  31  33
ATOM     32  N   UNL     1      -6.187  11.406  22.330  0.00  0.00    -0.131 NA
ATOM     33  C   UNL     1      -5.390  11.699  21.256  0.00  0.00    +0.120 A 
ATOM     34  C   UNL     1      -5.823  12.872  20.678  0.00  0.00    +0.137 A 
ATOM     35  N   UNL     1      -6.873  13.250  21.460  0.00  0.00    -0.250 N 
ATOM     36  N   UNL     1      -7.097  12.363  22.445  0.00  0.00    -0.065 NA
BRANCH  35  37
ATOM     37  C   UNL     1      -7.680  14.449  21.368  0.00  0.00    +0.160 C 
BRANCH  37  38
ATOM     38  C   UNL     1      -6.788  15.699  21.335  0.00  0.00    +0.107 C 
BRANCH  38  39
ATOM     39  N   UNL     1      -6.011  15.977  22.568  0.00  0.00    -0.301 NA
BRANCH  39  40
ATOM     40  C   UNL     1      -4.619  16.383  22.302  0.00  0.00    +0.081 C 
ATOM     41  C   UNL     1      -4.425  17.696  21.549  0.00  0.00    +0.020 C 
ENDBRANCH  39  40
BRANCH  39  42
ATOM     42  C   UNL     1      -6.758  16.951  23.391  0.00  0.00    +0.081 C 
ATOM     43  C   UNL     1      -6.961  16.539  24.846  0.00  0.00    +0.020 C 
ENDBRANCH  39  42
ENDBRANCH  38  39
ENDBRANCH  37  38
ENDBRANCH  35  37
ENDBRANCH  31  33
ENDBRANCH  30  31
ENDBRANCH  26  30
ENDBRANCH  25  28
ENDBRANCH   1  25
TORSDOF 18
