REMARK VINA RESULT:    -5.033      2.868      7.894
REMARK INTER + INTRA:         -10.707
REMARK INTER:                  -7.931
REMARK INTRA:                  -2.777
REMARK UNBOUND:                -1.997
REMARK  Name = lig_assembled_57.pdb
REMARK  17 active torsions:
REMARK  status: ('A' for Active; 'I' for Inactive)
REMARK    1  A    between atoms: _2  and  _10
REMARK    2  A    between atoms: _3  and  _13
REMARK    3  A    between atoms: _5  and  _19
REMARK    4  A    between atoms: _7  and  _8
REMARK    5  A    between atoms: _7  and  _19
REMARK    6  A    between atoms: _15  and  _35
REMARK    7  A    between atoms: _17  and  _23
REMARK    8  A    between atoms: _18  and  _22
REMARK    9  A    between atoms: _22  and  _23
REMARK   10  A    between atoms: _25  and  _26
REMARK   11  A    between atoms: _27  and  _28
REMARK   12  A    between atoms: _29  and  _31
REMARK   13  A    between atoms: _31  and  _32
REMARK   14  A    between atoms: _31  and  _33
REMARK   15  A    between atoms: _33  and  _34
REMARK   16  A    between atoms: _33  and  _35
REMARK   17  A    between atoms: _36  and  _38
REMARK                            x       y       z     vdW  Elec       q    Type
REMARK                         _______ _______ _______ _____ _____    ______ ____
ROOT
ATOM      1  C   UNL     1      -2.399   9.772  27.115  0.00  0.00    +0.163 C 
ENDROOT
BRANCH   1   2
ATOM      2  O   UNL     1      -1.226  10.082  26.344  0.00  0.00    -0.388 OA
ATOM      3  H   UNL     1      -0.680   9.296  26.262  0.00  0.00    +0.210 HD
ENDBRANCH   1   2
BRANCH   1   4
ATOM      4  C   UNL     1      -1.996   9.185  28.464  0.00  0.00    +0.141 C 
BRANCH   4   7
ATOM      5  C   UNL     1      -3.537   9.284  30.392  0.00  0.00    +0.401 C 
ATOM      6  O   UNL     1      -3.896   8.109  30.286  0.00  0.00    -0.226 OA
ATOM      7  N   UNL     1      -2.658   9.871  29.580  0.00  0.00    -0.279 N 
ATOM      8  H   UNL     1      -2.434  10.843  29.741  0.00  0.00    +0.152 HD
BRANCH   5   9
ATOM      9  O   UNL     1      -4.088  10.086  31.440  0.00  0.00    -0.444 OA
BRANCH   9  10
ATOM     10  C   UNL     1      -3.045  10.492  32.330  0.00  0.00    +0.292 C 
BRANCH  10  12
ATOM     11  N   UNL     1      -1.869  12.659  32.200  0.00  0.00    -0.131 NA
ATOM     12  C   UNL     1      -3.018  11.962  32.440  0.00  0.00    +0.120 A 
ATOM     13  C   UNL     1      -4.029  12.849  32.744  0.00  0.00    +0.137 A 
ATOM     14  N   UNL     1      -3.455  14.075  32.584  0.00  0.00    -0.248 N 
ATOM     15  N   UNL     1      -2.136  13.948  32.329  0.00  0.00    -0.065 NA
BRANCH  14  16
ATOM     16  C   UNL     1      -4.037  15.412  32.585  0.00  0.00    +0.111 C 
ATOM     17  C   UNL     1      -3.854  16.085  31.216  0.00  0.00    +0.042 C 
ATOM     18  C   UNL     1      -4.809  15.481  30.189  0.00  0.00    +0.086 C 
ATOM     19  N   UNL     1      -6.219  15.610  30.575  0.00  0.00    -0.305 NA
ATOM     20  C   UNL     1      -6.490  15.061  31.905  0.00  0.00    +0.086 C 
ATOM     21  C   UNL     1      -6.716  16.972  30.411  0.00  0.00    +0.104 C 
ATOM     22  C   UNL     1      -5.514  15.510  33.002  0.00  0.00    +0.042 C 
ENDBRANCH  14  16
ENDBRANCH  10  12
ENDBRANCH   9  10
ENDBRANCH   5   9
ENDBRANCH   4   7
ENDBRANCH   1   4
BRANCH   1  23
ATOM     23  C   UNL     1      -3.301   8.774  26.369  0.00  0.00    +0.175 C 
BRANCH  23  24
ATOM     24  C   UNL     1      -4.141   9.457  25.280  0.00  0.00    +0.176 C 
ATOM     25  O   UNL     1      -3.263   9.755  24.159  0.00  0.00    -0.332 OA
ATOM     26  C   UNL     1      -3.917  10.319  22.974  0.00  0.00    +0.277 C 
ATOM     27  C   UNL     1      -4.729  11.582  23.353  0.00  0.00    +0.110 C 
ATOM     28  C   UNL     1      -5.654  11.322  24.561  0.00  0.00    +0.143 C 
ATOM     29  C   UNL     1      -4.871  10.734  25.735  0.00  0.00    +0.133 C 
BRANCH  29  30
ATOM     30  N   UNL     1      -5.778  10.411  26.848  0.00  0.00    -0.308 N 
ATOM     31  H   UNL     1      -6.407   9.629  26.732  0.00  0.00    +0.149 HD
ATOM     32  C   UNL     1      -5.823  11.082  28.002  0.00  0.00    +0.210 C 
ATOM     33  C   UNL     1      -4.870  12.284  28.138  0.00  0.00    +0.109 C 
ATOM     34  O   UNL     1      -6.583  10.780  28.923  0.00  0.00    -0.276 OA
ENDBRANCH  29  30
BRANCH  26  35
ATOM     35  C   UNL     1      -4.852   9.281  22.320  0.00  0.00    +0.414 C 
ATOM     36  O   UNL     1      -4.577   8.083  22.365  0.00  0.00    -0.240 OA
ATOM     37  O   UNL     1      -5.882   9.642  21.749  0.00  0.00    -0.240 OA
ENDBRANCH  26  35
BRANCH  28  38
ATOM     38  O   UNL     1      -6.267  12.546  24.969  0.00  0.00    -0.390 OA
ATOM     39  H   UNL     1      -6.592  12.457  25.868  0.00  0.00    +0.210 HD
ENDBRANCH  28  38
BRANCH  26  40
ATOM     40  O   UNL     1      -2.883  10.706  22.033  0.00  0.00    -0.343 OA
ATOM     41  C   UNL     1      -3.099  11.979  21.374  0.00  0.00    +0.198 C 
ENDBRANCH  26  40
ENDBRANCH  23  24
BRANCH  23  42
ATOM     42  O   UNL     1      -4.160   8.088  27.301  0.00  0.00    -0.387 OA
ATOM     43  H   UNL     1      -5.014   8.524  27.330  0.00  0.00    +0.210 HD
ENDBRANCH  23  42
ENDBRANCH   1  23
TORSDOF 14
