REMARK VINA RESULT:    -5.370      4.832      7.926
REMARK INTER + INTRA:         -12.388
REMARK INTER:                 -10.051
REMARK INTRA:                  -2.336
REMARK UNBOUND:                -3.093
REMARK  Name = lig_assembled_80.pdb
REMARK  16 active torsions:
REMARK  status: ('A' for Active; 'I' for Inactive)
REMARK    1  A    between atoms: _2  and  _10
REMARK    2  A    between atoms: _5  and  _24
REMARK    3  A    between atoms: _7  and  _8
REMARK    4  A    between atoms: _7  and  _24
REMARK    5  A    between atoms: _20  and  _40
REMARK    6  A    between atoms: _22  and  _28
REMARK    7  A    between atoms: _23  and  _27
REMARK    8  A    between atoms: _27  and  _28
REMARK    9  A    between atoms: _30  and  _31
REMARK   10  A    between atoms: _32  and  _33
REMARK   11  A    between atoms: _34  and  _36
REMARK   12  A    between atoms: _36  and  _37
REMARK   13  A    between atoms: _36  and  _38
REMARK   14  A    between atoms: _38  and  _39
REMARK   15  A    between atoms: _38  and  _40
REMARK   16  A    between atoms: _41  and  _43
REMARK                            x       y       z     vdW  Elec       q    Type
REMARK                         _______ _______ _______ _____ _____    ______ ____
ROOT
ATOM      1  C   UNL     1      -6.263  11.116  18.068  0.00  0.00    +0.141 C 
ENDROOT
BRANCH   1   4
ATOM      2  C   UNL     1      -4.670  11.016  19.954  0.00  0.00    +0.401 C 
ATOM      3  O   UNL     1      -4.564  12.241  20.052  0.00  0.00    -0.226 OA
ATOM      4  N   UNL     1      -5.437  10.404  19.051  0.00  0.00    -0.279 N 
ATOM      5  H   UNL     1      -5.451   9.394  19.043  0.00  0.00    +0.152 HD
BRANCH   2   6
ATOM      6  O   UNL     1      -3.931  10.181  20.850  0.00  0.00    -0.444 OA
BRANCH   6   7
ATOM      7  C   UNL     1      -4.690   9.973  22.044  0.00  0.00    +0.292 C 
BRANCH   7   9
ATOM      8  N   UNL     1      -3.004  11.462  23.049  0.00  0.00    -0.131 NA
ATOM      9  C   UNL     1      -3.962  10.500  23.215  0.00  0.00    +0.120 A 
ATOM     10  C   UNL     1      -4.075  10.191  24.552  0.00  0.00    +0.138 A 
ATOM     11  N   UNL     1      -3.113  10.962  25.147  0.00  0.00    -0.239 N 
ATOM     12  N   UNL     1      -2.497  11.752  24.239  0.00  0.00    -0.065 NA
BRANCH  11  13
ATOM     13  C   UNL     1      -2.813  11.158  26.571  0.00  0.00    +0.195 C 
ATOM     14  C   UNL     1      -4.067  11.679  27.259  0.00  0.00    +0.041 C 
ATOM     15  C   UNL     1      -3.756  12.176  28.656  0.00  0.00    +0.039 C 
ATOM     16  C   UNL     1      -3.784  11.031  29.620  0.00  0.00    -0.026 A 
ATOM     17  C   UNL     1      -2.876   9.972  29.556  0.00  0.00    +0.037 A 
ATOM     18  C   UNL     1      -2.888   8.998  30.568  0.00  0.00    +0.023 A 
ATOM     19  C   UNL     1      -3.862   9.006  31.565  0.00  0.00    +0.002 A 
ATOM     20  C   UNL     1      -4.811  10.017  31.587  0.00  0.00    +0.000 A 
ATOM     21  N   UNL     1      -1.976   9.727  28.505  0.00  0.00    -0.284 N 
ATOM     22  H   UNL     1      -1.372   8.922  28.643  0.00  0.00    +0.155 HD
ATOM     23  C   UNL     1      -4.757  11.036  30.638  0.00  0.00    +0.005 A 
ATOM     24  C   UNL     1      -2.117   9.939  27.164  0.00  0.00    +0.242 C 
ATOM     25  O   UNL     1      -1.534   9.116  26.448  0.00  0.00    -0.273 OA
ENDBRANCH  11  13
ENDBRANCH   7   9
ENDBRANCH   6   7
ENDBRANCH   2   6
ENDBRANCH   1   4
BRANCH   1  26
ATOM     26  C   UNL     1      -5.702  10.990  16.655  0.00  0.00    +0.163 C 
BRANCH  26  27
ATOM     27  O   UNL     1      -4.864  12.118  16.357  0.00  0.00    -0.388 OA
ATOM     28  H   UNL     1      -5.278  12.920  16.686  0.00  0.00    +0.210 HD
ENDBRANCH  26  27
BRANCH  26  29
ATOM     29  C   UNL     1      -4.915   9.673  16.531  0.00  0.00    +0.175 C 
BRANCH  29  30
ATOM     30  C   UNL     1      -3.999   9.662  15.298  0.00  0.00    +0.176 C 
ATOM     31  O   UNL     1      -4.714  10.300  14.204  0.00  0.00    -0.332 OA
ATOM     32  C   UNL     1      -3.950  10.475  12.965  0.00  0.00    +0.277 C 
ATOM     33  C   UNL     1      -3.369   9.121  12.491  0.00  0.00    +0.110 C 
ATOM     34  C   UNL     1      -2.627   8.390  13.630  0.00  0.00    +0.143 C 
ATOM     35  C   UNL     1      -3.512   8.265  14.870  0.00  0.00    +0.133 C 
BRANCH  35  36
ATOM     36  N   UNL     1      -2.765   7.645  15.976  0.00  0.00    -0.308 N 
ATOM     37  H   UNL     1      -2.021   8.180  16.401  0.00  0.00    +0.149 HD
ATOM     38  C   UNL     1      -3.007   6.422  16.455  0.00  0.00    +0.210 C 
ATOM     39  C   UNL     1      -4.130   5.622  15.769  0.00  0.00    +0.109 C 
ATOM     40  O   UNL     1      -2.374   5.934  17.392  0.00  0.00    -0.276 OA
ENDBRANCH  35  36
BRANCH  32  41
ATOM     41  C   UNL     1      -2.802  11.486  13.169  0.00  0.00    +0.414 C 
ATOM     42  O   UNL     1      -1.796  11.432  12.463  0.00  0.00    -0.240 OA
ATOM     43  O   UNL     1      -2.881  12.354  14.039  0.00  0.00    -0.240 OA
ENDBRANCH  32  41
BRANCH  34  44
ATOM     44  O   UNL     1      -2.241   7.086  13.194  0.00  0.00    -0.390 OA
ATOM     45  H   UNL     1      -1.317   7.096  12.931  0.00  0.00    +0.210 HD
ENDBRANCH  34  44
BRANCH  32  46
ATOM     46  O   UNL     1      -4.857  10.966  11.945  0.00  0.00    -0.343 OA
ATOM     47  C   UNL     1      -5.322   9.964  11.006  0.00  0.00    +0.198 C 
ENDBRANCH  32  46
ENDBRANCH  29  30
BRANCH  29  48
ATOM     48  O   UNL     1      -5.824   8.555  16.485  0.00  0.00    -0.387 OA
ATOM     49  H   UNL     1      -6.727   8.877  16.433  0.00  0.00    +0.210 HD
ENDBRANCH  29  48
ENDBRANCH  26  29
ENDBRANCH   1  26
TORSDOF 14
