REMARK VINA RESULT:    -4.560      2.947      5.584
REMARK INTER + INTRA:         -10.919
REMARK INTER:                  -8.192
REMARK INTRA:                  -2.727
REMARK UNBOUND:                -2.759
REMARK  Name = lig_assembled_38.pdb
REMARK  17 active torsions:
REMARK  status: ('A' for Active; 'I' for Inactive)
REMARK    1  A    between atoms: _2  and  _9
REMARK    2  A    between atoms: _4  and  _19
REMARK    3  A    between atoms: _6  and  _7
REMARK    4  A    between atoms: _6  and  _19
REMARK    5  A    between atoms: _9  and  _10
REMARK    6  A    between atoms: _15  and  _35
REMARK    7  A    between atoms: _17  and  _23
REMARK    8  A    between atoms: _18  and  _22
REMARK    9  A    between atoms: _22  and  _23
REMARK   10  A    between atoms: _25  and  _26
REMARK   11  A    between atoms: _27  and  _28
REMARK   12  A    between atoms: _29  and  _31
REMARK   13  A    between atoms: _31  and  _32
REMARK   14  A    between atoms: _31  and  _33
REMARK   15  A    between atoms: _33  and  _34
REMARK   16  A    between atoms: _33  and  _35
REMARK   17  A    between atoms: _36  and  _38
REMARK                            x       y       z     vdW  Elec       q    Type
REMARK                         _______ _______ _______ _____ _____    ______ ____
ROOT
ATOM      1  C   UNL     1      -4.994   7.383  23.598  0.00  0.00    +0.163 C 
ENDROOT
BRANCH   1   2
ATOM      2  O   UNL     1      -3.795   6.949  24.262  0.00  0.00    -0.388 OA
ATOM      3  H   UNL     1      -3.038   7.112  23.694  0.00  0.00    +0.210 HD
ENDBRANCH   1   2
BRANCH   1   4
ATOM      4  C   UNL     1      -5.212   6.566  22.329  0.00  0.00    +0.141 C 
BRANCH   4   7
ATOM      5  C   UNL     1      -5.934   7.082  20.023  0.00  0.00    +0.401 C 
ATOM      6  O   UNL     1      -5.182   6.256  19.502  0.00  0.00    -0.226 OA
ATOM      7  N   UNL     1      -6.009   7.298  21.337  0.00  0.00    -0.279 N 
ATOM      8  H   UNL     1      -6.650   8.005  21.669  0.00  0.00    +0.152 HD
BRANCH   5   9
ATOM      9  O   UNL     1      -6.784   7.872  19.187  0.00  0.00    -0.444 OA
BRANCH   9  10
ATOM     10  C   UNL     1      -6.901   9.189  19.733  0.00  0.00    +0.292 C 
BRANCH  10  12
ATOM     11  N   UNL     1      -6.899  11.428  18.673  0.00  0.00    -0.131 NA
ATOM     12  C   UNL     1      -6.338  10.185  18.799  0.00  0.00    +0.120 A 
ATOM     13  C   UNL     1      -5.236  10.103  17.977  0.00  0.00    +0.137 A 
ATOM     14  N   UNL     1      -5.145  11.347  17.422  0.00  0.00    -0.247 N 
ATOM     15  N   UNL     1      -6.156  12.135  17.833  0.00  0.00    -0.065 NA
BRANCH  14  16
ATOM     16  C   UNL     1      -4.021  11.915  16.699  0.00  0.00    +0.180 C 
BRANCH  16  17
ATOM     17  C   UNL     1      -4.332  12.232  15.257  0.00  0.00    -0.025 A 
ATOM     18  C   UNL     1      -5.012  11.309  14.447  0.00  0.00    +0.005 A 
ATOM     19  C   UNL     1      -5.377  11.644  13.139  0.00  0.00    +0.001 A 
ATOM     20  C   UNL     1      -5.067  12.902  12.626  0.00  0.00    +0.015 A 
ATOM     21  C   UNL     1      -4.384  13.818  13.420  0.00  0.00    +0.018 A 
ATOM     22 BR   UNL     1      -3.970  15.530  12.732  0.00  0.00    -0.050 Br
ATOM     23  C   UNL     1      -4.016  13.493  14.727  0.00  0.00    +0.020 A 
ENDBRANCH  16  17
ENDBRANCH  14  16
ENDBRANCH  10  12
ENDBRANCH   9  10
ENDBRANCH   5   9
ENDBRANCH   4   7
ENDBRANCH   1   4
BRANCH   1  24
ATOM     24  C   UNL     1      -4.915   8.877  23.241  0.00  0.00    +0.175 C 
BRANCH  24  25
ATOM     25  C   UNL     1      -3.898   9.627  24.112  0.00  0.00    +0.176 C 
ATOM     26  O   UNL     1      -4.296   9.468  25.502  0.00  0.00    -0.332 OA
ATOM     27  C   UNL     1      -3.376  10.033  26.493  0.00  0.00    +0.277 C 
ATOM     28  C   UNL     1      -3.109  11.529  26.193  0.00  0.00    +0.110 C 
ATOM     29  C   UNL     1      -2.713  11.752  24.719  0.00  0.00    +0.143 C 
ATOM     30  C   UNL     1      -3.737  11.121  23.774  0.00  0.00    +0.133 C 
BRANCH  30  31
ATOM     31  N   UNL     1      -3.304  11.264  22.375  0.00  0.00    -0.308 N 
ATOM     32  H   UNL     1      -2.460  10.787  22.091  0.00  0.00    +0.149 HD
ATOM     33  C   UNL     1      -3.954  11.984  21.456  0.00  0.00    +0.210 C 
ATOM     34  C   UNL     1      -5.223  12.719  21.927  0.00  0.00    +0.109 C 
ATOM     35  O   UNL     1      -3.577  12.074  20.288  0.00  0.00    -0.276 OA
ENDBRANCH  30  31
BRANCH  27  36
ATOM     36  C   UNL     1      -2.039   9.263  26.501  0.00  0.00    +0.414 C 
ATOM     37  O   UNL     1      -0.972   9.872  26.556  0.00  0.00    -0.240 OA
ATOM     38  O   UNL     1      -2.028   8.032  26.453  0.00  0.00    -0.240 OA
ENDBRANCH  27  36
BRANCH  27  39
ATOM     39  O   UNL     1      -4.004   9.933  27.797  0.00  0.00    -0.343 OA
ATOM     40  C   UNL     1      -3.167  10.330  28.913  0.00  0.00    +0.198 C 
ENDBRANCH  27  39
BRANCH  29  41
ATOM     41  O   UNL     1      -2.625  13.152  24.450  0.00  0.00    -0.390 OA
ATOM     42  H   UNL     1      -3.439  13.582  24.722  0.00  0.00    +0.210 HD
ENDBRANCH  29  41
ENDBRANCH  24  25
BRANCH  24  43
ATOM     43  O   UNL     1      -6.217   9.485  23.361  0.00  0.00    -0.387 OA
ATOM     44  H   UNL     1      -6.879   8.802  23.491  0.00  0.00    +0.210 HD
ENDBRANCH  24  43
ENDBRANCH   1  24
TORSDOF 15
