REMARK VINA RESULT:    -4.739      6.669     10.274
REMARK INTER + INTRA:         -10.259
REMARK INTER:                  -7.330
REMARK INTRA:                  -2.929
REMARK UNBOUND:                -2.334
REMARK  Name = lig_assembled_65.pdb
REMARK  16 active torsions:
REMARK  status: ('A' for Active; 'I' for Inactive)
REMARK    1  A    between atoms: _8  and  _20
REMARK    2  A    between atoms: _9  and  _15
REMARK    3  A    between atoms: _10  and  _11
REMARK    4  A    between atoms: _10  and  _20
REMARK    5  A    between atoms: _16  and  _36
REMARK    6  A    between atoms: _18  and  _24
REMARK    7  A    between atoms: _19  and  _23
REMARK    8  A    between atoms: _23  and  _24
REMARK    9  A    between atoms: _26  and  _27
REMARK   10  A    between atoms: _28  and  _29
REMARK   11  A    between atoms: _30  and  _32
REMARK   12  A    between atoms: _32  and  _33
REMARK   13  A    between atoms: _32  and  _34
REMARK   14  A    between atoms: _34  and  _35
REMARK   15  A    between atoms: _34  and  _36
REMARK   16  A    between atoms: _37  and  _39
REMARK                            x       y       z     vdW  Elec       q    Type
REMARK                         _______ _______ _______ _____ _____    ______ ____
ROOT
ATOM      1  C   UNL     1      -6.198   8.819  21.873  0.00  0.00    +0.163 C 
ENDROOT
BRANCH   1   2
ATOM      2  O   UNL     1      -7.057   7.678  22.026  0.00  0.00    -0.388 OA
ATOM      3  H   UNL     1      -7.882   7.950  22.436  0.00  0.00    +0.210 HD
ENDBRANCH   1   2
BRANCH   1   4
ATOM      4  C   UNL     1      -4.768   8.451  22.255  0.00  0.00    +0.141 C 
BRANCH   4   7
ATOM      5  C   UNL     1      -3.769   6.671  23.648  0.00  0.00    +0.401 C 
ATOM      6  O   UNL     1      -2.829   6.466  22.877  0.00  0.00    -0.226 OA
ATOM      7  N   UNL     1      -4.725   7.576  23.433  0.00  0.00    -0.279 N 
ATOM      8  H   UNL     1      -5.461   7.665  24.120  0.00  0.00    +0.152 HD
BRANCH   5   9
ATOM      9  O   UNL     1      -3.863   5.902  24.849  0.00  0.00    -0.444 OA
BRANCH   9  10
ATOM     10  C   UNL     1      -2.657   6.045  25.605  0.00  0.00    +0.292 C 
BRANCH  10  12
ATOM     11  N   UNL     1      -1.626   7.968  26.777  0.00  0.00    -0.131 NA
ATOM     12  C   UNL     1      -2.738   7.227  26.484  0.00  0.00    +0.121 A 
ATOM     13  C   UNL     1      -3.823   7.774  27.126  0.00  0.00    +0.149 A 
ATOM     14  N   UNL     1      -3.319   8.856  27.816  0.00  0.00    -0.155 N 
ATOM     15  C   UNL     1      -4.042   9.753  28.657  0.00  0.00    +0.416 C 
ATOM     16  N   UNL     1      -3.378  10.755  29.245  0.00  0.00    +0.041 NA
ATOM     17  C   UNL     1      -4.116  11.538  30.029  0.00  0.00    +0.339 C 
ATOM     18  C   UNL     1      -3.427  12.669  30.725  0.00  0.00    +0.149 C 
ATOM     19  N   UNL     1      -5.422  11.376  30.244  0.00  0.00    +0.007 NA
ATOM     20  C   UNL     1      -5.980  10.347  29.626  0.00  0.00    +0.386 C 
ATOM     21  N   UNL     1      -7.327  10.136  29.832  0.00  0.00    -0.296 N 
ATOM     22  H   UNL     1      -7.779  10.989  30.133  0.00  0.00    +0.148 HD
ATOM     23  H   UNL     1      -7.742   9.635  29.061  0.00  0.00    +0.148 HD
ATOM     24  N   UNL     1      -5.353   9.518  28.810  0.00  0.00    -0.290 NA
ATOM     25  N   UNL     1      -1.986   8.959  27.583  0.00  0.00    -0.055 NA
ENDBRANCH  10  12
ENDBRANCH   9  10
ENDBRANCH   5   9
ENDBRANCH   4   7
ENDBRANCH   1   4
BRANCH   1  26
ATOM     26  C   UNL     1      -6.678   9.991  22.746  0.00  0.00    +0.175 C 
BRANCH  26  27
ATOM     27  C   UNL     1      -5.536  10.955  23.100  0.00  0.00    +0.176 C 
ATOM     28  O   UNL     1      -5.561  11.169  24.538  0.00  0.00    -0.332 OA
ATOM     29  C   UNL     1      -4.469  11.986  25.076  0.00  0.00    +0.277 C 
ATOM     30  C   UNL     1      -4.402  13.349  24.345  0.00  0.00    +0.110 C 
ATOM     31  C   UNL     1      -4.406  13.174  22.811  0.00  0.00    +0.143 C 
ATOM     32  C   UNL     1      -5.581  12.305  22.361  0.00  0.00    +0.133 C 
BRANCH  32  33
ATOM     33  N   UNL     1      -5.524  12.073  20.909  0.00  0.00    -0.308 N 
ATOM     34  H   UNL     1      -4.731  11.565  20.544  0.00  0.00    +0.149 HD
ATOM     35  C   UNL     1      -6.451  12.491  20.043  0.00  0.00    +0.210 C 
ATOM     36  C   UNL     1      -7.634  13.285  20.629  0.00  0.00    +0.109 C 
ATOM     37  O   UNL     1      -6.384  12.269  18.834  0.00  0.00    -0.276 OA
ENDBRANCH  32  33
BRANCH  29  38
ATOM     38  C   UNL     1      -3.118  11.256  24.932  0.00  0.00    +0.414 C 
ATOM     39  O   UNL     1      -3.081  10.093  24.533  0.00  0.00    -0.240 OA
ATOM     40  O   UNL     1      -2.065  11.831  25.213  0.00  0.00    -0.240 OA
ENDBRANCH  29  38
BRANCH  29  41
ATOM     41  O   UNL     1      -4.743  12.233  26.479  0.00  0.00    -0.343 OA
ATOM     42  C   UNL     1      -6.111  12.610  26.779  0.00  0.00    +0.198 C 
ENDBRANCH  29  41
BRANCH  31  43
ATOM     43  O   UNL     1      -4.496  14.451  22.180  0.00  0.00    -0.390 OA
ATOM     44  H   UNL     1      -3.873  15.056  22.590  0.00  0.00    +0.210 HD
ENDBRANCH  31  43
ENDBRANCH  26  27
BRANCH  26  45
ATOM     45  O   UNL     1      -7.298   9.492  23.949  0.00  0.00    -0.387 OA
ATOM     46  H   UNL     1      -6.661   9.506  24.667  0.00  0.00    +0.210 HD
ENDBRANCH  26  45
ENDBRANCH   1  26
TORSDOF 13
