REMARK VINA RESULT:    -5.146      3.984      7.516
REMARK INTER + INTRA:         -12.112
REMARK INTER:                  -8.701
REMARK INTRA:                  -3.411
REMARK UNBOUND:                -2.453
REMARK  Name = lig_assembled_75.pdb
REMARK  19 active torsions:
REMARK  status: ('A' for Active; 'I' for Inactive)
REMARK    1  A    between atoms: _2  and  _9
REMARK    2  A    between atoms: _4  and  _23
REMARK    3  A    between atoms: _6  and  _7
REMARK    4  A    between atoms: _6  and  _23
REMARK    5  A    between atoms: _11  and  _12
REMARK    6  A    between atoms: _13  and  _14
REMARK    7  A    between atoms: _14  and  _17
REMARK    8  A    between atoms: _19  and  _39
REMARK    9  A    between atoms: _21  and  _27
REMARK   10  A    between atoms: _22  and  _26
REMARK   11  A    between atoms: _26  and  _27
REMARK   12  A    between atoms: _29  and  _30
REMARK   13  A    between atoms: _31  and  _32
REMARK   14  A    between atoms: _33  and  _35
REMARK   15  A    between atoms: _35  and  _36
REMARK   16  A    between atoms: _35  and  _37
REMARK   17  A    between atoms: _37  and  _38
REMARK   18  A    between atoms: _37  and  _39
REMARK   19  A    between atoms: _40  and  _42
REMARK                            x       y       z     vdW  Elec       q    Type
REMARK                         _______ _______ _______ _____ _____    ______ ____
ROOT
ATOM      1  C   UNL     1      -4.166   9.579  30.659  0.00  0.00    +0.141 C 
ENDROOT
BRANCH   1   4
ATOM      2  C   UNL     1      -4.476   7.433  29.473  0.00  0.00    +0.401 C 
ATOM      3  O   UNL     1      -4.177   6.742  30.450  0.00  0.00    -0.226 OA
ATOM      4  N   UNL     1      -4.491   8.767  29.480  0.00  0.00    -0.279 N 
ATOM      5  H   UNL     1      -4.740   9.246  28.626  0.00  0.00    +0.152 HD
BRANCH   2   6
ATOM      6  O   UNL     1      -4.827   6.788  28.246  0.00  0.00    -0.444 OA
BRANCH   6   7
ATOM      7  C   UNL     1      -3.644   6.538  27.482  0.00  0.00    +0.292 C 
BRANCH   7   9
ATOM      8  N   UNL     1      -1.952   8.314  27.166  0.00  0.00    -0.131 NA
ATOM      9  C   UNL     1      -3.169   7.783  26.850  0.00  0.00    +0.121 A 
ATOM     10  C   UNL     1      -3.783   8.586  25.917  0.00  0.00    +0.143 A 
ATOM     11  N   UNL     1      -2.893   9.610  25.688  0.00  0.00    -0.220 N 
ATOM     12  N   UNL     1      -1.791   9.424  26.458  0.00  0.00    -0.060 NA
BRANCH  11  13
ATOM     13  C   UNL     1      -3.029  10.735  24.834  0.00  0.00    +0.068 A 
ATOM     14  C   UNL     1      -3.384  10.538  23.488  0.00  0.00    +0.035 A 
ATOM     15  C   UNL     1      -3.461  11.621  22.600  0.00  0.00    -0.023 A 
ATOM     16  C   UNL     1      -3.243  12.912  23.095  0.00  0.00    +0.008 A 
ATOM     17  C   UNL     1      -2.913  13.116  24.436  0.00  0.00    +0.003 A 
ATOM     18  C   UNL     1      -2.796  12.031  25.305  0.00  0.00    +0.028 A 
BRANCH  15  19
ATOM     19  C   UNL     1      -3.784  11.452  21.175  0.00  0.00    +0.015 C 
ATOM     20  C   UNL     1      -4.842  10.757  20.726  0.00  0.00    +0.092 C 
BRANCH  20  21
ATOM     21  C   UNL     1      -5.052  10.601  19.275  0.00  0.00    +0.330 C 
ATOM     22  O   UNL     1      -4.609   9.685  18.604  0.00  0.00    -0.246 OA
BRANCH  21  23
ATOM     23  O   UNL     1      -5.811  11.591  18.766  0.00  0.00    -0.478 OA
ATOM     24  H   UNL     1      -6.049  12.303  19.387  0.00  0.00    +0.295 HD
ENDBRANCH  21  23
ENDBRANCH  20  21
ENDBRANCH  15  19
ENDBRANCH  11  13
ENDBRANCH   7   9
ENDBRANCH   6   7
ENDBRANCH   2   6
ENDBRANCH   1   4
BRANCH   1  25
ATOM     25  C   UNL     1      -3.160  10.678  30.332  0.00  0.00    +0.163 C 
BRANCH  25  26
ATOM     26  O   UNL     1      -2.837  10.649  28.933  0.00  0.00    -0.388 OA
ATOM     27  H   UNL     1      -3.418  10.031  28.482  0.00  0.00    +0.210 HD
ENDBRANCH  25  26
BRANCH  25  28
ATOM     28  C   UNL     1      -3.744  12.044  30.733  0.00  0.00    +0.175 C 
BRANCH  28  29
ATOM     29  C   UNL     1      -5.095  12.317  30.056  0.00  0.00    +0.176 C 
ATOM     30  O   UNL     1      -5.019  11.820  28.691  0.00  0.00    -0.332 OA
ATOM     31  C   UNL     1      -6.262  11.900  27.917  0.00  0.00    +0.277 C 
ATOM     32  C   UNL     1      -6.807  13.349  27.918  0.00  0.00    +0.110 C 
ATOM     33  C   UNL     1      -6.877  13.931  29.345  0.00  0.00    +0.143 C 
ATOM     34  C   UNL     1      -5.532  13.793  30.060  0.00  0.00    +0.133 C 
BRANCH  34  35
ATOM     35  N   UNL     1      -5.634  14.272  31.447  0.00  0.00    -0.308 N 
ATOM     36  H   UNL     1      -6.202  13.738  32.090  0.00  0.00    +0.149 HD
ATOM     37  C   UNL     1      -5.026  15.366  31.913  0.00  0.00    +0.210 C 
ATOM     38  C   UNL     1      -4.189  16.173  30.902  0.00  0.00    +0.109 C 
ATOM     39  O   UNL     1      -5.118  15.735  33.084  0.00  0.00    -0.276 OA
ENDBRANCH  34  35
BRANCH  31  40
ATOM     40  C   UNL     1      -7.328  10.947  28.496  0.00  0.00    +0.414 C 
ATOM     41  O   UNL     1      -8.473  11.349  28.702  0.00  0.00    -0.240 OA
ATOM     42  O   UNL     1      -7.045   9.777  28.757  0.00  0.00    -0.240 OA
ENDBRANCH  31  40
BRANCH  31  43
ATOM     43  O   UNL     1      -5.963  11.524  26.548  0.00  0.00    -0.343 OA
ATOM     44  C   UNL     1      -6.648  12.304  25.536  0.00  0.00    +0.198 C 
ENDBRANCH  31  43
BRANCH  33  45
ATOM     45  O   UNL     1      -7.239  15.311  29.286  0.00  0.00    -0.390 OA
ATOM     46  H   UNL     1      -6.736  15.803  29.939  0.00  0.00    +0.210 HD
ENDBRANCH  33  45
ENDBRANCH  28  29
BRANCH  28  47
ATOM     47  O   UNL     1      -2.810  13.096  30.418  0.00  0.00    -0.387 OA
ATOM     48  H   UNL     1      -2.078  12.733  29.912  0.00  0.00    +0.210 HD
ENDBRANCH  28  47
ENDBRANCH  25  28
ENDBRANCH   1  25
TORSDOF 17
