REMARK VINA RESULT:    -4.668      2.826      8.231
REMARK INTER + INTRA:         -10.584
REMARK INTER:                  -8.231
REMARK INTRA:                  -2.353
REMARK UNBOUND:                -2.505
REMARK  Name = lig_assembled_3.pdb
REMARK  16 active torsions:
REMARK  status: ('A' for Active; 'I' for Inactive)
REMARK    1  A    between atoms: _2  and  _9
REMARK    2  A    between atoms: _4  and  _18
REMARK    3  A    between atoms: _6  and  _7
REMARK    4  A    between atoms: _6  and  _18
REMARK    5  A    between atoms: _14  and  _34
REMARK    6  A    between atoms: _16  and  _22
REMARK    7  A    between atoms: _17  and  _21
REMARK    8  A    between atoms: _21  and  _22
REMARK    9  A    between atoms: _24  and  _25
REMARK   10  A    between atoms: _26  and  _27
REMARK   11  A    between atoms: _28  and  _30
REMARK   12  A    between atoms: _30  and  _31
REMARK   13  A    between atoms: _30  and  _32
REMARK   14  A    between atoms: _32  and  _33
REMARK   15  A    between atoms: _32  and  _34
REMARK   16  A    between atoms: _35  and  _37
REMARK                            x       y       z     vdW  Elec       q    Type
REMARK                         _______ _______ _______ _____ _____    ______ ____
ROOT
ATOM      1  C   UNL     1      -3.791  10.813  32.538  0.00  0.00    +0.163 C 
ENDROOT
BRANCH   1   2
ATOM      2  O   UNL     1      -2.963  11.700  33.307  0.00  0.00    -0.388 OA
ATOM      3  H   UNL     1      -3.512  12.210  33.908  0.00  0.00    +0.210 HD
ENDBRANCH   1   2
BRANCH   1   4
ATOM      4  C   UNL     1      -2.969  10.158  31.433  0.00  0.00    +0.141 C 
BRANCH   4   7
ATOM      5  C   UNL     1      -3.666   8.816  29.479  0.00  0.00    +0.401 C 
ATOM      6  O   UNL     1      -2.885   7.891  29.717  0.00  0.00    -0.226 OA
ATOM      7  N   UNL     1      -3.768   9.916  30.226  0.00  0.00    -0.279 N 
ATOM      8  H   UNL     1      -4.432  10.624  29.944  0.00  0.00    +0.152 HD
BRANCH   5   9
ATOM      9  O   UNL     1      -4.522   8.726  28.337  0.00  0.00    -0.444 OA
BRANCH   9  10
ATOM     10  C   UNL     1      -3.793   8.177  27.236  0.00  0.00    +0.292 C 
BRANCH  10  12
ATOM     11  N   UNL     1      -2.020   9.711  26.447  0.00  0.00    -0.131 NA
ATOM     12  C   UNL     1      -3.303   9.256  26.357  0.00  0.00    +0.121 A 
ATOM     13  C   UNL     1      -3.958   9.947  25.364  0.00  0.00    +0.143 A 
ATOM     14  N   UNL     1      -3.016  10.809  24.848  0.00  0.00    -0.220 N 
ATOM     15  N   UNL     1      -1.854  10.657  25.533  0.00  0.00    -0.060 NA
BRANCH  14  16
ATOM     16  C   UNL     1      -3.143  11.722  23.770  0.00  0.00    +0.067 A 
ATOM     17  C   UNL     1      -3.376  13.085  24.005  0.00  0.00    +0.028 A 
ATOM     18  C   UNL     1      -3.528  13.963  22.929  0.00  0.00    +0.002 A 
ATOM     19  C   UNL     1      -3.446  13.491  21.621  0.00  0.00    +0.000 A 
ATOM     20  C   UNL     1      -3.205  12.140  21.381  0.00  0.00    +0.002 A 
ATOM     21  C   UNL     1      -3.052  11.255  22.451  0.00  0.00    +0.028 A 
ENDBRANCH  14  16
ENDBRANCH  10  12
ENDBRANCH   9  10
ENDBRANCH   5   9
ENDBRANCH   4   7
ENDBRANCH   1   4
BRANCH   1  22
ATOM     22  C   UNL     1      -4.977  11.570  31.915  0.00  0.00    +0.175 C 
BRANCH  22  23
ATOM     23  C   UNL     1      -4.700  13.075  31.787  0.00  0.00    +0.176 C 
ATOM     24  O   UNL     1      -5.074  13.707  33.041  0.00  0.00    -0.332 OA
ATOM     25  C   UNL     1      -4.778  15.139  33.142  0.00  0.00    +0.277 C 
ATOM     26  C   UNL     1      -5.415  15.908  31.959  0.00  0.00    +0.110 C 
ATOM     27  C   UNL     1      -5.071  15.254  30.604  0.00  0.00    +0.143 C 
ATOM     28  C   UNL     1      -5.416  13.764  30.611  0.00  0.00    +0.133 C 
BRANCH  28  29
ATOM     29  N   UNL     1      -5.005  13.134  29.347  0.00  0.00    -0.308 N 
ATOM     30  H   UNL     1      -4.026  13.169  29.099  0.00  0.00    +0.149 HD
ATOM     31  C   UNL     1      -5.840  12.518  28.505  0.00  0.00    +0.210 C 
ATOM     32  C   UNL     1      -7.329  12.504  28.899  0.00  0.00    +0.109 C 
ATOM     33  O   UNL     1      -5.464  11.986  27.460  0.00  0.00    -0.276 OA
ENDBRANCH  28  29
BRANCH  25  34
ATOM     34  C   UNL     1      -3.255  15.384  33.156  0.00  0.00    +0.414 C 
ATOM     35  O   UNL     1      -2.495  14.536  33.623  0.00  0.00    -0.240 OA
ATOM     36  O   UNL     1      -2.786  16.427  32.700  0.00  0.00    -0.240 OA
ENDBRANCH  25  34
BRANCH  27  37
ATOM     37  O   UNL     1      -5.798  15.900  29.558  0.00  0.00    -0.390 OA
ATOM     38  H   UNL     1      -6.176  16.718  29.889  0.00  0.00    +0.210 HD
ENDBRANCH  27  37
BRANCH  25  39
ATOM     39  O   UNL     1      -5.362  15.633  34.375  0.00  0.00    -0.343 OA
ATOM     40  C   UNL     1      -6.150  16.842  34.238  0.00  0.00    +0.198 C 
ENDBRANCH  25  39
ENDBRANCH  22  23
BRANCH  22  41
ATOM     41  O   UNL     1      -6.171  11.349  32.694  0.00  0.00    -0.387 OA
ATOM     42  H   UNL     1      -6.256  12.042  33.353  0.00  0.00    +0.210 HD
ENDBRANCH  22  41
ENDBRANCH   1  22
TORSDOF 14
