REMARK VINA RESULT:    -4.888      2.345      4.650
REMARK INTER + INTRA:         -12.663
REMARK INTER:                  -9.454
REMARK INTRA:                  -3.209
REMARK UNBOUND:                -3.060
REMARK  Name = lig_assembled_37.pdb
REMARK  21 active torsions:
REMARK  status: ('A' for Active; 'I' for Inactive)
REMARK    1  A    between atoms: _2  and  _9
REMARK    2  A    between atoms: _4  and  _24
REMARK    3  A    between atoms: _6  and  _7
REMARK    4  A    between atoms: _6  and  _24
REMARK    5  A    between atoms: _9  and  _10
REMARK    6  A    between atoms: _9  and  _11
REMARK    7  A    between atoms: _11  and  _18
REMARK    8  A    between atoms: _12  and  _13
REMARK    9  A    between atoms: _12  and  _18
REMARK   10  A    between atoms: _20  and  _40
REMARK   11  A    between atoms: _22  and  _28
REMARK   12  A    between atoms: _23  and  _27
REMARK   13  A    between atoms: _27  and  _28
REMARK   14  A    between atoms: _30  and  _31
REMARK   15  A    between atoms: _32  and  _33
REMARK   16  A    between atoms: _34  and  _36
REMARK   17  A    between atoms: _36  and  _37
REMARK   18  A    between atoms: _36  and  _38
REMARK   19  A    between atoms: _38  and  _39
REMARK   20  A    between atoms: _38  and  _40
REMARK   21  A    between atoms: _41  and  _43
REMARK                            x       y       z     vdW  Elec       q    Type
REMARK                         _______ _______ _______ _____ _____    ______ ____
ROOT
ATOM      1  C   UNL     1      -3.621   7.671  28.767  0.00  0.00    +0.141 C 
ENDROOT
BRANCH   1   4
ATOM      2  C   UNL     1      -3.098   7.694  26.352  0.00  0.00    +0.401 C 
ATOM      3  O   UNL     1      -1.900   7.935  26.518  0.00  0.00    -0.226 OA
ATOM      4  N   UNL     1      -3.976   7.560  27.347  0.00  0.00    -0.279 N 
ATOM      5  H   UNL     1      -4.940   7.372  27.111  0.00  0.00    +0.152 HD
BRANCH   2   6
ATOM      6  O   UNL     1      -3.600   7.548  25.021  0.00  0.00    -0.444 OA
BRANCH   6   7
ATOM      7  C   UNL     1      -4.749   8.382  24.849  0.00  0.00    +0.292 C 
BRANCH   7   9
ATOM      8  N   UNL     1      -3.252   9.629  23.316  0.00  0.00    -0.131 NA
ATOM      9  C   UNL     1      -4.516   9.364  23.774  0.00  0.00    +0.120 A 
ATOM     10  C   UNL     1      -5.418  10.135  23.076  0.00  0.00    +0.138 A 
ATOM     11  N   UNL     1      -4.642  10.869  22.228  0.00  0.00    -0.238 N 
ATOM     12  N   UNL     1      -3.342  10.547  22.364  0.00  0.00    -0.065 NA
BRANCH  11  13
ATOM     13  C   UNL     1      -5.039  11.833  21.221  0.00  0.00    +0.214 C 
ATOM     14  C   UNL     1      -3.825  12.412  20.493  0.00  0.00    +0.045 C 
BRANCH  13  15
ATOM     15  C   UNL     1      -6.003  11.223  20.228  0.00  0.00    +0.332 C 
ATOM     16  O   UNL     1      -7.194  11.506  20.166  0.00  0.00    -0.248 OA
BRANCH  15  17
ATOM     17  O   UNL     1      -5.375  10.324  19.424  0.00  0.00    -0.458 OA
BRANCH  17  18
ATOM     18  C   UNL     1      -5.937  10.147  18.115  0.00  0.00    +0.267 C 
BRANCH  18  19
ATOM     19  C   UNL     1      -5.000  10.700  17.073  0.00  0.00    -0.010 A 
ATOM     20  C   UNL     1      -4.914  12.083  16.857  0.00  0.00    +0.007 A 
ATOM     21  C   UNL     1      -4.026  12.599  15.912  0.00  0.00    +0.000 A 
ATOM     22  C   UNL     1      -3.218  11.739  15.171  0.00  0.00    +0.000 A 
ATOM     23  C   UNL     1      -3.299  10.363  15.371  0.00  0.00    +0.000 A 
ATOM     24  C   UNL     1      -4.188   9.845  16.315  0.00  0.00    +0.007 A 
ENDBRANCH  18  19
ENDBRANCH  17  18
ENDBRANCH  15  17
ENDBRANCH  13  15
ENDBRANCH  11  13
ENDBRANCH   7   9
ENDBRANCH   6   7
ENDBRANCH   2   6
ENDBRANCH   1   4
BRANCH   1  25
ATOM     25  C   UNL     1      -4.097   8.988  29.371  0.00  0.00    +0.163 C 
BRANCH  25  26
ATOM     26  O   UNL     1      -4.878   8.734  30.551  0.00  0.00    -0.388 OA
ATOM     27  H   UNL     1      -4.325   8.319  31.217  0.00  0.00    +0.210 HD
ENDBRANCH  25  26
BRANCH  25  28
ATOM     28  C   UNL     1      -2.882   9.874  29.696  0.00  0.00    +0.175 C 
BRANCH  28  29
ATOM     29  C   UNL     1      -3.298  11.256  30.222  0.00  0.00    +0.176 C 
ATOM     30  O   UNL     1      -3.836  11.081  31.562  0.00  0.00    -0.332 OA
ATOM     31  C   UNL     1      -4.190  12.315  32.269  0.00  0.00    +0.277 C 
ATOM     32  C   UNL     1      -5.168  13.163  31.419  0.00  0.00    +0.110 C 
ATOM     33  C   UNL     1      -4.654  13.350  29.976  0.00  0.00    +0.143 C 
ATOM     34  C   UNL     1      -4.312  12.004  29.337  0.00  0.00    +0.133 C 
BRANCH  34  35
ATOM     35  N   UNL     1      -3.742  12.200  27.995  0.00  0.00    -0.308 N 
ATOM     36  H   UNL     1      -2.819  12.605  27.929  0.00  0.00    +0.149 HD
ATOM     37  C   UNL     1      -4.365  11.880  26.858  0.00  0.00    +0.210 C 
ATOM     38  C   UNL     1      -5.782  11.289  26.991  0.00  0.00    +0.109 C 
ATOM     39  O   UNL     1      -3.857  12.042  25.748  0.00  0.00    -0.276 OA
ENDBRANCH  34  35
BRANCH  31  40
ATOM     40  C   UNL     1      -2.929  13.145  32.586  0.00  0.00    +0.414 C 
ATOM     41  O   UNL     1      -1.817  12.618  32.561  0.00  0.00    -0.240 OA
ATOM     42  O   UNL     1      -3.023  14.340  32.868  0.00  0.00    -0.240 OA
ENDBRANCH  31  40
BRANCH  31  43
ATOM     43  O   UNL     1      -4.857  11.948  33.504  0.00  0.00    -0.343 OA
ATOM     44  C   UNL     1      -4.815  10.536  33.827  0.00  0.00    +0.198 C 
ENDBRANCH  31  43
BRANCH  33  45
ATOM     45  O   UNL     1      -5.651  14.005  29.191  0.00  0.00    -0.390 OA
ATOM     46  H   UNL     1      -5.566  13.733  28.274  0.00  0.00    +0.210 HD
ENDBRANCH  33  45
ENDBRANCH  28  29
BRANCH  28  47
ATOM     47  O   UNL     1      -2.046  10.018  28.530  0.00  0.00    -0.387 OA
ATOM     48  H   UNL     1      -2.382   9.459  27.825  0.00  0.00    +0.210 HD
ENDBRANCH  28  47
ENDBRANCH  25  28
ENDBRANCH   1  25
TORSDOF 18
