REMARK VINA RESULT:    -4.178      2.121      5.723
REMARK INTER + INTRA:         -11.322
REMARK INTER:                  -7.762
REMARK INTRA:                  -3.560
REMARK UNBOUND:                -3.114
REMARK  Name = lig_assembled_10.pdb
REMARK  21 active torsions:
REMARK  status: ('A' for Active; 'I' for Inactive)
REMARK    1  A    between atoms: _2  and  _9
REMARK    2  A    between atoms: _4  and  _20
REMARK    3  A    between atoms: _5  and  _9
REMARK    4  A    between atoms: _5  and  _12
REMARK    5  A    between atoms: _6  and  _7
REMARK    6  A    between atoms: _6  and  _20
REMARK    7  A    between atoms: _9  and  _10
REMARK    8  A    between atoms: _10  and  _11
REMARK    9  A    between atoms: _11  and  _14
REMARK   10  A    between atoms: _16  and  _36
REMARK   11  A    between atoms: _18  and  _24
REMARK   12  A    between atoms: _19  and  _23
REMARK   13  A    between atoms: _23  and  _24
REMARK   14  A    between atoms: _26  and  _27
REMARK   15  A    between atoms: _28  and  _29
REMARK   16  A    between atoms: _30  and  _32
REMARK   17  A    between atoms: _32  and  _33
REMARK   18  A    between atoms: _32  and  _34
REMARK   19  A    between atoms: _34  and  _35
REMARK   20  A    between atoms: _34  and  _36
REMARK   21  A    between atoms: _37  and  _39
REMARK                            x       y       z     vdW  Elec       q    Type
REMARK                         _______ _______ _______ _____ _____    ______ ____
ROOT
ATOM      1  C   UNL     1      -3.691   9.210  29.777  0.00  0.00    +0.163 C 
ENDROOT
BRANCH   1   2
ATOM      2  O   UNL     1      -4.155   9.192  31.137  0.00  0.00    -0.388 OA
ATOM      3  H   UNL     1      -4.598   8.358  31.313  0.00  0.00    +0.210 HD
ENDBRANCH   1   2
BRANCH   1   4
ATOM      4  C   UNL     1      -2.874  10.482  29.492  0.00  0.00    +0.175 C 
BRANCH   4   5
ATOM      5  C   UNL     1      -3.581  11.749  29.996  0.00  0.00    +0.176 C 
ATOM      6  O   UNL     1      -3.385  11.827  31.435  0.00  0.00    -0.332 OA
ATOM      7  C   UNL     1      -3.905  13.036  32.081  0.00  0.00    +0.277 C 
ATOM      8  C   UNL     1      -5.405  13.226  31.746  0.00  0.00    +0.110 C 
ATOM      9  C   UNL     1      -5.667  13.119  30.229  0.00  0.00    +0.143 C 
ATOM     10  C   UNL     1      -5.082  11.826  29.660  0.00  0.00    +0.133 C 
BRANCH  10  11
ATOM     11  N   UNL     1      -5.262  11.777  28.201  0.00  0.00    -0.308 N 
ATOM     12  H   UNL     1      -4.709  12.406  27.636  0.00  0.00    +0.149 HD
ATOM     13  C   UNL     1      -6.109  10.955  27.574  0.00  0.00    +0.210 C 
ATOM     14  C   UNL     1      -6.956  10.027  28.466  0.00  0.00    +0.109 C 
ATOM     15  O   UNL     1      -6.228  10.925  26.349  0.00  0.00    -0.276 OA
ENDBRANCH  10  11
BRANCH   7  16
ATOM     16  C   UNL     1      -3.114  14.281  31.628  0.00  0.00    +0.414 C 
ATOM     17  O   UNL     1      -3.708  15.303  31.286  0.00  0.00    -0.240 OA
ATOM     18  O   UNL     1      -1.882  14.264  31.606  0.00  0.00    -0.240 OA
ENDBRANCH   7  16
BRANCH   7  19
ATOM     19  O   UNL     1      -3.774  12.870  33.516  0.00  0.00    -0.343 OA
ATOM     20  C   UNL     1      -4.089  11.544  34.010  0.00  0.00    +0.198 C 
ENDBRANCH   7  19
BRANCH   9  21
ATOM     21  O   UNL     1      -7.073  13.148  29.980  0.00  0.00    -0.390 OA
ATOM     22  H   UNL     1      -7.334  14.034  29.717  0.00  0.00    +0.210 HD
ENDBRANCH   9  21
ENDBRANCH   4   5
BRANCH   4  23
ATOM     23  O   UNL     1      -2.604  10.593  28.080  0.00  0.00    -0.387 OA
ATOM     24  H   UNL     1      -2.591   9.717  27.687  0.00  0.00    +0.210 HD
ENDBRANCH   4  23
ENDBRANCH   1   4
BRANCH   1  25
ATOM     25  C   UNL     1      -2.832   7.980  29.502  0.00  0.00    +0.141 C 
BRANCH  25  28
ATOM     26  C   UNL     1      -3.192   6.860  27.329  0.00  0.00    +0.401 C 
ATOM     27  O   UNL     1      -4.008   6.050  27.776  0.00  0.00    -0.226 OA
ATOM     28  N   UNL     1      -2.589   7.793  28.066  0.00  0.00    -0.279 N 
ATOM     29  H   UNL     1      -1.926   8.405  27.611  0.00  0.00    +0.152 HD
BRANCH  26  30
ATOM     30  O   UNL     1      -2.854   6.811  25.941  0.00  0.00    -0.444 OA
BRANCH  30  31
ATOM     31  C   UNL     1      -3.942   7.321  25.166  0.00  0.00    +0.292 C 
BRANCH  31  33
ATOM     32  N   UNL     1      -2.670   9.436  25.379  0.00  0.00    -0.131 NA
ATOM     33  C   UNL     1      -3.702   8.734  24.817  0.00  0.00    +0.120 A 
ATOM     34  C   UNL     1      -4.381   9.554  23.944  0.00  0.00    +0.138 A 
ATOM     35  N   UNL     1      -3.692  10.727  23.983  0.00  0.00    -0.237 N 
ATOM     36  N   UNL     1      -2.677  10.658  24.868  0.00  0.00    -0.065 NA
BRANCH  35  37
ATOM     37  C   UNL     1      -3.882  11.969  23.251  0.00  0.00    +0.227 C 
BRANCH  37  38
ATOM     38  C   UNL     1      -3.172  12.026  21.915  0.00  0.00    +0.330 C 
ATOM     39  O   UNL     1      -2.852  11.008  21.312  0.00  0.00    -0.249 OA
BRANCH  38  40
ATOM     40  O   UNL     1      -2.940  13.245  21.386  0.00  0.00    -0.479 OA
ATOM     41  H   UNL     1      -2.162  13.746  21.744  0.00  0.00    +0.295 HD
ENDBRANCH  38  40
ENDBRANCH  37  38
BRANCH  37  42
ATOM     42  C   UNL     1      -3.654  13.236  24.087  0.00  0.00    +0.158 C 
BRANCH  42  43
ATOM     43  C   UNL     1      -4.935  13.976  24.352  0.00  0.00    +0.307 C 
ATOM     44  O   UNL     1      -5.490  14.691  23.527  0.00  0.00    -0.251 OA
BRANCH  43  45
ATOM     45  O   UNL     1      -5.466  13.719  25.562  0.00  0.00    -0.481 OA
ATOM     46  H   UNL     1      -6.390  13.402  25.553  0.00  0.00    +0.295 HD
ENDBRANCH  43  45
ENDBRANCH  42  43
ENDBRANCH  37  42
ENDBRANCH  35  37
ENDBRANCH  31  33
ENDBRANCH  30  31
ENDBRANCH  26  30
ENDBRANCH  25  28
ENDBRANCH   1  25
TORSDOF 19
