REMARK VINA RESULT:    -4.197      6.382     11.213
REMARK INTER + INTRA:         -11.049
REMARK INTER:                  -8.523
REMARK INTRA:                  -2.526
REMARK UNBOUND:                -3.048
REMARK  Name = lig_assembled_50.pdb
REMARK  20 active torsions:
REMARK  status: ('A' for Active; 'I' for Inactive)
REMARK    1  A    between atoms: _2  and  _9
REMARK    2  A    between atoms: _4  and  _17
REMARK    3  A    between atoms: _5  and  _10
REMARK    4  A    between atoms: _5  and  _11
REMARK    5  A    between atoms: _6  and  _7
REMARK    6  A    between atoms: _6  and  _17
REMARK    7  A    between atoms: _9  and  _10
REMARK    8  A    between atoms: _10  and  _12
REMARK    9  A    between atoms: _13  and  _33
REMARK   10  A    between atoms: _15  and  _21
REMARK   11  A    between atoms: _16  and  _20
REMARK   12  A    between atoms: _20  and  _21
REMARK   13  A    between atoms: _23  and  _24
REMARK   14  A    between atoms: _25  and  _26
REMARK   15  A    between atoms: _27  and  _29
REMARK   16  A    between atoms: _29  and  _30
REMARK   17  A    between atoms: _29  and  _31
REMARK   18  A    between atoms: _31  and  _32
REMARK   19  A    between atoms: _31  and  _33
REMARK   20  A    between atoms: _34  and  _36
REMARK                            x       y       z     vdW  Elec       q    Type
REMARK                         _______ _______ _______ _____ _____    ______ ____
ROOT
ATOM      1  C   UNL     1      -6.069  10.797  16.245  0.00  0.00    +0.163 C 
ENDROOT
BRANCH   1   2
ATOM      2  O   UNL     1      -5.270  11.938  15.893  0.00  0.00    -0.388 OA
ATOM      3  H   UNL     1      -5.507  12.235  15.011  0.00  0.00    +0.210 HD
ENDBRANCH   1   2
BRANCH   1   4
ATOM      4  C   UNL     1      -5.274   9.492  16.063  0.00  0.00    +0.175 C 
BRANCH   4   5
ATOM      5  C   UNL     1      -4.209   9.613  14.963  0.00  0.00    +0.176 C 
ATOM      6  O   UNL     1      -4.842  10.198  13.791  0.00  0.00    -0.332 OA
ATOM      7  C   UNL     1      -3.947  10.487  12.666  0.00  0.00    +0.277 C 
ATOM      8  C   UNL     1      -3.162   9.217  12.258  0.00  0.00    +0.110 C 
ATOM      9  C   UNL     1      -2.498   8.542  13.477  0.00  0.00    +0.143 C 
ATOM     10  C   UNL     1      -3.518   8.289  14.587  0.00  0.00    +0.133 C 
BRANCH  10  11
ATOM     11  N   UNL     1      -2.857   7.725  15.775  0.00  0.00    -0.308 N 
ATOM     12  H   UNL     1      -2.182   8.302  16.258  0.00  0.00    +0.149 HD
ATOM     13  C   UNL     1      -3.092   6.502  16.258  0.00  0.00    +0.210 C 
ATOM     14  C   UNL     1      -4.107   5.639  15.485  0.00  0.00    +0.109 C 
ATOM     15  O   UNL     1      -2.534   6.062  17.264  0.00  0.00    -0.276 OA
ENDBRANCH  10  11
BRANCH   7  16
ATOM     16  C   UNL     1      -2.955  11.611  13.032  0.00  0.00    +0.414 C 
ATOM     17  O   UNL     1      -1.837  11.643  12.519  0.00  0.00    -0.240 OA
ATOM     18  O   UNL     1      -3.272  12.485  13.840  0.00  0.00    -0.240 OA
ENDBRANCH   7  16
BRANCH   9  19
ATOM     19  O   UNL     1      -1.915   7.299  13.081  0.00  0.00    -0.390 OA
ATOM     20  H   UNL     1      -1.028   7.453  12.749  0.00  0.00    +0.210 HD
ENDBRANCH   9  19
BRANCH   7  21
ATOM     21  O   UNL     1      -4.762  10.903  11.540  0.00  0.00    -0.343 OA
ATOM     22  C   UNL     1      -6.192  10.763  11.735  0.00  0.00    +0.198 C 
ENDBRANCH   7  21
ENDBRANCH   4   5
BRANCH   4  23
ATOM     23  O   UNL     1      -6.171   8.402  15.769  0.00  0.00    -0.387 OA
ATOM     24  H   UNL     1      -5.938   7.642  16.309  0.00  0.00    +0.210 HD
ENDBRANCH   4  23
ENDBRANCH   1   4
BRANCH   1  25
ATOM     25  C   UNL     1      -6.533  10.912  17.694  0.00  0.00    +0.141 C 
BRANCH  25  28
ATOM     26  C   UNL     1      -4.747  10.779  19.396  0.00  0.00    +0.401 C 
ATOM     27  O   UNL     1      -4.851   9.560  19.546  0.00  0.00    -0.226 OA
ATOM     28  N   UNL     1      -5.497  11.494  18.556  0.00  0.00    -0.279 N 
ATOM     29  H   UNL     1      -5.343  12.491  18.510  0.00  0.00    +0.152 HD
BRANCH  26  30
ATOM     30  O   UNL     1      -3.772  11.492  20.162  0.00  0.00    -0.444 OA
BRANCH  30  31
ATOM     31  C   UNL     1      -4.421  12.193  21.226  0.00  0.00    +0.292 C 
BRANCH  31  33
ATOM     32  N   UNL     1      -3.336  10.561  22.744  0.00  0.00    -0.131 NA
ATOM     33  C   UNL     1      -3.822  11.826  22.525  0.00  0.00    +0.120 A 
ATOM     34  C   UNL     1      -3.630  12.585  23.661  0.00  0.00    +0.137 A 
ATOM     35  N   UNL     1      -3.036  11.726  24.530  0.00  0.00    -0.249 N 
ATOM     36  N   UNL     1      -2.844  10.516  23.973  0.00  0.00    -0.065 NA
BRANCH  35  37
ATOM     37  C   UNL     1      -2.630  11.969  25.896  0.00  0.00    +0.178 C 
BRANCH  37  38
ATOM     38  C   UNL     1      -3.185  10.955  26.903  0.00  0.00    +0.161 C 
BRANCH  38  39
ATOM     39  O   UNL     1      -4.331  10.258  26.408  0.00  0.00    -0.388 OA
ATOM     40  H   UNL     1      -4.180  10.039  25.466  0.00  0.00    +0.210 HD
ENDBRANCH  38  39
BRANCH  38  41
ATOM     41  C   UNL     1      -2.140   9.947  27.399  0.00  0.00    +0.189 C 
BRANCH  41  42
ATOM     42  O   UNL     1      -1.137   9.711  26.412  0.00  0.00    -0.392 OA
ATOM     43  H   UNL     1      -1.038   8.746  26.303  0.00  0.00    +0.210 HD
ENDBRANCH  41  42
ENDBRANCH  38  41
ENDBRANCH  37  38
ENDBRANCH  35  37
ENDBRANCH  31  33
ENDBRANCH  30  31
ENDBRANCH  26  30
ENDBRANCH  25  28
ENDBRANCH   1  25
TORSDOF 18
