REMARK VINA RESULT:    -5.300      1.465      1.797
REMARK INTER + INTRA:         -12.664
REMARK INTER:                  -8.617
REMARK INTRA:                  -4.046
REMARK UNBOUND:                -2.560
REMARK  Name = lig_assembled_18.pdb
REMARK  19 active torsions:
REMARK  status: ('A' for Active; 'I' for Inactive)
REMARK    1  A    between atoms: _2  and  _10
REMARK    2  A    between atoms: _3  and  _12
REMARK    3  A    between atoms: _5  and  _21
REMARK    4  A    between atoms: _7  and  _8
REMARK    5  A    between atoms: _7  and  _21
REMARK    6  A    between atoms: _10  and  _11
REMARK    7  A    between atoms: _12  and  _13
REMARK    8  A    between atoms: _17  and  _37
REMARK    9  A    between atoms: _19  and  _25
REMARK   10  A    between atoms: _20  and  _24
REMARK   11  A    between atoms: _24  and  _25
REMARK   12  A    between atoms: _27  and  _28
REMARK   13  A    between atoms: _29  and  _30
REMARK   14  A    between atoms: _31  and  _33
REMARK   15  A    between atoms: _33  and  _34
REMARK   16  A    between atoms: _33  and  _35
REMARK   17  A    between atoms: _35  and  _36
REMARK   18  A    between atoms: _35  and  _37
REMARK   19  A    between atoms: _38  and  _40
REMARK                            x       y       z     vdW  Elec       q    Type
REMARK                         _______ _______ _______ _____ _____    ______ ____
ROOT
ATOM      1  C   UNL     1      -7.068   8.710  23.756  0.00  0.00    +0.163 C 
ENDROOT
BRANCH   1   2
ATOM      2  O   UNL     1      -6.745   8.955  25.135  0.00  0.00    -0.388 OA
ATOM      3  H   UNL     1      -5.800   9.104  25.221  0.00  0.00    +0.210 HD
ENDBRANCH   1   2
BRANCH   1   4
ATOM      4  C   UNL     1      -6.749   9.941  22.889  0.00  0.00    +0.175 C 
BRANCH   4   5
ATOM      5  C   UNL     1      -5.353  10.509  23.184  0.00  0.00    +0.176 C 
ATOM      6  O   UNL     1      -5.485  11.489  24.250  0.00  0.00    -0.332 OA
ATOM      7  C   UNL     1      -4.229  12.065  24.740  0.00  0.00    +0.277 C 
ATOM      8  C   UNL     1      -3.418  12.671  23.569  0.00  0.00    +0.110 C 
ATOM      9  C   UNL     1      -3.278  11.676  22.398  0.00  0.00    +0.143 C 
ATOM     10  C   UNL     1      -4.643  11.137  21.970  0.00  0.00    +0.133 C 
BRANCH  10  11
ATOM     11  N   UNL     1      -4.490  10.125  20.913  0.00  0.00    -0.308 N 
ATOM     12  H   UNL     1      -4.056   9.247  21.160  0.00  0.00    +0.149 HD
ATOM     13  C   UNL     1      -4.886  10.292  19.648  0.00  0.00    +0.210 C 
ATOM     14  C   UNL     1      -5.520  11.651  19.297  0.00  0.00    +0.109 C 
ATOM     15  O   UNL     1      -4.758   9.421  18.787  0.00  0.00    -0.276 OA
ENDBRANCH  10  11
BRANCH   7  16
ATOM     16  C   UNL     1      -3.379  10.994  25.456  0.00  0.00    +0.414 C 
ATOM     17  O   UNL     1      -3.919  10.013  25.967  0.00  0.00    -0.240 OA
ATOM     18  O   UNL     1      -2.155  11.111  25.524  0.00  0.00    -0.240 OA
ENDBRANCH   7  16
BRANCH   7  19
ATOM     19  O   UNL     1      -4.556  13.130  25.669  0.00  0.00    -0.343 OA
ATOM     20  C   UNL     1      -5.702  13.937  25.297  0.00  0.00    +0.198 C 
ENDBRANCH   7  19
BRANCH   9  21
ATOM     21  O   UNL     1      -2.658  12.324  21.286  0.00  0.00    -0.390 OA
ATOM     22  H   UNL     1      -1.930  11.786  20.967  0.00  0.00    +0.210 HD
ENDBRANCH   9  21
ENDBRANCH   4   5
BRANCH   4  23
ATOM     23  O   UNL     1      -7.751  10.959  23.084  0.00  0.00    -0.387 OA
ATOM     24  H   UNL     1      -7.322  11.801  23.255  0.00  0.00    +0.210 HD
ENDBRANCH   4  23
ENDBRANCH   1   4
BRANCH   1  25
ATOM     25  C   UNL     1      -6.284   7.508  23.242  0.00  0.00    +0.141 C 
BRANCH  25  28
ATOM     26  C   UNL     1      -3.933   6.808  23.538  0.00  0.00    +0.401 C 
ATOM     27  O   UNL     1      -3.759   6.554  22.344  0.00  0.00    -0.226 OA
ATOM     28  N   UNL     1      -5.083   7.253  24.047  0.00  0.00    -0.279 N 
ATOM     29  H   UNL     1      -5.130   7.424  25.041  0.00  0.00    +0.152 HD
BRANCH  26  30
ATOM     30  O   UNL     1      -2.850   6.619  24.453  0.00  0.00    -0.444 OA
BRANCH  30  31
ATOM     31  C   UNL     1      -3.353   6.099  25.687  0.00  0.00    +0.292 C 
BRANCH  31  33
ATOM     32  N   UNL     1      -1.746   7.685  26.712  0.00  0.00    -0.131 NA
ATOM     33  C   UNL     1      -2.872   6.912  26.821  0.00  0.00    +0.120 A 
ATOM     34  C   UNL     1      -3.392   7.052  28.086  0.00  0.00    +0.137 A 
ATOM     35  N   UNL     1      -2.557   7.944  28.692  0.00  0.00    -0.242 N 
ATOM     36  N   UNL     1      -1.555   8.305  27.869  0.00  0.00    -0.065 NA
BRANCH  35  37
ATOM     37  C   UNL     1      -2.567   8.404  30.060  0.00  0.00    +0.240 C 
BRANCH  37  38
ATOM     38  C   UNL     1      -2.843   9.886  30.164  0.00  0.00    +0.235 C 
ATOM     39  O   UNL     1      -2.630  10.520  31.195  0.00  0.00    -0.274 OA
ATOM     40  N   UNL     1      -3.293  10.482  29.003  0.00  0.00    -0.309 N 
ATOM     41  H   UNL     1      -3.613   9.915  28.231  0.00  0.00    +0.149 HD
BRANCH  40  42
ATOM     42  C   UNL     1      -3.585  11.900  28.946  0.00  0.00    +0.146 C 
BRANCH  42  43
ATOM     43  C   UNL     1      -5.023  12.131  29.280  0.00  0.00    +0.007 A 
ATOM     44  S   UNL     1      -6.265  11.397  28.356  0.00  0.00    -0.100 S 
ATOM     45  C   UNL     1      -7.489  12.162  29.272  0.00  0.00    +0.045 A 
ATOM     46  C   UNL     1      -6.969  12.951  30.275  0.00  0.00    +0.008 A 
ATOM     47  C   UNL     1      -5.545  12.925  30.284  0.00  0.00    +0.013 A 
ENDBRANCH  42  43
ENDBRANCH  40  42
ENDBRANCH  37  38
ENDBRANCH  35  37
ENDBRANCH  31  33
ENDBRANCH  30  31
ENDBRANCH  26  30
ENDBRANCH  25  28
ENDBRANCH   1  25
TORSDOF 17
