REMARK VINA RESULT:    -5.766      0.000      0.000
REMARK INTER + INTRA:         -12.764
REMARK INTER:                 -10.588
REMARK INTRA:                  -2.175
REMARK UNBOUND:                -2.447
REMARK  Name = lig_assembled_85.pdb
REMARK  19 active torsions:
REMARK  status: ('A' for Active; 'I' for Inactive)
REMARK    1  A    between atoms: _2  and  _10
REMARK    2  A    between atoms: _3  and  _6
REMARK    3  A    between atoms: _3  and  _17
REMARK    4  A    between atoms: _5  and  _23
REMARK    5  A    between atoms: _7  and  _8
REMARK    6  A    between atoms: _7  and  _23
REMARK    7  A    between atoms: _15  and  _16
REMARK    8  A    between atoms: _19  and  _39
REMARK    9  A    between atoms: _21  and  _27
REMARK   10  A    between atoms: _22  and  _26
REMARK   11  A    between atoms: _26  and  _27
REMARK   12  A    between atoms: _29  and  _30
REMARK   13  A    between atoms: _31  and  _32
REMARK   14  A    between atoms: _33  and  _35
REMARK   15  A    between atoms: _35  and  _36
REMARK   16  A    between atoms: _35  and  _37
REMARK   17  A    between atoms: _37  and  _38
REMARK   18  A    between atoms: _37  and  _39
REMARK   19  A    between atoms: _40  and  _42
REMARK                            x       y       z     vdW  Elec       q    Type
REMARK                         _______ _______ _______ _____ _____    ______ ____
ROOT
ATOM      1  C   UNL     1      -4.161  12.559  21.050  0.00  0.00    +0.141 C 
ENDROOT
BRANCH   1   4
ATOM      2  C   UNL     1      -6.075  12.418  19.494  0.00  0.00    +0.401 C 
ATOM      3  O   UNL     1      -6.809  13.131  20.183  0.00  0.00    -0.226 OA
ATOM      4  N   UNL     1      -4.825  12.094  19.826  0.00  0.00    -0.279 N 
ATOM      5  H   UNL     1      -4.305  11.495  19.201  0.00  0.00    +0.152 HD
BRANCH   2   6
ATOM      6  O   UNL     1      -6.575  11.891  18.262  0.00  0.00    -0.444 OA
BRANCH   6   7
ATOM      7  C   UNL     1      -5.527  11.200  17.577  0.00  0.00    +0.292 C 
BRANCH   7   9
ATOM      8  N   UNL     1      -6.120  12.663  15.679  0.00  0.00    -0.131 NA
ATOM      9  C   UNL     1      -5.191  11.898  16.324  0.00  0.00    +0.121 A 
ATOM     10  C   UNL     1      -3.993  11.970  15.650  0.00  0.00    +0.143 A 
ATOM     11  N   UNL     1      -4.242  12.804  14.588  0.00  0.00    -0.219 N 
ATOM     12  N   UNL     1      -5.526  13.232  14.639  0.00  0.00    -0.060 NA
BRANCH  11  13
ATOM     13  C   UNL     1      -3.358  13.295  13.602  0.00  0.00    +0.080 A 
ATOM     14  C   UNL     1      -2.636  12.481  12.715  0.00  0.00    +0.062 A 
ATOM     15  C   UNL     1      -1.607  13.088  11.957  0.00  0.00    +0.016 A 
ATOM     16  C   UNL     1      -1.322  14.454  12.056  0.00  0.00    +0.021 A 
ATOM     17  C   UNL     1      -2.095  15.253  12.884  0.00  0.00    +0.043 A 
ATOM     18 CL   UNL     1      -1.737  16.927  13.046  0.00  0.00    -0.083 Cl
ATOM     19  C   UNL     1      -3.124  14.689  13.633  0.00  0.00    +0.048 A 
BRANCH  14  20
ATOM     20  C   UNL     1      -2.747  11.007  12.503  0.00  0.00    +0.248 C 
ATOM     21  O   UNL     1      -1.827  10.341  12.984  0.00  0.00    -0.270 OA
ATOM     22  N   UNL     1      -3.767  10.400  11.762  0.00  0.00    -0.304 N 
ATOM     23  C   UNL     1      -4.981  11.014  11.242  0.00  0.00    +0.132 C 
ATOM     24  C   UNL     1      -3.709   8.946  11.651  0.00  0.00    +0.132 C 
ENDBRANCH  14  20
ENDBRANCH  11  13
ENDBRANCH   7   9
ENDBRANCH   6   7
ENDBRANCH   2   6
ENDBRANCH   1   4
BRANCH   1  25
ATOM     25  C   UNL     1      -3.987  11.434  22.065  0.00  0.00    +0.163 C 
BRANCH  25  26
ATOM     26  O   UNL     1      -3.605  10.222  21.395  0.00  0.00    -0.388 OA
ATOM     27  H   UNL     1      -3.015   9.716  21.959  0.00  0.00    +0.210 HD
ENDBRANCH  25  26
BRANCH  25  28
ATOM     28  C   UNL     1      -2.931  11.842  23.108  0.00  0.00    +0.175 C 
BRANCH  28  29
ATOM     29  C   UNL     1      -3.272  11.317  24.511  0.00  0.00    +0.176 C 
ATOM     30  O   UNL     1      -3.097   9.873  24.502  0.00  0.00    -0.332 OA
ATOM     31  C   UNL     1      -3.277   9.205  25.795  0.00  0.00    +0.277 C 
ATOM     32  C   UNL     1      -4.657   9.562  26.400  0.00  0.00    +0.110 C 
ATOM     33  C   UNL     1      -4.901  11.086  26.402  0.00  0.00    +0.143 C 
ATOM     34  C   UNL     1      -4.684  11.678  25.009  0.00  0.00    +0.133 C 
BRANCH  34  35
ATOM     35  N   UNL     1      -4.835  13.141  25.041  0.00  0.00    -0.308 N 
ATOM     36  H   UNL     1      -4.137  13.676  25.538  0.00  0.00    +0.149 HD
ATOM     37  C   UNL     1      -5.833  13.808  24.456  0.00  0.00    +0.210 C 
ATOM     38  C   UNL     1      -6.895  12.961  23.728  0.00  0.00    +0.109 C 
ATOM     39  O   UNL     1      -5.926  15.035  24.487  0.00  0.00    -0.276 OA
ENDBRANCH  34  35
BRANCH  31  40
ATOM     40  C   UNL     1      -2.161   9.611  26.780  0.00  0.00    +0.414 C 
ATOM     41  O   UNL     1      -2.407   9.733  27.979  0.00  0.00    -0.240 OA
ATOM     42  O   UNL     1      -1.016   9.814  26.376  0.00  0.00    -0.240 OA
ENDBRANCH  31  40
BRANCH  33  43
ATOM     43  O   UNL     1      -6.238  11.359  26.825  0.00  0.00    -0.390 OA
ATOM     44  H   UNL     1      -6.621  10.566  27.208  0.00  0.00    +0.210 HD
ENDBRANCH  33  43
BRANCH  31  45
ATOM     45  O   UNL     1      -3.233   7.773  25.569  0.00  0.00    -0.343 OA
ATOM     46  C   UNL     1      -3.924   6.975  26.564  0.00  0.00    +0.198 C 
ENDBRANCH  31  45
ENDBRANCH  28  29
BRANCH  28  47
ATOM     47  O   UNL     1      -2.789  13.276  23.136  0.00  0.00    -0.387 OA
ATOM     48  H   UNL     1      -1.980  13.527  22.684  0.00  0.00    +0.210 HD
ENDBRANCH  28  47
ENDBRANCH  25  28
ENDBRANCH   1  25
TORSDOF 15
