REMARK VINA RESULT:    -4.509      2.885      9.722
REMARK INTER + INTRA:         -10.298
REMARK INTER:                  -7.472
REMARK INTRA:                  -2.826
REMARK UNBOUND:                -2.494
REMARK  Name = lig_assembled_56.pdb
REMARK  16 active torsions:
REMARK  status: ('A' for Active; 'I' for Inactive)
REMARK    1  A    between atoms: _2  and  _10
REMARK    2  A    between atoms: _5  and  _18
REMARK    3  A    between atoms: _7  and  _8
REMARK    4  A    between atoms: _7  and  _18
REMARK    5  A    between atoms: _14  and  _34
REMARK    6  A    between atoms: _16  and  _22
REMARK    7  A    between atoms: _17  and  _21
REMARK    8  A    between atoms: _21  and  _22
REMARK    9  A    between atoms: _24  and  _25
REMARK   10  A    between atoms: _26  and  _27
REMARK   11  A    between atoms: _28  and  _30
REMARK   12  A    between atoms: _30  and  _31
REMARK   13  A    between atoms: _30  and  _32
REMARK   14  A    between atoms: _32  and  _33
REMARK   15  A    between atoms: _32  and  _34
REMARK   16  A    between atoms: _35  and  _37
REMARK                            x       y       z     vdW  Elec       q    Type
REMARK                         _______ _______ _______ _____ _____    ______ ____
ROOT
ATOM      1  C   UNL     1      -4.844   8.280  22.466  0.00  0.00    +0.163 C 
ENDROOT
BRANCH   1   2
ATOM      2  O   UNL     1      -5.003   7.523  21.255  0.00  0.00    -0.388 OA
ATOM      3  H   UNL     1      -4.451   6.738  21.293  0.00  0.00    +0.210 HD
ENDBRANCH   1   2
BRANCH   1   4
ATOM      4  C   UNL     1      -5.235   7.429  23.669  0.00  0.00    +0.141 C 
BRANCH   4   7
ATOM      5  C   UNL     1      -5.064   8.164  26.022  0.00  0.00    +0.401 C 
ATOM      6  O   UNL     1      -6.285   8.224  26.190  0.00  0.00    -0.226 OA
ATOM      7  N   UNL     1      -4.487   7.808  24.874  0.00  0.00    -0.279 N 
ATOM      8  H   UNL     1      -3.477   7.798  24.831  0.00  0.00    +0.152 HD
BRANCH   5   9
ATOM      9  O   UNL     1      -4.196   8.497  27.108  0.00  0.00    -0.444 OA
BRANCH   9  10
ATOM     10  C   UNL     1      -4.886   8.306  28.347  0.00  0.00    +0.292 C 
BRANCH  10  12
ATOM     11  N   UNL     1      -5.971  10.067  29.704  0.00  0.00    -0.131 NA
ATOM     12  C   UNL     1      -4.839   9.538  29.155  0.00  0.00    +0.121 A 
ATOM     13  C   UNL     1      -3.764  10.328  29.495  0.00  0.00    +0.143 A 
ATOM     14  N   UNL     1      -4.292  11.330  30.277  0.00  0.00    -0.220 N 
ATOM     15  N   UNL     1      -5.633  11.156  30.381  0.00  0.00    -0.060 NA
BRANCH  14  16
ATOM     16  C   UNL     1      -3.624  12.400  30.920  0.00  0.00    +0.070 A 
ATOM     17  C   UNL     1      -3.920  13.728  30.602  0.00  0.00    +0.047 A 
ATOM     18  C   UNL     1      -3.217  14.726  31.258  0.00  0.00    +0.113 A 
ATOM     19  N   UNL     1      -2.266  14.491  32.186  0.00  0.00    -0.263 NA
ATOM     20  C   UNL     1      -2.002  13.199  32.477  0.00  0.00    +0.113 A 
ATOM     21  C   UNL     1      -2.646  12.129  31.881  0.00  0.00    +0.047 A 
ENDBRANCH  14  16
ENDBRANCH  10  12
ENDBRANCH   9  10
ENDBRANCH   5   9
ENDBRANCH   4   7
ENDBRANCH   1   4
BRANCH   1  22
ATOM     22  C   UNL     1      -5.707   9.553  22.435  0.00  0.00    +0.175 C 
BRANCH  22  23
ATOM     23  C   UNL     1      -4.930  10.790  22.909  0.00  0.00    +0.176 C 
ATOM     24  O   UNL     1      -5.107  10.906  24.348  0.00  0.00    -0.332 OA
ATOM     25  C   UNL     1      -4.345  11.977  24.996  0.00  0.00    +0.277 C 
ATOM     26  C   UNL     1      -4.643  13.338  24.322  0.00  0.00    +0.110 C 
ATOM     27  C   UNL     1      -4.499  13.257  22.787  0.00  0.00    +0.143 C 
ATOM     28  C   UNL     1      -5.330  12.107  22.218  0.00  0.00    +0.133 C 
BRANCH  28  29
ATOM     29  N   UNL     1      -5.117  11.985  20.767  0.00  0.00    -0.308 N 
ATOM     30  H   UNL     1      -4.207  11.682  20.448  0.00  0.00    +0.149 HD
ATOM     31  C   UNL     1      -6.046  12.250  19.845  0.00  0.00    +0.210 C 
ATOM     32  C   UNL     1      -7.413  12.735  20.362  0.00  0.00    +0.109 C 
ATOM     33  O   UNL     1      -5.843  12.125  18.636  0.00  0.00    -0.276 OA
ENDBRANCH  28  29
BRANCH  25  34
ATOM     34  C   UNL     1      -2.831  11.689  24.929  0.00  0.00    +0.414 C 
ATOM     35  O   UNL     1      -2.421  10.529  24.895  0.00  0.00    -0.240 OA
ATOM     36  O   UNL     1      -2.020  12.615  24.909  0.00  0.00    -0.240 OA
ENDBRANCH  25  34
BRANCH  27  37
ATOM     37  O   UNL     1      -4.928  14.485  22.198  0.00  0.00    -0.390 OA
ATOM     38  H   UNL     1      -5.887  14.527  22.206  0.00  0.00    +0.210 HD
ENDBRANCH  27  37
BRANCH  25  39
ATOM     39  O   UNL     1      -4.767  12.051  26.383  0.00  0.00    -0.343 OA
ATOM     40  C   UNL     1      -6.196  11.928  26.596  0.00  0.00    +0.198 C 
ENDBRANCH  25  39
ENDBRANCH  22  23
BRANCH  22  41
ATOM     41  O   UNL     1      -6.889   9.371  23.240  0.00  0.00    -0.387 OA
ATOM     42  H   UNL     1      -7.538   8.864  22.746  0.00  0.00    +0.210 HD
ENDBRANCH  22  41
ENDBRANCH   1  22
TORSDOF 14
