REMARK VINA RESULT:    -3.923      2.837      5.448
REMARK INTER + INTRA:         -10.067
REMARK INTER:                  -6.843
REMARK INTRA:                  -3.224
REMARK UNBOUND:                -2.934
REMARK  Name = lig_assembled_72.pdb
REMARK  20 active torsions:
REMARK  status: ('A' for Active; 'I' for Inactive)
REMARK    1  A    between atoms: _2  and  _9
REMARK    2  A    between atoms: _4  and  _17
REMARK    3  A    between atoms: _5  and  _9
REMARK    4  A    between atoms: _5  and  _12
REMARK    5  A    between atoms: _6  and  _7
REMARK    6  A    between atoms: _6  and  _17
REMARK    7  A    between atoms: _9  and  _10
REMARK    8  A    between atoms: _9  and  _11
REMARK    9  A    between atoms: _13  and  _33
REMARK   10  A    between atoms: _15  and  _21
REMARK   11  A    between atoms: _16  and  _20
REMARK   12  A    between atoms: _20  and  _21
REMARK   13  A    between atoms: _23  and  _24
REMARK   14  A    between atoms: _25  and  _26
REMARK   15  A    between atoms: _27  and  _29
REMARK   16  A    between atoms: _29  and  _30
REMARK   17  A    between atoms: _29  and  _31
REMARK   18  A    between atoms: _31  and  _32
REMARK   19  A    between atoms: _31  and  _33
REMARK   20  A    between atoms: _34  and  _36
REMARK                            x       y       z     vdW  Elec       q    Type
REMARK                         _______ _______ _______ _____ _____    ______ ____
ROOT
ATOM      1  C   UNL     1      -2.822  11.740  24.708  0.00  0.00    +0.163 C 
ENDROOT
BRANCH   1   2
ATOM      2  O   UNL     1      -2.941  11.545  26.127  0.00  0.00    -0.388 OA
ATOM      3  H   UNL     1      -2.362  12.160  26.584  0.00  0.00    +0.210 HD
ENDBRANCH   1   2
BRANCH   1   4
ATOM      4  C   UNL     1      -3.801  10.831  23.944  0.00  0.00    +0.175 C 
BRANCH   4   5
ATOM      5  C   UNL     1      -4.182   9.583  24.753  0.00  0.00    +0.176 C 
ATOM      6  O   UNL     1      -2.957   8.989  25.263  0.00  0.00    -0.332 OA
ATOM      7  C   UNL     1      -3.132   7.838  26.154  0.00  0.00    +0.277 C 
ATOM      8  C   UNL     1      -3.995   6.750  25.468  0.00  0.00    +0.110 C 
ATOM      9  C   UNL     1      -5.295   7.340  24.882  0.00  0.00    +0.143 C 
ATOM     10  C   UNL     1      -4.995   8.533  23.974  0.00  0.00    +0.133 C 
BRANCH  10  11
ATOM     11  N   UNL     1      -6.246   9.139  23.491  0.00  0.00    -0.308 N 
ATOM     12  H   UNL     1      -6.869   9.544  24.175  0.00  0.00    +0.149 HD
ATOM     13  C   UNL     1      -6.611   9.191  22.207  0.00  0.00    +0.210 C 
ATOM     14  C   UNL     1      -5.652   8.543  21.191  0.00  0.00    +0.109 C 
ATOM     15  O   UNL     1      -7.658   9.718  21.830  0.00  0.00    -0.276 OA
ENDBRANCH  10  11
BRANCH   7  16
ATOM     16  C   UNL     1      -3.800   8.267  27.477  0.00  0.00    +0.414 C 
ATOM     17  O   UNL     1      -3.474   9.321  28.023  0.00  0.00    -0.240 OA
ATOM     18  O   UNL     1      -4.664   7.561  27.998  0.00  0.00    -0.240 OA
ENDBRANCH   7  16
BRANCH   9  19
ATOM     19  O   UNL     1      -5.982   6.338  24.131  0.00  0.00    -0.390 OA
ATOM     20  H   UNL     1      -5.366   5.647  23.879  0.00  0.00    +0.210 HD
ENDBRANCH   9  19
BRANCH   7  21
ATOM     21  O   UNL     1      -1.822   7.278  26.428  0.00  0.00    -0.343 OA
ATOM     22  C   UNL     1      -1.819   5.873  26.785  0.00  0.00    +0.198 C 
ENDBRANCH   7  21
ENDBRANCH   4   5
BRANCH   4  23
ATOM     23  O   UNL     1      -3.236  10.448  22.675  0.00  0.00    -0.387 OA
ATOM     24  H   UNL     1      -3.011   9.514  22.694  0.00  0.00    +0.210 HD
ENDBRANCH   4  23
ENDBRANCH   1   4
BRANCH   1  25
ATOM     25  C   UNL     1      -3.099  13.197  24.356  0.00  0.00    +0.141 C 
BRANCH  25  28
ATOM     26  C   UNL     1      -4.525  14.329  22.685  0.00  0.00    +0.401 C 
ATOM     27  O   UNL     1      -3.707  15.223  22.454  0.00  0.00    -0.226 OA
ATOM     28  N   UNL     1      -4.326  13.345  23.563  0.00  0.00    -0.279 N 
ATOM     29  H   UNL     1      -5.060  12.664  23.690  0.00  0.00    +0.152 HD
BRANCH  26  30
ATOM     30  O   UNL     1      -5.770  14.330  21.983  0.00  0.00    -0.444 OA
BRANCH  30  31
ATOM     31  C   UNL     1      -6.261  12.990  21.880  0.00  0.00    +0.292 C 
BRANCH  31  33
ATOM     32  N   UNL     1      -4.468  11.958  20.526  0.00  0.00    -0.131 NA
ATOM     33  C   UNL     1      -5.771  12.358  20.643  0.00  0.00    +0.120 A 
ATOM     34  C   UNL     1      -6.437  12.065  19.472  0.00  0.00    +0.137 A 
ATOM     35  N   UNL     1      -5.485  11.485  18.679  0.00  0.00    -0.244 N 
ATOM     36  N   UNL     1      -4.303  11.428  19.324  0.00  0.00    -0.065 NA
BRANCH  35  37
ATOM     37  C   UNL     1      -5.634  10.965  17.311  0.00  0.00    +0.083 C 
ATOM     38  C   UNL     1      -5.527   9.429  17.339  0.00  0.00    +0.038 C 
ATOM     39  C   UNL     1      -4.520  11.541  16.415  0.00  0.00    +0.038 C 
BRANCH  37  40
ATOM     40  C   UNL     1      -7.016  11.333  16.706  0.00  0.00    +0.185 C 
BRANCH  40  41
ATOM     41  O   UNL     1      -7.046  12.653  16.164  0.00  0.00    -0.393 OA
ATOM     42  H   UNL     1      -7.395  12.562  15.251  0.00  0.00    +0.209 HD
ENDBRANCH  40  41
ENDBRANCH  37  40
ENDBRANCH  35  37
ENDBRANCH  31  33
ENDBRANCH  30  31
ENDBRANCH  26  30
ENDBRANCH  25  28
ENDBRANCH   1  25
TORSDOF 16
