REMARK VINA RESULT:    -4.541      0.000      0.000
REMARK INTER + INTRA:         -11.978
REMARK INTER:                  -8.187
REMARK INTRA:                  -3.791
REMARK UNBOUND:                -3.721
REMARK  Name = lig_assembled_35.pdb
REMARK  19 active torsions:
REMARK  status: ('A' for Active; 'I' for Inactive)
REMARK    1  A    between atoms: _2  and  _9
REMARK    2  A    between atoms: _4  and  _17
REMARK    3  A    between atoms: _5  and  _9
REMARK    4  A    between atoms: _5  and  _11
REMARK    5  A    between atoms: _6  and  _7
REMARK    6  A    between atoms: _6  and  _17
REMARK    7  A    between atoms: _9  and  _10
REMARK    8  A    between atoms: _13  and  _33
REMARK    9  A    between atoms: _15  and  _21
REMARK   10  A    between atoms: _16  and  _20
REMARK   11  A    between atoms: _20  and  _21
REMARK   12  A    between atoms: _23  and  _24
REMARK   13  A    between atoms: _25  and  _26
REMARK   14  A    between atoms: _27  and  _29
REMARK   15  A    between atoms: _29  and  _30
REMARK   16  A    between atoms: _29  and  _31
REMARK   17  A    between atoms: _31  and  _32
REMARK   18  A    between atoms: _31  and  _33
REMARK   19  A    between atoms: _34  and  _36
REMARK                            x       y       z     vdW  Elec       q    Type
REMARK                         _______ _______ _______ _____ _____    ______ ____
ROOT
ATOM      1  C   UNL     1      -4.537  11.831  25.651  0.00  0.00    +0.163 C 
ENDROOT
BRANCH   1   2
ATOM      2  O   UNL     1      -3.514  10.895  25.273  0.00  0.00    -0.388 OA
ATOM      3  H   UNL     1      -3.900  10.195  24.741  0.00  0.00    +0.210 HD
ENDBRANCH   1   2
BRANCH   1   4
ATOM      4  C   UNL     1      -4.442  12.175  27.147  0.00  0.00    +0.175 C 
BRANCH   4   5
ATOM      5  C   UNL     1      -3.720  11.080  27.947  0.00  0.00    +0.176 C 
ATOM      6  O   UNL     1      -4.298   9.799  27.574  0.00  0.00    -0.332 OA
ATOM      7  C   UNL     1      -3.657   8.619  28.164  0.00  0.00    +0.277 C 
ATOM      8  C   UNL     1      -3.611   8.743  29.706  0.00  0.00    +0.110 C 
ATOM      9  C   UNL     1      -3.033  10.103  30.151  0.00  0.00    +0.143 C 
ATOM     10  C   UNL     1      -3.771  11.260  29.476  0.00  0.00    +0.133 C 
BRANCH  10  11
ATOM     11  N   UNL     1      -3.155  12.546  29.840  0.00  0.00    -0.308 N 
ATOM     12  H   UNL     1      -2.212  12.724  29.525  0.00  0.00    +0.149 HD
ATOM     13  C   UNL     1      -3.762  13.493  30.560  0.00  0.00    +0.210 C 
ATOM     14  C   UNL     1      -5.189  13.181  31.048  0.00  0.00    +0.109 C 
ATOM     15  O   UNL     1      -3.227  14.567  30.838  0.00  0.00    -0.276 OA
ENDBRANCH  10  11
BRANCH   7  16
ATOM     16  C   UNL     1      -2.225   8.444  27.617  0.00  0.00    +0.414 C 
ATOM     17  O   UNL     1      -1.320   8.067  28.360  0.00  0.00    -0.240 OA
ATOM     18  O   UNL     1      -1.975   8.678  26.434  0.00  0.00    -0.240 OA
ENDBRANCH   7  16
BRANCH   7  19
ATOM     19  O   UNL     1      -4.456   7.457  27.822  0.00  0.00    -0.343 OA
ATOM     20  C   UNL     1      -5.695   7.326  28.564  0.00  0.00    +0.198 C 
ENDBRANCH   7  19
BRANCH   9  21
ATOM     21  O   UNL     1      -3.149  10.235  31.569  0.00  0.00    -0.390 OA
ATOM     22  H   UNL     1      -2.614   9.563  31.998  0.00  0.00    +0.210 HD
ENDBRANCH   9  21
ENDBRANCH   4   5
BRANCH   4  23
ATOM     23  O   UNL     1      -5.759  12.399  27.690  0.00  0.00    -0.387 OA
ATOM     24  H   UNL     1      -6.325  11.654  27.475  0.00  0.00    +0.210 HD
ENDBRANCH   4  23
ENDBRANCH   1   4
BRANCH   1  25
ATOM     25  C   UNL     1      -4.408  13.107  24.826  0.00  0.00    +0.141 C 
BRANCH  25  28
ATOM     26  C   UNL     1      -4.092  13.296  22.382  0.00  0.00    +0.401 C 
ATOM     27  O   UNL     1      -5.148  13.905  22.198  0.00  0.00    -0.226 OA
ATOM     28  N   UNL     1      -3.670  12.879  23.577  0.00  0.00    -0.279 N 
ATOM     29  H   UNL     1      -2.794  12.378  23.625  0.00  0.00    +0.152 HD
BRANCH  26  30
ATOM     30  O   UNL     1      -3.255  13.004  21.261  0.00  0.00    -0.444 OA
BRANCH  30  31
ATOM     31  C   UNL     1      -3.854  11.971  20.474  0.00  0.00    +0.292 C 
BRANCH  31  33
ATOM     32  N   UNL     1      -2.961  10.192  21.944  0.00  0.00    -0.131 NA
ATOM     33  C   UNL     1      -4.022  10.746  21.279  0.00  0.00    +0.120 A 
ATOM     34  C   UNL     1      -5.144   9.980  21.505  0.00  0.00    +0.138 A 
ATOM     35  N   UNL     1      -4.704   8.985  22.329  0.00  0.00    -0.238 N 
ATOM     36  N   UNL     1      -3.387   9.105  22.572  0.00  0.00    -0.065 NA
BRANCH  35  37
ATOM     37  C   UNL     1      -5.431   7.872  22.907  0.00  0.00    +0.214 C 
ATOM     38  C   UNL     1      -4.856   6.540  22.435  0.00  0.00    +0.045 C 
BRANCH  37  39
ATOM     39  C   UNL     1      -5.484   7.969  24.418  0.00  0.00    +0.329 C 
ATOM     40  O   UNL     1      -6.517   8.011  25.073  0.00  0.00    -0.249 OA
BRANCH  39  41
ATOM     41  O   UNL     1      -4.269   8.036  25.017  0.00  0.00    -0.479 OA
ATOM     42  H   UNL     1      -3.707   8.794  24.756  0.00  0.00    +0.295 HD
ENDBRANCH  39  41
ENDBRANCH  37  39
ENDBRANCH  35  37
ENDBRANCH  31  33
ENDBRANCH  30  31
ENDBRANCH  26  30
ENDBRANCH  25  28
ENDBRANCH   1  25
TORSDOF 16
