REMARK VINA RESULT:    -4.261      2.179      4.249
REMARK INTER + INTRA:         -11.289
REMARK INTER:                  -8.821
REMARK INTRA:                  -2.468
REMARK UNBOUND:                -3.914
REMARK  Name = lig_assembled_20.pdb
REMARK  16 active torsions:
REMARK  status: ('A' for Active; 'I' for Inactive)
REMARK    1  A    between atoms: _2  and  _11
REMARK    2  A    between atoms: _6  and  _21
REMARK    3  A    between atoms: _8  and  _9
REMARK    4  A    between atoms: _8  and  _21
REMARK    5  A    between atoms: _17  and  _37
REMARK    6  A    between atoms: _19  and  _25
REMARK    7  A    between atoms: _20  and  _24
REMARK    8  A    between atoms: _24  and  _25
REMARK    9  A    between atoms: _27  and  _28
REMARK   10  A    between atoms: _29  and  _30
REMARK   11  A    between atoms: _31  and  _33
REMARK   12  A    between atoms: _33  and  _34
REMARK   13  A    between atoms: _33  and  _35
REMARK   14  A    between atoms: _35  and  _36
REMARK   15  A    between atoms: _35  and  _37
REMARK   16  A    between atoms: _38  and  _40
REMARK                            x       y       z     vdW  Elec       q    Type
REMARK                         _______ _______ _______ _____ _____    ______ ____
ROOT
ATOM      1  C   UNL     1      -4.093   8.243  24.400  0.00  0.00    +0.163 C 
ENDROOT
BRANCH   1   2
ATOM      2  O   UNL     1      -3.795   7.730  23.091  0.00  0.00    -0.388 OA
ATOM      3  H   UNL     1      -3.802   8.451  22.456  0.00  0.00    +0.210 HD
ENDBRANCH   1   2
BRANCH   1   4
ATOM      4  C   UNL     1      -4.397   7.092  25.354  0.00  0.00    +0.141 C 
BRANCH   4   7
ATOM      5  C   UNL     1      -2.332   6.842  26.686  0.00  0.00    +0.401 C 
ATOM      6  O   UNL     1      -1.668   6.396  25.747  0.00  0.00    -0.226 OA
ATOM      7  N   UNL     1      -3.616   7.187  26.593  0.00  0.00    -0.279 N 
ATOM      8  H   UNL     1      -4.078   7.533  27.422  0.00  0.00    +0.152 HD
BRANCH   5   9
ATOM      9  O   UNL     1      -1.708   7.002  27.963  0.00  0.00    -0.444 OA
BRANCH   9  10
ATOM     10  C   UNL     1      -2.484   6.333  28.961  0.00  0.00    +0.292 C 
BRANCH  10  12
ATOM     11  N   UNL     1      -2.985   6.730  31.357  0.00  0.00    -0.131 NA
ATOM     12  C   UNL     1      -2.725   7.224  30.112  0.00  0.00    +0.121 A 
ATOM     13  C   UNL     1      -2.737   8.597  30.163  0.00  0.00    +0.143 A 
ATOM     14  N   UNL     1      -3.011   8.906  31.475  0.00  0.00    -0.220 N 
ATOM     15  N   UNL     1      -3.158   7.757  32.181  0.00  0.00    -0.060 NA
BRANCH  14  16
ATOM     16  C   UNL     1      -3.134  10.187  32.073  0.00  0.00    +0.068 A 
ATOM     17  C   UNL     1      -3.742  10.315  33.333  0.00  0.00    +0.030 A 
ATOM     18  C   UNL     1      -3.876  11.565  33.954  0.00  0.00    +0.030 A 
ATOM     19  C   UNL     1      -3.379  12.676  33.266  0.00  0.00    +0.066 A 
ATOM     20  C   UNL     1      -2.775  12.583  32.019  0.00  0.00    +0.021 A 
ATOM     21  C   UNL     1      -2.428  13.911  31.690  0.00  0.00    +0.142 A 
ATOM     22  N   UNL     1      -2.774  14.783  32.640  0.00  0.00    -0.181 NA
ATOM     23  N   UNL     1      -3.344  14.010  33.581  0.00  0.00    -0.277 N 
ATOM     24  H   UNL     1      -3.697  14.454  34.420  0.00  0.00    +0.189 HD
ATOM     25  C   UNL     1      -2.646  11.325  31.404  0.00  0.00    +0.039 A 
ENDBRANCH  14  16
ENDBRANCH  10  12
ENDBRANCH   9  10
ENDBRANCH   5   9
ENDBRANCH   4   7
ENDBRANCH   1   4
BRANCH   1  26
ATOM     26  C   UNL     1      -5.294   9.203  24.355  0.00  0.00    +0.175 C 
BRANCH  26  27
ATOM     27  C   UNL     1      -4.920  10.567  23.756  0.00  0.00    +0.176 C 
ATOM     28  O   UNL     1      -4.708  10.387  22.329  0.00  0.00    -0.332 OA
ATOM     29  C   UNL     1      -4.444  11.611  21.567  0.00  0.00    +0.277 C 
ATOM     30  C   UNL     1      -3.249  12.382  22.180  0.00  0.00    +0.110 C 
ATOM     31  C   UNL     1      -3.414  12.571  23.703  0.00  0.00    +0.143 C 
ATOM     32  C   UNL     1      -3.688  11.236  24.395  0.00  0.00    +0.133 C 
BRANCH  32  33
ATOM     33  N   UNL     1      -3.930  11.440  25.832  0.00  0.00    -0.308 N 
ATOM     34  H   UNL     1      -4.779  11.914  26.104  0.00  0.00    +0.149 HD
ATOM     35  C   UNL     1      -3.099  11.040  26.799  0.00  0.00    +0.210 C 
ATOM     36  C   UNL     1      -1.801  10.345  26.349  0.00  0.00    +0.109 C 
ATOM     37  O   UNL     1      -3.335  11.212  27.995  0.00  0.00    -0.276 OA
ENDBRANCH  32  33
BRANCH  29  38
ATOM     38  C   UNL     1      -5.689  12.521  21.546  0.00  0.00    +0.414 C 
ATOM     39  O   UNL     1      -6.816  12.032  21.608  0.00  0.00    -0.240 OA
ATOM     40  O   UNL     1      -5.567  13.744  21.466  0.00  0.00    -0.240 OA
ENDBRANCH  29  38
BRANCH  31  41
ATOM     41  O   UNL     1      -2.227  13.149  24.248  0.00  0.00    -0.390 OA
ATOM     42  H   UNL     1      -1.959  12.656  25.026  0.00  0.00    +0.210 HD
ENDBRANCH  31  41
BRANCH  29  43
ATOM     43  O   UNL     1      -4.094  11.229  20.211  0.00  0.00    -0.343 OA
ATOM     44  C   UNL     1      -4.806  10.075  19.698  0.00  0.00    +0.198 C 
ENDBRANCH  29  43
ENDBRANCH  26  27
BRANCH  26  45
ATOM     45  O   UNL     1      -5.843   9.375  25.676  0.00  0.00    -0.387 OA
ATOM     46  H   UNL     1      -6.256   8.556  25.960  0.00  0.00    +0.210 HD
ENDBRANCH  26  45
ENDBRANCH   1  26
TORSDOF 14
