REMARK VINA RESULT:    -4.825      2.624      5.003
REMARK INTER + INTRA:         -11.757
REMARK INTER:                  -8.828
REMARK INTRA:                  -2.930
REMARK UNBOUND:                -2.560
REMARK  Name = lig_assembled_18.pdb
REMARK  19 active torsions:
REMARK  status: ('A' for Active; 'I' for Inactive)
REMARK    1  A    between atoms: _2  and  _10
REMARK    2  A    between atoms: _3  and  _12
REMARK    3  A    between atoms: _5  and  _21
REMARK    4  A    between atoms: _7  and  _8
REMARK    5  A    between atoms: _7  and  _21
REMARK    6  A    between atoms: _10  and  _11
REMARK    7  A    between atoms: _12  and  _13
REMARK    8  A    between atoms: _17  and  _37
REMARK    9  A    between atoms: _19  and  _25
REMARK   10  A    between atoms: _20  and  _24
REMARK   11  A    between atoms: _24  and  _25
REMARK   12  A    between atoms: _27  and  _28
REMARK   13  A    between atoms: _29  and  _30
REMARK   14  A    between atoms: _31  and  _33
REMARK   15  A    between atoms: _33  and  _34
REMARK   16  A    between atoms: _33  and  _35
REMARK   17  A    between atoms: _35  and  _36
REMARK   18  A    between atoms: _35  and  _37
REMARK   19  A    between atoms: _38  and  _40
REMARK                            x       y       z     vdW  Elec       q    Type
REMARK                         _______ _______ _______ _____ _____    ______ ____
ROOT
ATOM      1  C   UNL     1      -4.389   9.047  23.896  0.00  0.00    +0.163 C 
ENDROOT
BRANCH   1   2
ATOM      2  O   UNL     1      -3.908   8.392  22.711  0.00  0.00    -0.388 OA
ATOM      3  H   UNL     1      -3.018   8.696  22.515  0.00  0.00    +0.210 HD
ENDBRANCH   1   2
BRANCH   1   4
ATOM      4  C   UNL     1      -5.774   9.671  23.657  0.00  0.00    +0.175 C 
BRANCH   4   5
ATOM      5  C   UNL     1      -5.684  11.003  22.898  0.00  0.00    +0.176 C 
ATOM      6  O   UNL     1      -5.412  10.704  21.501  0.00  0.00    -0.332 OA
ATOM      7  C   UNL     1      -5.397  11.858  20.597  0.00  0.00    +0.277 C 
ATOM      8  C   UNL     1      -4.403  12.931  21.106  0.00  0.00    +0.110 C 
ATOM      9  C   UNL     1      -4.633  13.259  22.596  0.00  0.00    +0.143 C 
ATOM     10  C   UNL     1      -4.633  11.987  23.444  0.00  0.00    +0.133 C 
BRANCH  10  11
ATOM     11  N   UNL     1      -4.939  12.303  24.848  0.00  0.00    -0.308 N 
ATOM     12  H   UNL     1      -5.898  12.517  25.085  0.00  0.00    +0.149 HD
ATOM     13  C   UNL     1      -4.033  12.327  25.830  0.00  0.00    +0.210 C 
ATOM     14  C   UNL     1      -2.577  12.022  25.431  0.00  0.00    +0.109 C 
ATOM     15  O   UNL     1      -4.321  12.581  27.000  0.00  0.00    -0.276 OA
ENDBRANCH  10  11
BRANCH   7  16
ATOM     16  C   UNL     1      -6.805  12.476  20.475  0.00  0.00    +0.414 C 
ATOM     17  O   UNL     1      -7.805  11.779  20.644  0.00  0.00    -0.240 OA
ATOM     18  O   UNL     1      -6.942  13.671  20.209  0.00  0.00    -0.240 OA
ENDBRANCH   7  16
BRANCH   7  19
ATOM     19  O   UNL     1      -4.950  11.402  19.294  0.00  0.00    -0.343 OA
ATOM     20  C   UNL     1      -4.803   9.965  19.166  0.00  0.00    +0.198 C 
ENDBRANCH   7  19
BRANCH   9  21
ATOM     21  O   UNL     1      -3.605  14.134  23.061  0.00  0.00    -0.390 OA
ATOM     22  H   UNL     1      -3.718  14.292  24.001  0.00  0.00    +0.210 HD
ENDBRANCH   9  21
ENDBRANCH   4   5
BRANCH   4  23
ATOM     23  O   UNL     1      -6.457   9.860  24.912  0.00  0.00    -0.387 OA
ATOM     24  H   UNL     1      -5.998   9.376  25.603  0.00  0.00    +0.210 HD
ENDBRANCH   4  23
ENDBRANCH   1   4
BRANCH   1  25
ATOM     25  C   UNL     1      -4.472   8.048  25.046  0.00  0.00    +0.141 C 
BRANCH  25  28
ATOM     26  C   UNL     1      -2.883   8.631  26.847  0.00  0.00    +0.401 C 
ATOM     27  O   UNL     1      -1.922   8.077  26.308  0.00  0.00    -0.226 OA
ATOM     28  N   UNL     1      -4.112   8.662  26.331  0.00  0.00    -0.279 N 
ATOM     29  H   UNL     1      -4.837   9.133  26.853  0.00  0.00    +0.152 HD
BRANCH  26  30
ATOM     30  O   UNL     1      -2.692   9.284  28.105  0.00  0.00    -0.444 OA
BRANCH  30  31
ATOM     31  C   UNL     1      -3.872   9.144  28.900  0.00  0.00    +0.292 C 
BRANCH  31  33
ATOM     32  N   UNL     1      -4.969  10.834  30.345  0.00  0.00    -0.131 NA
ATOM     33  C   UNL     1      -3.855  10.107  30.018  0.00  0.00    +0.120 A 
ATOM     34  C   UNL     1      -2.833  10.444  30.875  0.00  0.00    +0.137 A 
ATOM     35  N   UNL     1      -3.392  11.357  31.718  0.00  0.00    -0.242 N 
ATOM     36  N   UNL     1      -4.672  11.606  31.382  0.00  0.00    -0.065 NA
BRANCH  35  37
ATOM     37  C   UNL     1      -2.762  12.118  32.771  0.00  0.00    +0.240 C 
BRANCH  37  38
ATOM     38  C   UNL     1      -2.549  13.563  32.384  0.00  0.00    +0.235 C 
ATOM     39  O   UNL     1      -1.504  13.954  31.866  0.00  0.00    -0.274 OA
ATOM     40  N   UNL     1      -3.629  14.395  32.601  0.00  0.00    -0.309 N 
ATOM     41  H   UNL     1      -4.401  14.086  33.173  0.00  0.00    +0.149 HD
BRANCH  40  42
ATOM     42  C   UNL     1      -3.578  15.803  32.265  0.00  0.00    +0.146 C 
BRANCH  42  43
ATOM     43  C   UNL     1      -4.550  16.093  31.168  0.00  0.00    +0.007 A 
ATOM     44  S   UNL     1      -5.662  14.898  30.645  0.00  0.00    -0.100 S 
ATOM     45  C   UNL     1      -6.294  15.924  29.432  0.00  0.00    +0.045 A 
ATOM     46  C   UNL     1      -5.687  17.160  29.430  0.00  0.00    +0.008 A 
ATOM     47  C   UNL     1      -4.685  17.259  30.438  0.00  0.00    +0.013 A 
ENDBRANCH  42  43
ENDBRANCH  40  42
ENDBRANCH  37  38
ENDBRANCH  35  37
ENDBRANCH  31  33
ENDBRANCH  30  31
ENDBRANCH  26  30
ENDBRANCH  25  28
ENDBRANCH   1  25
TORSDOF 17
