REMARK VINA RESULT:    -4.752      7.239     10.051
REMARK INTER + INTRA:         -11.531
REMARK INTER:                  -8.641
REMARK INTRA:                  -2.890
REMARK UNBOUND:                -2.890
REMARK  Name = lig_assembled_73.pdb
REMARK  18 active torsions:
REMARK  status: ('A' for Active; 'I' for Inactive)
REMARK    1  A    between atoms: _2  and  _10
REMARK    2  A    between atoms: _3  and  _14
REMARK    3  A    between atoms: _5  and  _22
REMARK    4  A    between atoms: _7  and  _8
REMARK    5  A    between atoms: _7  and  _22
REMARK    6  A    between atoms: _13  and  _16
REMARK    7  A    between atoms: _18  and  _38
REMARK    8  A    between atoms: _20  and  _26
REMARK    9  A    between atoms: _21  and  _25
REMARK   10  A    between atoms: _25  and  _26
REMARK   11  A    between atoms: _28  and  _29
REMARK   12  A    between atoms: _30  and  _31
REMARK   13  A    between atoms: _32  and  _34
REMARK   14  A    between atoms: _34  and  _35
REMARK   15  A    between atoms: _34  and  _36
REMARK   16  A    between atoms: _36  and  _37
REMARK   17  A    between atoms: _36  and  _38
REMARK   18  A    between atoms: _39  and  _41
REMARK                            x       y       z     vdW  Elec       q    Type
REMARK                         _______ _______ _______ _____ _____    ______ ____
ROOT
ATOM      1  C   UNL     1      -7.314  10.307  13.506  0.00  0.00    +0.163 C 
ENDROOT
BRANCH   1   2
ATOM      2  O   UNL     1      -6.513  11.283  12.820  0.00  0.00    -0.388 OA
ATOM      3  H   UNL     1      -6.367  10.998  11.914  0.00  0.00    +0.210 HD
ENDBRANCH   1   2
BRANCH   1   4
ATOM      4  C   UNL     1      -6.432   9.211  14.128  0.00  0.00    +0.175 C 
BRANCH   4   5
ATOM      5  C   UNL     1      -4.936   9.474  13.901  0.00  0.00    +0.176 C 
ATOM      6  O   UNL     1      -4.617   9.090  12.535  0.00  0.00    -0.332 OA
ATOM      7  C   UNL     1      -3.245   9.371  12.102  0.00  0.00    +0.277 C 
ATOM      8  C   UNL     1      -2.227   8.730  13.077  0.00  0.00    +0.110 C 
ATOM      9  C   UNL     1      -2.545   9.085  14.545  0.00  0.00    +0.143 C 
ATOM     10  C   UNL     1      -3.998   8.754  14.887  0.00  0.00    +0.133 C 
BRANCH  10  11
ATOM     11  N   UNL     1      -4.312   9.176  16.262  0.00  0.00    -0.308 N 
ATOM     12  H   UNL     1      -4.207  10.154  16.490  0.00  0.00    +0.149 HD
ATOM     13  C   UNL     1      -4.728   8.351  17.226  0.00  0.00    +0.210 C 
ATOM     14  C   UNL     1      -4.853   6.861  16.853  0.00  0.00    +0.109 C 
ATOM     15  O   UNL     1      -4.998   8.735  18.364  0.00  0.00    -0.276 OA
ENDBRANCH  10  11
BRANCH   7  16
ATOM     16  C   UNL     1      -2.997  10.892  12.024  0.00  0.00    +0.414 C 
ATOM     17  O   UNL     1      -3.858  11.638  11.560  0.00  0.00    -0.240 OA
ATOM     18  O   UNL     1      -1.936  11.373  12.424  0.00  0.00    -0.240 OA
ENDBRANCH   7  16
BRANCH   9  19
ATOM     19  O   UNL     1      -1.679   8.354  15.415  0.00  0.00    -0.390 OA
ATOM     20  H   UNL     1      -1.058   7.841  14.892  0.00  0.00    +0.210 HD
ENDBRANCH   9  19
BRANCH   7  21
ATOM     21  O   UNL     1      -3.058   8.778  10.791  0.00  0.00    -0.343 OA
ATOM     22  C   UNL     1      -4.266   8.270  10.171  0.00  0.00    +0.198 C 
ENDBRANCH   7  21
ENDBRANCH   4   5
BRANCH   4  23
ATOM     23  O   UNL     1      -6.795   7.921  13.598  0.00  0.00    -0.387 OA
ATOM     24  H   UNL     1      -6.040   7.535  13.148  0.00  0.00    +0.210 HD
ENDBRANCH   4  23
ENDBRANCH   1   4
BRANCH   1  25
ATOM     25  C   UNL     1      -8.134  10.983  14.600  0.00  0.00    +0.141 C 
BRANCH  25  28
ATOM     26  C   UNL     1      -6.572  12.107  16.150  0.00  0.00    +0.401 C 
ATOM     27  O   UNL     1      -6.354  13.055  15.391  0.00  0.00    -0.226 OA
ATOM     28  N   UNL     1      -7.385  11.091  15.858  0.00  0.00    -0.279 N 
ATOM     29  H   UNL     1      -7.492  10.355  16.542  0.00  0.00    +0.152 HD
BRANCH  26  30
ATOM     30  O   UNL     1      -5.921  12.072  17.422  0.00  0.00    -0.444 OA
BRANCH  30  31
ATOM     31  C   UNL     1      -6.871  11.733  18.436  0.00  0.00    +0.292 C 
BRANCH  31  33
ATOM     32  N   UNL     1      -6.852  13.252  20.390  0.00  0.00    -0.131 NA
ATOM     33  C   UNL     1      -6.371  12.139  19.763  0.00  0.00    +0.121 A 
ATOM     34  C   UNL     1      -5.423  11.547  20.565  0.00  0.00    +0.143 A 
ATOM     35  N   UNL     1      -5.362  12.339  21.688  0.00  0.00    -0.220 N 
ATOM     36  N   UNL     1      -6.235  13.367  21.557  0.00  0.00    -0.060 NA
BRANCH  35  37
ATOM     37  C   UNL     1      -4.547  12.189  22.839  0.00  0.00    +0.074 A 
ATOM     38  C   UNL     1      -3.671  13.224  23.214  0.00  0.00    +0.032 A 
ATOM     39  C   UNL     1      -2.850  13.094  24.342  0.00  0.00    +0.054 A 
ATOM     40  C   UNL     1      -2.894  11.930  25.106  0.00  0.00    +0.195 A 
ATOM     41  C   UNL     1      -3.765  10.908  24.731  0.00  0.00    +0.316 A 
ATOM     42  C   UNL     1      -4.600  11.021  23.610  0.00  0.00    +0.116 A 
BRANCH  41  43
ATOM     43  N   UNL     1      -3.827   9.680  25.499  0.00  0.00    +0.083 N 
ATOM     44  O   UNL     1      -2.808   8.978  25.539  0.00  0.00    +0.042 OA
ATOM     45  O   UNL     1      -4.929   9.382  25.982  0.00  0.00    -0.576 OA
ENDBRANCH  41  43
BRANCH  40  46
ATOM     46  O   UNL     1      -2.111  11.813  26.214  0.00  0.00    -0.501 OA
ATOM     47  H   UNL     1      -1.272  11.375  25.987  0.00  0.00    +0.292 HD
ENDBRANCH  40  46
ENDBRANCH  35  37
ENDBRANCH  31  33
ENDBRANCH  30  31
ENDBRANCH  26  30
ENDBRANCH  25  28
ENDBRANCH   1  25
TORSDOF 16
