REMARK VINA RESULT:    -4.196      2.781      4.297
REMARK INTER + INTRA:         -10.670
REMARK INTER:                  -6.480
REMARK INTRA:                  -4.190
REMARK UNBOUND:                -3.040
REMARK  Name = lig_assembled_1.pdb
REMARK  18 active torsions:
REMARK  status: ('A' for Active; 'I' for Inactive)
REMARK    1  A    between atoms: _2  and  _9
REMARK    2  A    between atoms: _4  and  _15
REMARK    3  A    between atoms: _5  and  _9
REMARK    4  A    between atoms: _5  and  _10
REMARK    5  A    between atoms: _6  and  _7
REMARK    6  A    between atoms: _6  and  _15
REMARK    7  A    between atoms: _11  and  _31
REMARK    8  A    between atoms: _13  and  _19
REMARK    9  A    between atoms: _14  and  _18
REMARK   10  A    between atoms: _18  and  _19
REMARK   11  A    between atoms: _21  and  _22
REMARK   12  A    between atoms: _23  and  _24
REMARK   13  A    between atoms: _25  and  _27
REMARK   14  A    between atoms: _27  and  _28
REMARK   15  A    between atoms: _27  and  _29
REMARK   16  A    between atoms: _29  and  _30
REMARK   17  A    between atoms: _29  and  _31
REMARK   18  A    between atoms: _32  and  _34
REMARK                            x       y       z     vdW  Elec       q    Type
REMARK                         _______ _______ _______ _____ _____    ______ ____
ROOT
ATOM      1  C   UNL     1      -2.606  10.043  29.053  0.00  0.00    +0.175 C 
ENDROOT
BRANCH   1   2
ATOM      2  C   UNL     1      -2.819   9.203  30.321  0.00  0.00    +0.176 C 
ATOM      3  O   UNL     1      -3.766   8.146  30.004  0.00  0.00    -0.332 OA
ATOM      4  C   UNL     1      -4.012   7.174  31.073  0.00  0.00    +0.277 C 
ATOM      5  C   UNL     1      -4.450   7.896  32.371  0.00  0.00    +0.110 C 
ATOM      6  C   UNL     1      -3.490   9.050  32.732  0.00  0.00    +0.143 C 
ATOM      7  C   UNL     1      -3.303   9.999  31.547  0.00  0.00    +0.133 C 
BRANCH   7   8
ATOM      8  N   UNL     1      -2.321  11.044  31.874  0.00  0.00    -0.308 N 
ATOM      9  H   UNL     1      -1.360  10.762  32.008  0.00  0.00    +0.149 HD
ATOM     10  C   UNL     1      -2.616  12.340  32.006  0.00  0.00    +0.210 C 
ATOM     11  C   UNL     1      -4.094  12.733  31.822  0.00  0.00    +0.109 C 
ATOM     12  O   UNL     1      -1.769  13.195  32.266  0.00  0.00    -0.276 OA
ENDBRANCH   7   8
BRANCH   4  13
ATOM     13  C   UNL     1      -2.748   6.334  31.352  0.00  0.00    +0.414 C 
ATOM     14  O   UNL     1      -1.908   6.167  30.468  0.00  0.00    -0.240 OA
ATOM     15  O   UNL     1      -2.568   5.825  32.459  0.00  0.00    -0.240 OA
ENDBRANCH   4  13
BRANCH   4  16
ATOM     16  O   UNL     1      -5.092   6.303  30.648  0.00  0.00    -0.343 OA
ATOM     17  C   UNL     1      -5.254   6.185  29.212  0.00  0.00    +0.198 C 
ENDBRANCH   4  16
BRANCH   6  18
ATOM     18  O   UNL     1      -4.012   9.781  33.842  0.00  0.00    -0.390 OA
ATOM     19  H   UNL     1      -4.957   9.628  33.911  0.00  0.00    +0.210 HD
ENDBRANCH   6  18
ENDBRANCH   1   2
BRANCH   1  20
ATOM     20  O   UNL     1      -3.754  10.881  28.814  0.00  0.00    -0.387 OA
ATOM     21  H   UNL     1      -4.412  10.389  28.317  0.00  0.00    +0.210 HD
ENDBRANCH   1  20
BRANCH   1  22
ATOM     22  C   UNL     1      -2.324   9.168  27.820  0.00  0.00    +0.163 C 
BRANCH  22  23
ATOM     23  O   UNL     1      -1.547   8.012  28.176  0.00  0.00    -0.388 OA
ATOM     24  H   UNL     1      -0.679   8.071  27.771  0.00  0.00    +0.210 HD
ENDBRANCH  22  23
BRANCH  22  25
ATOM     25  C   UNL     1      -1.583   9.990  26.770  0.00  0.00    +0.141 C 
BRANCH  25  28
ATOM     26  C   UNL     1      -2.920  11.313  25.168  0.00  0.00    +0.401 C 
ATOM     27  O   UNL     1      -2.860  10.466  24.274  0.00  0.00    -0.226 OA
ATOM     28  N   UNL     1      -2.347  11.176  26.365  0.00  0.00    -0.279 N 
ATOM     29  H   UNL     1      -2.444  11.931  27.029  0.00  0.00    +0.152 HD
BRANCH  26  30
ATOM     30  O   UNL     1      -3.639  12.526  24.929  0.00  0.00    -0.444 OA
BRANCH  30  31
ATOM     31  C   UNL     1      -5.029  12.233  24.765  0.00  0.00    +0.292 C 
BRANCH  31  33
ATOM     32  N   UNL     1      -5.218  12.849  27.157  0.00  0.00    -0.131 NA
ATOM     33  C   UNL     1      -5.696  12.152  26.079  0.00  0.00    +0.120 A 
ATOM     34  C   UNL     1      -6.812  11.442  26.460  0.00  0.00    +0.137 A 
ATOM     35  N   UNL     1      -6.956  11.744  27.781  0.00  0.00    -0.249 N 
ATOM     36  N   UNL     1      -5.996  12.585  28.198  0.00  0.00    -0.065 NA
BRANCH  35  37
ATOM     37  C   UNL     1      -7.977  11.280  28.694  0.00  0.00    +0.173 C 
BRANCH  37  38
ATOM     38  C   UNL     1      -7.400  10.541  29.895  0.00  0.00    +0.179 C 
BRANCH  38  39
ATOM     39  O   UNL     1      -6.232   9.805  29.534  0.00  0.00    -0.393 OA
ATOM     40  H   UNL     1      -6.438   8.861  29.676  0.00  0.00    +0.209 HD
ENDBRANCH  38  39
ENDBRANCH  37  38
ENDBRANCH  35  37
ENDBRANCH  31  33
ENDBRANCH  30  31
ENDBRANCH  26  30
ENDBRANCH  25  28
ENDBRANCH  22  25
ENDBRANCH   1  22
TORSDOF 16
