REMARK VINA RESULT:    -4.554      4.102      9.636
REMARK INTER + INTRA:         -11.361
REMARK INTER:                  -7.702
REMARK INTRA:                  -3.659
REMARK UNBOUND:                -3.213
REMARK  Name = lig_assembled_46.pdb
REMARK  17 active torsions:
REMARK  status: ('A' for Active; 'I' for Inactive)
REMARK    1  A    between atoms: _2  and  _9
REMARK    2  A    between atoms: _4  and  _19
REMARK    3  A    between atoms: _6  and  _7
REMARK    4  A    between atoms: _6  and  _19
REMARK    5  A    between atoms: _9  and  _10
REMARK    6  A    between atoms: _15  and  _35
REMARK    7  A    between atoms: _17  and  _23
REMARK    8  A    between atoms: _18  and  _22
REMARK    9  A    between atoms: _22  and  _23
REMARK   10  A    between atoms: _25  and  _26
REMARK   11  A    between atoms: _27  and  _28
REMARK   12  A    between atoms: _29  and  _31
REMARK   13  A    between atoms: _31  and  _32
REMARK   14  A    between atoms: _31  and  _33
REMARK   15  A    between atoms: _33  and  _34
REMARK   16  A    between atoms: _33  and  _35
REMARK   17  A    between atoms: _36  and  _38
REMARK                            x       y       z     vdW  Elec       q    Type
REMARK                         _______ _______ _______ _____ _____    ______ ____
ROOT
ATOM      1  C   UNL     1      -2.883  10.729  26.918  0.00  0.00    +0.163 C 
ENDROOT
BRANCH   1   2
ATOM      2  O   UNL     1      -1.776  11.014  26.047  0.00  0.00    -0.388 OA
ATOM      3  H   UNL     1      -0.996  10.549  26.359  0.00  0.00    +0.210 HD
ENDBRANCH   1   2
BRANCH   1   4
ATOM      4  C   UNL     1      -2.469   9.709  27.973  0.00  0.00    +0.141 C 
BRANCH   4   7
ATOM      5  C   UNL     1      -3.614   9.699  30.162  0.00  0.00    +0.401 C 
ATOM      6  O   UNL     1      -4.370   8.770  29.869  0.00  0.00    -0.226 OA
ATOM      7  N   UNL     1      -2.699  10.206  29.335  0.00  0.00    -0.279 N 
ATOM      8  H   UNL     1      -2.132  10.974  29.664  0.00  0.00    +0.152 HD
BRANCH   5   9
ATOM      9  O   UNL     1      -3.710  10.287  31.462  0.00  0.00    -0.444 OA
BRANCH   9  10
ATOM     10  C   UNL     1      -2.466  10.909  31.798  0.00  0.00    +0.292 C 
BRANCH  10  12
ATOM     11  N   UNL     1      -1.685  13.249  31.994  0.00  0.00    -0.131 NA
ATOM     12  C   UNL     1      -2.680  12.323  32.158  0.00  0.00    +0.120 A 
ATOM     13  C   UNL     1      -3.807  12.954  32.639  0.00  0.00    +0.137 A 
ATOM     14  N   UNL     1      -3.453  14.272  32.691  0.00  0.00    -0.247 N 
ATOM     15  N   UNL     1      -2.170  14.443  32.315  0.00  0.00    -0.065 NA
BRANCH  14  16
ATOM     16  C   UNL     1      -4.331  15.419  32.839  0.00  0.00    +0.180 C 
BRANCH  16  17
ATOM     17  C   UNL     1      -5.086  15.773  31.582  0.00  0.00    -0.026 A 
ATOM     18  C   UNL     1      -6.371  15.261  31.343  0.00  0.00    +0.005 A 
ATOM     19  C   UNL     1      -7.099  15.670  30.223  0.00  0.00    +0.000 A 
ATOM     20  C   UNL     1      -6.556  16.593  29.334  0.00  0.00    +0.000 A 
ATOM     21  C   UNL     1      -5.278  17.102  29.554  0.00  0.00    +0.000 A 
ATOM     22  C   UNL     1      -4.547  16.696  30.672  0.00  0.00    +0.005 A 
ENDBRANCH  16  17
ENDBRANCH  14  16
ENDBRANCH  10  12
ENDBRANCH   9  10
ENDBRANCH   5   9
ENDBRANCH   4   7
ENDBRANCH   1   4
BRANCH   1  23
ATOM     23  C   UNL     1      -4.084  10.187  26.123  0.00  0.00    +0.175 C 
BRANCH  23  24
ATOM     24  C   UNL     1      -4.843  11.304  25.390  0.00  0.00    +0.176 C 
ATOM     25  O   UNL     1      -4.011  11.761  24.288  0.00  0.00    -0.332 OA
ATOM     26  C   UNL     1      -4.621  12.760  23.406  0.00  0.00    +0.277 C 
ATOM     27  C   UNL     1      -5.118  13.976  24.227  0.00  0.00    +0.110 C 
ATOM     28  C   UNL     1      -5.981  13.537  25.429  0.00  0.00    +0.143 C 
ATOM     29  C   UNL     1      -5.251  12.495  26.277  0.00  0.00    +0.133 C 
BRANCH  29  30
ATOM     30  N   UNL     1      -6.117  12.021  27.368  0.00  0.00    -0.308 N 
ATOM     31  H   UNL     1      -6.930  11.475  27.122  0.00  0.00    +0.149 HD
ATOM     32  C   UNL     1      -5.898  12.266  28.663  0.00  0.00    +0.210 C 
ATOM     33  C   UNL     1      -4.664  13.123  29.004  0.00  0.00    +0.109 C 
ATOM     34  O   UNL     1      -6.632  11.843  29.557  0.00  0.00    -0.276 OA
ENDBRANCH  29  30
BRANCH  26  35
ATOM     35  C   UNL     1      -5.802  12.150  22.623  0.00  0.00    +0.414 C 
ATOM     36  O   UNL     1      -6.785  12.837  22.348  0.00  0.00    -0.240 OA
ATOM     37  O   UNL     1      -5.772  10.972  22.265  0.00  0.00    -0.240 OA
ENDBRANCH  26  35
BRANCH  26  38
ATOM     38  O   UNL     1      -3.605  13.220  22.478  0.00  0.00    -0.343 OA
ATOM     39  C   UNL     1      -3.634  14.641  22.193  0.00  0.00    +0.198 C 
ENDBRANCH  26  38
BRANCH  28  40
ATOM     40  O   UNL     1      -6.289  14.671  26.240  0.00  0.00    -0.390 OA
ATOM     41  H   UNL     1      -6.979  14.440  26.866  0.00  0.00    +0.210 HD
ENDBRANCH  28  40
ENDBRANCH  23  24
BRANCH  23  42
ATOM     42  O   UNL     1      -4.977   9.471  26.998  0.00  0.00    -0.387 OA
ATOM     43  H   UNL     1      -5.398   8.758  26.513  0.00  0.00    +0.210 HD
ENDBRANCH  23  42
ENDBRANCH   1  23
TORSDOF 15
