REMARK VINA RESULT:    -4.315      2.872      5.978
REMARK INTER + INTRA:         -10.535
REMARK INTER:                  -7.966
REMARK INTRA:                  -2.569
REMARK UNBOUND:                -3.067
REMARK  Name = lig_assembled_8.pdb
REMARK  16 active torsions:
REMARK  status: ('A' for Active; 'I' for Inactive)
REMARK    1  A    between atoms: _2  and  _9
REMARK    2  A    between atoms: _4  and  _18
REMARK    3  A    between atoms: _6  and  _7
REMARK    4  A    between atoms: _6  and  _18
REMARK    5  A    between atoms: _14  and  _34
REMARK    6  A    between atoms: _16  and  _22
REMARK    7  A    between atoms: _17  and  _21
REMARK    8  A    between atoms: _21  and  _22
REMARK    9  A    between atoms: _24  and  _25
REMARK   10  A    between atoms: _26  and  _27
REMARK   11  A    between atoms: _28  and  _30
REMARK   12  A    between atoms: _30  and  _31
REMARK   13  A    between atoms: _30  and  _32
REMARK   14  A    between atoms: _32  and  _33
REMARK   15  A    between atoms: _32  and  _34
REMARK   16  A    between atoms: _35  and  _37
REMARK                            x       y       z     vdW  Elec       q    Type
REMARK                         _______ _______ _______ _____ _____    ______ ____
ROOT
ATOM      1  C   UNL     1      -4.189  10.300  28.742  0.00  0.00    +0.163 C 
ENDROOT
BRANCH   1   2
ATOM      2  O   UNL     1      -5.266  11.250  28.765  0.00  0.00    -0.388 OA
ATOM      3  H   UNL     1      -5.770  11.144  29.576  0.00  0.00    +0.210 HD
ENDBRANCH   1   2
BRANCH   1   4
ATOM      4  C   UNL     1      -3.684  10.048  30.159  0.00  0.00    +0.141 C 
BRANCH   4   7
ATOM      5  C   UNL     1      -2.666  11.416  31.947  0.00  0.00    +0.401 C 
ATOM      6  O   UNL     1      -3.163  10.758  32.863  0.00  0.00    -0.226 OA
ATOM      7  N   UNL     1      -2.861  11.158  30.653  0.00  0.00    -0.279 N 
ATOM      8  H   UNL     1      -2.417  11.761  29.974  0.00  0.00    +0.152 HD
BRANCH   5   9
ATOM      9  O   UNL     1      -1.828  12.530  32.267  0.00  0.00    -0.444 OA
BRANCH   9  10
ATOM     10  C   UNL     1      -2.472  13.345  33.250  0.00  0.00    +0.292 C 
BRANCH  10  12
ATOM     11  N   UNL     1      -4.674  14.459  33.250  0.00  0.00    -0.131 NA
ATOM     12  C   UNL     1      -3.501  14.191  32.618  0.00  0.00    +0.121 A 
ATOM     13  C   UNL     1      -3.496  14.827  31.399  0.00  0.00    +0.143 A 
ATOM     14  N   UNL     1      -4.701  15.506  31.331  0.00  0.00    -0.219 N 
ATOM     15  N   UNL     1      -5.392  15.247  32.463  0.00  0.00    -0.060 NA
BRANCH  14  16
ATOM     16  C   UNL     1      -5.176  16.357  30.285  0.00  0.00    +0.081 A 
ATOM     17  C   UNL     1      -4.609  17.646  30.168  0.00  0.00    +0.029 A 
ATOM     18  C   UNL     1      -5.033  18.546  29.187  0.00  0.00    +0.002 A 
ATOM     19  C   UNL     1      -6.033  18.182  28.298  0.00  0.00    +0.001 A 
ATOM     20  C   UNL     1      -6.603  16.915  28.389  0.00  0.00    +0.017 A 
ATOM     21  C   UNL     1      -6.185  15.995  29.370  0.00  0.00    +0.043 A 
ATOM     22 BR   UNL     1      -7.106  14.329  29.290  0.00  0.00    -0.048 Br
ENDBRANCH  14  16
ENDBRANCH  10  12
ENDBRANCH   9  10
ENDBRANCH   5   9
ENDBRANCH   4   7
ENDBRANCH   1   4
BRANCH   1  23
ATOM     23  C   UNL     1      -3.029  10.806  27.866  0.00  0.00    +0.175 C 
BRANCH  23  24
ATOM     24  C   UNL     1      -3.356  10.720  26.368  0.00  0.00    +0.176 C 
ATOM     25  O   UNL     1      -4.358  11.730  26.070  0.00  0.00    -0.332 OA
ATOM     26  C   UNL     1      -4.719  11.868  24.656  0.00  0.00    +0.277 C 
ATOM     27  C   UNL     1      -5.164  10.503  24.076  0.00  0.00    +0.110 C 
ATOM     28  C   UNL     1      -4.144   9.389  24.395  0.00  0.00    +0.143 C 
ATOM     29  C   UNL     1      -3.839   9.337  25.892  0.00  0.00    +0.133 C 
BRANCH  29  30
ATOM     30  N   UNL     1      -2.803   8.331  26.172  0.00  0.00    -0.308 N 
ATOM     31  H   UNL     1      -1.866   8.515  25.843  0.00  0.00    +0.149 HD
ATOM     32  C   UNL     1      -3.020   7.191  26.834  0.00  0.00    +0.210 C 
ATOM     33  C   UNL     1      -4.464   6.928  27.300  0.00  0.00    +0.109 C 
ATOM     34  O   UNL     1      -2.129   6.373  27.066  0.00  0.00    -0.276 OA
ENDBRANCH  29  30
BRANCH  26  35
ATOM     35  C   UNL     1      -3.529  12.412  23.838  0.00  0.00    +0.414 C 
ATOM     36  O   UNL     1      -3.371  12.066  22.668  0.00  0.00    -0.240 OA
ATOM     37  O   UNL     1      -2.728  13.197  24.348  0.00  0.00    -0.240 OA
ENDBRANCH  26  35
BRANCH  28  38
ATOM     38  O   UNL     1      -4.664   8.126  23.976  0.00  0.00    -0.390 OA
ATOM     39  H   UNL     1      -5.202   8.246  23.190  0.00  0.00    +0.210 HD
ENDBRANCH  28  38
BRANCH  26  40
ATOM     40  O   UNL     1      -5.836  12.789  24.565  0.00  0.00    -0.343 OA
ATOM     41  C   UNL     1      -5.972  13.698  25.687  0.00  0.00    +0.198 C 
ENDBRANCH  26  40
ENDBRANCH  23  24
BRANCH  23  42
ATOM     42  O   UNL     1      -1.828  10.063  28.156  0.00  0.00    -0.387 OA
ATOM     43  H   UNL     1      -1.173  10.651  28.540  0.00  0.00    +0.210 HD
ENDBRANCH  23  42
ENDBRANCH   1  23
TORSDOF 14
