REMARK VINA RESULT:    -4.184      5.126      8.801
REMARK INTER + INTRA:         -10.811
REMARK INTER:                  -6.703
REMARK INTRA:                  -4.107
REMARK UNBOUND:                -2.835
REMARK  Name = lig_assembled_13.pdb
REMARK  20 active torsions:
REMARK  status: ('A' for Active; 'I' for Inactive)
REMARK    1  A    between atoms: _2  and  _9
REMARK    2  A    between atoms: _4  and  _18
REMARK    3  A    between atoms: _5  and  _11
REMARK    4  A    between atoms: _6  and  _7
REMARK    5  A    between atoms: _6  and  _18
REMARK    6  A    between atoms: _9  and  _10
REMARK    7  A    between atoms: _10  and  _12
REMARK    8  A    between atoms: _11  and  _12
REMARK    9  A    between atoms: _14  and  _34
REMARK   10  A    between atoms: _16  and  _22
REMARK   11  A    between atoms: _17  and  _21
REMARK   12  A    between atoms: _21  and  _22
REMARK   13  A    between atoms: _24  and  _25
REMARK   14  A    between atoms: _26  and  _27
REMARK   15  A    between atoms: _28  and  _30
REMARK   16  A    between atoms: _30  and  _31
REMARK   17  A    between atoms: _30  and  _32
REMARK   18  A    between atoms: _32  and  _33
REMARK   19  A    between atoms: _32  and  _34
REMARK   20  A    between atoms: _35  and  _37
REMARK                            x       y       z     vdW  Elec       q    Type
REMARK                         _______ _______ _______ _____ _____    ______ ____
ROOT
ATOM      1  C   UNL     1      -2.993  11.683  24.599  0.00  0.00    +0.163 C 
ENDROOT
BRANCH   1   2
ATOM      2  O   UNL     1      -1.938  11.478  25.553  0.00  0.00    -0.388 OA
ATOM      3  H   UNL     1      -1.204  11.027  25.129  0.00  0.00    +0.210 HD
ENDBRANCH   1   2
BRANCH   1   4
ATOM      4  C   UNL     1      -4.306  11.046  25.085  0.00  0.00    +0.175 C 
BRANCH   4   5
ATOM      5  C   UNL     1      -4.065   9.968  26.152  0.00  0.00    +0.176 C 
ATOM      6  O   UNL     1      -3.117   9.007  25.610  0.00  0.00    -0.332 OA
ATOM      7  C   UNL     1      -2.683   7.954  26.535  0.00  0.00    +0.277 C 
ATOM      8  C   UNL     1      -3.908   7.209  27.119  0.00  0.00    +0.110 C 
ATOM      9  C   UNL     1      -4.959   8.192  27.679  0.00  0.00    +0.143 C 
ATOM     10  C   UNL     1      -5.335   9.245  26.636  0.00  0.00    +0.133 C 
BRANCH  10  11
ATOM     11  N   UNL     1      -6.271  10.225  27.208  0.00  0.00    -0.308 N 
ATOM     12  H   UNL     1      -5.935  10.816  27.957  0.00  0.00    +0.149 HD
ATOM     13  C   UNL     1      -7.534  10.386  26.805  0.00  0.00    +0.210 C 
ATOM     14  C   UNL     1      -8.022   9.453  25.681  0.00  0.00    +0.109 C 
ATOM     15  O   UNL     1      -8.290  11.226  27.293  0.00  0.00    -0.276 OA
ENDBRANCH  10  11
BRANCH   7  16
ATOM     16  C   UNL     1      -1.844   8.549  27.685  0.00  0.00    +0.414 C 
ATOM     17  O   UNL     1      -1.775   7.966  28.767  0.00  0.00    -0.240 OA
ATOM     18  O   UNL     1      -1.237   9.609  27.531  0.00  0.00    -0.240 OA
ENDBRANCH   7  16
BRANCH   7  19
ATOM     19  O   UNL     1      -1.883   7.003  25.787  0.00  0.00    -0.343 OA
ATOM     20  C   UNL     1      -2.208   5.610  26.024  0.00  0.00    +0.198 C 
ENDBRANCH   7  19
BRANCH   9  21
ATOM     21  O   UNL     1      -6.131   7.474  28.067  0.00  0.00    -0.390 OA
ATOM     22  H   UNL     1      -6.899   8.044  27.983  0.00  0.00    +0.210 HD
ENDBRANCH   9  21
ENDBRANCH   4   5
BRANCH   4  23
ATOM     23  O   UNL     1      -5.030  10.488  23.970  0.00  0.00    -0.387 OA
ATOM     24  H   UNL     1      -5.966  10.457  24.179  0.00  0.00    +0.210 HD
ENDBRANCH   4  23
ENDBRANCH   1   4
BRANCH   1  25
ATOM     25  C   UNL     1      -3.205  13.175  24.368  0.00  0.00    +0.141 C 
BRANCH  25  28
ATOM     26  C   UNL     1      -4.873  14.354  22.977  0.00  0.00    +0.401 C 
ATOM     27  O   UNL     1      -4.033  15.021  22.368  0.00  0.00    -0.226 OA
ATOM     28  N   UNL     1      -4.575  13.472  23.932  0.00  0.00    -0.279 N 
ATOM     29  H   UNL     1      -5.335  12.980  24.381  0.00  0.00    +0.152 HD
BRANCH  26  30
ATOM     30  O   UNL     1      -6.257  14.523  22.659  0.00  0.00    -0.444 OA
BRANCH  30  31
ATOM     31  C   UNL     1      -6.521  13.976  21.365  0.00  0.00    +0.292 C 
BRANCH  31  33
ATOM     32  N   UNL     1      -7.398  12.021  22.603  0.00  0.00    -0.131 NA
ATOM     33  C   UNL     1      -6.839  12.541  21.467  0.00  0.00    +0.120 A 
ATOM     34  C   UNL     1      -6.657  11.532  20.552  0.00  0.00    +0.137 A 
ATOM     35  N   UNL     1      -7.061  10.410  21.216  0.00  0.00    -0.241 N 
ATOM     36  N   UNL     1      -7.549  10.714  22.429  0.00  0.00    -0.065 NA
BRANCH  35  37
ATOM     37  C   UNL     1      -7.107   9.049  20.730  0.00  0.00    +0.265 C 
BRANCH  37  38
ATOM     38  C   UNL     1      -5.734   8.474  20.537  0.00  0.00    +0.329 C 
ATOM     39  O   UNL     1      -5.275   8.019  19.499  0.00  0.00    -0.249 OA
BRANCH  38  40
ATOM     40  O   UNL     1      -5.094   8.435  21.745  0.00  0.00    -0.464 OA
BRANCH  40  41
ATOM     41  C   UNL     1      -4.946   7.124  22.309  0.00  0.00    +0.229 C 
ATOM     42  C   UNL     1      -5.710   7.093  23.621  0.00  0.00    +0.048 C 
ENDBRANCH  40  41
ENDBRANCH  38  40
ENDBRANCH  37  38
ENDBRANCH  35  37
ENDBRANCH  31  33
ENDBRANCH  30  31
ENDBRANCH  26  30
ENDBRANCH  25  28
ENDBRANCH   1  25
TORSDOF 17
