REMARK VINA RESULT:    -4.818      3.296      5.397
REMARK INTER + INTRA:         -11.377
REMARK INTER:                  -8.470
REMARK INTRA:                  -2.907
REMARK UNBOUND:                -2.756
REMARK  Name = lig_assembled_41.pdb
REMARK  18 active torsions:
REMARK  status: ('A' for Active; 'I' for Inactive)
REMARK    1  A    between atoms: _2  and  _9
REMARK    2  A    between atoms: _4  and  _21
REMARK    3  A    between atoms: _6  and  _7
REMARK    4  A    between atoms: _6  and  _21
REMARK    5  A    between atoms: _10  and  _11
REMARK    6  A    between atoms: _11  and  _12
REMARK    7  A    between atoms: _17  and  _37
REMARK    8  A    between atoms: _19  and  _25
REMARK    9  A    between atoms: _20  and  _24
REMARK   10  A    between atoms: _24  and  _25
REMARK   11  A    between atoms: _27  and  _28
REMARK   12  A    between atoms: _29  and  _30
REMARK   13  A    between atoms: _31  and  _33
REMARK   14  A    between atoms: _33  and  _34
REMARK   15  A    between atoms: _33  and  _35
REMARK   16  A    between atoms: _35  and  _36
REMARK   17  A    between atoms: _35  and  _37
REMARK   18  A    between atoms: _38  and  _40
REMARK                            x       y       z     vdW  Elec       q    Type
REMARK                         _______ _______ _______ _____ _____    ______ ____
ROOT
ATOM      1  C   UNL     1      -2.795  11.083  25.698  0.00  0.00    +0.163 C 
ENDROOT
BRANCH   1   2
ATOM      2  O   UNL     1      -2.143  12.143  24.980  0.00  0.00    -0.388 OA
ATOM      3  H   UNL     1      -1.818  11.809  24.140  0.00  0.00    +0.210 HD
ENDBRANCH   1   2
BRANCH   1   4
ATOM      4  C   UNL     1      -1.756  10.187  26.364  0.00  0.00    +0.141 C 
BRANCH   4   7
ATOM      5  C   UNL     1      -2.509   8.913  28.342  0.00  0.00    +0.401 C 
ATOM      6  O   UNL     1      -2.816   7.909  27.696  0.00  0.00    -0.226 OA
ATOM      7  N   UNL     1      -2.012  10.025  27.800  0.00  0.00    -0.279 N 
ATOM      8  H   UNL     1      -1.799  10.800  28.412  0.00  0.00    +0.152 HD
BRANCH   5   9
ATOM      9  O   UNL     1      -2.691   8.909  29.761  0.00  0.00    -0.444 OA
BRANCH   9  10
ATOM     10  C   UNL     1      -4.078   9.080  30.064  0.00  0.00    +0.292 C 
BRANCH  10  12
ATOM     11  N   UNL     1      -5.094  10.573  31.745  0.00  0.00    -0.131 NA
ATOM     12  C   UNL     1      -4.318  10.417  30.636  0.00  0.00    +0.121 A 
ATOM     13  C   UNL     1      -3.850  11.651  30.239  0.00  0.00    +0.143 A 
ATOM     14  N   UNL     1      -4.459  12.554  31.080  0.00  0.00    -0.219 N 
ATOM     15  N   UNL     1      -5.132  11.863  32.041  0.00  0.00    -0.060 NA
BRANCH  14  16
ATOM     16  C   UNL     1      -4.382  13.975  31.131  0.00  0.00    +0.077 A 
ATOM     17  C   UNL     1      -3.506  14.704  31.963  0.00  0.00    +0.043 A 
ATOM     18  C   UNL     1      -3.571  16.113  31.950  0.00  0.00    +0.013 A 
ATOM     19  C   UNL     1      -4.487  16.789  31.140  0.00  0.00    +0.001 A 
ATOM     20  C   UNL     1      -5.331  16.074  30.304  0.00  0.00    +0.002 A 
ATOM     21  C   UNL     1      -5.272  14.682  30.291  0.00  0.00    +0.028 A 
BRANCH  17  22
ATOM     22  C   UNL     1      -2.363  14.092  32.707  0.00  0.00    +0.162 C 
ATOM     23  O   UNL     1      -1.291  13.921  32.131  0.00  0.00    -0.292 OA
ATOM     24  C   UNL     1      -2.524  13.691  34.154  0.00  0.00    +0.091 C 
ENDBRANCH  17  22
ENDBRANCH  14  16
ENDBRANCH  10  12
ENDBRANCH   9  10
ENDBRANCH   5   9
ENDBRANCH   4   7
ENDBRANCH   1   4
BRANCH   1  25
ATOM     25  C   UNL     1      -3.674  10.241  24.758  0.00  0.00    +0.175 C 
BRANCH  25  26
ATOM     26  C   UNL     1      -4.492  11.114  23.795  0.00  0.00    +0.176 C 
ATOM     27  O   UNL     1      -5.090  12.192  24.567  0.00  0.00    -0.332 OA
ATOM     28  C   UNL     1      -5.827  13.194  23.791  0.00  0.00    +0.277 C 
ATOM     29  C   UNL     1      -6.909  12.513  22.918  0.00  0.00    +0.110 C 
ATOM     30  C   UNL     1      -6.328  11.339  22.102  0.00  0.00    +0.143 C 
ATOM     31  C   UNL     1      -5.580  10.360  23.007  0.00  0.00    +0.133 C 
BRANCH  31  32
ATOM     32  N   UNL     1      -4.957   9.293  22.208  0.00  0.00    -0.308 N 
ATOM     33  H   UNL     1      -4.204   9.548  21.586  0.00  0.00    +0.149 HD
ATOM     34  C   UNL     1      -5.322   8.009  22.252  0.00  0.00    +0.210 C 
ATOM     35  C   UNL     1      -6.491   7.656  23.191  0.00  0.00    +0.109 C 
ATOM     36  O   UNL     1      -4.773   7.134  21.582  0.00  0.00    -0.276 OA
ENDBRANCH  31  32
BRANCH  28  37
ATOM     37  C   UNL     1      -4.869  14.000  22.889  0.00  0.00    +0.414 C 
ATOM     38  O   UNL     1      -3.675  14.084  23.171  0.00  0.00    -0.240 OA
ATOM     39  O   UNL     1      -5.291  14.567  21.880  0.00  0.00    -0.240 OA
ENDBRANCH  28  37
BRANCH  30  40
ATOM     40  O   UNL     1      -7.383  10.648  21.433  0.00  0.00    -0.390 OA
ATOM     41  H   UNL     1      -7.758   9.988  22.020  0.00  0.00    +0.210 HD
ENDBRANCH  30  40
BRANCH  28  42
ATOM     42  O   UNL     1      -6.487  14.087  24.724  0.00  0.00    -0.343 OA
ATOM     43  C   UNL     1      -6.075  13.942  26.107  0.00  0.00    +0.198 C 
ENDBRANCH  28  42
ENDBRANCH  25  26
BRANCH  25  44
ATOM     44  O   UNL     1      -4.551   9.392  25.525  0.00  0.00    -0.387 OA
ATOM     45  H   UNL     1      -4.596   8.525  25.116  0.00  0.00    +0.210 HD
ENDBRANCH  25  44
ENDBRANCH   1  25
TORSDOF 15
