REMARK VINA RESULT:    -5.149      4.893      7.843
REMARK INTER + INTRA:         -11.902
REMARK INTER:                  -9.937
REMARK INTRA:                  -1.965
REMARK UNBOUND:                -2.389
REMARK  Name = lig_assembled_92.pdb
REMARK  18 active torsions:
REMARK  status: ('A' for Active; 'I' for Inactive)
REMARK    1  A    between atoms: _2  and  _11
REMARK    2  A    between atoms: _3  and  _46
REMARK    3  A    between atoms: _6  and  _25
REMARK    4  A    between atoms: _8  and  _9
REMARK    5  A    between atoms: _8  and  _25
REMARK    6  A    between atoms: _14  and  _46
REMARK    7  A    between atoms: _21  and  _41
REMARK    8  A    between atoms: _23  and  _29
REMARK    9  A    between atoms: _24  and  _28
REMARK   10  A    between atoms: _28  and  _29
REMARK   11  A    between atoms: _31  and  _32
REMARK   12  A    between atoms: _33  and  _34
REMARK   13  A    between atoms: _35  and  _37
REMARK   14  A    between atoms: _37  and  _38
REMARK   15  A    between atoms: _37  and  _39
REMARK   16  A    between atoms: _39  and  _40
REMARK   17  A    between atoms: _39  and  _41
REMARK   18  A    between atoms: _42  and  _44
REMARK                            x       y       z     vdW  Elec       q    Type
REMARK                         _______ _______ _______ _____ _____    ______ ____
ROOT
ATOM      1  C   UNL     1      -5.071  10.548  19.056  0.00  0.00    +0.401 C 
ATOM      2  O   UNL     1      -5.009   9.318  18.998  0.00  0.00    -0.226 OA
ATOM      3  N   UNL     1      -4.979  11.350  17.995  0.00  0.00    -0.279 N 
ATOM      4  H   UNL     1      -5.051  12.347  18.142  0.00  0.00    +0.152 HD
ENDROOT
BRANCH   3   5
ATOM      5  C   UNL     1      -4.779  10.866  16.623  0.00  0.00    +0.141 C 
BRANCH   5   6
ATOM      6  C   UNL     1      -5.342  11.836  15.590  0.00  0.00    +0.163 C 
BRANCH   6   7
ATOM      7  O   UNL     1      -6.525  12.469  16.103  0.00  0.00    -0.388 OA
ATOM      8  H   UNL     1      -6.852  11.973  16.857  0.00  0.00    +0.210 HD
ENDBRANCH   6   7
BRANCH   6   9
ATOM      9  C   UNL     1      -4.271  12.880  15.228  0.00  0.00    +0.175 C 
BRANCH   9  10
ATOM     10  C   UNL     1      -4.326  13.274  13.745  0.00  0.00    +0.176 C 
ATOM     11  O   UNL     1      -5.563  14.005  13.522  0.00  0.00    -0.332 OA
ATOM     12  C   UNL     1      -5.740  14.556  12.175  0.00  0.00    +0.277 C 
ATOM     13  C   UNL     1      -5.592  13.442  11.110  0.00  0.00    +0.110 C 
ATOM     14  C   UNL     1      -4.306  12.617  11.326  0.00  0.00    +0.143 C 
ATOM     15  C   UNL     1      -4.222  12.094  12.760  0.00  0.00    +0.133 C 
BRANCH  15  16
ATOM     16  N   UNL     1      -2.952  11.384  12.977  0.00  0.00    -0.308 N 
ATOM     17  H   UNL     1      -2.102  11.929  12.986  0.00  0.00    +0.149 HD
ATOM     18  C   UNL     1      -2.850  10.065  13.162  0.00  0.00    +0.210 C 
ATOM     19  C   UNL     1      -4.161   9.258  13.117  0.00  0.00    +0.109 C 
ATOM     20  O   UNL     1      -1.774   9.498  13.356  0.00  0.00    -0.276 OA
ENDBRANCH  15  16
BRANCH  12  21
ATOM     21  C   UNL     1      -4.710  15.672  11.901  0.00  0.00    +0.414 C 
ATOM     22  O   UNL     1      -4.155  15.749  10.806  0.00  0.00    -0.240 OA
ATOM     23  O   UNL     1      -4.433  16.494  12.775  0.00  0.00    -0.240 OA
ENDBRANCH  12  21
BRANCH  14  24
ATOM     24  O   UNL     1      -4.285  11.512  10.421  0.00  0.00    -0.390 OA
ATOM     25  H   UNL     1      -3.730  11.725   9.667  0.00  0.00    +0.210 HD
ENDBRANCH  14  24
BRANCH  12  26
ATOM     26  O   UNL     1      -7.083  15.099  12.085  0.00  0.00    -0.343 OA
ATOM     27  C   UNL     1      -7.680  15.039  10.765  0.00  0.00    +0.198 C 
ENDBRANCH  12  26
ENDBRANCH   9  10
BRANCH   9  28
ATOM     28  O   UNL     1      -2.960  12.382  15.562  0.00  0.00    -0.387 OA
ATOM     29  H   UNL     1      -3.034  11.488  15.903  0.00  0.00    +0.210 HD
ENDBRANCH   9  28
ENDBRANCH   6   9
ENDBRANCH   5   6
ENDBRANCH   3   5
BRANCH   1  30
ATOM     30  O   UNL     1      -5.257  11.175  20.328  0.00  0.00    -0.444 OA
BRANCH  30  31
ATOM     31  C   UNL     1      -3.990  11.593  20.844  0.00  0.00    +0.292 C 
BRANCH  31  33
ATOM     32  N   UNL     1      -3.219   9.974  22.555  0.00  0.00    -0.131 NA
ATOM     33  C   UNL     1      -3.834  11.151  22.242  0.00  0.00    +0.121 A 
ATOM     34  C   UNL     1      -4.224  11.775  23.404  0.00  0.00    +0.143 A 
ATOM     35  N   UNL     1      -3.796  10.946  24.415  0.00  0.00    -0.220 N 
ATOM     36  N   UNL     1      -3.205   9.852  23.877  0.00  0.00    -0.060 NA
BRANCH  35  37
ATOM     37  C   UNL     1      -3.885  11.148  25.816  0.00  0.00    +0.067 A 
ATOM     38  C   UNL     1      -4.668  12.192  26.334  0.00  0.00    +0.030 A 
ATOM     39  C   UNL     1      -4.706  12.424  27.708  0.00  0.00    +0.031 A 
ATOM     40  C   UNL     1      -3.972  11.609  28.572  0.00  0.00    +0.109 A 
ATOM     41  C   UNL     1      -3.196  10.560  28.072  0.00  0.00    +0.031 A 
ATOM     42  C   UNL     1      -3.161  10.323  26.693  0.00  0.00    +0.030 A 
BRANCH  40  43
ATOM     43  S   UNL     1      -3.923  12.029  30.294  0.00  0.00    +0.074 S 
ATOM     44  O   UNL     1      -5.222  12.568  30.649  0.00  0.00    -0.150 OA
ATOM     45  O   UNL     1      -3.378  10.910  31.026  0.00  0.00    -0.150 OA
BRANCH  43  46
ATOM     46  N   UNL     1      -2.871  13.348  30.348  0.00  0.00    -0.194 N 
ATOM     47  H   UNL     1      -3.238  14.031  29.690  0.00  0.00    +0.176 HD
ATOM     48  C   UNL     1      -2.719  13.854  31.656  0.00  0.00    +0.177 A 
ATOM     49  S   UNL     1      -3.597  15.202  32.232  0.00  0.00    -0.059 S 
ATOM     50  C   UNL     1      -2.705  15.126  33.696  0.00  0.00    +0.068 A 
ATOM     51  C   UNL     1      -1.754  14.132  33.605  0.00  0.00    +0.120 A 
ATOM     52  N   UNL     1      -1.786  13.380  32.444  0.00  0.00    -0.232 NA
ENDBRANCH  43  46
ENDBRANCH  40  43
ENDBRANCH  35  37
ENDBRANCH  31  33
ENDBRANCH  30  31
ENDBRANCH   1  30
TORSDOF 16
