REMARK VINA RESULT:    -4.328      2.713      5.140
REMARK INTER + INTRA:         -10.594
REMARK INTER:                  -6.966
REMARK INTRA:                  -3.629
REMARK UNBOUND:                -2.598
REMARK  Name = lig_assembled_67.pdb
REMARK  18 active torsions:
REMARK  status: ('A' for Active; 'I' for Inactive)
REMARK    1  A    between atoms: _2  and  _9
REMARK    2  A    between atoms: _4  and  _19
REMARK    3  A    between atoms: _6  and  _7
REMARK    4  A    between atoms: _6  and  _19
REMARK    5  A    between atoms: _9  and  _10
REMARK    6  A    between atoms: _10  and  _11
REMARK    7  A    between atoms: _15  and  _35
REMARK    8  A    between atoms: _17  and  _23
REMARK    9  A    between atoms: _18  and  _22
REMARK   10  A    between atoms: _22  and  _23
REMARK   11  A    between atoms: _25  and  _26
REMARK   12  A    between atoms: _27  and  _28
REMARK   13  A    between atoms: _29  and  _31
REMARK   14  A    between atoms: _31  and  _32
REMARK   15  A    between atoms: _31  and  _33
REMARK   16  A    between atoms: _33  and  _34
REMARK   17  A    between atoms: _33  and  _35
REMARK   18  A    between atoms: _36  and  _38
REMARK                            x       y       z     vdW  Elec       q    Type
REMARK                         _______ _______ _______ _____ _____    ______ ____
ROOT
ATOM      1  C   UNL     1      -2.557  10.046  26.935  0.00  0.00    +0.163 C 
ENDROOT
BRANCH   1   2
ATOM      2  O   UNL     1      -3.125   9.401  25.783  0.00  0.00    -0.388 OA
ATOM      3  H   UNL     1      -4.076   9.323  25.895  0.00  0.00    +0.210 HD
ENDBRANCH   1   2
BRANCH   1   4
ATOM      4  C   UNL     1      -3.606  10.912  27.654  0.00  0.00    +0.175 C 
BRANCH   4   5
ATOM      5  C   UNL     1      -4.638  11.497  26.678  0.00  0.00    +0.176 C 
ATOM      6  O   UNL     1      -3.923  11.985  25.510  0.00  0.00    -0.332 OA
ATOM      7  C   UNL     1      -4.762  12.487  24.417  0.00  0.00    +0.277 C 
ATOM      8  C   UNL     1      -5.726  13.582  24.935  0.00  0.00    +0.110 C 
ATOM      9  C   UNL     1      -6.486  13.121  26.196  0.00  0.00    +0.143 C 
ATOM     10  C   UNL     1      -5.518  12.616  27.267  0.00  0.00    +0.133 C 
BRANCH  10  11
ATOM     11  N   UNL     1      -6.258  12.099  28.429  0.00  0.00    -0.308 N 
ATOM     12  H   UNL     1      -6.832  11.278  28.295  0.00  0.00    +0.149 HD
ATOM     13  C   UNL     1      -6.222  12.645  29.647  0.00  0.00    +0.210 C 
ATOM     14  C   UNL     1      -5.360  13.911  29.811  0.00  0.00    +0.109 C 
ATOM     15  O   UNL     1      -6.841  12.182  30.606  0.00  0.00    -0.276 OA
ENDBRANCH  10  11
BRANCH   7  16
ATOM     16  C   UNL     1      -5.576  11.341  23.782  0.00  0.00    +0.414 C 
ATOM     17  O   UNL     1      -5.217  10.172  23.924  0.00  0.00    -0.240 OA
ATOM     18  O   UNL     1      -6.591  11.584  23.127  0.00  0.00    -0.240 OA
ENDBRANCH   7  16
BRANCH   9  19
ATOM     19  O   UNL     1      -7.246  14.209  26.725  0.00  0.00    -0.390 OA
ATOM     20  H   UNL     1      -6.955  14.399  27.619  0.00  0.00    +0.210 HD
ENDBRANCH   9  19
BRANCH   7  21
ATOM     21  O   UNL     1      -3.891  13.079  23.419  0.00  0.00    -0.343 OA
ATOM     22  C   UNL     1      -4.298  14.390  22.952  0.00  0.00    +0.198 C 
ENDBRANCH   7  21
ENDBRANCH   4   5
BRANCH   4  23
ATOM     23  O   UNL     1      -2.958  11.971  28.386  0.00  0.00    -0.387 OA
ATOM     24  H   UNL     1      -3.605  12.427  28.929  0.00  0.00    +0.210 HD
ENDBRANCH   4  23
ENDBRANCH   1   4
BRANCH   1  25
ATOM     25  C   UNL     1      -2.011   9.000  27.902  0.00  0.00    +0.141 C 
BRANCH  25  28
ATOM     26  C   UNL     1      -2.975   8.135  30.006  0.00  0.00    +0.401 C 
ATOM     27  O   UNL     1      -2.934   6.955  29.650  0.00  0.00    -0.226 OA
ATOM     28  N   UNL     1      -2.570   9.157  29.250  0.00  0.00    -0.279 N 
ATOM     29  H   UNL     1      -2.653  10.091  29.627  0.00  0.00    +0.152 HD
BRANCH  26  30
ATOM     30  O   UNL     1      -3.489   8.452  31.303  0.00  0.00    -0.444 OA
BRANCH  30  31
ATOM     31  C   UNL     1      -4.380   9.566  31.205  0.00  0.00    +0.292 C 
BRANCH  31  33
ATOM     32  N   UNL     1      -2.945  11.582  31.250  0.00  0.00    -0.131 NA
ATOM     33  C   UNL     1      -3.815  10.741  31.895  0.00  0.00    +0.120 A 
ATOM     34  C   UNL     1      -4.009  11.196  33.179  0.00  0.00    +0.137 A 
ATOM     35  N   UNL     1      -3.231  12.311  33.254  0.00  0.00    -0.251 N 
ATOM     36  N   UNL     1      -2.592  12.540  32.096  0.00  0.00    -0.065 NA
BRANCH  35  37
ATOM     37  C   UNL     1      -3.057  13.206  34.376  0.00  0.00    +0.150 C 
BRANCH  37  38
ATOM     38  C   UNL     1      -2.120  14.376  34.084  0.00  0.00    +0.084 C 
BRANCH  38  39
ATOM     39  C   UNL     1      -2.872  15.670  33.807  0.00  0.00    +0.252 C 
ATOM     40  O   UNL     1      -2.860  15.958  32.404  0.00  0.00    -0.349 OA
ATOM     41  C   UNL     1      -4.073  16.681  32.210  0.00  0.00    +0.191 C 
ATOM     42  C   UNL     1      -5.032  16.010  33.159  0.00  0.00    +0.191 C 
ATOM     43  O   UNL     1      -4.228  15.565  34.253  0.00  0.00    -0.349 OA
ENDBRANCH  38  39
ENDBRANCH  37  38
ENDBRANCH  35  37
ENDBRANCH  31  33
ENDBRANCH  30  31
ENDBRANCH  26  30
ENDBRANCH  25  28
ENDBRANCH   1  25
TORSDOF 16
