REMARK VINA RESULT:    -4.173      5.444      9.269
REMARK INTER + INTRA:         -10.289
REMARK INTER:                  -7.559
REMARK INTRA:                  -2.730
REMARK UNBOUND:                -3.067
REMARK  Name = lig_assembled_8.pdb
REMARK  16 active torsions:
REMARK  status: ('A' for Active; 'I' for Inactive)
REMARK    1  A    between atoms: _2  and  _9
REMARK    2  A    between atoms: _4  and  _18
REMARK    3  A    between atoms: _6  and  _7
REMARK    4  A    between atoms: _6  and  _18
REMARK    5  A    between atoms: _14  and  _34
REMARK    6  A    between atoms: _16  and  _22
REMARK    7  A    between atoms: _17  and  _21
REMARK    8  A    between atoms: _21  and  _22
REMARK    9  A    between atoms: _24  and  _25
REMARK   10  A    between atoms: _26  and  _27
REMARK   11  A    between atoms: _28  and  _30
REMARK   12  A    between atoms: _30  and  _31
REMARK   13  A    between atoms: _30  and  _32
REMARK   14  A    between atoms: _32  and  _33
REMARK   15  A    between atoms: _32  and  _34
REMARK   16  A    between atoms: _35  and  _37
REMARK                            x       y       z     vdW  Elec       q    Type
REMARK                         _______ _______ _______ _____ _____    ______ ____
ROOT
ATOM      1  C   UNL     1      -6.634   9.202  23.860  0.00  0.00    +0.163 C 
ENDROOT
BRANCH   1   2
ATOM      2  O   UNL     1      -7.020   9.666  25.164  0.00  0.00    -0.388 OA
ATOM      3  H   UNL     1      -7.365  10.560  25.098  0.00  0.00    +0.210 HD
ENDBRANCH   1   2
BRANCH   1   4
ATOM      4  C   UNL     1      -7.737   8.331  23.268  0.00  0.00    +0.141 C 
BRANCH   4   7
ATOM      5  C   UNL     1      -7.902   8.296  20.803  0.00  0.00    +0.401 C 
ATOM      6  O   UNL     1      -7.182   7.303  20.675  0.00  0.00    -0.226 OA
ATOM      7  N   UNL     1      -8.209   8.847  21.978  0.00  0.00    -0.279 N 
ATOM      8  H   UNL     1      -8.800   9.667  21.980  0.00  0.00    +0.152 HD
BRANCH   5   9
ATOM      9  O   UNL     1      -8.449   8.912  19.635  0.00  0.00    -0.444 OA
BRANCH   9  10
ATOM     10  C   UNL     1      -8.217  10.322  19.685  0.00  0.00    +0.292 C 
BRANCH  10  12
ATOM     11  N   UNL     1      -7.109  12.050  18.315  0.00  0.00    -0.131 NA
ATOM     12  C   UNL     1      -7.343  10.737  18.572  0.00  0.00    +0.121 A 
ATOM     13  C   UNL     1      -6.648   9.975  17.662  0.00  0.00    +0.143 A 
ATOM     14  N   UNL     1      -5.970  10.879  16.863  0.00  0.00    -0.219 N 
ATOM     15  N   UNL     1      -6.286  12.126  17.280  0.00  0.00    -0.060 NA
BRANCH  14  16
ATOM     16  C   UNL     1      -5.071  10.604  15.787  0.00  0.00    +0.081 A 
ATOM     17  C   UNL     1      -3.840   9.980  16.093  0.00  0.00    +0.029 A 
ATOM     18  C   UNL     1      -2.896   9.697  15.101  0.00  0.00    +0.002 A 
ATOM     19  C   UNL     1      -3.158  10.028  13.781  0.00  0.00    +0.001 A 
ATOM     20  C   UNL     1      -4.366  10.636  13.453  0.00  0.00    +0.017 A 
ATOM     21  C   UNL     1      -5.329  10.926  14.439  0.00  0.00    +0.043 A 
ATOM     22 BR   UNL     1      -6.901  11.752  13.747  0.00  0.00    -0.048 Br
ENDBRANCH  14  16
ENDBRANCH  10  12
ENDBRANCH   9  10
ENDBRANCH   5   9
ENDBRANCH   4   7
ENDBRANCH   1   4
BRANCH   1  23
ATOM     23  C   UNL     1      -5.324   8.398  23.928  0.00  0.00    +0.175 C 
BRANCH  23  24
ATOM     24  C   UNL     1      -4.145   9.254  24.412  0.00  0.00    +0.176 C 
ATOM     25  O   UNL     1      -4.358   9.554  25.819  0.00  0.00    -0.332 OA
ATOM     26  C   UNL     1      -3.271  10.280  26.483  0.00  0.00    +0.277 C 
ATOM     27  C   UNL     1      -2.942  11.583  25.714  0.00  0.00    +0.110 C 
ATOM     28  C   UNL     1      -2.738  11.319  24.208  0.00  0.00    +0.143 C 
ATOM     29  C   UNL     1      -3.925  10.556  23.619  0.00  0.00    +0.133 C 
BRANCH  29  30
ATOM     30  N   UNL     1      -3.681  10.234  22.204  0.00  0.00    -0.308 N 
ATOM     31  H   UNL     1      -2.968   9.550  21.992  0.00  0.00    +0.149 HD
ATOM     32  C   UNL     1      -4.338  10.787  21.182  0.00  0.00    +0.210 C 
ATOM     33  C   UNL     1      -5.400  11.846  21.537  0.00  0.00    +0.109 C 
ATOM     34  O   UNL     1      -4.122  10.488  20.007  0.00  0.00    -0.276 OA
ENDBRANCH  29  30
BRANCH  26  35
ATOM     35  C   UNL     1      -2.006   9.403  26.579  0.00  0.00    +0.414 C 
ATOM     36  O   UNL     1      -0.891   9.924  26.596  0.00  0.00    -0.240 OA
ATOM     37  O   UNL     1      -2.099   8.177  26.640  0.00  0.00    -0.240 OA
ENDBRANCH  26  35
BRANCH  28  38
ATOM     38  O   UNL     1      -2.587  12.560  23.517  0.00  0.00    -0.390 OA
ATOM     39  H   UNL     1      -1.923  13.094  23.959  0.00  0.00    +0.210 HD
ENDBRANCH  28  38
BRANCH  26  40
ATOM     40  O   UNL     1      -3.720  10.637  27.816  0.00  0.00    -0.343 OA
ATOM     41  C   UNL     1      -4.293  11.964  27.935  0.00  0.00    +0.198 C 
ENDBRANCH  26  40
ENDBRANCH  23  24
BRANCH  23  42
ATOM     42  O   UNL     1      -5.026   7.825  22.639  0.00  0.00    -0.387 OA
ATOM     43  H   UNL     1      -5.187   8.477  21.954  0.00  0.00    +0.210 HD
ENDBRANCH  23  42
ENDBRANCH   1  23
TORSDOF 14
