REMARK VINA RESULT:    -6.345      0.000      0.000
REMARK INTER + INTRA:         -14.123
REMARK INTER:                 -10.031
REMARK INTRA:                  -4.092
REMARK UNBOUND:                -3.141
REMARK  Name = lig_assembled_91.pdb
REMARK  16 active torsions:
REMARK  status: ('A' for Active; 'I' for Inactive)
REMARK    1  A    between atoms: _2  and  _10
REMARK    2  A    between atoms: _5  and  _26
REMARK    3  A    between atoms: _7  and  _8
REMARK    4  A    between atoms: _7  and  _26
REMARK    5  A    between atoms: _22  and  _42
REMARK    6  A    between atoms: _24  and  _30
REMARK    7  A    between atoms: _25  and  _29
REMARK    8  A    between atoms: _29  and  _30
REMARK    9  A    between atoms: _32  and  _33
REMARK   10  A    between atoms: _34  and  _35
REMARK   11  A    between atoms: _36  and  _38
REMARK   12  A    between atoms: _38  and  _39
REMARK   13  A    between atoms: _38  and  _40
REMARK   14  A    between atoms: _40  and  _41
REMARK   15  A    between atoms: _40  and  _42
REMARK   16  A    between atoms: _43  and  _45
REMARK                            x       y       z     vdW  Elec       q    Type
REMARK                         _______ _______ _______ _____ _____    ______ ____
ROOT
ATOM      1  C   UNL     1      -5.195   8.847  22.184  0.00  0.00    +0.401 C 
ATOM      2  O   UNL     1      -4.166   8.179  22.065  0.00  0.00    -0.226 OA
ATOM      3  N   UNL     1      -6.275   8.440  22.852  0.00  0.00    -0.279 N 
ATOM      4  H   UNL     1      -7.069   9.063  22.902  0.00  0.00    +0.152 HD
ENDROOT
BRANCH   3   5
ATOM      5  C   UNL     1      -6.376   7.135  23.519  0.00  0.00    +0.141 C 
BRANCH   5   6
ATOM      6  C   UNL     1      -5.828   7.180  24.941  0.00  0.00    +0.163 C 
BRANCH   6   7
ATOM      7  O   UNL     1      -4.403   6.998  24.925  0.00  0.00    -0.388 OA
ATOM      8  H   UNL     1      -3.986   7.766  24.526  0.00  0.00    +0.210 HD
ENDBRANCH   6   7
BRANCH   6   9
ATOM      9  C   UNL     1      -6.204   8.521  25.595  0.00  0.00    +0.175 C 
BRANCH   9  10
ATOM     10  C   UNL     1      -4.969   9.376  25.910  0.00  0.00    +0.176 C 
ATOM     11  O   UNL     1      -4.466   8.973  27.214  0.00  0.00    -0.332 OA
ATOM     12  C   UNL     1      -3.217   9.614  27.638  0.00  0.00    +0.277 C 
ATOM     13  C   UNL     1      -3.355  11.155  27.584  0.00  0.00    +0.110 C 
ATOM     14  C   UNL     1      -3.917  11.630  26.228  0.00  0.00    +0.143 C 
ATOM     15  C   UNL     1      -5.214  10.897  25.884  0.00  0.00    +0.133 C 
BRANCH  15  16
ATOM     16  N   UNL     1      -5.693  11.294  24.550  0.00  0.00    -0.308 N 
ATOM     17  H   UNL     1      -5.123  11.050  23.753  0.00  0.00    +0.149 HD
ATOM     18  C   UNL     1      -6.831  11.956  24.326  0.00  0.00    +0.210 C 
ATOM     19  C   UNL     1      -7.664  12.336  25.565  0.00  0.00    +0.109 C 
ATOM     20  O   UNL     1      -7.214  12.263  23.196  0.00  0.00    -0.276 OA
ENDBRANCH  15  16
BRANCH  12  21
ATOM     21  C   UNL     1      -2.043   9.170  26.741  0.00  0.00    +0.414 C 
ATOM     22  O   UNL     1      -1.167   9.974  26.423  0.00  0.00    -0.240 OA
ATOM     23  O   UNL     1      -1.970   8.009  26.337  0.00  0.00    -0.240 OA
ENDBRANCH  12  21
BRANCH  14  24
ATOM     24  O   UNL     1      -4.170  13.035  26.276  0.00  0.00    -0.390 OA
ATOM     25  H   UNL     1      -3.532  13.456  26.857  0.00  0.00    +0.210 HD
ENDBRANCH  14  24
BRANCH  12  26
ATOM     26  O   UNL     1      -2.957   9.226  29.011  0.00  0.00    -0.343 OA
ATOM     27  C   UNL     1      -4.008   8.445  29.636  0.00  0.00    +0.198 C 
ENDBRANCH  12  26
ENDBRANCH   9  10
BRANCH   9  28
ATOM     28  O   UNL     1      -6.968   8.290  26.796  0.00  0.00    -0.387 OA
ATOM     29  H   UNL     1      -7.866   8.044  26.562  0.00  0.00    +0.210 HD
ENDBRANCH   9  28
ENDBRANCH   6   9
ENDBRANCH   5   6
ENDBRANCH   3   5
BRANCH   1  30
ATOM     30  O   UNL     1      -5.256  10.142  21.581  0.00  0.00    -0.444 OA
BRANCH  30  31
ATOM     31  C   UNL     1      -3.930  10.629  21.359  0.00  0.00    +0.292 C 
BRANCH  31  33
ATOM     32  N   UNL     1      -3.322  12.206  23.158  0.00  0.00    -0.131 NA
ATOM     33  C   UNL     1      -3.782  11.996  21.895  0.00  0.00    +0.121 A 
ATOM     34  C   UNL     1      -4.028  13.214  21.302  0.00  0.00    +0.143 A 
ATOM     35  N   UNL     1      -3.744  14.159  22.268  0.00  0.00    -0.218 N 
ATOM     36  N   UNL     1      -3.298  13.513  23.375  0.00  0.00    -0.060 NA
BRANCH  35  37
ATOM     37  C   UNL     1      -3.870  15.581  22.215  0.00  0.00    +0.085 A 
ATOM     38  C   UNL     1      -2.785  16.388  21.715  0.00  0.00    +0.026 A 
ATOM     39  C   UNL     1      -3.004  17.779  21.730  0.00  0.00    +0.074 A 
ATOM     40  C   UNL     1      -2.031  18.657  21.275  0.00  0.00    +0.028 A 
ATOM     41  C   UNL     1      -0.808  18.218  20.780  0.00  0.00    +0.002 A 
ATOM     42  C   UNL     1      -0.564  16.861  20.714  0.00  0.00    +0.001 A 
ATOM     43  N   UNL     1      -4.133  18.348  22.146  0.00  0.00    -0.247 NA
ATOM     44  C   UNL     1      -5.144  17.598  22.581  0.00  0.00    +0.074 A 
ATOM     45  C   UNL     1      -6.275  18.296  22.994  0.00  0.00    +0.028 A 
ATOM     46  C   UNL     1      -7.398  17.655  23.507  0.00  0.00    +0.002 A 
ATOM     47  C   UNL     1      -7.388  16.279  23.623  0.00  0.00    +0.001 A 
ATOM     48  C   UNL     1      -6.257  15.563  23.217  0.00  0.00    +0.012 A 
ATOM     49  C   UNL     1      -1.541  15.961  21.152  0.00  0.00    +0.012 A 
ATOM     50  C   UNL     1      -5.099  16.197  22.661  0.00  0.00    +0.026 A 
ENDBRANCH  35  37
ENDBRANCH  31  33
ENDBRANCH  30  31
ENDBRANCH   1  30
TORSDOF 14
