REMARK VINA RESULT:    -5.268      0.000      0.000
REMARK INTER + INTRA:         -13.932
REMARK INTER:                  -9.336
REMARK INTRA:                  -4.595
REMARK UNBOUND:                -3.581
REMARK  Name = lig_assembled_31.pdb
REMARK  20 active torsions:
REMARK  status: ('A' for Active; 'I' for Inactive)
REMARK    1  A    between atoms: _2  and  _11
REMARK    2  A    between atoms: _3  and  _12
REMARK    3  A    between atoms: _4  and  _14
REMARK    4  A    between atoms: _6  and  _24
REMARK    5  A    between atoms: _8  and  _9
REMARK    6  A    between atoms: _8  and  _24
REMARK    7  A    between atoms: _11  and  _12
REMARK    8  A    between atoms: _14  and  _15
REMARK    9  A    between atoms: _20  and  _40
REMARK   10  A    between atoms: _22  and  _28
REMARK   11  A    between atoms: _23  and  _27
REMARK   12  A    between atoms: _27  and  _28
REMARK   13  A    between atoms: _30  and  _31
REMARK   14  A    between atoms: _32  and  _33
REMARK   15  A    between atoms: _34  and  _36
REMARK   16  A    between atoms: _36  and  _37
REMARK   17  A    between atoms: _36  and  _38
REMARK   18  A    between atoms: _38  and  _39
REMARK   19  A    between atoms: _38  and  _40
REMARK   20  A    between atoms: _41  and  _43
REMARK                            x       y       z     vdW  Elec       q    Type
REMARK                         _______ _______ _______ _____ _____    ______ ____
ROOT
ATOM      1  C   UNL     1      -4.128   7.165  23.403  0.00  0.00    +0.401 C 
ATOM      2  O   UNL     1      -4.023   7.893  22.413  0.00  0.00    -0.226 OA
ATOM      3  N   UNL     1      -5.283   6.899  24.014  0.00  0.00    -0.279 N 
ATOM      4  H   UNL     1      -5.269   6.282  24.814  0.00  0.00    +0.152 HD
ENDROOT
BRANCH   1   5
ATOM      5  O   UNL     1      -2.953   6.555  23.944  0.00  0.00    -0.444 OA
BRANCH   5   6
ATOM      6  C   UNL     1      -3.306   5.763  25.081  0.00  0.00    +0.292 C 
BRANCH   6   8
ATOM      7  N   UNL     1      -1.991   7.491  26.270  0.00  0.00    -0.131 NA
ATOM      8  C   UNL     1      -2.792   6.382  26.319  0.00  0.00    +0.120 A 
ATOM      9  C   UNL     1      -2.981   6.024  27.635  0.00  0.00    +0.137 A 
ATOM     10  N   UNL     1      -2.262   6.948  28.333  0.00  0.00    -0.250 N 
ATOM     11  N   UNL     1      -1.673   7.832  27.512  0.00  0.00    -0.065 NA
BRANCH  10  12
ATOM     12  C   UNL     1      -2.088   7.049  29.768  0.00  0.00    +0.164 C 
BRANCH  12  13
ATOM     13  C   UNL     1      -3.012   8.098  30.366  0.00  0.00    +0.129 C 
BRANCH  13  14
ATOM     14  N   UNL     1      -2.668   9.474  30.031  0.00  0.00    -0.298 N 
ATOM     15  H   UNL     1      -1.734   9.715  29.734  0.00  0.00    +0.150 HD
ATOM     16  C   UNL     1      -3.462  10.479  30.518  0.00  0.00    +0.300 C 
ATOM     17  O   UNL     1      -4.501  10.264  31.137  0.00  0.00    -0.253 OA
ATOM     18  N   UNL     1      -3.018  11.734  30.233  0.00  0.00    -0.292 N 
ATOM     19  H   UNL     1      -2.143  11.910  29.760  0.00  0.00    +0.151 HD
BRANCH  18  20
ATOM     20  C   UNL     1      -3.790  12.862  30.699  0.00  0.00    +0.180 C 
BRANCH  20  21
ATOM     21  C   UNL     1      -3.187  13.545  31.871  0.00  0.00    +0.122 A 
ATOM     22  O   UNL     1      -1.978  13.112  32.342  0.00  0.00    -0.466 OA
ATOM     23  C   UNL     1      -1.665  13.905  33.404  0.00  0.00    +0.195 A 
ATOM     24  C   UNL     1      -2.653  14.837  33.625  0.00  0.00    +0.041 A 
ATOM     25  C   UNL     1      -3.636  14.606  32.635  0.00  0.00    +0.046 A 
ENDBRANCH  20  21
ENDBRANCH  18  20
ENDBRANCH  13  14
ENDBRANCH  12  13
ENDBRANCH  10  12
ENDBRANCH   6   8
ENDBRANCH   5   6
ENDBRANCH   1   5
BRANCH   3  26
ATOM     26  C   UNL     1      -6.575   7.453  23.590  0.00  0.00    +0.141 C 
BRANCH  26  27
ATOM     27  C   UNL     1      -6.986   8.652  24.438  0.00  0.00    +0.163 C 
BRANCH  27  28
ATOM     28  O   UNL     1      -6.358   8.579  25.729  0.00  0.00    -0.388 OA
ATOM     29  H   UNL     1      -6.456   7.692  26.083  0.00  0.00    +0.210 HD
ENDBRANCH  27  28
BRANCH  27  30
ATOM     30  C   UNL     1      -6.600   9.952  23.712  0.00  0.00    +0.175 C 
BRANCH  30  31
ATOM     31  C   UNL     1      -5.358  10.612  24.328  0.00  0.00    +0.176 C 
ATOM     32  O   UNL     1      -5.782  11.352  25.506  0.00  0.00    -0.332 OA
ATOM     33  C   UNL     1      -4.706  11.966  26.290  0.00  0.00    +0.277 C 
ATOM     34  C   UNL     1      -3.830  12.872  25.390  0.00  0.00    +0.110 C 
ATOM     35  C   UNL     1      -3.381  12.138  24.109  0.00  0.00    +0.143 C 
ATOM     36  C   UNL     1      -4.578  11.536  23.373  0.00  0.00    +0.133 C 
BRANCH  36  37
ATOM     37  N   UNL     1      -4.129  10.766  22.202  0.00  0.00    -0.308 N 
ATOM     38  H   UNL     1      -3.518   9.978  22.362  0.00  0.00    +0.149 HD
ATOM     39  C   UNL     1      -4.478  11.041  20.942  0.00  0.00    +0.210 C 
ATOM     40  C   UNL     1      -5.390  12.264  20.730  0.00  0.00    +0.109 C 
ATOM     41  O   UNL     1      -4.098  10.370  19.982  0.00  0.00    -0.276 OA
ENDBRANCH  36  37
BRANCH  33  42
ATOM     42  C   UNL     1      -3.824  10.885  26.948  0.00  0.00    +0.414 C 
ATOM     43  O   UNL     1      -2.619  11.081  27.108  0.00  0.00    -0.240 OA
ATOM     44  O   UNL     1      -4.316   9.819  27.320  0.00  0.00    -0.240 OA
ENDBRANCH  33  42
BRANCH  35  45
ATOM     45  O   UNL     1      -2.707  13.052  23.242  0.00  0.00    -0.390 OA
ATOM     46  H   UNL     1      -2.250  13.714  23.766  0.00  0.00    +0.210 HD
ENDBRANCH  35  45
BRANCH  33  47
ATOM     47  O   UNL     1      -5.314  12.792  27.316  0.00  0.00    -0.343 OA
ATOM     48  C   UNL     1      -6.330  13.711  26.840  0.00  0.00    +0.198 C 
ENDBRANCH  33  47
ENDBRANCH  30  31
BRANCH  30  49
ATOM     49  O   UNL     1      -7.708  10.874  23.721  0.00  0.00    -0.387 OA
ATOM     50  H   UNL     1      -7.428  11.708  24.107  0.00  0.00    +0.210 HD
ENDBRANCH  30  49
ENDBRANCH  27  30
ENDBRANCH  26  27
ENDBRANCH   3  26
TORSDOF 18
