REMARK VINA RESULT:    -4.917      0.000      0.000
REMARK INTER + INTRA:         -11.507
REMARK INTER:                  -8.653
REMARK INTRA:                  -2.854
REMARK UNBOUND:                -2.997
REMARK  Name = lig_assembled_15.pdb
REMARK  16 active torsions:
REMARK  status: ('A' for Active; 'I' for Inactive)
REMARK    1  A    between atoms: _2  and  _9
REMARK    2  A    between atoms: _4  and  _18
REMARK    3  A    between atoms: _6  and  _7
REMARK    4  A    between atoms: _6  and  _18
REMARK    5  A    between atoms: _14  and  _34
REMARK    6  A    between atoms: _16  and  _22
REMARK    7  A    between atoms: _17  and  _21
REMARK    8  A    between atoms: _21  and  _22
REMARK    9  A    between atoms: _24  and  _25
REMARK   10  A    between atoms: _26  and  _27
REMARK   11  A    between atoms: _28  and  _30
REMARK   12  A    between atoms: _30  and  _31
REMARK   13  A    between atoms: _30  and  _32
REMARK   14  A    between atoms: _32  and  _33
REMARK   15  A    between atoms: _32  and  _34
REMARK   16  A    between atoms: _35  and  _37
REMARK                            x       y       z     vdW  Elec       q    Type
REMARK                         _______ _______ _______ _____ _____    ______ ____
ROOT
ATOM      1  C   UNL     1      -6.521   8.806  23.133  0.00  0.00    +0.163 C 
ENDROOT
BRANCH   1   2
ATOM      2  O   UNL     1      -6.270   8.966  24.539  0.00  0.00    -0.388 OA
ATOM      3  H   UNL     1      -7.104   9.050  25.006  0.00  0.00    +0.210 HD
ENDBRANCH   1   2
BRANCH   1   4
ATOM      4  C   UNL     1      -5.567   7.771  22.546  0.00  0.00    +0.141 C 
BRANCH   4   7
ATOM      5  C   UNL     1      -3.798   6.293  23.436  0.00  0.00    +0.401 C 
ATOM      6  O   UNL     1      -4.010   5.392  22.621  0.00  0.00    -0.226 OA
ATOM      7  N   UNL     1      -4.482   7.437  23.478  0.00  0.00    -0.279 N 
ATOM      8  H   UNL     1      -4.241   8.111  24.190  0.00  0.00    +0.152 HD
BRANCH   5   9
ATOM      9  O   UNL     1      -2.763   6.121  24.408  0.00  0.00    -0.444 OA
BRANCH   9  10
ATOM     10  C   UNL     1      -3.348   5.922  25.698  0.00  0.00    +0.292 C 
BRANCH  10  12
ATOM     11  N   UNL     1      -1.680   7.452  26.698  0.00  0.00    -0.131 NA
ATOM     12  C   UNL     1      -2.972   7.023  26.606  0.00  0.00    +0.121 A 
ATOM     13  C   UNL     1      -3.756   7.775  27.451  0.00  0.00    +0.143 A 
ATOM     14  N   UNL     1      -2.893   8.681  28.023  0.00  0.00    -0.220 N 
ATOM     15  N   UNL     1      -1.638   8.455  27.564  0.00  0.00    -0.060 NA
BRANCH  14  16
ATOM     16  C   UNL     1      -3.186   9.736  28.928  0.00  0.00    +0.067 A 
ATOM     17  C   UNL     1      -3.916  10.859  28.514  0.00  0.00    +0.029 A 
ATOM     18  C   UNL     1      -4.158  11.906  29.410  0.00  0.00    +0.017 A 
ATOM     19  C   UNL     1      -3.678  11.830  30.715  0.00  0.00    +0.018 A 
ATOM     20 BR   UNL     1      -3.987  13.261  31.911  0.00  0.00    -0.050 Br
ATOM     21  C   UNL     1      -2.964  10.712  31.142  0.00  0.00    +0.017 A 
ATOM     22  C   UNL     1      -2.720   9.663  30.251  0.00  0.00    +0.029 A 
ENDBRANCH  14  16
ENDBRANCH  10  12
ENDBRANCH   9  10
ENDBRANCH   5   9
ENDBRANCH   4   7
ENDBRANCH   1   4
BRANCH   1  23
ATOM     23  C   UNL     1      -6.353  10.141  22.389  0.00  0.00    +0.175 C 
BRANCH  23  24
ATOM     24  C   UNL     1      -5.011  10.816  22.708  0.00  0.00    +0.176 C 
ATOM     25  O   UNL     1      -5.199  11.650  23.885  0.00  0.00    -0.332 OA
ATOM     26  C   UNL     1      -3.989  12.295  24.404  0.00  0.00    +0.277 C 
ATOM     27  C   UNL     1      -3.291  13.113  23.290  0.00  0.00    +0.110 C 
ATOM     28  C   UNL     1      -3.098  12.277  22.007  0.00  0.00    +0.143 C 
ATOM     29  C   UNL     1      -4.418  11.649  21.557  0.00  0.00    +0.133 C 
BRANCH  29  30
ATOM     30  N   UNL     1      -4.205  10.786  20.385  0.00  0.00    -0.308 N 
ATOM     31  H   UNL     1      -3.507  10.058  20.455  0.00  0.00    +0.149 HD
ATOM     32  C   UNL     1      -4.873  10.901  19.234  0.00  0.00    +0.210 C 
ATOM     33  C   UNL     1      -5.911  12.036  19.149  0.00  0.00    +0.109 C 
ATOM     34  O   UNL     1      -4.684  10.154  18.273  0.00  0.00    -0.276 OA
ENDBRANCH  29  30
BRANCH  26  35
ATOM     35  C   UNL     1      -3.008  11.246  24.966  0.00  0.00    +0.414 C 
ATOM     36  O   UNL     1      -1.988  11.604  25.555  0.00  0.00    -0.240 OA
ATOM     37  O   UNL     1      -3.235  10.043  24.831  0.00  0.00    -0.240 OA
ENDBRANCH  26  35
BRANCH  28  38
ATOM     38  O   UNL     1      -2.592  13.108  20.962  0.00  0.00    -0.390 OA
ATOM     39  H   UNL     1      -1.678  12.876  20.781  0.00  0.00    +0.210 HD
ENDBRANCH  28  38
BRANCH  26  40
ATOM     40  O   UNL     1      -4.386  13.208  25.460  0.00  0.00    -0.343 OA
ATOM     41  C   UNL     1      -5.815  13.294  25.691  0.00  0.00    +0.198 C 
ENDBRANCH  26  40
ENDBRANCH  23  24
BRANCH  23  42
ATOM     42  O   UNL     1      -7.444  11.029  22.707  0.00  0.00    -0.387 OA
ATOM     43  H   UNL     1      -8.154  10.529  23.116  0.00  0.00    +0.210 HD
ENDBRANCH  23  42
ENDBRANCH   1  23
TORSDOF 14
