REMARK VINA RESULT:    -5.950      0.000      0.000
REMARK INTER + INTRA:         -14.324
REMARK INTER:                 -11.471
REMARK INTRA:                  -2.854
REMARK UNBOUND:                -3.157
REMARK  Name = lig_assembled_64.pdb
REMARK  19 active torsions:
REMARK  status: ('A' for Active; 'I' for Inactive)
REMARK    1  A    between atoms: _2  and  _10
REMARK    2  A    between atoms: _5  and  _27
REMARK    3  A    between atoms: _7  and  _8
REMARK    4  A    between atoms: _7  and  _27
REMARK    5  A    between atoms: _12  and  _13
REMARK    6  A    between atoms: _13  and  _21
REMARK    7  A    between atoms: _14  and  _15
REMARK    8  A    between atoms: _23  and  _43
REMARK    9  A    between atoms: _25  and  _31
REMARK   10  A    between atoms: _26  and  _30
REMARK   11  A    between atoms: _30  and  _31
REMARK   12  A    between atoms: _33  and  _34
REMARK   13  A    between atoms: _35  and  _36
REMARK   14  A    between atoms: _37  and  _39
REMARK   15  A    between atoms: _39  and  _40
REMARK   16  A    between atoms: _39  and  _41
REMARK   17  A    between atoms: _41  and  _42
REMARK   18  A    between atoms: _41  and  _43
REMARK   19  A    between atoms: _44  and  _46
REMARK                            x       y       z     vdW  Elec       q    Type
REMARK                         _______ _______ _______ _____ _____    ______ ____
ROOT
ATOM      1  C   UNL     1      -3.795   7.521  16.498  0.00  0.00    +0.401 C 
ATOM      2  O   UNL     1      -3.230   6.451  16.735  0.00  0.00    -0.226 OA
ATOM      3  N   UNL     1      -3.672   8.191  15.351  0.00  0.00    -0.279 N 
ATOM      4  H   UNL     1      -4.184   9.056  15.247  0.00  0.00    +0.152 HD
ENDROOT
BRANCH   3   5
ATOM      5  C   UNL     1      -2.836   7.742  14.231  0.00  0.00    +0.141 C 
BRANCH   5   6
ATOM      6  C   UNL     1      -2.367   8.909  13.368  0.00  0.00    +0.163 C 
BRANCH   6   7
ATOM      7  O   UNL     1      -2.548   8.596  11.978  0.00  0.00    -0.388 OA
ATOM      8  H   UNL     1      -1.975   7.864  11.736  0.00  0.00    +0.210 HD
ENDBRANCH   6   7
BRANCH   6   9
ATOM      9  C   UNL     1      -3.146  10.178  13.753  0.00  0.00    +0.175 C 
BRANCH   9  10
ATOM     10  C   UNL     1      -3.274  11.157  12.576  0.00  0.00    +0.176 C 
ATOM     11  O   UNL     1      -1.933  11.464  12.103  0.00  0.00    -0.332 OA
ATOM     12  C   UNL     1      -1.861  12.308  10.906  0.00  0.00    +0.277 C 
ATOM     13  C   UNL     1      -2.653  13.621  11.122  0.00  0.00    +0.110 C 
ATOM     14  C   UNL     1      -4.075  13.347  11.656  0.00  0.00    +0.143 C 
ATOM     15  C   UNL     1      -4.033  12.457  12.899  0.00  0.00    +0.133 C 
BRANCH  15  16
ATOM     16  N   UNL     1      -5.396  12.132  13.346  0.00  0.00    -0.308 N 
ATOM     17  H   UNL     1      -6.034  11.739  12.668  0.00  0.00    +0.149 HD
ATOM     18  C   UNL     1      -5.846  12.322  14.590  0.00  0.00    +0.210 C 
ATOM     19  C   UNL     1      -4.857  12.947  15.592  0.00  0.00    +0.109 C 
ATOM     20  O   UNL     1      -6.989  12.027  14.940  0.00  0.00    -0.276 OA
ENDBRANCH  15  16
BRANCH  12  21
ATOM     21  C   UNL     1      -2.422  11.563   9.677  0.00  0.00    +0.414 C 
ATOM     22  O   UNL     1      -2.794  12.192   8.687  0.00  0.00    -0.240 OA
ATOM     23  O   UNL     1      -2.502  10.334   9.675  0.00  0.00    -0.240 OA
ENDBRANCH  12  21
BRANCH  12  24
ATOM     24  O   UNL     1      -0.469  12.646  10.679  0.00  0.00    -0.343 OA
ATOM     25  C   UNL     1      -0.021  13.864  11.326  0.00  0.00    +0.198 C 
ENDBRANCH  12  24
BRANCH  14  26
ATOM     26  O   UNL     1      -4.714  14.582  11.982  0.00  0.00    -0.390 OA
ATOM     27  H   UNL     1      -4.362  15.281  11.426  0.00  0.00    +0.210 HD
ENDBRANCH  14  26
ENDBRANCH   9  10
BRANCH   9  28
ATOM     28  O   UNL     1      -2.515  10.828  14.874  0.00  0.00    -0.387 OA
ATOM     29  H   UNL     1      -1.629  11.104  14.627  0.00  0.00    +0.210 HD
ENDBRANCH   9  28
ENDBRANCH   6   9
ENDBRANCH   5   6
ENDBRANCH   3   5
BRANCH   1  30
ATOM     30  O   UNL     1      -4.642   8.096  17.496  0.00  0.00    -0.444 OA
BRANCH  30  31
ATOM     31  C   UNL     1      -5.234   9.295  16.989  0.00  0.00    +0.292 C 
BRANCH  31  33
ATOM     32  N   UNL     1      -6.478  11.108  18.138  0.00  0.00    -0.131 NA
ATOM     33  C   UNL     1      -5.386  10.292  18.065  0.00  0.00    +0.121 A 
ATOM     34  C   UNL     1      -4.544  10.577  19.115  0.00  0.00    +0.143 A 
ATOM     35  N   UNL     1      -5.166  11.591  19.805  0.00  0.00    -0.220 N 
ATOM     36  N   UNL     1      -6.338  11.893  19.199  0.00  0.00    -0.060 NA
BRANCH  35  37
ATOM     37  C   UNL     1      -4.724  12.262  20.971  0.00  0.00    +0.071 A 
ATOM     38  C   UNL     1      -3.978  11.585  21.930  0.00  0.00    +0.063 A 
ATOM     39  CA  UNL     1      -3.578  12.296  23.044  0.00  0.00    +0.150 A 
ATOM     40  N   UNL     1      -3.865  13.609  23.276  0.00  0.00    -0.240 NA
ATOM     41  C   UNL     1      -4.608  14.260  22.339  0.00  0.00    +0.074 A 
ATOM     42  C   UNL     1      -5.038  13.615  21.175  0.00  0.00    +0.056 A 
BRANCH  41  43
ATOM     43  C   UNL     1      -4.942  15.670  22.654  0.00  0.00    +0.000 A 
ATOM     44  C   UNL     1      -4.238  16.749  22.088  0.00  0.00    +0.010 A 
ATOM     45  C   UNL     1      -4.588  18.078  22.363  0.00  0.00    +0.001 A 
ATOM     46  C   UNL     1      -5.653  18.359  23.212  0.00  0.00    +0.000 A 
ATOM     47  C   UNL     1      -6.362  17.313  23.793  0.00  0.00    +0.001 A 
ATOM     48  C   UNL     1      -6.010  15.987  23.517  0.00  0.00    +0.010 A 
ENDBRANCH  41  43
BRANCH  39  49
ATOM     49  C   UNL     1      -2.776  11.611  24.099  0.00  0.00    +0.355 C 
ATOM     50  OXT UNL     1      -2.792  10.411  24.307  0.00  0.00    -0.243 OA
BRANCH  49  51
ATOM     51  O   UNL     1      -2.033  12.504  24.791  0.00  0.00    -0.476 OA
ATOM     52  H   UNL     1      -2.577  12.874  25.525  0.00  0.00    +0.295 HD
ENDBRANCH  49  51
ENDBRANCH  39  49
ENDBRANCH  35  37
ENDBRANCH  31  33
ENDBRANCH  30  31
ENDBRANCH   1  30
TORSDOF 17
