REMARK VINA RESULT:    -5.262      0.000      0.000
REMARK INTER + INTRA:         -13.197
REMARK INTER:                  -9.604
REMARK INTRA:                  -3.594
REMARK UNBOUND:                -3.320
REMARK  Name = lig_assembled_16.pdb
REMARK  19 active torsions:
REMARK  status: ('A' for Active; 'I' for Inactive)
REMARK    1  A    between atoms: _2  and  _9
REMARK    2  A    between atoms: _4  and  _22
REMARK    3  A    between atoms: _6  and  _7
REMARK    4  A    between atoms: _6  and  _22
REMARK    5  A    between atoms: _9  and  _10
REMARK    6  A    between atoms: _13  and  _14
REMARK    7  A    between atoms: _14  and  _16
REMARK    8  A    between atoms: _18  and  _38
REMARK    9  A    between atoms: _20  and  _26
REMARK   10  A    between atoms: _21  and  _25
REMARK   11  A    between atoms: _25  and  _26
REMARK   12  A    between atoms: _28  and  _29
REMARK   13  A    between atoms: _30  and  _31
REMARK   14  A    between atoms: _32  and  _34
REMARK   15  A    between atoms: _34  and  _35
REMARK   16  A    between atoms: _34  and  _36
REMARK   17  A    between atoms: _36  and  _37
REMARK   18  A    between atoms: _36  and  _38
REMARK   19  A    between atoms: _39  and  _41
REMARK                            x       y       z     vdW  Elec       q    Type
REMARK                         _______ _______ _______ _____ _____    ______ ____
ROOT
ATOM      1  C   UNL     1      -7.321   9.613  24.157  0.00  0.00    +0.163 C 
ENDROOT
BRANCH   1   2
ATOM      2  O   UNL     1      -6.637   9.186  25.346  0.00  0.00    -0.388 OA
ATOM      3  H   UNL     1      -7.239   9.224  26.093  0.00  0.00    +0.210 HD
ENDBRANCH   1   2
BRANCH   1   4
ATOM      4  C   UNL     1      -6.918  11.047  23.775  0.00  0.00    +0.175 C 
BRANCH   4   5
ATOM      5  C   UNL     1      -5.415  11.295  23.965  0.00  0.00    +0.176 C 
ATOM      6  O   UNL     1      -5.186  11.602  25.368  0.00  0.00    -0.332 OA
ATOM      7  C   UNL     1      -3.783  11.765  25.761  0.00  0.00    +0.277 C 
ATOM      8  C   UNL     1      -3.094  12.830  24.874  0.00  0.00    +0.110 C 
ATOM      9  C   UNL     1      -3.335  12.564  23.373  0.00  0.00    +0.143 C 
ATOM     10  C   UNL     1      -4.827  12.407  23.077  0.00  0.00    +0.133 C 
BRANCH  10  11
ATOM     11  N   UNL     1      -5.038  12.068  21.661  0.00  0.00    -0.308 N 
ATOM     12  H   UNL     1      -4.606  11.226  21.308  0.00  0.00    +0.149 HD
ATOM     13  C   UNL     1      -5.764  12.801  20.811  0.00  0.00    +0.210 C 
ATOM     14  C   UNL     1      -6.387  14.092  21.373  0.00  0.00    +0.109 C 
ATOM     15  O   UNL     1      -5.936  12.484  19.634  0.00  0.00    -0.276 OA
ENDBRANCH  10  11
BRANCH   7  16
ATOM     16  C   UNL     1      -3.023  10.428  25.646  0.00  0.00    +0.414 C 
ATOM     17  O   UNL     1      -1.794  10.414  25.607  0.00  0.00    -0.240 OA
ATOM     18  O   UNL     1      -3.639   9.363  25.593  0.00  0.00    -0.240 OA
ENDBRANCH   7  16
BRANCH   7  19
ATOM     19  O   UNL     1      -3.753  12.227  27.136  0.00  0.00    -0.343 OA
ATOM     20  C   UNL     1      -4.773  11.658  27.996  0.00  0.00    +0.198 C 
ENDBRANCH   7  19
BRANCH   9  21
ATOM     21  O   UNL     1      -2.814  13.647  22.602  0.00  0.00    -0.390 OA
ATOM     22  H   UNL     1      -3.261  13.681  21.753  0.00  0.00    +0.210 HD
ENDBRANCH   9  21
ENDBRANCH   4   5
BRANCH   4  23
ATOM     23  O   UNL     1      -7.680  11.999  24.545  0.00  0.00    -0.387 OA
ATOM     24  H   UNL     1      -7.088  12.657  24.916  0.00  0.00    +0.210 HD
ENDBRANCH   4  23
ENDBRANCH   1   4
BRANCH   1  25
ATOM     25  C   UNL     1      -7.000   8.669  23.003  0.00  0.00    +0.141 C 
BRANCH  25  28
ATOM     26  C   UNL     1      -4.652   8.039  22.561  0.00  0.00    +0.401 C 
ATOM     27  O   UNL     1      -4.515   8.834  21.629  0.00  0.00    -0.226 OA
ATOM     28  N   UNL     1      -5.781   7.891  23.255  0.00  0.00    -0.279 N 
ATOM     29  H   UNL     1      -5.799   7.204  23.997  0.00  0.00    +0.152 HD
BRANCH  26  30
ATOM     30  O   UNL     1      -3.548   7.211  22.936  0.00  0.00    -0.444 OA
BRANCH  30  31
ATOM     31  C   UNL     1      -4.018   6.113  23.722  0.00  0.00    +0.292 C 
BRANCH  31  33
ATOM     32  N   UNL     1      -1.767   5.976  24.746  0.00  0.00    -0.131 NA
ATOM     33  C   UNL     1      -3.130   5.893  24.876  0.00  0.00    +0.120 A 
ATOM     34  C   UNL     1      -3.441   5.618  26.189  0.00  0.00    +0.137 A 
ATOM     35  N   UNL     1      -2.233   5.641  26.820  0.00  0.00    -0.247 N 
ATOM     36  N   UNL     1      -1.224   5.803  25.945  0.00  0.00    -0.065 NA
BRANCH  35  37
ATOM     37  C   UNL     1      -1.968   5.541  28.241  0.00  0.00    +0.180 C 
BRANCH  37  38
ATOM     38  C   UNL     1      -2.339   6.818  28.961  0.00  0.00    -0.026 A 
ATOM     39  C   UNL     1      -3.022   6.777  30.185  0.00  0.00    +0.006 A 
ATOM     40  C   UNL     1      -3.329   7.959  30.864  0.00  0.00    +0.015 A 
ATOM     41  C   UNL     1      -2.971   9.197  30.326  0.00  0.00    +0.059 A 
ATOM     42  C   UNL     1      -2.307   9.252  29.091  0.00  0.00    +0.015 A 
ATOM     43  C   UNL     1      -2.007   8.067  28.411  0.00  0.00    +0.006 A 
BRANCH  41  44
ATOM     44  C   UNL     1      -3.256  10.418  31.125  0.00  0.00    +0.337 C 
ATOM     45  O   UNL     1      -4.390  10.759  31.420  0.00  0.00    -0.245 OA
BRANCH  44  46
ATOM     46  O   UNL     1      -2.162  11.126  31.461  0.00  0.00    -0.477 OA
ATOM     47  H   UNL     1      -1.573  10.699  32.109  0.00  0.00    +0.295 HD
ENDBRANCH  44  46
ENDBRANCH  41  44
ENDBRANCH  37  38
ENDBRANCH  35  37
ENDBRANCH  31  33
ENDBRANCH  30  31
ENDBRANCH  26  30
ENDBRANCH  25  28
ENDBRANCH   1  25
TORSDOF 17
