REMARK VINA RESULT:    -5.457      0.000      0.000
REMARK INTER + INTRA:         -13.081
REMARK INTER:                 -10.131
REMARK INTRA:                  -2.950
REMARK UNBOUND:                -2.678
REMARK  Name = lig_assembled_26.pdb
REMARK  20 active torsions:
REMARK  status: ('A' for Active; 'I' for Inactive)
REMARK    1  A    between atoms: _2  and  _9
REMARK    2  A    between atoms: _4  and  _23
REMARK    3  A    between atoms: _6  and  _7
REMARK    4  A    between atoms: _6  and  _23
REMARK    5  A    between atoms: _9  and  _10
REMARK    6  A    between atoms: _9  and  _11
REMARK    7  A    between atoms: _11  and  _12
REMARK    8  A    between atoms: _12  and  _13
REMARK    9  A    between atoms: _19  and  _39
REMARK   10  A    between atoms: _21  and  _27
REMARK   11  A    between atoms: _22  and  _26
REMARK   12  A    between atoms: _26  and  _27
REMARK   13  A    between atoms: _29  and  _30
REMARK   14  A    between atoms: _31  and  _32
REMARK   15  A    between atoms: _33  and  _35
REMARK   16  A    between atoms: _35  and  _36
REMARK   17  A    between atoms: _35  and  _37
REMARK   18  A    between atoms: _37  and  _38
REMARK   19  A    between atoms: _37  and  _39
REMARK   20  A    between atoms: _40  and  _42
REMARK                            x       y       z     vdW  Elec       q    Type
REMARK                         _______ _______ _______ _____ _____    ______ ____
ROOT
ATOM      1  C   UNL     1      -4.018  11.385  22.038  0.00  0.00    +0.163 C 
ENDROOT
BRANCH   1   2
ATOM      2  O   UNL     1      -3.846  10.030  21.593  0.00  0.00    -0.388 OA
ATOM      3  H   UNL     1      -4.250   9.431  22.226  0.00  0.00    +0.210 HD
ENDBRANCH   1   2
BRANCH   1   4
ATOM      4  C   UNL     1      -2.970  11.751  23.104  0.00  0.00    +0.175 C 
BRANCH   4   5
ATOM      5  C   UNL     1      -3.335  11.194  24.488  0.00  0.00    +0.176 C 
ATOM      6  O   UNL     1      -3.145   9.753  24.454  0.00  0.00    -0.332 OA
ATOM      7  C   UNL     1      -3.346   9.057  25.729  0.00  0.00    +0.277 C 
ATOM      8  C   UNL     1      -4.742   9.387  26.311  0.00  0.00    +0.110 C 
ATOM      9  C   UNL     1      -5.003  10.908  26.338  0.00  0.00    +0.143 C 
ATOM     10  C   UNL     1      -4.761  11.530  24.962  0.00  0.00    +0.133 C 
BRANCH  10  11
ATOM     11  N   UNL     1      -4.928  12.991  25.021  0.00  0.00    -0.308 N 
ATOM     12  H   UNL     1      -4.240  13.524  25.534  0.00  0.00    +0.149 HD
ATOM     13  C   UNL     1      -5.930  13.658  24.442  0.00  0.00    +0.210 C 
ATOM     14  C   UNL     1      -6.977  12.814  23.690  0.00  0.00    +0.109 C 
ATOM     15  O   UNL     1      -6.036  14.883  24.495  0.00  0.00    -0.276 OA
ENDBRANCH  10  11
BRANCH   7  16
ATOM     16  C   UNL     1      -2.255   9.453  26.746  0.00  0.00    +0.414 C 
ATOM     17  O   UNL     1      -1.133   9.774  26.358  0.00  0.00    -0.240 OA
ATOM     18  O   UNL     1      -2.498   9.452  27.953  0.00  0.00    -0.240 OA
ENDBRANCH   7  16
BRANCH   7  19
ATOM     19  O   UNL     1      -3.282   7.630  25.476  0.00  0.00    -0.343 OA
ATOM     20  C   UNL     1      -4.189   7.148  24.452  0.00  0.00    +0.198 C 
ENDBRANCH   7  19
BRANCH   9  21
ATOM     21  O   UNL     1      -6.350  11.158  26.738  0.00  0.00    -0.390 OA
ATOM     22  H   UNL     1      -6.531  12.100  26.683  0.00  0.00    +0.210 HD
ENDBRANCH   9  21
ENDBRANCH   4   5
BRANCH   4  23
ATOM     23  O   UNL     1      -2.809  13.182  23.172  0.00  0.00    -0.387 OA
ATOM     24  H   UNL     1      -3.408  13.541  23.830  0.00  0.00    +0.210 HD
ENDBRANCH   4  23
ENDBRANCH   1   4
BRANCH   1  25
ATOM     25  C   UNL     1      -3.897  12.342  20.856  0.00  0.00    +0.141 C 
BRANCH  25  28
ATOM     26  C   UNL     1      -5.972  12.356  19.514  0.00  0.00    +0.401 C 
ATOM     27  O   UNL     1      -6.556  13.151  20.254  0.00  0.00    -0.226 OA
ATOM     28  N   UNL     1      -4.729  11.919  19.723  0.00  0.00    -0.279 N 
ATOM     29  H   UNL     1      -4.339  11.260  19.065  0.00  0.00    +0.152 HD
BRANCH  26  30
ATOM     30  O   UNL     1      -6.649  11.857  18.358  0.00  0.00    -0.444 OA
BRANCH  30  31
ATOM     31  C   UNL     1      -7.066  10.509  18.594  0.00  0.00    +0.292 C 
BRANCH  31  33
ATOM     32  N   UNL     1      -5.117   8.974  18.628  0.00  0.00    -0.131 NA
ATOM     33  C   UNL     1      -6.143   9.564  17.941  0.00  0.00    +0.120 A 
ATOM     34  C   UNL     1      -6.130   9.118  16.640  0.00  0.00    +0.137 A 
ATOM     35  N   UNL     1      -5.056   8.281  16.584  0.00  0.00    -0.248 N 
ATOM     36  N   UNL     1      -4.466   8.175  17.792  0.00  0.00    -0.065 NA
BRANCH  35  37
ATOM     37  C   UNL     1      -4.559   7.486  15.471  0.00  0.00    +0.113 C 
ATOM     38  C   UNL     1      -5.548   6.434  14.951  0.00  0.00    +0.033 C 
BRANCH  37  39
ATOM     39  C   UNL     1      -3.994   8.351  14.330  0.00  0.00    +0.106 C 
BRANCH  39  40
ATOM     40  C   UNL     1      -2.947   9.355  14.775  0.00  0.00    +0.165 C 
ATOM     41  O   UNL     1      -1.830   9.013  15.161  0.00  0.00    -0.292 OA
BRANCH  40  42
ATOM     42  C   UNL     1      -3.298  10.807  14.783  0.00  0.00    +0.017 A 
ATOM     43  C   UNL     1      -3.658  11.487  15.953  0.00  0.00    +0.011 A 
ATOM     44  C   UNL     1      -3.936  12.855  15.909  0.00  0.00    +0.001 A 
ATOM     45  C   UNL     1      -3.864  13.548  14.701  0.00  0.00    +0.000 A 
ATOM     46  C   UNL     1      -3.518  12.877  13.532  0.00  0.00    +0.001 A 
ATOM     47  C   UNL     1      -3.235  11.511  13.572  0.00  0.00    +0.011 A 
ENDBRANCH  40  42
ENDBRANCH  39  40
ENDBRANCH  37  39
ENDBRANCH  35  37
ENDBRANCH  31  33
ENDBRANCH  30  31
ENDBRANCH  26  30
ENDBRANCH  25  28
ENDBRANCH   1  25
TORSDOF 17
