REMARK VINA RESULT:    -5.463      0.000      0.000
REMARK INTER + INTRA:         -12.296
REMARK INTER:                  -9.223
REMARK INTRA:                  -3.073
REMARK UNBOUND:                -2.841
REMARK  Name = lig_assembled_86.pdb
REMARK  17 active torsions:
REMARK  status: ('A' for Active; 'I' for Inactive)
REMARK    1  A    between atoms: _2  and  _10
REMARK    2  A    between atoms: _3  and  _13
REMARK    3  A    between atoms: _5  and  _21
REMARK    4  A    between atoms: _7  and  _8
REMARK    5  A    between atoms: _7  and  _21
REMARK    6  A    between atoms: _17  and  _37
REMARK    7  A    between atoms: _19  and  _25
REMARK    8  A    between atoms: _20  and  _24
REMARK    9  A    between atoms: _24  and  _25
REMARK   10  A    between atoms: _27  and  _28
REMARK   11  A    between atoms: _29  and  _30
REMARK   12  A    between atoms: _31  and  _33
REMARK   13  A    between atoms: _33  and  _34
REMARK   14  A    between atoms: _33  and  _35
REMARK   15  A    between atoms: _35  and  _36
REMARK   16  A    between atoms: _35  and  _37
REMARK   17  A    between atoms: _38  and  _40
REMARK                            x       y       z     vdW  Elec       q    Type
REMARK                         _______ _______ _______ _____ _____    ______ ____
ROOT
ATOM      1  C   UNL     1      -1.997   8.588  13.348  0.00  0.00    +0.163 C 
ENDROOT
BRANCH   1   2
ATOM      2  O   UNL     1      -2.405   8.400  11.983  0.00  0.00    -0.388 OA
ATOM      3  H   UNL     1      -3.316   8.684  11.879  0.00  0.00    +0.210 HD
ENDBRANCH   1   2
BRANCH   1   4
ATOM      4  C   UNL     1      -2.148   7.282  14.122  0.00  0.00    +0.141 C 
BRANCH   4   7
ATOM      5  C   UNL     1      -3.077   6.884  16.377  0.00  0.00    +0.401 C 
ATOM      6  O   UNL     1      -2.071   6.304  16.791  0.00  0.00    -0.226 OA
ATOM      7  N   UNL     1      -3.202   7.369  15.141  0.00  0.00    -0.279 N 
ATOM      8  H   UNL     1      -4.070   7.821  14.891  0.00  0.00    +0.152 HD
BRANCH   5   9
ATOM      9  O   UNL     1      -4.191   7.056  17.256  0.00  0.00    -0.444 OA
BRANCH   9  10
ATOM     10  C   UNL     1      -5.094   8.016  16.701  0.00  0.00    +0.292 C 
BRANCH  10  12
ATOM     11  N   UNL     1      -7.080   8.870  17.917  0.00  0.00    -0.131 NA
ATOM     12  C   UNL     1      -5.718   8.810  17.776  0.00  0.00    +0.120 A 
ATOM     13  C   UNL     1      -5.134   9.564  18.767  0.00  0.00    +0.137 A 
ATOM     14  N   UNL     1      -6.187  10.025  19.497  0.00  0.00    -0.248 N 
ATOM     15  N   UNL     1      -7.358   9.633  18.966  0.00  0.00    -0.065 NA
BRANCH  14  16
ATOM     16  C   UNL     1      -6.136  10.831  20.707  0.00  0.00    +0.112 C 
ATOM     17  C   UNL     1      -5.244  10.187  21.789  0.00  0.00    +0.045 C 
ATOM     18  C   UNL     1      -4.267  11.151  22.468  0.00  0.00    +0.059 C 
ATOM     19  C   UNL     1      -3.072  11.459  21.560  0.00  0.00    +0.020 C 
ATOM     20  C   UNL     1      -3.464  12.741  20.829  0.00  0.00    +0.020 C 
ATOM     21  C   UNL     1      -4.889  13.033  21.306  0.00  0.00    +0.059 C 
ATOM     22  N   UNL     1      -4.833  12.486  22.661  0.00  0.00    -0.299 NA
ATOM     23  C   UNL     1      -6.051  12.574  23.444  0.00  0.00    +0.105 C 
ATOM     24  C   UNL     1      -5.929  12.335  20.418  0.00  0.00    +0.045 C 
ENDBRANCH  14  16
ENDBRANCH  10  12
ENDBRANCH   9  10
ENDBRANCH   5   9
ENDBRANCH   4   7
ENDBRANCH   1   4
BRANCH   1  25
ATOM     25  C   UNL     1      -2.833   9.687  14.026  0.00  0.00    +0.175 C 
BRANCH  25  26
ATOM     26  C   UNL     1      -3.081  10.882  13.094  0.00  0.00    +0.176 C 
ATOM     27  O   UNL     1      -1.815  11.232  12.469  0.00  0.00    -0.332 OA
ATOM     28  C   UNL     1      -1.878  12.293  11.460  0.00  0.00    +0.277 C 
ATOM     29  C   UNL     1      -2.539  13.563  12.049  0.00  0.00    +0.110 C 
ATOM     30  C   UNL     1      -3.873  13.236  12.752  0.00  0.00    +0.143 C 
ATOM     31  C   UNL     1      -3.693  12.118  13.779  0.00  0.00    +0.133 C 
BRANCH  31  32
ATOM     32  N   UNL     1      -4.987  11.756  14.379  0.00  0.00    -0.308 N 
ATOM     33  H   UNL     1      -5.692  11.357  13.775  0.00  0.00    +0.149 HD
ATOM     34  C   UNL     1      -5.291  11.920  15.670  0.00  0.00    +0.210 C 
ATOM     35  C   UNL     1      -4.204  12.554  16.558  0.00  0.00    +0.109 C 
ATOM     36  O   UNL     1      -6.378  11.594  16.147  0.00  0.00    -0.276 OA
ENDBRANCH  31  32
BRANCH  28  37
ATOM     37  C   UNL     1      -2.673  11.825  10.223  0.00  0.00    +0.414 C 
ATOM     38  O   UNL     1      -2.557  10.671   9.812  0.00  0.00    -0.240 OA
ATOM     39  O   UNL     1      -3.430  12.600   9.637  0.00  0.00    -0.240 OA
ENDBRANCH  28  37
BRANCH  30  40
ATOM     40  O   UNL     1      -4.371  14.403  13.409  0.00  0.00    -0.390 OA
ATOM     41  H   UNL     1      -3.638  14.893  13.789  0.00  0.00    +0.210 HD
ENDBRANCH  30  40
BRANCH  28  42
ATOM     42  O   UNL     1      -0.520  12.623  11.070  0.00  0.00    -0.343 OA
ATOM     43  C   UNL     1      -0.372  13.887  10.374  0.00  0.00    +0.198 C 
ENDBRANCH  28  42
ENDBRANCH  25  26
BRANCH  25  44
ATOM     44  O   UNL     1      -2.187  10.127  15.237  0.00  0.00    -0.387 OA
ATOM     45  H   UNL     1      -1.577   9.449  15.539  0.00  0.00    +0.210 HD
ENDBRANCH  25  44
ENDBRANCH   1  25
TORSDOF 14
