REMARK VINA RESULT:    -6.054      0.000      0.000
REMARK INTER + INTRA:         -12.964
REMARK INTER:                  -9.780
REMARK INTRA:                  -3.183
REMARK UNBOUND:                -1.954
REMARK  Name = lig_assembled_60.pdb
REMARK  18 active torsions:
REMARK  status: ('A' for Active; 'I' for Inactive)
REMARK    1  A    between atoms: _2  and  _10
REMARK    2  A    between atoms: _3  and  _41
REMARK    3  A    between atoms: _5  and  _21
REMARK    4  A    between atoms: _7  and  _8
REMARK    5  A    between atoms: _7  and  _21
REMARK    6  A    between atoms: _13  and  _41
REMARK    7  A    between atoms: _17  and  _37
REMARK    8  A    between atoms: _19  and  _25
REMARK    9  A    between atoms: _20  and  _24
REMARK   10  A    between atoms: _24  and  _25
REMARK   11  A    between atoms: _27  and  _28
REMARK   12  A    between atoms: _29  and  _30
REMARK   13  A    between atoms: _31  and  _33
REMARK   14  A    between atoms: _33  and  _34
REMARK   15  A    between atoms: _33  and  _35
REMARK   16  A    between atoms: _35  and  _36
REMARK   17  A    between atoms: _35  and  _37
REMARK   18  A    between atoms: _38  and  _40
REMARK                            x       y       z     vdW  Elec       q    Type
REMARK                         _______ _______ _______ _____ _____    ______ ____
ROOT
ATOM      1  C   UNL     1      -1.853   7.249  14.472  0.00  0.00    +0.141 C 
ENDROOT
BRANCH   1   4
ATOM      2  C   UNL     1      -3.317   6.460  16.299  0.00  0.00    +0.401 C 
ATOM      3  O   UNL     1      -2.384   6.081  17.011  0.00  0.00    -0.226 OA
ATOM      4  N   UNL     1      -3.161   7.012  15.095  0.00  0.00    -0.279 N 
ATOM      5  H   UNL     1      -3.988   7.281  14.583  0.00  0.00    +0.152 HD
BRANCH   2   6
ATOM      6  O   UNL     1      -4.658   6.304  16.771  0.00  0.00    -0.444 OA
BRANCH   6   7
ATOM      7  C   UNL     1      -5.463   7.384  16.289  0.00  0.00    +0.292 C 
BRANCH   7   9
ATOM      8  N   UNL     1      -6.960   8.422  17.966  0.00  0.00    -0.131 NA
ATOM      9  C   UNL     1      -5.733   8.346  17.374  0.00  0.00    +0.121 A 
ATOM     10  C   UNL     1      -4.892   9.261  17.964  0.00  0.00    +0.143 A 
ATOM     11  N   UNL     1      -5.648   9.856  18.949  0.00  0.00    -0.220 N 
ATOM     12  N   UNL     1      -6.904   9.347  18.914  0.00  0.00    -0.060 NA
BRANCH  11  13
ATOM     13  C   UNL     1      -5.248  10.815  19.915  0.00  0.00    +0.067 A 
ATOM     14  C   UNL     1      -5.898  12.057  20.000  0.00  0.00    +0.030 A 
ATOM     15  C   UNL     1      -5.451  13.020  20.906  0.00  0.00    +0.030 A 
ATOM     16  C   UNL     1      -4.364  12.740  21.738  0.00  0.00    +0.105 A 
ATOM     17  C   UNL     1      -3.719  11.502  21.672  0.00  0.00    +0.030 A 
ATOM     18  C   UNL     1      -4.166  10.537  20.765  0.00  0.00    +0.030 A 
BRANCH  16  19
ATOM     19  S   UNL     1      -3.759  13.997  22.825  0.00  0.00    +0.056 S 
ATOM     20  O   UNL     1      -2.997  14.959  22.064  0.00  0.00    -0.153 OA
ATOM     21  O   UNL     1      -4.815  14.385  23.732  0.00  0.00    -0.153 OA
BRANCH  19  22
ATOM     22  N   UNL     1      -2.646  13.145  23.745  0.00  0.00    -0.204 NA
ATOM     23  H   UNL     1      -2.921  12.164  23.800  0.00  0.00    +0.144 HD
ATOM     24  H   UNL     1      -2.534  13.594  24.654  0.00  0.00    +0.144 HD
ENDBRANCH  19  22
ENDBRANCH  16  19
ENDBRANCH  11  13
ENDBRANCH   7   9
ENDBRANCH   6   7
ENDBRANCH   2   6
ENDBRANCH   1   4
BRANCH   1  25
ATOM     25  C   UNL     1      -1.860   8.495  13.592  0.00  0.00    +0.163 C 
BRANCH  25  26
ATOM     26  O   UNL     1      -2.124   8.131  12.227  0.00  0.00    -0.388 OA
ATOM     27  H   UNL     1      -3.026   7.811  12.150  0.00  0.00    +0.210 HD
ENDBRANCH  25  26
BRANCH  25  28
ATOM     28  C   UNL     1      -2.916   9.485  14.111  0.00  0.00    +0.175 C 
BRANCH  28  29
ATOM     29  C   UNL     1      -3.205  10.605  13.101  0.00  0.00    +0.176 C 
ATOM     30  O   UNL     1      -1.936  11.039  12.539  0.00  0.00    -0.332 OA
ATOM     31  C   UNL     1      -2.025  12.038  11.470  0.00  0.00    +0.277 C 
ATOM     32  C   UNL     1      -2.835  13.269  11.945  0.00  0.00    +0.110 C 
ATOM     33  C   UNL     1      -4.180  12.855  12.579  0.00  0.00    +0.143 C 
ATOM     34  C   UNL     1      -3.971  11.811  13.676  0.00  0.00    +0.133 C 
BRANCH  34  35
ATOM     35  N   UNL     1      -5.265  11.361  14.212  0.00  0.00    -0.308 N 
ATOM     36  H   UNL     1      -5.861  10.811  13.608  0.00  0.00    +0.149 HD
ATOM     37  C   UNL     1      -5.704  11.630  15.445  0.00  0.00    +0.210 C 
ATOM     38  C   UNL     1      -4.785  12.491  16.331  0.00  0.00    +0.109 C 
ATOM     39  O   UNL     1      -6.787  11.228  15.872  0.00  0.00    -0.276 OA
ENDBRANCH  34  35
BRANCH  31  40
ATOM     40  C   UNL     1      -2.689  11.437  10.214  0.00  0.00    +0.414 C 
ATOM     41  O   UNL     1      -2.758  10.217  10.072  0.00  0.00    -0.240 OA
ATOM     42  O   UNL     1      -3.155  12.172   9.342  0.00  0.00    -0.240 OA
ENDBRANCH  31  40
BRANCH  33  43
ATOM     43  O   UNL     1      -4.823  14.002  13.137  0.00  0.00    -0.390 OA
ATOM     44  H   UNL     1      -5.729  14.046  12.823  0.00  0.00    +0.210 HD
ENDBRANCH  33  43
BRANCH  31  45
ATOM     45  O   UNL     1      -0.678  12.473  11.150  0.00  0.00    -0.343 OA
ATOM     46  C   UNL     1      -0.421  13.883  11.370  0.00  0.00    +0.198 C 
ENDBRANCH  31  45
ENDBRANCH  28  29
BRANCH  28  47
ATOM     47  O   UNL     1      -2.493  10.049  15.369  0.00  0.00    -0.387 OA
ATOM     48  H   UNL     1      -2.406  11.001  15.281  0.00  0.00    +0.210 HD
ENDBRANCH  28  47
ENDBRANCH  25  28
ENDBRANCH   1  25
TORSDOF 16
