REMARK VINA RESULT:    -5.287      0.000      0.000
REMARK INTER + INTRA:         -12.508
REMARK INTER:                  -9.668
REMARK INTRA:                  -2.840
REMARK UNBOUND:                -3.358
REMARK  Name = lig_assembled_42.pdb
REMARK  16 active torsions:
REMARK  status: ('A' for Active; 'I' for Inactive)
REMARK    1  A    between atoms: _2  and  _9
REMARK    2  A    between atoms: _4  and  _21
REMARK    3  A    between atoms: _6  and  _7
REMARK    4  A    between atoms: _6  and  _21
REMARK    5  A    between atoms: _17  and  _37
REMARK    6  A    between atoms: _19  and  _25
REMARK    7  A    between atoms: _20  and  _24
REMARK    8  A    between atoms: _24  and  _25
REMARK    9  A    between atoms: _27  and  _28
REMARK   10  A    between atoms: _29  and  _30
REMARK   11  A    between atoms: _31  and  _33
REMARK   12  A    between atoms: _33  and  _34
REMARK   13  A    between atoms: _33  and  _35
REMARK   14  A    between atoms: _35  and  _36
REMARK   15  A    between atoms: _35  and  _37
REMARK   16  A    between atoms: _38  and  _40
REMARK                            x       y       z     vdW  Elec       q    Type
REMARK                         _______ _______ _______ _____ _____    ______ ____
ROOT
ATOM      1  C   UNL     1      -1.945   8.513  13.724  0.00  0.00    +0.163 C 
ENDROOT
BRANCH   1   2
ATOM      2  O   UNL     1      -2.124   8.262  12.321  0.00  0.00    -0.388 OA
ATOM      3  H   UNL     1      -2.730   7.527  12.201  0.00  0.00    +0.210 HD
ENDBRANCH   1   2
BRANCH   1   4
ATOM      4  C   UNL     1      -2.100   7.216  14.511  0.00  0.00    +0.141 C 
BRANCH   4   7
ATOM      5  C   UNL     1      -3.562   6.655  16.422  0.00  0.00    +0.401 C 
ATOM      6  O   UNL     1      -2.644   6.209  17.115  0.00  0.00    -0.226 OA
ATOM      7  N   UNL     1      -3.399   7.140  15.191  0.00  0.00    -0.279 N 
ATOM      8  H   UNL     1      -4.215   7.474  14.698  0.00  0.00    +0.152 HD
BRANCH   5   9
ATOM      9  O   UNL     1      -4.891   6.658  16.950  0.00  0.00    -0.444 OA
BRANCH   9  10
ATOM     10  C   UNL     1      -5.394   7.997  16.970  0.00  0.00    +0.292 C 
BRANCH  10  12
ATOM     11  N   UNL     1      -5.743   7.917  19.425  0.00  0.00    -0.131 NA
ATOM     12  C   UNL     1      -5.278   8.573  18.323  0.00  0.00    +0.121 A 
ATOM     13  C   UNL     1      -4.734   9.772  18.714  0.00  0.00    +0.143 A 
ATOM     14  N   UNL     1      -4.887   9.810  20.079  0.00  0.00    -0.220 N 
ATOM     15  N   UNL     1      -5.503   8.673  20.490  0.00  0.00    -0.060 NA
BRANCH  14  16
ATOM     16  C   UNL     1      -4.497  10.833  20.979  0.00  0.00    +0.071 A 
ATOM     17  C   UNL     1      -3.710  10.522  22.098  0.00  0.00    +0.077 A 
ATOM     18  C   UNL     1      -3.356  11.551  22.943  0.00  0.00    +0.168 A 
ATOM     19  O   UNL     1      -2.597  11.420  24.062  0.00  0.00    -0.453 OA
ATOM     20  C   UNL     1      -2.552  12.787  24.519  0.00  0.00    +0.466 C 
ATOM     21  O   UNL     1      -3.287  13.698  23.673  0.00  0.00    -0.453 OA
ATOM     22  C   UNL     1      -3.749  12.848  22.718  0.00  0.00    +0.166 A 
ATOM     23  C   UNL     1      -4.524  13.191  21.631  0.00  0.00    +0.051 A 
ATOM     24  C   UNL     1      -4.903  12.170  20.749  0.00  0.00    +0.031 A 
ENDBRANCH  14  16
ENDBRANCH  10  12
ENDBRANCH   9  10
ENDBRANCH   5   9
ENDBRANCH   4   7
ENDBRANCH   1   4
BRANCH   1  25
ATOM     25  C   UNL     1      -2.964   9.547  14.232  0.00  0.00    +0.175 C 
BRANCH  25  26
ATOM     26  C   UNL     1      -3.281  10.614  13.174  0.00  0.00    +0.176 C 
ATOM     27  O   UNL     1      -2.023  11.055  12.593  0.00  0.00    -0.332 OA
ATOM     28  C   UNL     1      -2.137  12.005  11.482  0.00  0.00    +0.277 C 
ATOM     29  C   UNL     1      -2.978  13.234  11.904  0.00  0.00    +0.110 C 
ATOM     30  C   UNL     1      -4.312  12.815  12.557  0.00  0.00    +0.143 C 
ATOM     31  C   UNL     1      -4.077  11.824  13.698  0.00  0.00    +0.133 C 
BRANCH  31  32
ATOM     32  N   UNL     1      -5.359  11.366  14.254  0.00  0.00    -0.308 N 
ATOM     33  H   UNL     1      -5.967  10.824  13.655  0.00  0.00    +0.149 HD
ATOM     34  C   UNL     1      -5.774  11.619  15.499  0.00  0.00    +0.210 C 
ATOM     35  C   UNL     1      -4.837  12.469  16.378  0.00  0.00    +0.109 C 
ATOM     36  O   UNL     1      -6.847  11.209  15.943  0.00  0.00    -0.276 OA
ENDBRANCH  31  32
BRANCH  28  37
ATOM     37  C   UNL     1      -2.785  11.334  10.254  0.00  0.00    +0.414 C 
ATOM     38  O   UNL     1      -3.258  12.021   9.349  0.00  0.00    -0.240 OA
ATOM     39  O   UNL     1      -2.835  10.106  10.167  0.00  0.00    -0.240 OA
ENDBRANCH  28  37
BRANCH  30  40
ATOM     40  O   UNL     1      -4.983  13.968  13.065  0.00  0.00    -0.390 OA
ATOM     41  H   UNL     1      -4.347  14.546  13.494  0.00  0.00    +0.210 HD
ENDBRANCH  30  40
BRANCH  28  42
ATOM     42  O   UNL     1      -0.801  12.459  11.142  0.00  0.00    -0.343 OA
ATOM     43  C   UNL     1      -0.670  13.891  10.958  0.00  0.00    +0.198 C 
ENDBRANCH  28  42
ENDBRANCH  25  26
BRANCH  25  44
ATOM     44  O   UNL     1      -2.480  10.171  15.438  0.00  0.00    -0.387 OA
ATOM     45  H   UNL     1      -2.601   9.574  16.179  0.00  0.00    +0.210 HD
ENDBRANCH  25  44
ENDBRANCH   1  25
TORSDOF 14
