lig_assembled_0.pdb
 OpenBabel07252309473D

 47 49  0  0  1  0  0  0  0  0999 V2000
   -6.6780    8.7840   23.6590 C   0  0  2  0  0  0  0  0  0  0  0  0
   -6.0250    8.9780   24.9240 O   0  0  0  0  0  0  0  0  0  0  0  0
   -6.0060    9.9150   25.1340 H   0  0  0  0  0  0  0  0  0  0  0  0
   -6.1960    7.4880   23.0150 C   0  0  0  0  0  0  0  0  0  0  0  0
   -3.8270    6.9340   23.4500 C   0  0  0  0  0  0  0  0  0  0  0  0
   -3.4090    7.5210   22.4490 O   0  0  0  0  0  0  0  0  0  0  0  0
   -5.1150    6.8630   23.7880 N   0  0  0  0  0  0  0  0  0  0  0  0
   -5.3610    6.3510   24.6230 H   0  0  0  0  0  0  0  0  0  0  0  0
   -2.8930    6.2790   24.3120 O   0  0  0  0  0  0  0  0  0  0  0  0
   -3.5480    5.8990   25.5250 C   0  0  0  0  0  0  0  0  0  0  0  0
   -1.8910    7.3460   26.6420 N   0  0  0  0  0  0  0  0  0  0  0  0
   -3.1310    6.7790   26.6320 C   0  0  0  0  0  0  0  0  0  0  0  0
   -3.8240    7.1910   27.7480 C   0  0  0  0  0  0  0  0  0  0  0  0
   -2.9270    7.9440   28.4710 N   0  0  0  0  0  0  0  0  0  0  0  0
   -1.7930    8.0910   27.7310 N   0  0  0  0  0  0  0  0  0  0  0  0
   -3.0700    8.6220   29.7140 C   0  0  0  0  0  0  0  0  0  0  0  0
   -3.3600    9.9950   29.8530 C   0  0  0  0  0  0  0  0  0  0  0  0
   -3.4320   10.5460   31.1510 C   0  0  0  0  0  0  0  0  0  0  0  0
   -3.2100    9.7670   32.2860 C   0  0  0  0  0  0  0  0  0  0  0  0
   -2.9400    8.4130   32.1490 C   0  0  0  0  0  0  0  0  0  0  0  0
   -2.8810    7.8420   30.8780 C   0  0  0  0  0  0  0  0  0  0  0  0
   -3.7810   10.8770   28.7290 C   0  0  0  0  0  0  0  0  0  0  0  0
   -4.7780   10.6510   28.0610 O   0  0  0  0  0  0  0  0  0  0  0  0
   -3.0280   11.9940   28.4830 N   0  0  0  0  0  0  0  0  0  0  0  0
   -3.3510   12.6150   27.7510 H   0  0  0  0  0  0  0  0  0  0  0  0
   -2.2010   12.2580   28.9980 H   0  0  0  0  0  0  0  0  0  0  0  0
   -6.4010    9.9630   22.7100 C   0  0  2  0  0  0  0  0  0  0  0  0
   -5.0300   10.6040   22.9690 C   0  0  2  0  0  0  0  0  0  0  0  0
   -5.1540   11.4720   24.1290 O   0  0  0  0  0  0  0  0  0  0  0  0
   -3.9090   12.0920   24.5930 C   0  0  2  0  0  0  0  0  0  0  0  0
   -3.2240   12.8600   23.4360 C   0  0  0  0  0  0  0  0  0  0  0  0
   -3.0980   11.9870   22.1690 C   0  0  1  0  0  0  0  0  0  0  0  0
   -4.4500   11.3900   21.7780 C   0  0  1  0  0  0  0  0  0  0  0  0
   -4.3020   10.4910   20.6220 N   0  0  0  0  0  0  0  0  0  0  0  0
   -3.7390    9.6610   20.7400 H   0  0  0  0  0  0  0  0  0  0  0  0
   -4.8620   10.7020   19.4280 C   0  0  0  0  0  0  0  0  0  0  0  0
   -5.6920   11.9910   19.2740 C   0  0  0  0  0  0  0  0  0  0  0  0
   -4.7330    9.9250   18.4820 O   0  0  0  0  0  0  0  0  0  0  0  0
   -2.9420   11.0270   25.1500 C   0  0  0  0  0  0  0  0  0  0  0  0
   -3.1860    9.8300   25.0030 O   0  0  0  0  0  0  0  0  0  0  0  0
   -1.9180   11.3650   25.7450 O   0  0  0  0  0  0  0  0  0  0  0  0
   -2.6020   12.7770   21.0880 O   0  0  0  0  0  0  0  0  0  0  0  0
   -1.7140   12.4900   20.8620 H   0  0  0  0  0  0  0  0  0  0  0  0
   -4.2430   13.0420   25.6370 O   0  0  0  0  0  0  0  0  0  0  0  0
   -5.6620   13.2020   25.8890 C   0  0  0  0  0  0  0  0  0  0  0  0
   -7.4430   10.9530   22.8300 O   0  0  0  0  0  0  0  0  0  0  0  0
   -7.7600   11.1920   21.9560 H   0  0  0  0  0  0  0  0  0  0  0  0
  1  4  1  6  0  0  0
  1  2  1  0  0  0  0
  2  3  1  0  0  0  0
  4  7  1  0  0  0  0
  5  7  1  0  0  0  0
  5  9  1  0  0  0  0
  6  5  2  0  0  0  0
  7  8  1  0  0  0  0
  9 10  1  0  0  0  0
 10 12  1  0  0  0  0
 11 15  2  0  0  0  0
 12 11  1  0  0  0  0
 12 13  2  0  0  0  0
 13 14  1  0  0  0  0
 14 16  1  0  0  0  0
 15 14  1  0  0  0  0
 16 17  2  0  0  0  0
 16 21  1  0  0  0  0
 17 18  1  0  0  0  0
 18 19  2  0  0  0  0
 20 19  1  0  0  0  0
 21 20  2  0  0  0  0
 22 17  1  0  0  0  0
 23 22  2  0  0  0  0
 24 22  1  0  0  0  0
 24 26  1  0  0  0  0
 25 24  1  0  0  0  0
 27 46  1  1  0  0  0
 27  1  1  0  0  0  0
 28 27  1  6  0  0  0
 28 29  1  0  0  0  0
 29 30  1  0  0  0  0
 30 39  1  1  0  0  0
 30 44  1  0  0  0  0
 31 30  1  0  0  0  0
 32 42  1  6  0  0  0
 32 31  1  0  0  0  0
 33 34  1  6  0  0  0
 33 32  1  0  0  0  0
 33 28  1  0  0  0  0
 34 35  1  0  0  0  0
 36 34  1  0  0  0  0
 37 36  1  0  0  0  0
 38 36  2  0  0  0  0
 39 41  1  0  0  0  0
 40 39  2  0  0  0  0
 43 42  1  0  0  0  0
 44 45  1  0  0  0  0
 47 46  1  0  0  0  0
M  END
>  <REMARK>
 VINA RESULT:    -5.136      0.000      0.000
 INTER + INTRA:         -12.869
 INTER:                  -9.198
 INTRA:                  -3.671
 UNBOUND:                -3.679
  Name = lig_assembled_0.pdb
  17 active torsions:
  status: ('A' for Active; 'I' for Inactive)
    1  A    between atoms: _2  and  _10
    2  A    between atoms: _5  and  _21
    3  A    between atoms: _7  and  _8
    4  A    between atoms: _7  and  _21
    5  A    between atoms: _11  and  _12
    6  A    between atoms: _17  and  _37
    7  A    between atoms: _19  and  _25
    8  A    between atoms: _20  and  _24
    9  A    between atoms: _24  and  _25
   10  A    between atoms: _27  and  _28
   11  A    between atoms: _29  and  _30
   12  A    between atoms: _31  and  _33
   13  A    between atoms: _33  and  _34
   14  A    between atoms: _33  and  _35
   15  A    between atoms: _35  and  _36
   16  A    between atoms: _35  and  _37
   17  A    between atoms: _38  and  _40
                            x       y       z     vdW  Elec       q    Type
                         _______ _______ _______ _____ _____    ______ ____

>  <TORSDO>
F 15

$$$$
lig_assembled_10.pdb
 OpenBabel07252309473D

 46 47  0  0  1  0  0  0  0  0999 V2000
   -3.1900   11.6180   25.3450 C   0  0  1  0  0  0  0  0  0  0  0  0
   -2.0970   10.6850   25.3590 O   0  0  0  0  0  0  0  0  0  0  0  0
   -1.7560   10.6050   26.2530 H   0  0  0  0  0  0  0  0  0  0  0  0
   -3.6600   11.9370   26.7750 C   0  0  2  0  0  0  0  0  0  0  0  0
   -3.3690   10.7860   27.7490 C   0  0  2  0  0  0  0  0  0  0  0  0
   -3.9940    9.5840   27.2210 O   0  0  0  0  0  0  0  0  0  0  0  0
   -3.7320    8.3510   27.9700 C   0  0  2  0  0  0  0  0  0  0  0  0
   -4.1170    8.5300   29.4590 C   0  0  0  0  0  0  0  0  0  0  0  0
   -3.5000    9.8130   30.0560 C   0  0  1  0  0  0  0  0  0  0  0  0
   -3.8330   11.0330   29.1960 C   0  0  1  0  0  0  0  0  0  0  0  0
   -3.1690   12.2340   29.7270 N   0  0  0  0  0  0  0  0  0  0  0  0
   -2.1580   12.2460   29.7440 H   0  0  0  0  0  0  0  0  0  0  0  0
   -3.8130   13.3090   30.1880 C   0  0  0  0  0  0  0  0  0  0  0  0
   -5.3520   13.2500   30.1730 C   0  0  0  0  0  0  0  0  0  0  0  0
   -3.2300   14.3070   30.6130 O   0  0  0  0  0  0  0  0  0  0  0  0
   -2.2440    7.9540   27.8660 C   0  0  0  0  0  0  0  0  0  0  0  0
   -1.6340    7.5700   28.8630 O   0  0  0  0  0  0  0  0  0  0  0  0
   -1.6550    8.0180   26.7860 O   0  0  0  0  0  0  0  0  0  0  0  0
   -4.5580    7.3000   27.4070 O   0  0  0  0  0  0  0  0  0  0  0  0
   -4.4110    6.0020   28.0370 C   0  0  0  0  0  0  0  0  0  0  0  0
   -4.0010   10.0180   31.3780 O   0  0  0  0  0  0  0  0  0  0  0  0
   -3.3670    9.6830   32.0160 H   0  0  0  0  0  0  0  0  0  0  0  0
   -5.0680   12.2450   26.7770 O   0  0  0  0  0  0  0  0  0  0  0  0
   -5.3690   12.3640   27.6820 H   0  0  0  0  0  0  0  0  0  0  0  0
   -2.7660   12.9070   24.6490 C   0  0  0  0  0  0  0  0  0  0  0  0
   -3.6910   13.3620   22.4030 C   0  0  0  0  0  0  0  0  0  0  0  0
   -4.6090   14.0710   22.8210 O   0  0  0  0  0  0  0  0  0  0  0  0
   -2.7880   12.7730   23.1870 N   0  0  0  0  0  0  0  0  0  0  0  0
   -2.0780   12.2010   22.7510 H   0  0  0  0  0  0  0  0  0  0  0  0
   -3.5710   13.1400   20.9950 O   0  0  0  0  0  0  0  0  0  0  0  0
   -4.4530   12.0860   20.6010 C   0  0  0  0  0  0  0  0  0  0  0  0
   -3.1430   10.2290   21.5850 N   0  0  0  0  0  0  0  0  0  0  0  0
   -4.3130   10.9350   21.5120 C   0  0  0  0  0  0  0  0  0  0  0  0
   -5.2230   10.3920   22.3910 C   0  0  0  0  0  0  0  0  0  0  0  0
   -4.5370    9.3860   23.0020 N   0  0  0  0  0  0  0  0  0  0  0  0
   -3.2930    9.2780   22.4940 N   0  0  0  0  0  0  0  0  0  0  0  0
   -4.9310    8.4700   24.0600 C   0  0  2  0  0  0  0  0  0  0  0  0
   -4.2760    7.1080   23.9880 C   0  0  0  0  0  0  0  0  0  0  0  0
   -4.7460    6.2020   23.3090 O   0  0  0  0  0  0  0  0  0  0  0  0
   -3.1230    6.9350   24.6690 O   0  0  0  0  0  0  0  0  0  0  0  0
   -2.8420    5.9990   24.8380 H   0  0  0  0  0  0  0  0  0  0  0  0
   -6.4470    8.3780   24.2830 C   0  0  0  0  0  0  0  0  0  0  0  0
   -6.8800    9.0910   25.5330 C   0  0  0  0  0  0  0  0  0  0  0  0
   -7.0050   10.3070   25.6120 O   0  0  0  0  0  0  0  0  0  0  0  0
   -7.1980    8.2620   26.5450 O   0  0  0  0  0  0  0  0  0  0  0  0
   -6.8240    7.3620   26.4790 H   0  0  0  0  0  0  0  0  0  0  0  0
  1 25  1  1  0  0  0
  1  2  1  0  0  0  0
  1  4  1  0  0  0  0
  2  3  1  0  0  0  0
  4 23  1  6  0  0  0
  5  4  1  6  0  0  0
  5 10  1  0  0  0  0
  6  5  1  0  0  0  0
  6  7  1  0  0  0  0
  7 19  1  6  0  0  0
  7  8  1  0  0  0  0
  8  9  1  0  0  0  0
  9 21  1  1  0  0  0
 10 11  1  1  0  0  0
 10  9  1  0  0  0  0
 11 12  1  0  0  0  0
 11 13  1  0  0  0  0
 13 15  2  0  0  0  0
 14 13  1  0  0  0  0
 16  7  1  0  0  0  0
 16 17  1  0  0  0  0
 18 16  2  0  0  0  0
 19 20  1  0  0  0  0
 21 22  1  0  0  0  0
 23 24  1  0  0  0  0
 26 27  2  0  0  0  0
 26 28  1  0  0  0  0
 28 25  1  0  0  0  0
 29 28  1  0  0  0  0
 30 26  1  0  0  0  0
 31 30  1  0  0  0  0
 31 33  1  0  0  0  0
 32 36  2  0  0  0  0
 33 32  1  0  0  0  0
 33 34  2  0  0  0  0
 34 35  1  0  0  0  0
 35 37  1  0  0  0  0
 36 35  1  0  0  0  0
 37 42  1  6  0  0  0
 38 37  1  0  0  0  0
 38 40  1  0  0  0  0
 39 38  2  0  0  0  0
 40 41  1  0  0  0  0
 42 43  1  0  0  0  0
 43 44  2  0  0  0  0
 43 45  1  0  0  0  0
 46 45  1  0  0  0  0
M  END
>  <REMARK>
 VINA RESULT:    -5.189      0.000      0.000
 INTER + INTRA:         -13.308
 INTER:                  -9.130
 INTRA:                  -4.178
 UNBOUND:                -3.114
  Name = lig_assembled_10.pdb
  21 active torsions:
  status: ('A' for Active; 'I' for Inactive)
    1  A    between atoms: _2  and  _9
    2  A    between atoms: _4  and  _20
    3  A    between atoms: _5  and  _9
    4  A    between atoms: _5  and  _12
    5  A    between atoms: _6  and  _7
    6  A    between atoms: _6  and  _20
    7  A    between atoms: _9  and  _10
    8  A    between atoms: _10  and  _11
    9  A    between atoms: _11  and  _14
   10  A    between atoms: _16  and  _36
   11  A    between atoms: _18  and  _24
   12  A    between atoms: _19  and  _23
   13  A    between atoms: _23  and  _24
   14  A    between atoms: _26  and  _27
   15  A    between atoms: _28  and  _29
   16  A    between atoms: _30  and  _32
   17  A    between atoms: _32  and  _33
   18  A    between atoms: _32  and  _34
   19  A    between atoms: _34  and  _35
   20  A    between atoms: _34  and  _36
   21  A    between atoms: _37  and  _39
                            x       y       z     vdW  Elec       q    Type
                         _______ _______ _______ _____ _____    ______ ____

>  <TORSDO>
F 19

$$$$
lig_assembled_11.pdb
 OpenBabel07252309473D

 47 48  0  0  1  0  0  0  0  0999 V2000
   -2.9430   11.2810   23.6600 C   0  0  1  0  0  0  0  0  0  0  0  0
   -2.1430   11.4960   24.8340 O   0  0  0  0  0  0  0  0  0  0  0  0
   -2.3460   12.3570   25.2070 H   0  0  0  0  0  0  0  0  0  0  0  0
   -3.9110   10.1020   23.8620 C   0  0  2  0  0  0  0  0  0  0  0  0
   -3.8720    9.5630   25.3000 C   0  0  2  0  0  0  0  0  0  0  0  0
   -2.7940    8.5900   25.3830 O   0  0  0  0  0  0  0  0  0  0  0  0
   -2.5370    8.0410   26.7180 C   0  0  2  0  0  0  0  0  0  0  0  0
   -3.8330    7.4400   27.3150 C   0  0  0  0  0  0  0  0  0  0  0  0
   -5.0150    8.4270   27.2200 C   0  0  1  0  0  0  0  0  0  0  0  0
   -5.1910    8.9370   25.7890 C   0  0  1  0  0  0  0  0  0  0  0  0
   -6.2640    9.9420   25.7280 N   0  0  0  0  0  0  0  0  0  0  0  0
   -6.1510   10.7860   26.2720 H   0  0  0  0  0  0  0  0  0  0  0  0
   -7.3770    9.8110   25.0010 C   0  0  0  0  0  0  0  0  0  0  0  0
   -7.5310    8.5020   24.2040 C   0  0  0  0  0  0  0  0  0  0  0  0
   -8.2520   10.6760   24.9580 O   0  0  0  0  0  0  0  0  0  0  0  0
   -1.9930    9.1340   27.6630 C   0  0  0  0  0  0  0  0  0  0  0  0
   -1.3230   10.0630   27.2150 O   0  0  0  0  0  0  0  0  0  0  0  0
   -2.2240    9.0850   28.8710 O   0  0  0  0  0  0  0  0  0  0  0  0
   -1.5580    6.9790   26.5860 O   0  0  0  0  0  0  0  0  0  0  0  0
   -1.9910    5.8420   25.7960 C   0  0  0  0  0  0  0  0  0  0  0  0
   -6.2180    7.7800   27.6400 O   0  0  0  0  0  0  0  0  0  0  0  0
   -6.9480    8.4010   27.5940 H   0  0  0  0  0  0  0  0  0  0  0  0
   -3.6100    9.0470   22.9270 O   0  0  0  0  0  0  0  0  0  0  0  0
   -4.2040    9.1070   22.1750 H   0  0  0  0  0  0  0  0  0  0  0  0
   -3.7360   12.5410   23.3310 C   0  0  0  0  0  0  0  0  0  0  0  0
   -5.5180   13.5160   24.7380 C   0  0  0  0  0  0  0  0  0  0  0  0
   -6.4150   13.2910   23.9220 O   0  0  0  0  0  0  0  0  0  0  0  0
   -4.2370   13.2040   24.5410 N   0  0  0  0  0  0  0  0  0  0  0  0
   -3.5730   13.4370   25.2660 H   0  0  0  0  0  0  0  0  0  0  0  0
   -5.8490   14.1520   25.9750 O   0  0  0  0  0  0  0  0  0  0  0  0
   -6.4850   13.2100   26.8420 C   0  0  0  0  0  0  0  0  0  0  0  0
   -4.8330   12.1420   28.3450 N   0  0  0  0  0  0  0  0  0  0  0  0
   -5.7630   13.1210   28.1250 C   0  0  0  0  0  0  0  0  0  0  0  0
   -5.8500   13.9150   29.2450 C   0  0  0  0  0  0  0  0  0  0  0  0
   -4.9820   13.3460   30.1310 N   0  0  0  0  0  0  0  0  0  0  0  0
   -4.3510   12.2970   29.5710 N   0  0  0  0  0  0  0  0  0  0  0  0
   -4.5670   13.7820   31.4610 C   0  0  2  0  0  0  0  0  0  0  0  0
   -3.2060   14.4600   31.4880 C   0  0  0  0  0  0  0  0  0  0  0  0
   -2.8690   15.3570   32.2460 O   0  0  0  0  0  0  0  0  0  0  0  0
   -2.3360   13.9890   30.5590 O   0  0  0  0  0  0  0  0  0  0  0  0
   -2.6800   13.8520   29.6550 H   0  0  0  0  0  0  0  0  0  0  0  0
   -4.6860   12.6500   32.4980 C   0  0  0  0  0  0  0  0  0  0  0  0
   -3.3510   12.1450   33.0590 C   0  0  0  0  0  0  0  0  0  0  0  0
   -2.9480   10.8420   32.4070 C   0  0  0  0  0  0  0  0  0  0  0  0
   -3.2050    9.7350   32.8470 O   0  0  0  0  0  0  0  0  0  0  0  0
   -2.2360   11.0270   31.2720 O   0  0  0  0  0  0  0  0  0  0  0  0
   -2.7780   11.1300   30.4670 H   0  0  0  0  0  0  0  0  0  0  0  0
  1 25  1  1  0  0  0
  1  4  1  0  0  0  0
  1  2  1  0  0  0  0
  2  3  1  0  0  0  0
  4 23  1  6  0  0  0
  5  4  1  6  0  0  0
  5  6  1  0  0  0  0
  5 10  1  0  0  0  0
  6  7  1  0  0  0  0
  7 19  1  6  0  0  0
  7  8  1  0  0  0  0
  7 16  1  0  0  0  0
  9  8  1  0  0  0  0
  9 21  1  6  0  0  0
 10 11  1  1  0  0  0
 10  9  1  0  0  0  0
 11 12  1  0  0  0  0
 13 11  1  0  0  0  0
 14 13  1  0  0  0  0
 15 13  2  0  0  0  0
 16 18  1  0  0  0  0
 17 16  2  0  0  0  0
 20 19  1  0  0  0  0
 22 21  1  0  0  0  0
 24 23  1  0  0  0  0
 25 28  1  0  0  0  0
 26 30  1  0  0  0  0
 27 26  2  0  0  0  0
 28 26  1  0  0  0  0
 28 29  1  0  0  0  0
 30 31  1  0  0  0  0
 31 33  1  0  0  0  0
 32 36  2  0  0  0  0
 33 32  1  0  0  0  0
 33 34  2  0  0  0  0
 34 35  1  0  0  0  0
 35 37  1  0  0  0  0
 36 35  1  0  0  0  0
 37 38  1  0  0  0  0
 37 42  1  1  0  0  0
 38 39  2  0  0  0  0
 40 38  1  0  0  0  0
 41 40  1  0  0  0  0
 42 43  1  0  0  0  0
 44 45  2  0  0  0  0
 44 43  1  0  0  0  0
 46 44  1  0  0  0  0
 47 46  1  0  0  0  0
M  END
>  <REMARK>
 VINA RESULT:    -4.204      0.000      0.000
 INTER + INTRA:         -13.143
 INTER:                  -9.014
 INTRA:                  -4.129
 UNBOUND:                -4.638
  Name = lig_assembled_11.pdb
  22 active torsions:
  status: ('A' for Active; 'I' for Inactive)
    1  A    between atoms: _2  and  _9
    2  A    between atoms: _4  and  _21
    3  A    between atoms: _5  and  _9
    4  A    between atoms: _5  and  _13
    5  A    between atoms: _6  and  _7
    6  A    between atoms: _6  and  _21
    7  A    between atoms: _9  and  _10
    8  A    between atoms: _10  and  _11
    9  A    between atoms: _11  and  _12
   10  A    between atoms: _12  and  _15
   11  A    between atoms: _17  and  _37
   12  A    between atoms: _19  and  _25
   13  A    between atoms: _20  and  _24
   14  A    between atoms: _24  and  _25
   15  A    between atoms: _27  and  _28
   16  A    between atoms: _29  and  _30
   17  A    between atoms: _31  and  _33
   18  A    between atoms: _33  and  _34
   19  A    between atoms: _33  and  _35
   20  A    between atoms: _35  and  _36
   21  A    between atoms: _35  and  _37
   22  A    between atoms: _38  and  _40
                            x       y       z     vdW  Elec       q    Type
                         _______ _______ _______ _____ _____    ______ ____

>  <TORSDO>
F 20

$$$$
lig_assembled_12.pdb
 OpenBabel07252309473D

 45 47  0  0  1  0  0  0  0  0999 V2000
   -3.6240   11.9480   25.2770 C   0  0  1  0  0  0  0  0  0  0  0  0
   -2.4550   11.1320   25.0950 O   0  0  0  0  0  0  0  0  0  0  0  0
   -1.9130   11.5000   24.3930 H   0  0  0  0  0  0  0  0  0  0  0  0
   -3.8490   12.2630   26.7660 C   0  0  2  0  0  0  0  0  0  0  0  0
   -3.4310   11.0950   27.6730 C   0  0  2  0  0  0  0  0  0  0  0  0
   -4.0040    9.8760   27.1250 O   0  0  0  0  0  0  0  0  0  0  0  0
   -3.6220    8.6350   27.8050 C   0  0  2  0  0  0  0  0  0  0  0  0
   -3.9370    8.7280   29.3180 C   0  0  0  0  0  0  0  0  0  0  0  0
   -3.3740   10.0240   29.9380 C   0  0  1  0  0  0  0  0  0  0  0  0
   -3.8320   11.2520   29.1510 C   0  0  1  0  0  0  0  0  0  0  0  0
   -3.2190   12.4730   29.7000 N   0  0  0  0  0  0  0  0  0  0  0  0
   -2.2170   12.5720   29.6240 H   0  0  0  0  0  0  0  0  0  0  0  0
   -3.9020   13.4570   30.2900 C   0  0  0  0  0  0  0  0  0  0  0  0
   -5.4250   13.2640   30.4120 C   0  0  0  0  0  0  0  0  0  0  0  0
   -3.3640   14.4750   30.7270 O   0  0  0  0  0  0  0  0  0  0  0  0
   -2.1200    8.3440   27.6080 C   0  0  0  0  0  0  0  0  0  0  0  0
   -1.4800    7.7650   28.4850 O   0  0  0  0  0  0  0  0  0  0  0  0
   -1.5470    8.6880   26.5720 O   0  0  0  0  0  0  0  0  0  0  0  0
   -3.8160   10.1410   31.2920 O   0  0  0  0  0  0  0  0  0  0  0  0
   -4.6380    9.6580   31.4030 H   0  0  0  0  0  0  0  0  0  0  0  0
   -4.4070    7.5540   27.2390 O   0  0  0  0  0  0  0  0  0  0  0  0
   -5.3410    6.9310   28.1570 C   0  0  0  0  0  0  0  0  0  0  0  0
   -5.2300   12.6020   26.9990 O   0  0  0  0  0  0  0  0  0  0  0  0
   -5.3600   12.7960   27.9300 H   0  0  0  0  0  0  0  0  0  0  0  0
   -3.4770   13.2510   24.4980 C   0  0  0  0  0  0  0  0  0  0  0  0
   -4.9780   14.7210   23.1970 C   0  0  0  0  0  0  0  0  0  0  0  0
   -4.0900   15.1120   22.4360 O   0  0  0  0  0  0  0  0  0  0  0  0
   -4.7790   13.8570   24.1930 N   0  0  0  0  0  0  0  0  0  0  0  0
   -5.5690   13.6040   24.7700 H   0  0  0  0  0  0  0  0  0  0  0  0
   -6.3080   15.2150   23.0230 O   0  0  0  0  0  0  0  0  0  0  0  0
   -7.2420   14.1490   23.2150 C   0  0  0  0  0  0  0  0  0  0  0  0
   -7.5560   14.1510   20.7560 N   0  0  0  0  0  0  0  0  0  0  0  0
   -7.5080   13.4600   21.9390 C   0  0  0  0  0  0  0  0  0  0  0  0
   -7.7400   12.1270   21.6910 C   0  0  0  0  0  0  0  0  0  0  0  0
   -7.9500   12.0740   20.3450 N   0  0  0  0  0  0  0  0  0  0  0  0
   -7.8160   13.2890   19.7820 N   0  0  0  0  0  0  0  0  0  0  0  0
   -8.2330   10.9130   19.5170 C   0  0  0  0  0  0  0  0  0  0  0  0
   -7.3090    9.8750   19.8360 O   0  0  0  0  0  0  0  0  0  0  0  0
   -6.1430    9.9420   19.0260 C   0  0  0  0  0  0  0  0  0  0  0  0
   -5.0450   10.5410   19.8630 C   0  0  0  0  0  0  0  0  0  0  0  0
   -4.5480    9.8590   20.9820 C   0  0  0  0  0  0  0  0  0  0  0  0
   -3.5570   10.4320   21.7790 C   0  0  0  0  0  0  0  0  0  0  0  0
   -3.0590   11.6960   21.4710 C   0  0  0  0  0  0  0  0  0  0  0  0
   -3.5510   12.3900   20.3680 C   0  0  0  0  0  0  0  0  0  0  0  0
   -4.5430   11.8170   19.5690 C   0  0  0  0  0  0  0  0  0  0  0  0
  1 25  1  6  0  0  0
  1  4  1  0  0  0  0
  2  1  1  0  0  0  0
  3  2  1  0  0  0  0
  4 23  1  6  0  0  0
  5  4  1  6  0  0  0
  5 10  1  0  0  0  0
  6  5  1  0  0  0  0
  6  7  1  0  0  0  0
  7 21  1  6  0  0  0
  7  8  1  0  0  0  0
  8  9  1  0  0  0  0
  9 19  1  1  0  0  0
 10 11  1  1  0  0  0
 10  9  1  0  0  0  0
 11 13  1  0  0  0  0
 12 11  1  0  0  0  0
 13 14  1  0  0  0  0
 13 15  2  0  0  0  0
 16  7  1  0  0  0  0
 16 17  1  0  0  0  0
 18 16  2  0  0  0  0
 19 20  1  0  0  0  0
 21 22  1  0  0  0  0
 23 24  1  0  0  0  0
 26 28  1  0  0  0  0
 27 26  2  0  0  0  0
 28 25  1  0  0  0  0
 28 29  1  0  0  0  0
 30 26  1  0  0  0  0
 30 31  1  0  0  0  0
 32 33  1  0  0  0  0
 33 31  1  0  0  0  0
 34 33  2  0  0  0  0
 35 34  1  0  0  0  0
 36 35  1  0  0  0  0
 36 32  2  0  0  0  0
 37 38  1  0  0  0  0
 37 35  1  0  0  0  0
 39 38  1  0  0  0  0
 39 40  1  0  0  0  0
 40 41  1  0  0  0  0
 41 42  2  0  0  0  0
 43 42  1  0  0  0  0
 44 43  2  0  0  0  0
 45 40  2  0  0  0  0
 45 44  1  0  0  0  0
M  END
>  <REMARK>
 VINA RESULT:    -5.644      0.000      0.000
 INTER + INTRA:         -12.453
 INTER:                  -9.416
 INTRA:                  -3.037
 UNBOUND:                -1.695
  Name = lig_assembled_12.pdb
  19 active torsions:
  status: ('A' for Active; 'I' for Inactive)
    1  A    between atoms: _2  and  _9
    2  A    between atoms: _4  and  _21
    3  A    between atoms: _6  and  _7
    4  A    between atoms: _6  and  _21
    5  A    between atoms: _9  and  _16
    6  A    between atoms: _10  and  _11
    7  A    between atoms: _10  and  _16
    8  A    between atoms: _17  and  _37
    9  A    between atoms: _19  and  _25
   10  A    between atoms: _20  and  _24
   11  A    between atoms: _24  and  _25
   12  A    between atoms: _27  and  _28
   13  A    between atoms: _29  and  _30
   14  A    between atoms: _31  and  _33
   15  A    between atoms: _33  and  _34
   16  A    between atoms: _33  and  _35
   17  A    between atoms: _35  and  _36
   18  A    between atoms: _35  and  _37
   19  A    between atoms: _38  and  _40
                            x       y       z     vdW  Elec       q    Type
                         _______ _______ _______ _____ _____    ______ ____

>  <TORSDO>
F 17

$$$$
lig_assembled_13.pdb
 OpenBabel07252309473D

 42 43  0  0  1  0  0  0  0  0999 V2000
   -1.9060    9.7390   27.3560 C   0  0  1  0  0  0  0  0  0  0  0  0
   -1.6270    8.7040   26.3990 O   0  0  0  0  0  0  0  0  0  0  0  0
   -0.7730    8.3110   26.5920 H   0  0  0  0  0  0  0  0  0  0  0  0
   -2.8090   10.8250   26.7440 C   0  0  2  0  0  0  0  0  0  0  0  0
   -3.8380   10.2380   25.7680 C   0  0  2  0  0  0  0  0  0  0  0  0
   -3.1980   10.1080   24.4680 O   0  0  0  0  0  0  0  0  0  0  0  0
   -4.0020    9.4610   23.4270 C   0  0  2  0  0  0  0  0  0  0  0  0
   -5.3640   10.1820   23.2700 C   0  0  0  0  0  0  0  0  0  0  0  0
   -6.0680   10.3710   24.6300 C   0  0  1  0  0  0  0  0  0  0  0  0
   -5.1400   11.0490   25.6380 C   0  0  1  0  0  0  0  0  0  0  0  0
   -5.7920   11.1460   26.9540 N   0  0  0  0  0  0  0  0  0  0  0  0
   -6.0020   10.2850   27.4410 H   0  0  0  0  0  0  0  0  0  0  0  0
   -6.1240   12.2950   27.5480 C   0  0  0  0  0  0  0  0  0  0  0  0
   -5.8140   13.5880   26.7690 C   0  0  0  0  0  0  0  0  0  0  0  0
   -6.6550   12.3460   28.6570 O   0  0  0  0  0  0  0  0  0  0  0  0
   -4.2410    7.9750   23.7640 C   0  0  0  0  0  0  0  0  0  0  0  0
   -3.5870    7.4270   24.6510 O   0  0  0  0  0  0  0  0  0  0  0  0
   -5.0870    7.3240   23.1510 O   0  0  0  0  0  0  0  0  0  0  0  0
   -3.2810    9.5670   22.1720 O   0  0  0  0  0  0  0  0  0  0  0  0
   -3.3530   10.8670   21.5330 C   0  0  0  0  0  0  0  0  0  0  0  0
   -7.2400   11.1690   24.4590 O   0  0  0  0  0  0  0  0  0  0  0  0
   -7.1250   12.0090   24.9090 H   0  0  0  0  0  0  0  0  0  0  0  0
   -2.0070   11.8220   26.0810 O   0  0  0  0  0  0  0  0  0  0  0  0
   -1.4080   12.2250   26.7140 H   0  0  0  0  0  0  0  0  0  0  0  0
   -2.5840    9.1450   28.5850 C   0  0  0  0  0  0  0  0  0  0  0  0
   -4.0920   10.4140   30.0760 C   0  0  0  0  0  0  0  0  0  0  0  0
   -5.1080    9.8210   29.7080 O   0  0  0  0  0  0  0  0  0  0  0  0
   -2.8710   10.1670   29.6000 N   0  0  0  0  0  0  0  0  0  0  0  0
   -2.1000   10.7130   29.9570 H   0  0  0  0  0  0  0  0  0  0  0  0
   -4.2050   11.4360   31.0700 O   0  0  0  0  0  0  0  0  0  0  0  0
   -3.0630   11.3960   31.9290 C   0  0  0  0  0  0  0  0  0  0  0  0
   -1.6090   13.3490   32.3750 N   0  0  0  0  0  0  0  0  0  0  0  0
   -2.8170   12.7230   32.5210 C   0  0  0  0  0  0  0  0  0  0  0  0
   -3.6510   13.5210   33.2660 C   0  0  0  0  0  0  0  0  0  0  0  0
   -2.8700   14.5880   33.6030 N   0  0  0  0  0  0  0  0  0  0  0  0
   -1.6600   14.5050   33.0270 N   0  0  0  0  0  0  0  0  0  0  0  0
   -3.2320   15.7580   34.3710 C   0  0  0  0  0  0  0  0  0  0  0  0
   -3.3760   16.9770   33.5070 C   0  0  0  0  0  0  0  0  0  0  0  0
   -2.5920   17.9130   33.4320 O   0  0  0  0  0  0  0  0  0  0  0  0
   -4.5900   16.9370   32.8800 O   0  0  0  0  0  0  0  0  0  0  0  0
   -4.5750   17.3460   31.5040 C   0  0  0  0  0  0  0  0  0  0  0  0
   -4.4290   16.0990   30.6500 C   0  0  0  0  0  0  0  0  0  0  0  0
  1 25  1  1  0  0  0
  2  3  1  0  0  0  0
  2  1  1  0  0  0  0
  4 23  1  6  0  0  0
  4  1  1  0  0  0  0
  5  4  1  1  0  0  0
  6  5  1  0  0  0  0
  7 19  1  6  0  0  0
  7 16  1  0  0  0  0
  7  6  1  0  0  0  0
  8  7  1  0  0  0  0
  8  9  1  0  0  0  0
  9 21  1  6  0  0  0
  9 10  1  0  0  0  0
 10  5  1  0  0  0  0
 10 11  1  1  0  0  0
 11 12  1  0  0  0  0
 11 13  1  0  0  0  0
 13 15  2  0  0  0  0
 14 13  1  0  0  0  0
 16 17  1  0  0  0  0
 18 16  2  0  0  0  0
 20 19  1  0  0  0  0
 21 22  1  0  0  0  0
 23 24  1  0  0  0  0
 25 28  1  0  0  0  0
 26 30  1  0  0  0  0
 27 26  2  0  0  0  0
 28 29  1  0  0  0  0
 28 26  1  0  0  0  0
 30 31  1  0  0  0  0
 31 33  1  0  0  0  0
 32 33  1  0  0  0  0
 32 36  2  0  0  0  0
 33 34  2  0  0  0  0
 34 35  1  0  0  0  0
 35 37  1  0  0  0  0
 36 35  1  0  0  0  0
 38 37  1  0  0  0  0
 39 38  2  0  0  0  0
 40 38  1  0  0  0  0
 41 40  1  0  0  0  0
 42 41  1  0  0  0  0
M  END
>  <REMARK>
 VINA RESULT:    -4.770      0.000      0.000
 INTER + INTRA:         -11.928
 INTER:                  -9.264
 INTRA:                  -2.664
 UNBOUND:                -2.835
  Name = lig_assembled_13.pdb
  20 active torsions:
  status: ('A' for Active; 'I' for Inactive)
    1  A    between atoms: _2  and  _9
    2  A    between atoms: _4  and  _18
    3  A    between atoms: _5  and  _11
    4  A    between atoms: _6  and  _7
    5  A    between atoms: _6  and  _18
    6  A    between atoms: _9  and  _10
    7  A    between atoms: _10  and  _12
    8  A    between atoms: _11  and  _12
    9  A    between atoms: _14  and  _34
   10  A    between atoms: _16  and  _22
   11  A    between atoms: _17  and  _21
   12  A    between atoms: _21  and  _22
   13  A    between atoms: _24  and  _25
   14  A    between atoms: _26  and  _27
   15  A    between atoms: _28  and  _30
   16  A    between atoms: _30  and  _31
   17  A    between atoms: _30  and  _32
   18  A    between atoms: _32  and  _33
   19  A    between atoms: _32  and  _34
   20  A    between atoms: _35  and  _37
                            x       y       z     vdW  Elec       q    Type
                         _______ _______ _______ _____ _____    ______ ____

>  <TORSDO>
F 17

$$$$
lig_assembled_14.pdb
 OpenBabel07252309473D

 43 45  0  0  1  0  0  0  0  0999 V2000
   -6.7820    8.5910   23.9340 C   0  0  1  0  0  0  0  0  0  0  0  0
   -6.0700    8.6950   25.1780 O   0  0  0  0  0  0  0  0  0  0  0  0
   -6.5660    9.2490   25.7860 H   0  0  0  0  0  0  0  0  0  0  0  0
   -6.5560    9.8390   23.0650 C   0  0  2  0  0  0  0  0  0  0  0  0
   -5.2040   10.5090   23.3560 C   0  0  2  0  0  0  0  0  0  0  0  0
   -5.4000   11.4590   24.4380 O   0  0  0  0  0  0  0  0  0  0  0  0
   -4.1880   12.1230   24.9270 C   0  0  2  0  0  0  0  0  0  0  0  0
   -3.4380   12.8080   23.7580 C   0  0  0  0  0  0  0  0  0  0  0  0
   -3.2340   11.8440   22.5700 C   0  0  1  0  0  0  0  0  0  0  0  0
   -4.5580   11.2080   22.1460 C   0  0  1  0  0  0  0  0  0  0  0  0
   -4.3380   10.2280   21.0710 N   0  0  0  0  0  0  0  0  0  0  0  0
   -3.7550    9.4280   21.2740 H   0  0  0  0  0  0  0  0  0  0  0  0
   -4.8580   10.3260   19.8440 C   0  0  0  0  0  0  0  0  0  0  0  0
   -5.7210   11.5700   19.5580 C   0  0  0  0  0  0  0  0  0  0  0  0
   -4.6680    9.4820   18.9680 O   0  0  0  0  0  0  0  0  0  0  0  0
   -3.2510   11.1100   25.6180 C   0  0  0  0  0  0  0  0  0  0  0  0
   -3.6310    9.9600   25.8320 O   0  0  0  0  0  0  0  0  0  0  0  0
   -2.1160   11.4430   25.9610 O   0  0  0  0  0  0  0  0  0  0  0  0
   -2.6770   12.5560   21.4630 O   0  0  0  0  0  0  0  0  0  0  0  0
   -2.1180   11.9660   20.9520 H   0  0  0  0  0  0  0  0  0  0  0  0
   -4.5870   13.1450   25.8760 O   0  0  0  0  0  0  0  0  0  0  0  0
   -5.7900   13.8730   25.5220 C   0  0  0  0  0  0  0  0  0  0  0  0
   -7.6290   10.7820   23.2590 O   0  0  0  0  0  0  0  0  0  0  0  0
   -7.7350   11.3140   22.4670 H   0  0  0  0  0  0  0  0  0  0  0  0
   -6.3260    7.3500   23.1740 C   0  0  0  0  0  0  0  0  0  0  0  0
   -3.8960    6.9490   23.3770 C   0  0  0  0  0  0  0  0  0  0  0  0
   -3.6010    7.6780   22.4270 O   0  0  0  0  0  0  0  0  0  0  0  0
   -5.1450    6.7330   23.7910 N   0  0  0  0  0  0  0  0  0  0  0  0
   -5.2870    6.1110   24.5750 H   0  0  0  0  0  0  0  0  0  0  0  0
   -2.8520    6.2800   24.0900 O   0  0  0  0  0  0  0  0  0  0  0  0
   -3.3730    5.7460   25.3100 C   0  0  0  0  0  0  0  0  0  0  0  0
   -1.7850    7.1890   26.5430 N   0  0  0  0  0  0  0  0  0  0  0  0
   -3.0290    6.6230   26.4440 C   0  0  0  0  0  0  0  0  0  0  0  0
   -3.7870    7.0080   27.5280 C   0  0  0  0  0  0  0  0  0  0  0  0
   -2.9430    7.7940   28.2520 N   0  0  0  0  0  0  0  0  0  0  0  0
   -1.7440    7.9080   27.6540 N   0  0  0  0  0  0  0  0  0  0  0  0
   -3.1810    8.4190   29.5360 C   0  0  0  0  0  0  0  0  0  0  0  0
   -2.8070    9.9060   29.5250 C   0  0  0  0  0  0  0  0  0  0  0  0
   -3.8700   10.7620   28.9690 N   0  0  0  0  0  0  0  0  0  0  0  0
   -5.2120   10.3750   29.4140 C   0  0  0  0  0  0  0  0  0  0  0  0
   -6.0360   11.6010   29.0750 C   0  0  0  0  0  0  0  0  0  0  0  0
   -5.1090   12.7600   29.3920 C   0  0  0  0  0  0  0  0  0  0  0  0
   -3.7040   12.1670   29.3720 C   0  0  0  0  0  0  0  0  0  0  0  0
  1 25  1  6  0  0  0
  1  2  1  0  0  0  0
  2  3  1  0  0  0  0
  4 23  1  1  0  0  0
  4  1  1  0  0  0  0
  5  4  1  6  0  0  0
  5  6  1  0  0  0  0
  6  7  1  0  0  0  0
  7 16  1  1  0  0  0
  7 21  1  0  0  0  0
  8  7  1  0  0  0  0
  9 19  1  6  0  0  0
  9  8  1  0  0  0  0
 10 11  1  6  0  0  0
 10  9  1  0  0  0  0
 10  5  1  0  0  0  0
 11 12  1  0  0  0  0
 13 11  1  0  0  0  0
 14 13  1  0  0  0  0
 15 13  2  0  0  0  0
 16 17  2  0  0  0  0
 16 18  1  0  0  0  0
 20 19  1  0  0  0  0
 22 21  1  0  0  0  0
 24 23  1  0  0  0  0
 25 28  1  0  0  0  0
 26 28  1  0  0  0  0
 26 30  1  0  0  0  0
 27 26  2  0  0  0  0
 28 29  1  0  0  0  0
 30 31  1  0  0  0  0
 31 33  1  0  0  0  0
 32 36  2  0  0  0  0
 33 32  1  0  0  0  0
 33 34  2  0  0  0  0
 34 35  1  0  0  0  0
 35 37  1  0  0  0  0
 36 35  1  0  0  0  0
 38 37  1  0  0  0  0
 39 43  1  0  0  0  0
 39 40  1  0  0  0  0
 39 38  1  0  0  0  0
 41 42  1  0  0  0  0
 41 40  1  0  0  0  0
 43 42  1  0  0  0  0
M  END
>  <REMARK>
 VINA RESULT:    -5.431      0.000      0.000
 INTER + INTRA:         -11.814
 INTER:                  -8.277
 INTRA:                  -3.537
 UNBOUND:                -1.779
  Name = lig_assembled_14.pdb
  18 active torsions:
  status: ('A' for Active; 'I' for Inactive)
    1  A    between atoms: _2  and  _10
    2  A    between atoms: _3  and  _11
    3  A    between atoms: _5  and  _19
    4  A    between atoms: _7  and  _8
    5  A    between atoms: _7  and  _19
    6  A    between atoms: _10  and  _11
    7  A    between atoms: _15  and  _35
    8  A    between atoms: _17  and  _23
    9  A    between atoms: _18  and  _22
   10  A    between atoms: _22  and  _23
   11  A    between atoms: _25  and  _26
   12  A    between atoms: _27  and  _28
   13  A    between atoms: _29  and  _31
   14  A    between atoms: _31  and  _32
   15  A    between atoms: _31  and  _33
   16  A    between atoms: _33  and  _34
   17  A    between atoms: _33  and  _35
   18  A    between atoms: _36  and  _38
                            x       y       z     vdW  Elec       q    Type
                         _______ _______ _______ _____ _____    ______ ____

>  <TORSDO>
F 16

$$$$
lig_assembled_15.pdb
 OpenBabel07252309473D

 43 45  0  0  1  0  0  0  0  0999 V2000
   -6.5210    8.8060   23.1330 C   0  0  2  0  0  0  0  0  0  0  0  0
   -6.2700    8.9660   24.5390 O   0  0  0  0  0  0  0  0  0  0  0  0
   -7.1040    9.0500   25.0060 H   0  0  0  0  0  0  0  0  0  0  0  0
   -5.5670    7.7710   22.5460 C   0  0  0  0  0  0  0  0  0  0  0  0
   -3.7980    6.2930   23.4360 C   0  0  0  0  0  0  0  0  0  0  0  0
   -4.0100    5.3920   22.6210 O   0  0  0  0  0  0  0  0  0  0  0  0
   -4.4820    7.4370   23.4780 N   0  0  0  0  0  0  0  0  0  0  0  0
   -4.2410    8.1110   24.1900 H   0  0  0  0  0  0  0  0  0  0  0  0
   -2.7630    6.1210   24.4080 O   0  0  0  0  0  0  0  0  0  0  0  0
   -3.3480    5.9220   25.6980 C   0  0  0  0  0  0  0  0  0  0  0  0
   -1.6800    7.4520   26.6980 N   0  0  0  0  0  0  0  0  0  0  0  0
   -2.9720    7.0230   26.6060 C   0  0  0  0  0  0  0  0  0  0  0  0
   -3.7560    7.7750   27.4510 C   0  0  0  0  0  0  0  0  0  0  0  0
   -2.8930    8.6810   28.0230 N   0  0  0  0  0  0  0  0  0  0  0  0
   -1.6380    8.4550   27.5640 N   0  0  0  0  0  0  0  0  0  0  0  0
   -3.1860    9.7360   28.9280 C   0  0  0  0  0  0  0  0  0  0  0  0
   -3.9160   10.8590   28.5140 C   0  0  0  0  0  0  0  0  0  0  0  0
   -4.1580   11.9060   29.4100 C   0  0  0  0  0  0  0  0  0  0  0  0
   -3.6780   11.8300   30.7150 C   0  0  0  0  0  0  0  0  0  0  0  0
   -3.9870   13.2610   31.9110 Br  0  0  0  0  0  0  0  0  0  0  0  0
   -2.9640   10.7120   31.1420 C   0  0  0  0  0  0  0  0  0  0  0  0
   -2.7200    9.6630   30.2510 C   0  0  0  0  0  0  0  0  0  0  0  0
   -6.3530   10.1410   22.3890 C   0  0  2  0  0  0  0  0  0  0  0  0
   -5.0110   10.8160   22.7080 C   0  0  2  0  0  0  0  0  0  0  0  0
   -5.1990   11.6500   23.8850 O   0  0  0  0  0  0  0  0  0  0  0  0
   -3.9890   12.2950   24.4040 C   0  0  2  0  0  0  0  0  0  0  0  0
   -3.2910   13.1130   23.2900 C   0  0  0  0  0  0  0  0  0  0  0  0
   -3.0980   12.2770   22.0070 C   0  0  1  0  0  0  0  0  0  0  0  0
   -4.4180   11.6490   21.5570 C   0  0  1  0  0  0  0  0  0  0  0  0
   -4.2050   10.7860   20.3850 N   0  0  0  0  0  0  0  0  0  0  0  0
   -3.5070   10.0580   20.4550 H   0  0  0  0  0  0  0  0  0  0  0  0
   -4.8730   10.9010   19.2340 C   0  0  0  0  0  0  0  0  0  0  0  0
   -5.9110   12.0360   19.1490 C   0  0  0  0  0  0  0  0  0  0  0  0
   -4.6840   10.1540   18.2730 O   0  0  0  0  0  0  0  0  0  0  0  0
   -3.0080   11.2460   24.9660 C   0  0  0  0  0  0  0  0  0  0  0  0
   -1.9880   11.6040   25.5550 O   0  0  0  0  0  0  0  0  0  0  0  0
   -3.2350   10.0430   24.8310 O   0  0  0  0  0  0  0  0  0  0  0  0
   -2.5920   13.1080   20.9620 O   0  0  0  0  0  0  0  0  0  0  0  0
   -1.6780   12.8760   20.7810 H   0  0  0  0  0  0  0  0  0  0  0  0
   -4.3860   13.2080   25.4600 O   0  0  0  0  0  0  0  0  0  0  0  0
   -5.8150   13.2940   25.6910 C   0  0  0  0  0  0  0  0  0  0  0  0
   -7.4440   11.0290   22.7070 O   0  0  0  0  0  0  0  0  0  0  0  0
   -8.1540   10.5290   23.1160 H   0  0  0  0  0  0  0  0  0  0  0  0
  1  4  1  6  0  0  0
  1  2  1  0  0  0  0
  2  3  1  0  0  0  0
  4  7  1  0  0  0  0
  5  7  1  0  0  0  0
  5  9  1  0  0  0  0
  6  5  2  0  0  0  0
  7  8  1  0  0  0  0
  9 10  1  0  0  0  0
 10 12  1  0  0  0  0
 11 15  2  0  0  0  0
 12 11  1  0  0  0  0
 12 13  2  0  0  0  0
 13 14  1  0  0  0  0
 14 16  1  0  0  0  0
 15 14  1  0  0  0  0
 16 22  1  0  0  0  0
 17 16  2  0  0  0  0
 17 18  1  0  0  0  0
 18 19  2  0  0  0  0
 19 21  1  0  0  0  0
 19 20  1  0  0  0  0
 22 21  2  0  0  0  0
 23 42  1  1  0  0  0
 23  1  1  0  0  0  0
 24 23  1  6  0  0  0
 24 25  1  0  0  0  0
 25 26  1  0  0  0  0
 26 35  1  1  0  0  0
 26 40  1  0  0  0  0
 27 26  1  0  0  0  0
 28 38  1  6  0  0  0
 28 27  1  0  0  0  0
 29 30  1  6  0  0  0
 29 28  1  0  0  0  0
 29 24  1  0  0  0  0
 30 31  1  0  0  0  0
 32 30  1  0  0  0  0
 33 32  1  0  0  0  0
 34 32  2  0  0  0  0
 35 36  1  0  0  0  0
 37 35  2  0  0  0  0
 39 38  1  0  0  0  0
 40 41  1  0  0  0  0
 42 43  1  0  0  0  0
M  END
>  <REMARK>
 VINA RESULT:    -4.917      0.000      0.000
 INTER + INTRA:         -11.507
 INTER:                  -8.653
 INTRA:                  -2.854
 UNBOUND:                -2.997
  Name = lig_assembled_15.pdb
  16 active torsions:
  status: ('A' for Active; 'I' for Inactive)
    1  A    between atoms: _2  and  _9
    2  A    between atoms: _4  and  _18
    3  A    between atoms: _6  and  _7
    4  A    between atoms: _6  and  _18
    5  A    between atoms: _14  and  _34
    6  A    between atoms: _16  and  _22
    7  A    between atoms: _17  and  _21
    8  A    between atoms: _21  and  _22
    9  A    between atoms: _24  and  _25
   10  A    between atoms: _26  and  _27
   11  A    between atoms: _28  and  _30
   12  A    between atoms: _30  and  _31
   13  A    between atoms: _30  and  _32
   14  A    between atoms: _32  and  _33
   15  A    between atoms: _32  and  _34
   16  A    between atoms: _35  and  _37
                            x       y       z     vdW  Elec       q    Type
                         _______ _______ _______ _____ _____    ______ ____

>  <TORSDO>
F 14

$$$$
lig_assembled_16.pdb
 OpenBabel07252309473D

 47 49  0  0  1  0  0  0  0  0999 V2000
   -7.3210    9.6130   24.1570 C   0  0  1  0  0  0  0  0  0  0  0  0
   -6.6370    9.1860   25.3460 O   0  0  0  0  0  0  0  0  0  0  0  0
   -7.2390    9.2240   26.0930 H   0  0  0  0  0  0  0  0  0  0  0  0
   -6.9180   11.0470   23.7750 C   0  0  2  0  0  0  0  0  0  0  0  0
   -5.4150   11.2950   23.9650 C   0  0  2  0  0  0  0  0  0  0  0  0
   -5.1860   11.6020   25.3680 O   0  0  0  0  0  0  0  0  0  0  0  0
   -3.7830   11.7650   25.7610 C   0  0  2  0  0  0  0  0  0  0  0  0
   -3.0940   12.8300   24.8740 C   0  0  0  0  0  0  0  0  0  0  0  0
   -3.3350   12.5640   23.3730 C   0  0  1  0  0  0  0  0  0  0  0  0
   -4.8270   12.4070   23.0770 C   0  0  1  0  0  0  0  0  0  0  0  0
   -5.0380   12.0680   21.6610 N   0  0  0  0  0  0  0  0  0  0  0  0
   -4.6060   11.2260   21.3080 H   0  0  0  0  0  0  0  0  0  0  0  0
   -5.7640   12.8010   20.8110 C   0  0  0  0  0  0  0  0  0  0  0  0
   -6.3870   14.0920   21.3730 C   0  0  0  0  0  0  0  0  0  0  0  0
   -5.9360   12.4840   19.6340 O   0  0  0  0  0  0  0  0  0  0  0  0
   -3.0230   10.4280   25.6460 C   0  0  0  0  0  0  0  0  0  0  0  0
   -1.7940   10.4140   25.6070 O   0  0  0  0  0  0  0  0  0  0  0  0
   -3.6390    9.3630   25.5930 O   0  0  0  0  0  0  0  0  0  0  0  0
   -3.7530   12.2270   27.1360 O   0  0  0  0  0  0  0  0  0  0  0  0
   -4.7730   11.6580   27.9960 C   0  0  0  0  0  0  0  0  0  0  0  0
   -2.8140   13.6470   22.6020 O   0  0  0  0  0  0  0  0  0  0  0  0
   -3.2610   13.6810   21.7530 H   0  0  0  0  0  0  0  0  0  0  0  0
   -7.6800   11.9990   24.5450 O   0  0  0  0  0  0  0  0  0  0  0  0
   -7.0880   12.6570   24.9160 H   0  0  0  0  0  0  0  0  0  0  0  0
   -7.0000    8.6690   23.0030 C   0  0  0  0  0  0  0  0  0  0  0  0
   -4.6520    8.0390   22.5610 C   0  0  0  0  0  0  0  0  0  0  0  0
   -4.5150    8.8340   21.6290 O   0  0  0  0  0  0  0  0  0  0  0  0
   -5.7810    7.8910   23.2550 N   0  0  0  0  0  0  0  0  0  0  0  0
   -5.7990    7.2040   23.9970 H   0  0  0  0  0  0  0  0  0  0  0  0
   -3.5480    7.2110   22.9360 O   0  0  0  0  0  0  0  0  0  0  0  0
   -4.0180    6.1130   23.7220 C   0  0  0  0  0  0  0  0  0  0  0  0
   -1.7670    5.9760   24.7460 N   0  0  0  0  0  0  0  0  0  0  0  0
   -3.1300    5.8930   24.8760 C   0  0  0  0  0  0  0  0  0  0  0  0
   -3.4410    5.6180   26.1890 C   0  0  0  0  0  0  0  0  0  0  0  0
   -2.2330    5.6410   26.8200 N   0  0  0  0  0  0  0  0  0  0  0  0
   -1.2240    5.8030   25.9450 N   0  0  0  0  0  0  0  0  0  0  0  0
   -1.9680    5.5410   28.2410 C   0  0  0  0  0  0  0  0  0  0  0  0
   -2.3390    6.8180   28.9610 C   0  0  0  0  0  0  0  0  0  0  0  0
   -3.0220    6.7770   30.1850 C   0  0  0  0  0  0  0  0  0  0  0  0
   -3.3290    7.9590   30.8640 C   0  0  0  0  0  0  0  0  0  0  0  0
   -2.9710    9.1970   30.3260 C   0  0  0  0  0  0  0  0  0  0  0  0
   -2.3070    9.2520   29.0910 C   0  0  0  0  0  0  0  0  0  0  0  0
   -2.0070    8.0670   28.4110 C   0  0  0  0  0  0  0  0  0  0  0  0
   -3.2560   10.4180   31.1250 C   0  0  0  0  0  0  0  0  0  0  0  0
   -4.3900   10.7590   31.4200 O   0  0  0  0  0  0  0  0  0  0  0  0
   -2.1620   11.1260   31.4610 O   0  0  0  0  0  0  0  0  0  0  0  0
   -1.5730   10.6990   32.1090 H   0  0  0  0  0  0  0  0  0  0  0  0
  1 25  1  6  0  0  0
  1  2  1  0  0  0  0
  2  3  1  0  0  0  0
  4  1  1  0  0  0  0
  4 23  1  1  0  0  0
  5  4  1  1  0  0  0
  5  6  1  0  0  0  0
  6  7  1  0  0  0  0
  7 16  1  6  0  0  0
  7 19  1  0  0  0  0
  8  7  1  0  0  0  0
  9 21  1  6  0  0  0
  9  8  1  0  0  0  0
 10 11  1  6  0  0  0
 10  9  1  0  0  0  0
 10  5  1  0  0  0  0
 12 11  1  0  0  0  0
 13 14  1  0  0  0  0
 13 11  1  0  0  0  0
 15 13  2  0  0  0  0
 17 16  1  0  0  0  0
 18 16  2  0  0  0  0
 19 20  1  0  0  0  0
 22 21  1  0  0  0  0
 23 24  1  0  0  0  0
 25 28  1  0  0  0  0
 26 30  1  0  0  0  0
 26 28  1  0  0  0  0
 27 26  2  0  0  0  0
 28 29  1  0  0  0  0
 30 31  1  0  0  0  0
 31 33  1  0  0  0  0
 32 33  1  0  0  0  0
 32 36  2  0  0  0  0
 33 34  2  0  0  0  0
 34 35  1  0  0  0  0
 35 37  1  0  0  0  0
 36 35  1  0  0  0  0
 37 38  1  0  0  0  0
 38 39  1  0  0  0  0
 39 40  2  0  0  0  0
 41 40  1  0  0  0  0
 41 44  1  0  0  0  0
 42 41  2  0  0  0  0
 43 38  2  0  0  0  0
 43 42  1  0  0  0  0
 44 45  2  0  0  0  0
 44 46  1  0  0  0  0
 46 47  1  0  0  0  0
M  END
>  <REMARK>
 VINA RESULT:    -5.262      0.000      0.000
 INTER + INTRA:         -13.197
 INTER:                  -9.604
 INTRA:                  -3.594
 UNBOUND:                -3.320
  Name = lig_assembled_16.pdb
  19 active torsions:
  status: ('A' for Active; 'I' for Inactive)
    1  A    between atoms: _2  and  _9
    2  A    between atoms: _4  and  _22
    3  A    between atoms: _6  and  _7
    4  A    between atoms: _6  and  _22
    5  A    between atoms: _9  and  _10
    6  A    between atoms: _13  and  _14
    7  A    between atoms: _14  and  _16
    8  A    between atoms: _18  and  _38
    9  A    between atoms: _20  and  _26
   10  A    between atoms: _21  and  _25
   11  A    between atoms: _25  and  _26
   12  A    between atoms: _28  and  _29
   13  A    between atoms: _30  and  _31
   14  A    between atoms: _32  and  _34
   15  A    between atoms: _34  and  _35
   16  A    between atoms: _34  and  _36
   17  A    between atoms: _36  and  _37
   18  A    between atoms: _36  and  _38
   19  A    between atoms: _39  and  _41
                            x       y       z     vdW  Elec       q    Type
                         _______ _______ _______ _____ _____    ______ ____

>  <TORSDO>
F 17

$$$$
lig_assembled_17.pdb
 OpenBabel07252309473D

 43 44  0  0  1  0  0  0  0  0999 V2000
   -2.9480   11.2930   23.1160 C   0  0  1  0  0  0  0  0  0  0  0  0
   -2.3920   11.8400   24.3230 O   0  0  0  0  0  0  0  0  0  0  0  0
   -3.0990   12.1830   24.8750 H   0  0  0  0  0  0  0  0  0  0  0  0
   -3.8650   10.0970   23.4250 C   0  0  2  0  0  0  0  0  0  0  0  0
   -3.8520    9.7290   24.9160 C   0  0  2  0  0  0  0  0  0  0  0  0
   -2.8820    8.6620   25.1040 O   0  0  0  0  0  0  0  0  0  0  0  0
   -2.6550    8.2490   26.4930 C   0  0  2  0  0  0  0  0  0  0  0  0
   -3.9940    7.8650   27.1690 C   0  0  0  0  0  0  0  0  0  0  0  0
   -5.0670    8.9560   26.9690 C   0  0  1  0  0  0  0  0  0  0  0  0
   -5.2190    9.3110   25.4890 C   0  0  1  0  0  0  0  0  0  0  0  0
   -6.1800   10.4120   25.3190 N   0  0  0  0  0  0  0  0  0  0  0  0
   -5.9760   11.2900   25.7740 H   0  0  0  0  0  0  0  0  0  0  0  0
   -7.3050   10.3250   24.6030 C   0  0  0  0  0  0  0  0  0  0  0  0
   -7.6000    8.9650   23.9440 C   0  0  0  0  0  0  0  0  0  0  0  0
   -8.0840   11.2690   24.4670 O   0  0  0  0  0  0  0  0  0  0  0  0
   -1.9770    9.3790   27.2950 C   0  0  0  0  0  0  0  0  0  0  0  0
   -1.2090   10.1610   26.7370 O   0  0  0  0  0  0  0  0  0  0  0  0
   -2.1990    9.5090   28.5000 O   0  0  0  0  0  0  0  0  0  0  0  0
   -6.3210    8.4970   27.4740 O   0  0  0  0  0  0  0  0  0  0  0  0
   -6.2300    8.2740   28.4030 H   0  0  0  0  0  0  0  0  0  0  0  0
   -1.7980    7.0790   26.4790 O   0  0  0  0  0  0  0  0  0  0  0  0
   -2.1660    6.0380   27.4190 C   0  0  0  0  0  0  0  0  0  0  0  0
   -3.4830    8.9580   22.6290 O   0  0  0  0  0  0  0  0  0  0  0  0
   -4.1300    8.2580   22.7400 H   0  0  0  0  0  0  0  0  0  0  0  0
   -3.7390   12.3640   22.3740 C   0  0  0  0  0  0  0  0  0  0  0  0
   -5.4220   13.9600   23.2280 C   0  0  0  0  0  0  0  0  0  0  0  0
   -4.8270   14.9560   22.8090 O   0  0  0  0  0  0  0  0  0  0  0  0
   -4.9820   12.7100   23.0740 N   0  0  0  0  0  0  0  0  0  0  0  0
   -5.5360   11.9590   23.4610 H   0  0  0  0  0  0  0  0  0  0  0  0
   -6.6570   14.1310   23.9270 O   0  0  0  0  0  0  0  0  0  0  0  0
   -6.4170   14.8070   25.1640 C   0  0  0  0  0  0  0  0  0  0  0  0
   -4.8520   13.1780   26.1690 N   0  0  0  0  0  0  0  0  0  0  0  0
   -6.0520   13.8380   26.2120 C   0  0  0  0  0  0  0  0  0  0  0  0
   -6.7450   13.4410   27.3350 C   0  0  0  0  0  0  0  0  0  0  0  0
   -5.9030   12.5570   27.9390 N   0  0  0  0  0  0  0  0  0  0  0  0
   -4.7720   12.3920   27.2310 N   0  0  0  0  0  0  0  0  0  0  0  0
   -6.0760   11.8640   29.2000 C   0  0  0  0  0  0  0  0  0  0  0  0
   -4.7170   11.6070   29.8660 C   0  0  0  0  0  0  0  0  0  0  0  0
   -4.4400   12.3820   31.1010 N   0  0  0  0  0  0  0  0  0  0  0  0
   -3.8300   11.5730   32.1720 C   0  0  0  0  0  0  0  0  0  0  0  0
   -2.5540   10.8180   31.8120 C   0  0  0  0  0  0  0  0  0  0  0  0
   -3.6470   13.5770   30.7450 C   0  0  0  0  0  0  0  0  0  0  0  0
   -4.4590   14.8560   30.5700 C   0  0  0  0  0  0  0  0  0  0  0  0
  1 25  1  1  0  0  0
  1  4  1  0  0  0  0
  1  2  1  0  0  0  0
  2  3  1  0  0  0  0
  4 23  1  6  0  0  0
  5  4  1  6  0  0  0
  5  6  1  0  0  0  0
  5 10  1  0  0  0  0
  6  7  1  0  0  0  0
  7 21  1  1  0  0  0
  7  8  1  0  0  0  0
  7 16  1  0  0  0  0
  9  8  1  0  0  0  0
  9 19  1  6  0  0  0
 10 11  1  1  0  0  0
 10  9  1  0  0  0  0
 11 12  1  0  0  0  0
 13 11  1  0  0  0  0
 14 13  1  0  0  0  0
 15 13  2  0  0  0  0
 16 18  1  0  0  0  0
 17 16  2  0  0  0  0
 19 20  1  0  0  0  0
 21 22  1  0  0  0  0
 23 24  1  0  0  0  0
 25 28  1  0  0  0  0
 26 30  1  0  0  0  0
 27 26  2  0  0  0  0
 28 26  1  0  0  0  0
 28 29  1  0  0  0  0
 30 31  1  0  0  0  0
 31 33  1  0  0  0  0
 32 33  1  0  0  0  0
 32 36  2  0  0  0  0
 33 34  2  0  0  0  0
 34 35  1  0  0  0  0
 35 37  1  0  0  0  0
 36 35  1  0  0  0  0
 37 38  1  0  0  0  0
 38 39  1  0  0  0  0
 39 40  1  0  0  0  0
 41 40  1  0  0  0  0
 42 39  1  0  0  0  0
 43 42  1  0  0  0  0
M  END
>  <REMARK>
 VINA RESULT:    -4.643      0.000      0.000
 INTER + INTRA:         -12.015
 INTER:                  -8.054
 INTRA:                  -3.961
 UNBOUND:                -2.894
  Name = lig_assembled_17.pdb
  22 active torsions:
  status: ('A' for Active; 'I' for Inactive)
    1  A    between atoms: _2  and  _10
    2  A    between atoms: _3  and  _11
    3  A    between atoms: _3  and  _12
    4  A    between atoms: _3  and  _14
    5  A    between atoms: _5  and  _19
    6  A    between atoms: _6  and  _14
    7  A    between atoms: _7  and  _8
    8  A    between atoms: _7  and  _19
    9  A    between atoms: _10  and  _11
   10  A    between atoms: _12  and  _13
   11  A    between atoms: _15  and  _35
   12  A    between atoms: _17  and  _23
   13  A    between atoms: _18  and  _22
   14  A    between atoms: _22  and  _23
   15  A    between atoms: _25  and  _26
   16  A    between atoms: _27  and  _28
   17  A    between atoms: _29  and  _31
   18  A    between atoms: _31  and  _32
   19  A    between atoms: _31  and  _33
   20  A    between atoms: _33  and  _34
   21  A    between atoms: _33  and  _35
   22  A    between atoms: _36  and  _38
                            x       y       z     vdW  Elec       q    Type
                         _______ _______ _______ _____ _____    ______ ____

>  <TORSDO>
F 18

$$$$
lig_assembled_18.pdb
 OpenBabel07252309473D

 47 49  0  0  1  0  0  0  0  0999 V2000
   -7.0150    8.4790   24.0460 C   0  0  1  0  0  0  0  0  0  0  0  0
   -6.4340    8.4860   25.3600 O   0  0  0  0  0  0  0  0  0  0  0  0
   -6.7560    9.2460   25.8490 H   0  0  0  0  0  0  0  0  0  0  0  0
   -6.7920    9.8260   23.3380 C   0  0  2  0  0  0  0  0  0  0  0  0
   -5.4360   10.4510   23.7000 C   0  0  2  0  0  0  0  0  0  0  0  0
   -5.6480   11.3710   24.8060 O   0  0  0  0  0  0  0  0  0  0  0  0
   -4.4380   11.9860   25.3590 C   0  0  2  0  0  0  0  0  0  0  0  0
   -3.6290   12.6900   24.2420 C   0  0  0  0  0  0  0  0  0  0  0  0
   -3.4060   11.7610   23.0300 C   0  0  1  0  0  0  0  0  0  0  0  0
   -4.7290   11.1730   22.5380 C   0  0  1  0  0  0  0  0  0  0  0  0
   -4.4940   10.2230   21.4390 N   0  0  0  0  0  0  0  0  0  0  0  0
   -3.9390    9.4020   21.6360 H   0  0  0  0  0  0  0  0  0  0  0  0
   -4.9650   10.3750   20.1990 C   0  0  0  0  0  0  0  0  0  0  0  0
   -5.7860   11.6490   19.9240 C   0  0  0  0  0  0  0  0  0  0  0  0
   -4.7650    9.5550   19.3020 O   0  0  0  0  0  0  0  0  0  0  0  0
   -3.5520   10.9280   26.0490 C   0  0  0  0  0  0  0  0  0  0  0  0
   -2.3290   11.0610   26.0700 O   0  0  0  0  0  0  0  0  0  0  0  0
   -4.0600    9.9420   26.5840 O   0  0  0  0  0  0  0  0  0  0  0  0
   -4.8470   12.9870   26.3270 O   0  0  0  0  0  0  0  0  0  0  0  0
   -5.8580   13.9150   25.8600 C   0  0  0  0  0  0  0  0  0  0  0  0
   -2.7920   12.4930   21.9690 O   0  0  0  0  0  0  0  0  0  0  0  0
   -2.8830   13.4340   22.1340 H   0  0  0  0  0  0  0  0  0  0  0  0
   -7.8600   10.7390   23.6590 O   0  0  0  0  0  0  0  0  0  0  0  0
   -8.0600   11.2810   22.8920 H   0  0  0  0  0  0  0  0  0  0  0  0
   -6.4050    7.3580   23.2110 C   0  0  0  0  0  0  0  0  0  0  0  0
   -3.9630    7.0140   23.3690 C   0  0  0  0  0  0  0  0  0  0  0  0
   -3.7090    7.6780   22.3620 O   0  0  0  0  0  0  0  0  0  0  0  0
   -5.1960    6.8070   23.8350 N   0  0  0  0  0  0  0  0  0  0  0  0
   -5.3030    6.2390   24.6640 H   0  0  0  0  0  0  0  0  0  0  0  0
   -2.8870    6.4150   24.0960 O   0  0  0  0  0  0  0  0  0  0  0  0
   -3.3880    5.8420   25.3070 C   0  0  0  0  0  0  0  0  0  0  0  0
   -1.7960    7.3990   26.3960 N   0  0  0  0  0  0  0  0  0  0  0  0
   -2.9120    6.6080   26.4740 C   0  0  0  0  0  0  0  0  0  0  0  0
   -3.4280    6.6850   27.7470 C   0  0  0  0  0  0  0  0  0  0  0  0
   -2.6010    7.5580   28.3890 N   0  0  0  0  0  0  0  0  0  0  0  0
   -1.6070    7.9690   27.5790 N   0  0  0  0  0  0  0  0  0  0  0  0
   -2.6100    7.9560   29.7760 C   0  0  0  0  0  0  0  0  0  0  0  0
   -3.5910    9.0740   30.0450 C   0  0  0  0  0  0  0  0  0  0  0  0
   -4.6350    8.8920   30.6680 O   0  0  0  0  0  0  0  0  0  0  0  0
   -3.2020   10.3180   29.5920 N   0  0  0  0  0  0  0  0  0  0  0  0
   -2.4300   10.4050   28.9460 H   0  0  0  0  0  0  0  0  0  0  0  0
   -4.0320   11.4880   29.7900 C   0  0  0  0  0  0  0  0  0  0  0  0
   -3.3840   12.4010   30.7820 C   0  0  0  0  0  0  0  0  0  0  0  0
   -2.5550   11.7680   32.1410 S   0  0  0  0  0  0  0  0  0  0  0  0
   -2.2090   13.3320   32.7400 C   0  0  0  0  0  0  0  0  0  0  0  0
   -2.6990   14.3220   31.9170 C   0  0  0  0  0  0  0  0  0  0  0  0
   -3.3710   13.7830   30.7820 C   0  0  0  0  0  0  0  0  0  0  0  0
  1 25  1  6  0  0  0
  1  2  1  0  0  0  0
  2  3  1  0  0  0  0
  4 23  1  1  0  0  0
  4  1  1  0  0  0  0
  5  4  1  6  0  0  0
  5  6  1  0  0  0  0
  6  7  1  0  0  0  0
  7 16  1  1  0  0  0
  7 19  1  0  0  0  0
  8  7  1  0  0  0  0
  9 21  1  6  0  0  0
  9  8  1  0  0  0  0
 10 11  1  6  0  0  0
 10  9  1  0  0  0  0
 10  5  1  0  0  0  0
 11 12  1  0  0  0  0
 13 11  1  0  0  0  0
 14 13  1  0  0  0  0
 15 13  2  0  0  0  0
 16 17  2  0  0  0  0
 16 18  1  0  0  0  0
 20 19  1  0  0  0  0
 21 22  1  0  0  0  0
 24 23  1  0  0  0  0
 25 28  1  0  0  0  0
 26 28  1  0  0  0  0
 26 30  1  0  0  0  0
 27 26  2  0  0  0  0
 28 29  1  0  0  0  0
 30 31  1  0  0  0  0
 31 33  1  0  0  0  0
 32 33  1  0  0  0  0
 32 36  2  0  0  0  0
 33 34  2  0  0  0  0
 34 35  1  0  0  0  0
 35 37  1  0  0  0  0
 36 35  1  0  0  0  0
 37 38  1  0  0  0  0
 38 39  2  0  0  0  0
 40 42  1  0  0  0  0
 40 38  1  0  0  0  0
 41 40  1  0  0  0  0
 42 43  1  0  0  0  0
 43 47  2  0  0  0  0
 43 44  1  0  0  0  0
 44 45  1  0  0  0  0
 46 45  2  0  0  0  0
 47 46  1  0  0  0  0
M  END
>  <REMARK>
 VINA RESULT:    -5.455      0.000      0.000
 INTER + INTRA:         -12.959
 INTER:                  -8.899
 INTRA:                  -4.060
 UNBOUND:                -2.560
  Name = lig_assembled_18.pdb
  19 active torsions:
  status: ('A' for Active; 'I' for Inactive)
    1  A    between atoms: _2  and  _10
    2  A    between atoms: _3  and  _12
    3  A    between atoms: _5  and  _21
    4  A    between atoms: _7  and  _8
    5  A    between atoms: _7  and  _21
    6  A    between atoms: _10  and  _11
    7  A    between atoms: _12  and  _13
    8  A    between atoms: _17  and  _37
    9  A    between atoms: _19  and  _25
   10  A    between atoms: _20  and  _24
   11  A    between atoms: _24  and  _25
   12  A    between atoms: _27  and  _28
   13  A    between atoms: _29  and  _30
   14  A    between atoms: _31  and  _33
   15  A    between atoms: _33  and  _34
   16  A    between atoms: _33  and  _35
   17  A    between atoms: _35  and  _36
   18  A    between atoms: _35  and  _37
   19  A    between atoms: _38  and  _40
                            x       y       z     vdW  Elec       q    Type
                         _______ _______ _______ _____ _____    ______ ____

>  <TORSDO>
F 17

$$$$
lig_assembled_19.pdb
 OpenBabel07252309473D

 42 43  0  0  1  0  0  0  0  0999 V2000
   -6.9700    8.7560   23.9090 C   0  0  1  0  0  0  0  0  0  0  0  0
   -6.3700    8.8430   25.2120 O   0  0  0  0  0  0  0  0  0  0  0  0
   -5.4980    9.2380   25.1370 H   0  0  0  0  0  0  0  0  0  0  0  0
   -6.6510   10.0060   23.0710 C   0  0  2  0  0  0  0  0  0  0  0  0
   -5.2690   10.5870   23.4050 C   0  0  2  0  0  0  0  0  0  0  0  0
   -5.4320   11.5280   24.5020 O   0  0  0  0  0  0  0  0  0  0  0  0
   -4.1940   12.1080   25.0290 C   0  0  2  0  0  0  0  0  0  0  0  0
   -3.3780   12.7680   23.8910 C   0  0  0  0  0  0  0  0  0  0  0  0
   -3.2050   11.8170   22.6880 C   0  0  1  0  0  0  0  0  0  0  0  0
   -4.5550   11.2700   22.2230 C   0  0  1  0  0  0  0  0  0  0  0  0
   -4.3690   10.2980   21.1340 N   0  0  0  0  0  0  0  0  0  0  0  0
   -3.9230    9.4190   21.3570 H   0  0  0  0  0  0  0  0  0  0  0  0
   -4.7510   10.5010   19.8700 C   0  0  0  0  0  0  0  0  0  0  0  0
   -5.4040   11.8610   19.5580 C   0  0  0  0  0  0  0  0  0  0  0  0
   -4.5960    9.6630   18.9810 O   0  0  0  0  0  0  0  0  0  0  0  0
   -3.3350   11.0280   25.7200 C   0  0  0  0  0  0  0  0  0  0  0  0
   -3.8520    9.9840   26.1160 O   0  0  0  0  0  0  0  0  0  0  0  0
   -2.1260   11.2010   25.8810 O   0  0  0  0  0  0  0  0  0  0  0  0
   -2.5820   12.5130   21.6080 O   0  0  0  0  0  0  0  0  0  0  0  0
   -2.1400   13.2970   21.9440 H   0  0  0  0  0  0  0  0  0  0  0  0
   -4.5520   13.1350   25.9900 O   0  0  0  0  0  0  0  0  0  0  0  0
   -5.9150   13.6200   25.8870 C   0  0  0  0  0  0  0  0  0  0  0  0
   -7.6700   11.0070   23.2640 O   0  0  0  0  0  0  0  0  0  0  0  0
   -7.2890   11.8800   23.1430 H   0  0  0  0  0  0  0  0  0  0  0  0
   -6.4650    7.5130   23.1840 C   0  0  0  0  0  0  0  0  0  0  0  0
   -4.0530    7.0210   23.4030 C   0  0  0  0  0  0  0  0  0  0  0  0
   -3.7430    7.6090   22.3640 O   0  0  0  0  0  0  0  0  0  0  0  0
   -5.3030    6.9210   23.8580 N   0  0  0  0  0  0  0  0  0  0  0  0
   -5.4590    6.4090   24.7150 H   0  0  0  0  0  0  0  0  0  0  0  0
   -3.0280    6.3960   24.1800 O   0  0  0  0  0  0  0  0  0  0  0  0
   -3.5850    5.9140   25.4050 C   0  0  0  0  0  0  0  0  0  0  0  0
   -1.7890    7.2070   26.5200 N   0  0  0  0  0  0  0  0  0  0  0  0
   -3.0540    6.6790   26.5480 C   0  0  0  0  0  0  0  0  0  0  0  0
   -3.6450    6.9920   27.7510 C   0  0  0  0  0  0  0  0  0  0  0  0
   -2.6860    7.6990   28.4110 N   0  0  0  0  0  0  0  0  0  0  0  0
   -1.5750    7.8330   27.6700 N   0  0  0  0  0  0  0  0  0  0  0  0
   -2.7650    8.2840   29.7320 C   0  0  0  0  0  0  0  0  0  0  0  0
   -2.8290    9.8070   29.6750 C   0  0  0  0  0  0  0  0  0  0  0  0
   -4.1380   10.3100   30.0060 O   0  0  0  0  0  0  0  0  0  0  0  0
   -4.5380   11.4190   29.3290 C   0  0  0  0  0  0  0  0  0  0  0  0
   -3.8810   12.4450   29.2180 O   0  0  0  0  0  0  0  0  0  0  0  0
   -5.8840   11.2090   28.7060 C   0  0  0  0  0  0  0  0  0  0  0  0
  1 25  1  6  0  0  0
  1  2  1  0  0  0  0
  3  2  1  0  0  0  0
  4 23  1  1  0  0  0
  4  1  1  0  0  0  0
  5  4  1  6  0  0  0
  5  6  1  0  0  0  0
  6  7  1  0  0  0  0
  7 16  1  1  0  0  0
  7 21  1  0  0  0  0
  8  7  1  0  0  0  0
  9 19  1  6  0  0  0
  9  8  1  0  0  0  0
 10 11  1  6  0  0  0
 10  9  1  0  0  0  0
 10  5  1  0  0  0  0
 11 12  1  0  0  0  0
 13 11  1  0  0  0  0
 14 13  1  0  0  0  0
 15 13  2  0  0  0  0
 16 18  2  0  0  0  0
 16 17  1  0  0  0  0
 19 20  1  0  0  0  0
 22 21  1  0  0  0  0
 24 23  1  0  0  0  0
 25 28  1  0  0  0  0
 26 28  1  0  0  0  0
 26 30  1  0  0  0  0
 27 26  2  0  0  0  0
 28 29  1  0  0  0  0
 30 31  1  0  0  0  0
 31 33  1  0  0  0  0
 32 33  1  0  0  0  0
 32 36  2  0  0  0  0
 33 34  2  0  0  0  0
 34 35  1  0  0  0  0
 35 37  1  0  0  0  0
 36 35  1  0  0  0  0
 38 37  1  0  0  0  0
 38 39  1  0  0  0  0
 40 39  1  0  0  0  0
 41 40  2  0  0  0  0
 42 40  1  0  0  0  0
M  END
>  <REMARK>
 VINA RESULT:    -4.789      0.000      0.000
 INTER + INTRA:         -11.883
 INTER:                  -8.168
 INTRA:                  -3.715
 UNBOUND:                -2.754
  Name = lig_assembled_19.pdb
  20 active torsions:
  status: ('A' for Active; 'I' for Inactive)
    1  A    between atoms: _2  and  _9
    2  A    between atoms: _4  and  _18
    3  A    between atoms: _5  and  _11
    4  A    between atoms: _6  and  _7
    5  A    between atoms: _6  and  _18
    6  A    between atoms: _9  and  _10
    7  A    between atoms: _10  and  _13
    8  A    between atoms: _11  and  _13
    9  A    between atoms: _14  and  _34
   10  A    between atoms: _16  and  _22
   11  A    between atoms: _17  and  _21
   12  A    between atoms: _21  and  _22
   13  A    between atoms: _24  and  _25
   14  A    between atoms: _26  and  _27
   15  A    between atoms: _28  and  _30
   16  A    between atoms: _30  and  _31
   17  A    between atoms: _30  and  _32
   18  A    between atoms: _32  and  _33
   19  A    between atoms: _32  and  _34
   20  A    between atoms: _35  and  _37
                            x       y       z     vdW  Elec       q    Type
                         _______ _______ _______ _____ _____    ______ ____

>  <TORSDO>
F 17

$$$$
lig_assembled_1.pdb
 OpenBabel07252309473D

 40 41  0  0  1  0  0  0  0  0999 V2000
   -4.5660   12.1370   27.3540 C   0  0  2  0  0  0  0  0  0  0  0  0
   -3.7880   11.0190   28.0640 C   0  0  2  0  0  0  0  0  0  0  0  0
   -4.3830    9.7480   27.6820 O   0  0  0  0  0  0  0  0  0  0  0  0
   -3.7000    8.5520   28.1850 C   0  0  2  0  0  0  0  0  0  0  0  0
   -3.5540    8.6200   29.7250 C   0  0  0  0  0  0  0  0  0  0  0  0
   -2.9550    9.9670   30.1820 C   0  0  1  0  0  0  0  0  0  0  0  0
   -3.7410   11.1420   29.5980 C   0  0  1  0  0  0  0  0  0  0  0  0
   -3.1090   12.4180   29.9700 N   0  0  0  0  0  0  0  0  0  0  0  0
   -2.1900   12.6150   29.6000 H   0  0  0  0  0  0  0  0  0  0  0  0
   -3.6720   13.3340   30.7630 C   0  0  0  0  0  0  0  0  0  0  0  0
   -5.0630   12.9930   31.3310 C   0  0  0  0  0  0  0  0  0  0  0  0
   -3.1260   14.4010   31.0450 O   0  0  0  0  0  0  0  0  0  0  0  0
   -2.3050    8.4070   27.5410 C   0  0  0  0  0  0  0  0  0  0  0  0
   -1.3410    8.0610   28.2220 O   0  0  0  0  0  0  0  0  0  0  0  0
   -2.1450    8.6370   26.3410 O   0  0  0  0  0  0  0  0  0  0  0  0
   -4.5130    7.3980   27.8520 O   0  0  0  0  0  0  0  0  0  0  0  0
   -5.8830    7.4570   28.3250 C   0  0  0  0  0  0  0  0  0  0  0  0
   -2.9800   10.0460   31.6070 O   0  0  0  0  0  0  0  0  0  0  0  0
   -3.2320   10.9330   31.8750 H   0  0  0  0  0  0  0  0  0  0  0  0
   -5.8600   12.3090   27.9670 O   0  0  0  0  0  0  0  0  0  0  0  0
   -6.0000   13.2380   28.1630 H   0  0  0  0  0  0  0  0  0  0  0  0
   -4.7250   11.8640   25.8480 C   0  0  2  0  0  0  0  0  0  0  0  0
   -3.7050   10.9690   25.3770 O   0  0  0  0  0  0  0  0  0  0  0  0
   -2.8860   11.4540   25.2510 H   0  0  0  0  0  0  0  0  0  0  0  0
   -4.6580   13.1820   25.0820 C   0  0  0  0  0  0  0  0  0  0  0  0
   -4.1970   13.4630   22.6710 C   0  0  0  0  0  0  0  0  0  0  0  0
   -5.3070   13.9360   22.4180 O   0  0  0  0  0  0  0  0  0  0  0  0
   -3.8100   13.0780   23.8880 N   0  0  0  0  0  0  0  0  0  0  0  0
   -2.8820   12.6920   23.9940 H   0  0  0  0  0  0  0  0  0  0  0  0
   -3.2510   13.3050   21.6100 O   0  0  0  0  0  0  0  0  0  0  0  0
   -3.6990   12.2800   20.7190 C   0  0  0  0  0  0  0  0  0  0  0  0
   -2.8660   10.5640   22.3000 N   0  0  0  0  0  0  0  0  0  0  0  0
   -3.8380   10.9990   21.4370 C   0  0  0  0  0  0  0  0  0  0  0  0
   -4.8550   10.0710   21.4000 C   0  0  0  0  0  0  0  0  0  0  0  0
   -4.4390    9.0960   22.2550 N   0  0  0  0  0  0  0  0  0  0  0  0
   -3.2430    9.3910   22.7900 N   0  0  0  0  0  0  0  0  0  0  0  0
   -5.1250    7.8740   22.6110 C   0  0  0  0  0  0  0  0  0  0  0  0
   -4.7310    7.3600   23.9910 C   0  0  0  0  0  0  0  0  0  0  0  0
   -4.9150    8.3650   24.9870 O   0  0  0  0  0  0  0  0  0  0  0  0
   -4.4370    8.0640   25.7840 H   0  0  0  0  0  0  0  0  0  0  0  0
  1 20  1  1  0  0  0
  2  1  1  6  0  0  0
  2  7  1  0  0  0  0
  3  2  1  0  0  0  0
  3  4  1  0  0  0  0
  4 13  1  6  0  0  0
  4  5  1  0  0  0  0
  5  6  1  0  0  0  0
  6 18  1  1  0  0  0
  7  8  1  6  0  0  0
  7  6  1  0  0  0  0
  8 10  1  0  0  0  0
  9  8  1  0  0  0  0
 10 12  2  0  0  0  0
 10 11  1  0  0  0  0
 13 14  1  0  0  0  0
 15 13  2  0  0  0  0
 16  4  1  0  0  0  0
 16 17  1  0  0  0  0
 18 19  1  0  0  0  0
 20 21  1  0  0  0  0
 22 25  1  6  0  0  0
 22  1  1  0  0  0  0
 23 22  1  0  0  0  0
 24 23  1  0  0  0  0
 26 28  1  0  0  0  0
 27 26  2  0  0  0  0
 28 29  1  0  0  0  0
 28 25  1  0  0  0  0
 30 26  1  0  0  0  0
 31 33  1  0  0  0  0
 31 30  1  0  0  0  0
 32 36  2  0  0  0  0
 33 32  1  0  0  0  0
 34 33  2  0  0  0  0
 34 35  1  0  0  0  0
 35 37  1  0  0  0  0
 35 36  1  0  0  0  0
 37 38  1  0  0  0  0
 38 39  1  0  0  0  0
 39 40  1  0  0  0  0
M  END
>  <REMARK>
 VINA RESULT:    -4.591      0.000      0.000
 INTER + INTRA:         -11.388
 INTER:                  -7.571
 INTRA:                  -3.817
 UNBOUND:                -3.040
  Name = lig_assembled_1.pdb
  18 active torsions:
  status: ('A' for Active; 'I' for Inactive)
    1  A    between atoms: _2  and  _9
    2  A    between atoms: _4  and  _15
    3  A    between atoms: _5  and  _9
    4  A    between atoms: _5  and  _10
    5  A    between atoms: _6  and  _7
    6  A    between atoms: _6  and  _15
    7  A    between atoms: _11  and  _31
    8  A    between atoms: _13  and  _19
    9  A    between atoms: _14  and  _18
   10  A    between atoms: _18  and  _19
   11  A    between atoms: _21  and  _22
   12  A    between atoms: _23  and  _24
   13  A    between atoms: _25  and  _27
   14  A    between atoms: _27  and  _28
   15  A    between atoms: _27  and  _29
   16  A    between atoms: _29  and  _30
   17  A    between atoms: _29  and  _31
   18  A    between atoms: _32  and  _34
                            x       y       z     vdW  Elec       q    Type
                         _______ _______ _______ _____ _____    ______ ____

>  <TORSDO>
F 16

$$$$
lig_assembled_20.pdb
 OpenBabel07252309473D

 46 49  0  0  1  0  0  0  0  0999 V2000
   -6.5850    8.8450   23.5100 C   0  0  2  0  0  0  0  0  0  0  0  0
   -5.8670    9.0490   24.7380 O   0  0  0  0  0  0  0  0  0  0  0  0
   -5.2710    9.7960   24.6400 H   0  0  0  0  0  0  0  0  0  0  0  0
   -6.1520    7.5320   22.8650 C   0  0  0  0  0  0  0  0  0  0  0  0
   -3.8330    6.9120   23.4500 C   0  0  0  0  0  0  0  0  0  0  0  0
   -3.3270    7.5730   22.5410 O   0  0  0  0  0  0  0  0  0  0  0  0
   -5.1450    6.8310   23.6710 N   0  0  0  0  0  0  0  0  0  0  0  0
   -5.4660    6.2550   24.4370 H   0  0  0  0  0  0  0  0  0  0  0  0
   -2.9800    6.1760   24.3320 O   0  0  0  0  0  0  0  0  0  0  0  0
   -3.6090    6.0510   25.6100 C   0  0  0  0  0  0  0  0  0  0  0  0
   -1.7900    7.4080   26.6090 N   0  0  0  0  0  0  0  0  0  0  0  0
   -3.1140    7.0880   26.5350 C   0  0  0  0  0  0  0  0  0  0  0  0
   -3.8140    7.8680   27.4230 C   0  0  0  0  0  0  0  0  0  0  0  0
   -2.8680    8.6630   28.0280 N   0  0  0  0  0  0  0  0  0  0  0  0
   -1.6470    8.3650   27.5180 N   0  0  0  0  0  0  0  0  0  0  0  0
   -3.0550    9.6530   29.0270 C   0  0  0  0  0  0  0  0  0  0  0  0
   -2.6850    9.3850   30.3550 C   0  0  0  0  0  0  0  0  0  0  0  0
   -2.8510   10.3430   31.3650 C   0  0  0  0  0  0  0  0  0  0  0  0
   -3.4000   11.5740   30.9930 C   0  0  0  0  0  0  0  0  0  0  0  0
   -3.7780   11.8690   29.6900 C   0  0  0  0  0  0  0  0  0  0  0  0
   -4.2750   13.1890   29.7520 C   0  0  0  0  0  0  0  0  0  0  0  0
   -4.2210   13.7010   30.9840 N   0  0  0  0  0  0  0  0  0  0  0  0
   -3.6870   12.7050   31.7130 N   0  0  0  0  0  0  0  0  0  0  0  0
   -3.5450   12.8570   32.7050 H   0  0  0  0  0  0  0  0  0  0  0  0
   -3.6070   10.9020   28.6840 C   0  0  0  0  0  0  0  0  0  0  0  0
   -6.3400   10.0050   22.5300 C   0  0  2  0  0  0  0  0  0  0  0  0
   -5.0120   10.7240   22.8060 C   0  0  2  0  0  0  0  0  0  0  0  0
   -5.1950   11.5660   23.9780 O   0  0  0  0  0  0  0  0  0  0  0  0
   -3.9930   12.2550   24.4570 C   0  0  2  0  0  0  0  0  0  0  0  0
   -3.3500   13.0800   23.3150 C   0  0  0  0  0  0  0  0  0  0  0  0
   -3.1650   12.2350   22.0370 C   0  0  1  0  0  0  0  0  0  0  0  0
   -4.4760   11.5610   21.6300 C   0  0  1  0  0  0  0  0  0  0  0  0
   -4.2670   10.6910   20.4620 N   0  0  0  0  0  0  0  0  0  0  0  0
   -3.6060    9.9310   20.5520 H   0  0  0  0  0  0  0  0  0  0  0  0
   -4.8920   10.8390   19.2910 C   0  0  0  0  0  0  0  0  0  0  0  0
   -5.8730   12.0210   19.1780 C   0  0  0  0  0  0  0  0  0  0  0  0
   -4.7080   10.0850   18.3350 O   0  0  0  0  0  0  0  0  0  0  0  0
   -2.9640   11.2440   25.0050 C   0  0  0  0  0  0  0  0  0  0  0  0
   -3.1030   10.0400   24.7880 O   0  0  0  0  0  0  0  0  0  0  0  0
   -1.9970   11.6300   25.6620 O   0  0  0  0  0  0  0  0  0  0  0  0
   -2.7130   13.0690   20.9690 O   0  0  0  0  0  0  0  0  0  0  0  0
   -2.0250   12.6150   20.4770 H   0  0  0  0  0  0  0  0  0  0  0  0
   -4.3890   13.1680   25.5130 O   0  0  0  0  0  0  0  0  0  0  0  0
   -5.8120   13.4390   25.5850 C   0  0  0  0  0  0  0  0  0  0  0  0
   -7.4340   10.9420   22.5860 O   0  0  0  0  0  0  0  0  0  0  0  0
   -7.7260   11.0390   23.4960 H   0  0  0  0  0  0  0  0  0  0  0  0
  1  4  1  6  0  0  0
  1  2  1  0  0  0  0
  3  2  1  0  0  0  0
  4  7  1  0  0  0  0
  5  7  1  0  0  0  0
  5  9  1  0  0  0  0
  6  5  2  0  0  0  0
  7  8  1  0  0  0  0
  9 10  1  0  0  0  0
 10 12  1  0  0  0  0
 11 15  2  0  0  0  0
 12 11  1  0  0  0  0
 12 13  2  0  0  0  0
 13 14  1  0  0  0  0
 14 16  1  0  0  0  0
 15 14  1  0  0  0  0
 16 17  1  0  0  0  0
 17 18  2  0  0  0  0
 19 18  1  0  0  0  0
 19 23  1  0  0  0  0
 20 21  1  0  0  0  0
 20 19  2  0  0  0  0
 21 22  2  0  0  0  0
 22 23  1  0  0  0  0
 23 24  1  0  0  0  0
 25 16  2  0  0  0  0
 25 20  1  0  0  0  0
 26 45  1  1  0  0  0
 26  1  1  0  0  0  0
 27 26  1  6  0  0  0
 27 28  1  0  0  0  0
 28 29  1  0  0  0  0
 29 38  1  1  0  0  0
 29 43  1  0  0  0  0
 30 29  1  0  0  0  0
 31 41  1  6  0  0  0
 31 30  1  0  0  0  0
 32 33  1  6  0  0  0
 32 31  1  0  0  0  0
 32 27  1  0  0  0  0
 33 34  1  0  0  0  0
 35 33  1  0  0  0  0
 36 35  1  0  0  0  0
 37 35  2  0  0  0  0
 38 40  1  0  0  0  0
 39 38  2  0  0  0  0
 42 41  1  0  0  0  0
 43 44  1  0  0  0  0
 45 46  1  0  0  0  0
M  END
>  <REMARK>
 VINA RESULT:    -4.954      0.000      0.000
 INTER + INTRA:         -12.488
 INTER:                  -9.543
 INTRA:                  -2.945
 UNBOUND:                -3.914
  Name = lig_assembled_20.pdb
  16 active torsions:
  status: ('A' for Active; 'I' for Inactive)
    1  A    between atoms: _2  and  _11
    2  A    between atoms: _6  and  _21
    3  A    between atoms: _8  and  _9
    4  A    between atoms: _8  and  _21
    5  A    between atoms: _17  and  _37
    6  A    between atoms: _19  and  _25
    7  A    between atoms: _20  and  _24
    8  A    between atoms: _24  and  _25
    9  A    between atoms: _27  and  _28
   10  A    between atoms: _29  and  _30
   11  A    between atoms: _31  and  _33
   12  A    between atoms: _33  and  _34
   13  A    between atoms: _33  and  _35
   14  A    between atoms: _35  and  _36
   15  A    between atoms: _35  and  _37
   16  A    between atoms: _38  and  _40
                            x       y       z     vdW  Elec       q    Type
                         _______ _______ _______ _____ _____    ______ ____

>  <TORSDO>
F 14

$$$$
lig_assembled_21.pdb
 OpenBabel07252309473D

 47 49  0  0  1  0  0  0  0  0999 V2000
   -2.9120   11.5390   22.8520 C   0  0  1  0  0  0  0  0  0  0  0  0
   -2.4170   12.1230   24.0680 O   0  0  0  0  0  0  0  0  0  0  0  0
   -2.3850   13.0780   23.9760 H   0  0  0  0  0  0  0  0  0  0  0  0
   -3.8820   10.3830   23.1520 C   0  0  2  0  0  0  0  0  0  0  0  0
   -3.9780   10.0850   24.6560 C   0  0  2  0  0  0  0  0  0  0  0  0
   -2.9740    9.0830   24.9770 O   0  0  0  0  0  0  0  0  0  0  0  0
   -2.8460    8.7470   26.3990 C   0  0  2  0  0  0  0  0  0  0  0  0
   -4.2160    8.3200   26.9800 C   0  0  0  0  0  0  0  0  0  0  0  0
   -5.3230    9.3390   26.6360 C   0  0  1  0  0  0  0  0  0  0  0  0
   -5.3660    9.6170   25.1330 C   0  0  1  0  0  0  0  0  0  0  0  0
   -6.3650   10.6530   24.8280 N   0  0  0  0  0  0  0  0  0  0  0  0
   -6.2570   11.5560   25.2690 H   0  0  0  0  0  0  0  0  0  0  0  0
   -7.4050   10.4780   24.0080 C   0  0  0  0  0  0  0  0  0  0  0  0
   -7.5560    9.0830   23.3730 C   0  0  0  0  0  0  0  0  0  0  0  0
   -8.2180   11.3690   23.7600 O   0  0  0  0  0  0  0  0  0  0  0  0
   -2.3000    9.9490   27.1970 C   0  0  0  0  0  0  0  0  0  0  0  0
   -1.7450   10.8800   26.6150 O   0  0  0  0  0  0  0  0  0  0  0  0
   -2.4140    9.9880   28.4230 O   0  0  0  0  0  0  0  0  0  0  0  0
   -6.5910    8.8340   27.0570 O   0  0  0  0  0  0  0  0  0  0  0  0
   -6.7750    8.0090   26.6010 H   0  0  0  0  0  0  0  0  0  0  0  0
   -1.9310    7.6280   26.5150 O   0  0  0  0  0  0  0  0  0  0  0  0
   -2.2200    6.7110   27.6000 C   0  0  0  0  0  0  0  0  0  0  0  0
   -3.4810    9.1990   22.4350 O   0  0  0  0  0  0  0  0  0  0  0  0
   -2.5240    9.1810   22.3580 H   0  0  0  0  0  0  0  0  0  0  0  0
   -3.6240   12.5980   22.0170 C   0  0  0  0  0  0  0  0  0  0  0  0
   -5.4040   14.1690   22.7040 C   0  0  0  0  0  0  0  0  0  0  0  0
   -6.2040   13.7850   21.8470 O   0  0  0  0  0  0  0  0  0  0  0  0
   -4.1750   13.6740   22.8510 N   0  0  0  0  0  0  0  0  0  0  0  0
   -3.5890   14.0610   23.5780 H   0  0  0  0  0  0  0  0  0  0  0  0
   -5.7960   15.2100   23.6020 O   0  0  0  0  0  0  0  0  0  0  0  0
   -6.8870   14.7590   24.4100 C   0  0  0  0  0  0  0  0  0  0  0  0
   -5.1830   13.3870   25.5620 N   0  0  0  0  0  0  0  0  0  0  0  0
   -6.3810   14.0480   25.5980 C   0  0  0  0  0  0  0  0  0  0  0  0
   -6.9180   13.9340   26.8620 C   0  0  0  0  0  0  0  0  0  0  0  0
   -5.9540   13.2720   27.5740 N   0  0  0  0  0  0  0  0  0  0  0  0
   -4.9330   12.9150   26.7740 N   0  0  0  0  0  0  0  0  0  0  0  0
   -5.9570   13.0470   29.0160 C   0  0  0  0  0  0  0  0  0  0  0  0
   -5.1110   13.9980   29.8290 C   0  0  0  0  0  0  0  0  0  0  0  0
   -3.9390   13.5760   30.4810 C   0  0  0  0  0  0  0  0  0  0  0  0
   -3.1680   14.4710   31.2250 C   0  0  0  0  0  0  0  0  0  0  0  0
   -3.5530   15.8090   31.3110 C   0  0  0  0  0  0  0  0  0  0  0  0
   -4.7200   16.2430   30.6840 C   0  0  0  0  0  0  0  0  0  0  0  0
   -5.4910   15.3450   29.9450 C   0  0  0  0  0  0  0  0  0  0  0  0
   -3.6320   12.1960   30.4160 O   0  0  0  0  0  0  0  0  0  0  0  0
   -3.8620   11.3250   31.4820 C   0  0  0  0  0  0  0  0  0  0  0  0
   -4.9360   11.0670   32.0100 O   0  0  0  0  0  0  0  0  0  0  0  0
   -2.5690   10.6640   31.8590 C   0  0  0  0  0  0  0  0  0  0  0  0
  1 25  1  1  0  0  0
  1  4  1  0  0  0  0
  1  2  1  0  0  0  0
  3  2  1  0  0  0  0
  4 23  1  6  0  0  0
  5  4  1  6  0  0  0
  5  6  1  0  0  0  0
  5 10  1  0  0  0  0
  6  7  1  0  0  0  0
  7 21  1  1  0  0  0
  7  8  1  0  0  0  0
  7 16  1  0  0  0  0
  9  8  1  0  0  0  0
  9 19  1  6  0  0  0
 10 11  1  1  0  0  0
 10  9  1  0  0  0  0
 11 12  1  0  0  0  0
 13 11  1  0  0  0  0
 14 13  1  0  0  0  0
 15 13  2  0  0  0  0
 16 18  1  0  0  0  0
 17 16  2  0  0  0  0
 20 19  1  0  0  0  0
 21 22  1  0  0  0  0
 24 23  1  0  0  0  0
 25 28  1  0  0  0  0
 26 28  1  0  0  0  0
 26 30  1  0  0  0  0
 27 26  2  0  0  0  0
 28 29  1  0  0  0  0
 30 31  1  0  0  0  0
 31 33  1  0  0  0  0
 32 33  1  0  0  0  0
 32 36  2  0  0  0  0
 33 34  2  0  0  0  0
 34 35  1  0  0  0  0
 35 37  1  0  0  0  0
 36 35  1  0  0  0  0
 37 38  1  0  0  0  0
 38 43  2  0  0  0  0
 38 39  1  0  0  0  0
 39 40  2  0  0  0  0
 40 41  1  0  0  0  0
 42 41  2  0  0  0  0
 43 42  1  0  0  0  0
 44 39  1  0  0  0  0
 44 45  1  0  0  0  0
 45 47  1  0  0  0  0
 45 46  2  0  0  0  0
M  END
>  <REMARK>
 VINA RESULT:    -4.935      0.000      0.000
 INTER + INTRA:         -13.200
 INTER:                  -9.230
 INTRA:                  -3.970
 UNBOUND:                -3.793
  Name = lig_assembled_21.pdb
  20 active torsions:
  status: ('A' for Active; 'I' for Inactive)
    1  A    between atoms: _2  and  _9
    2  A    between atoms: _4  and  _23
    3  A    between atoms: _6  and  _7
    4  A    between atoms: _6  and  _23
    5  A    between atoms: _9  and  _10
    6  A    between atoms: _11  and  _18
    7  A    between atoms: _12  and  _13
    8  A    between atoms: _12  and  _18
    9  A    between atoms: _19  and  _39
   10  A    between atoms: _21  and  _27
   11  A    between atoms: _22  and  _26
   12  A    between atoms: _26  and  _27
   13  A    between atoms: _29  and  _30
   14  A    between atoms: _31  and  _32
   15  A    between atoms: _33  and  _35
   16  A    between atoms: _35  and  _36
   17  A    between atoms: _35  and  _37
   18  A    between atoms: _37  and  _38
   19  A    between atoms: _37  and  _39
   20  A    between atoms: _40  and  _42
                            x       y       z     vdW  Elec       q    Type
                         _______ _______ _______ _____ _____    ______ ____

>  <TORSDO>
F 17

$$$$
lig_assembled_22.pdb
 OpenBabel07252309473D

 43 44  0  0  1  0  0  0  0  0999 V2000
   -3.2910   11.7960   25.0110 C   0  0  2  0  0  0  0  0  0  0  0  0
   -2.1780   10.8940   24.9000 O   0  0  0  0  0  0  0  0  0  0  0  0
   -1.3700   11.3490   25.1510 H   0  0  0  0  0  0  0  0  0  0  0  0
   -2.9790   13.1010   24.2870 C   0  0  0  0  0  0  0  0  0  0  0  0
   -4.9600   13.6550   22.9180 C   0  0  0  0  0  0  0  0  0  0  0  0
   -5.6430   14.0110   23.8810 O   0  0  0  0  0  0  0  0  0  0  0  0
   -3.7070   13.2100   23.0160 N   0  0  0  0  0  0  0  0  0  0  0  0
   -3.2310   12.9330   22.1690 H   0  0  0  0  0  0  0  0  0  0  0  0
   -5.5270   13.7110   21.6060 O   0  0  0  0  0  0  0  0  0  0  0  0
   -6.5540   12.7240   21.4880 C   0  0  0  0  0  0  0  0  0  0  0  0
   -4.8410   11.0420   20.9100 N   0  0  0  0  0  0  0  0  0  0  0  0
   -5.9770   11.3700   21.5940 C   0  0  0  0  0  0  0  0  0  0  0  0
   -6.4010   10.2740   22.3140 C   0  0  0  0  0  0  0  0  0  0  0  0
   -5.4790    9.3070   22.0260 N   0  0  0  0  0  0  0  0  0  0  0  0
   -4.5470    9.7800   21.1770 N   0  0  0  0  0  0  0  0  0  0  0  0
   -5.4150    7.9180   22.4870 C   0  0  0  0  0  0  0  0  0  0  0  0
   -5.6580    6.9130   21.3400 C   0  0  0  0  0  0  0  0  0  0  0  0
   -6.4980    7.7030   23.5600 C   0  0  0  0  0  0  0  0  0  0  0  0
   -4.0360    7.6170   23.0800 C   0  0  0  0  0  0  0  0  0  0  0  0
   -3.3190    6.6910   22.7180 O   0  0  0  0  0  0  0  0  0  0  0  0
   -3.6310    8.4580   24.0610 O   0  0  0  0  0  0  0  0  0  0  0  0
   -3.8430    8.1920   24.9770 H   0  0  0  0  0  0  0  0  0  0  0  0
   -3.6150   12.0910   26.4850 C   0  0  2  0  0  0  0  0  0  0  0  0
   -3.3640   10.8730   27.3870 C   0  0  2  0  0  0  0  0  0  0  0  0
   -3.9880    9.7180   26.7620 O   0  0  0  0  0  0  0  0  0  0  0  0
   -3.7610    8.4340   27.4330 C   0  0  2  0  0  0  0  0  0  0  0  0
   -4.1850    8.5180   28.9200 C   0  0  0  0  0  0  0  0  0  0  0  0
   -3.5710    9.7500   29.6190 C   0  0  1  0  0  0  0  0  0  0  0  0
   -3.8660   11.0290   28.8350 C   0  0  1  0  0  0  0  0  0  0  0  0
   -3.2020   12.1830   29.4630 N   0  0  0  0  0  0  0  0  0  0  0  0
   -2.1920   12.1970   29.4760 H   0  0  0  0  0  0  0  0  0  0  0  0
   -3.8480   13.2120   30.0180 C   0  0  0  0  0  0  0  0  0  0  0  0
   -5.3870   13.1480   30.0050 C   0  0  0  0  0  0  0  0  0  0  0  0
   -3.2660   14.1720   30.5240 O   0  0  0  0  0  0  0  0  0  0  0  0
   -2.2760    8.0250   27.3430 C   0  0  0  0  0  0  0  0  0  0  0  0
   -1.6560    8.1710   26.2900 O   0  0  0  0  0  0  0  0  0  0  0  0
   -1.6990    7.5510   28.3220 O   0  0  0  0  0  0  0  0  0  0  0  0
   -4.5830    7.4340   26.7790 O   0  0  0  0  0  0  0  0  0  0  0  0
   -4.8590    6.2530   27.5730 C   0  0  0  0  0  0  0  0  0  0  0  0
   -4.1060    9.8720   30.9370 O   0  0  0  0  0  0  0  0  0  0  0  0
   -5.0330    9.6230   30.9310 H   0  0  0  0  0  0  0  0  0  0  0  0
   -4.9810   12.5310   26.6150 O   0  0  0  0  0  0  0  0  0  0  0  0
   -4.9990   13.4780   26.7740 H   0  0  0  0  0  0  0  0  0  0  0  0
  1  4  1  6  0  0  0
  1 23  1  0  0  0  0
  2  1  1  0  0  0  0
  2  3  1  0  0  0  0
  5  7  1  0  0  0  0
  5  6  2  0  0  0  0
  7  4  1  0  0  0  0
  8  7  1  0  0  0  0
  9  5  1  0  0  0  0
 10 12  1  0  0  0  0
 10  9  1  0  0  0  0
 11 15  2  0  0  0  0
 11 12  1  0  0  0  0
 12 13  2  0  0  0  0
 14 13  1  0  0  0  0
 14 16  1  0  0  0  0
 15 14  1  0  0  0  0
 16 19  1  0  0  0  0
 16 18  1  0  0  0  0
 17 16  1  0  0  0  0
 19 21  1  0  0  0  0
 20 19  2  0  0  0  0
 21 22  1  0  0  0  0
 23 42  1  6  0  0  0
 24 23  1  6  0  0  0
 24 29  1  0  0  0  0
 25 24  1  0  0  0  0
 25 26  1  0  0  0  0
 26 38  1  6  0  0  0
 26 27  1  0  0  0  0
 27 28  1  0  0  0  0
 28 40  1  1  0  0  0
 29 30  1  1  0  0  0
 29 28  1  0  0  0  0
 30 31  1  0  0  0  0
 30 32  1  0  0  0  0
 32 34  2  0  0  0  0
 33 32  1  0  0  0  0
 35 26  1  0  0  0  0
 35 37  1  0  0  0  0
 36 35  2  0  0  0  0
 38 39  1  0  0  0  0
 41 40  1  0  0  0  0
 42 43  1  0  0  0  0
M  END
>  <REMARK>
 VINA RESULT:    -4.808      0.000      0.000
 INTER + INTRA:         -12.249
 INTER:                  -8.265
 INTRA:                  -3.984
 UNBOUND:                -3.505
  Name = lig_assembled_22.pdb
  20 active torsions:
  status: ('A' for Active; 'I' for Inactive)
    1  A    between atoms: _2  and  _9
    2  A    between atoms: _4  and  _18
    3  A    between atoms: _5  and  _9
    4  A    between atoms: _5  and  _12
    5  A    between atoms: _6  and  _7
    6  A    between atoms: _6  and  _18
    7  A    between atoms: _9  and  _10
    8  A    between atoms: _9  and  _11
    9  A    between atoms: _14  and  _34
   10  A    between atoms: _16  and  _22
   11  A    between atoms: _17  and  _21
   12  A    between atoms: _21  and  _22
   13  A    between atoms: _24  and  _25
   14  A    between atoms: _26  and  _27
   15  A    between atoms: _28  and  _30
   16  A    between atoms: _30  and  _31
   17  A    between atoms: _30  and  _32
   18  A    between atoms: _32  and  _33
   19  A    between atoms: _32  and  _34
   20  A    between atoms: _35  and  _37
                            x       y       z     vdW  Elec       q    Type
                         _______ _______ _______ _____ _____    ______ ____

>  <TORSDO>
F 16

$$$$
lig_assembled_23.pdb
 OpenBabel07252309473D

 48 50  0  0  1  0  0  0  0  0999 V2000
   -3.4860   13.1410   24.3210 C   0  0  0  0  0  0  0  0  0  0  0  0
   -3.9530   12.4360   22.0000 C   0  0  0  0  0  0  0  0  0  0  0  0
   -2.9190   11.7720   21.8930 O   0  0  0  0  0  0  0  0  0  0  0  0
   -4.2950   13.1130   23.0960 N   0  0  0  0  0  0  0  0  0  0  0  0
   -5.1590   13.6360   23.0840 H   0  0  0  0  0  0  0  0  0  0  0  0
   -4.8530   12.5010   20.8900 O   0  0  0  0  0  0  0  0  0  0  0  0
   -5.6040   11.2860   20.8130 C   0  0  0  0  0  0  0  0  0  0  0  0
   -5.2290    9.1810   19.5720 N   0  0  0  0  0  0  0  0  0  0  0  0
   -5.2550   10.5460   19.5870 C   0  0  0  0  0  0  0  0  0  0  0  0
   -4.9180   11.0150   18.3370 C   0  0  0  0  0  0  0  0  0  0  0  0
   -4.7030    9.8870   17.5800 N   0  0  0  0  0  0  0  0  0  0  0  0
   -4.8900    8.7880   18.3520 N   0  0  0  0  0  0  0  0  0  0  0  0
   -4.3310    9.7870   16.2150 C   0  0  0  0  0  0  0  0  0  0  0  0
   -3.4440    8.7780   15.8140 C   0  0  0  0  0  0  0  0  0  0  0  0
   -3.0470    8.6980   14.4740 C   0  0  0  0  0  0  0  0  0  0  0  0
   -3.5440    9.5930   13.5250 C   0  0  0  0  0  0  0  0  0  0  0  0
   -4.4390   10.5860   13.9220 C   0  0  0  0  0  0  0  0  0  0  0  0
   -4.8290   10.6880   15.2620 C   0  0  0  0  0  0  0  0  0  0  0  0
   -1.8830    7.4570   13.9980 S   0  0  0  0  0  0  0  0  0  0  0  0
   -1.4720    7.7040   12.6360 O   0  0  0  0  0  0  0  0  0  0  0  0
   -0.9400    7.2500   15.0730 O   0  0  0  0  0  0  0  0  0  0  0  0
   -2.8370    6.0760   13.9700 N   0  0  0  0  0  0  0  0  0  0  0  0
   -3.6610    6.2330   13.3910 H   0  0  0  0  0  0  0  0  0  0  0  0
   -3.0490    5.7780   14.9230 H   0  0  0  0  0  0  0  0  0  0  0  0
   -3.5580   11.8200   25.0810 C   0  0  1  0  0  0  0  0  0  0  0  0
   -2.3640   11.0550   24.8510 O   0  0  0  0  0  0  0  0  0  0  0  0
   -1.7910   11.1170   25.6190 H   0  0  0  0  0  0  0  0  0  0  0  0
   -3.7520   12.1000   26.5810 C   0  0  2  0  0  0  0  0  0  0  0  0
   -3.4180   10.8750   27.4450 C   0  0  2  0  0  0  0  0  0  0  0  0
   -4.0250    9.7100   26.8220 O   0  0  0  0  0  0  0  0  0  0  0  0
   -3.7210    8.4230   27.4560 C   0  0  2  0  0  0  0  0  0  0  0  0
   -4.0850    8.4610   28.9600 C   0  0  0  0  0  0  0  0  0  0  0  0
   -3.4880    9.7010   29.6590 C   0  0  1  0  0  0  0  0  0  0  0  0
   -3.8630   10.9840   28.9150 C   0  0  1  0  0  0  0  0  0  0  0  0
   -3.2170   12.1490   29.5400 N   0  0  0  0  0  0  0  0  0  0  0  0
   -2.2110   12.2170   29.4830 H   0  0  0  0  0  0  0  0  0  0  0  0
   -3.8740   13.1220   30.1770 C   0  0  0  0  0  0  0  0  0  0  0  0
   -5.4050   12.9750   30.2690 C   0  0  0  0  0  0  0  0  0  0  0  0
   -3.3080   14.0940   30.6780 O   0  0  0  0  0  0  0  0  0  0  0  0
   -2.2280    8.0730   27.2950 C   0  0  0  0  0  0  0  0  0  0  0  0
   -1.6350    7.4590   28.1820 O   0  0  0  0  0  0  0  0  0  0  0  0
   -1.6150    8.4030   26.2790 O   0  0  0  0  0  0  0  0  0  0  0  0
   -3.9710    9.7770   31.0010 O   0  0  0  0  0  0  0  0  0  0  0  0
   -4.8770    9.4610   31.0340 H   0  0  0  0  0  0  0  0  0  0  0  0
   -4.5330    7.4050   26.8150 O   0  0  0  0  0  0  0  0  0  0  0  0
   -5.7730    7.8850   26.2360 C   0  0  0  0  0  0  0  0  0  0  0  0
   -5.1040   12.5330   26.8340 O   0  0  0  0  0  0  0  0  0  0  0  0
   -5.1980   13.4540   26.5810 H   0  0  0  0  0  0  0  0  0  0  0  0
  2  4  1  0  0  0  0
  3  2  2  0  0  0  0
  4  1  1  0  0  0  0
  5  4  1  0  0  0  0
  6  2  1  0  0  0  0
  7  6  1  0  0  0  0
  8  9  1  0  0  0  0
  9  7  1  0  0  0  0
 10  9  2  0  0  0  0
 11 10  1  0  0  0  0
 11 12  1  0  0  0  0
 12  8  2  0  0  0  0
 13 11  1  0  0  0  0
 14 13  1  0  0  0  0
 15 14  2  0  0  0  0
 16 17  2  0  0  0  0
 16 15  1  0  0  0  0
 17 18  1  0  0  0  0
 18 13  2  0  0  0  0
 19 15  1  0  0  0  0
 19 21  2  0  0  0  0
 20 19  2  0  0  0  0
 22 19  1  0  0  0  0
 22 24  1  0  0  0  0
 23 22  1  0  0  0  0
 25  1  1  6  0  0  0
 25 28  1  0  0  0  0
 26 25  1  0  0  0  0
 26 27  1  0  0  0  0
 28 47  1  6  0  0  0
 29 28  1  6  0  0  0
 29 34  1  0  0  0  0
 30 29  1  0  0  0  0
 30 31  1  0  0  0  0
 31 45  1  6  0  0  0
 31 32  1  0  0  0  0
 32 33  1  0  0  0  0
 33 43  1  1  0  0  0
 34 35  1  1  0  0  0
 34 33  1  0  0  0  0
 35 37  1  0  0  0  0
 36 35  1  0  0  0  0
 37 38  1  0  0  0  0
 37 39  2  0  0  0  0
 40 31  1  0  0  0  0
 40 41  1  0  0  0  0
 42 40  2  0  0  0  0
 43 44  1  0  0  0  0
 46 45  1  0  0  0  0
 48 47  1  0  0  0  0
M  END
>  <REMARK>
 VINA RESULT:    -5.568      0.000      0.000
 INTER + INTRA:         -12.665
 INTER:                 -10.490
 INTRA:                  -2.176
 UNBOUND:                -2.541
  Name = lig_assembled_23.pdb
  18 active torsions:
  status: ('A' for Active; 'I' for Inactive)
    1  A    between atoms: _2  and  _10
    2  A    between atoms: _3  and  _41
    3  A    between atoms: _5  and  _21
    4  A    between atoms: _7  and  _8
    5  A    between atoms: _7  and  _21
    6  A    between atoms: _12  and  _41
    7  A    between atoms: _17  and  _37
    8  A    between atoms: _19  and  _25
    9  A    between atoms: _20  and  _24
   10  A    between atoms: _24  and  _25
   11  A    between atoms: _27  and  _28
   12  A    between atoms: _29  and  _30
   13  A    between atoms: _31  and  _33
   14  A    between atoms: _33  and  _34
   15  A    between atoms: _33  and  _35
   16  A    between atoms: _35  and  _36
   17  A    between atoms: _35  and  _37
   18  A    between atoms: _38  and  _40
                            x       y       z     vdW  Elec       q    Type
                         _______ _______ _______ _____ _____    ______ ____

>  <TORSDO>
F 16

$$$$
lig_assembled_24.pdb
 OpenBabel07252309473D

 45 47  0  0  1  0  0  0  0  0999 V2000
   -6.9500    8.6340   24.2060 C   0  0  1  0  0  0  0  0  0  0  0  0
   -6.2690    8.5880   25.4710 O   0  0  0  0  0  0  0  0  0  0  0  0
   -6.7350    7.9930   26.0640 H   0  0  0  0  0  0  0  0  0  0  0  0
   -6.6220    9.9350   23.4530 C   0  0  2  0  0  0  0  0  0  0  0  0
   -5.1860   10.4100   23.7160 C   0  0  2  0  0  0  0  0  0  0  0  0
   -5.2170   11.3270   24.8440 O   0  0  0  0  0  0  0  0  0  0  0  0
   -3.9120   11.8040   25.3100 C   0  0  2  0  0  0  0  0  0  0  0  0
   -3.1200   12.4390   24.1410 C   0  0  0  0  0  0  0  0  0  0  0  0
   -3.0850   11.5140   22.9070 C   0  0  1  0  0  0  0  0  0  0  0  0
   -4.4960   11.0750   22.5110 C   0  0  1  0  0  0  0  0  0  0  0  0
   -4.4440   10.1250   21.3890 N   0  0  0  0  0  0  0  0  0  0  0  0
   -4.0520    9.2100   21.5630 H   0  0  0  0  0  0  0  0  0  0  0  0
   -4.8800   10.3920   20.1550 C   0  0  0  0  0  0  0  0  0  0  0  0
   -5.4470   11.8040   19.9150 C   0  0  0  0  0  0  0  0  0  0  0  0
   -4.8370    9.5720   19.2380 O   0  0  0  0  0  0  0  0  0  0  0  0
   -3.0930   10.6480   25.9200 C   0  0  0  0  0  0  0  0  0  0  0  0
   -3.6580    9.7460   26.5380 O   0  0  0  0  0  0  0  0  0  0  0  0
   -1.8680   10.6170   25.7950 O   0  0  0  0  0  0  0  0  0  0  0  0
   -4.1400   12.8250   26.3160 O   0  0  0  0  0  0  0  0  0  0  0  0
   -5.4760   12.8420   26.8790 C   0  0  0  0  0  0  0  0  0  0  0  0
   -2.4790   12.1970   21.8090 O   0  0  0  0  0  0  0  0  0  0  0  0
   -3.1280   12.7670   21.3890 H   0  0  0  0  0  0  0  0  0  0  0  0
   -7.5610   10.9680   23.8150 O   0  0  0  0  0  0  0  0  0  0  0  0
   -7.2730   11.3930   24.6260 H   0  0  0  0  0  0  0  0  0  0  0  0
   -6.5470    7.4360   23.3530 C   0  0  0  0  0  0  0  0  0  0  0  0
   -4.1450    6.8680   23.2440 C   0  0  0  0  0  0  0  0  0  0  0  0
   -3.9520    7.4770   22.1890 O   0  0  0  0  0  0  0  0  0  0  0  0
   -5.3280    6.7920   23.8560 N   0  0  0  0  0  0  0  0  0  0  0  0
   -5.3880    6.2600   24.7130 H   0  0  0  0  0  0  0  0  0  0  0  0
   -3.0490    6.1920   23.8660 O   0  0  0  0  0  0  0  0  0  0  0  0
   -3.5180    5.4730   25.0100 C   0  0  0  0  0  0  0  0  0  0  0  0
   -1.9250    6.9290   26.2210 N   0  0  0  0  0  0  0  0  0  0  0  0
   -3.0020    6.0850   26.2480 C   0  0  0  0  0  0  0  0  0  0  0  0
   -3.4530    5.9720   27.5440 C   0  0  0  0  0  0  0  0  0  0  0  0
   -2.6560    6.8230   28.2510 N   0  0  0  0  0  0  0  0  0  0  0  0
   -1.7140    7.3680   27.4530 N   0  0  0  0  0  0  0  0  0  0  0  0
   -2.7140    7.2440   29.6420 C   0  0  0  0  0  0  0  0  0  0  0  0
   -3.4080    8.5640   29.8750 C   0  0  0  0  0  0  0  0  0  0  0  0
   -2.6670    9.7150   30.1700 C   0  0  0  0  0  0  0  0  0  0  0  0
   -3.3180   10.9340   30.3830 C   0  0  0  0  0  0  0  0  0  0  0  0
   -4.7080   11.0250   30.2880 C   0  0  0  0  0  0  0  0  0  0  0  0
   -5.4520    9.8790   30.0190 C   0  0  0  0  0  0  0  0  0  0  0  0
   -4.8070    8.6540   29.8130 C   0  0  0  0  0  0  0  0  0  0  0  0
   -5.2320   12.2630   30.5370 O   0  0  0  0  0  0  0  0  0  0  0  0
   -4.3320   13.3540   30.3670 C   0  0  0  0  0  0  0  0  0  0  0  0
  1 25  1  6  0  0  0
  1  2  1  0  0  0  0
  2  3  1  0  0  0  0
  4 23  1  1  0  0  0
  4  1  1  0  0  0  0
  5  4  1  6  0  0  0
  5  6  1  0  0  0  0
  6  7  1  0  0  0  0
  7 16  1  1  0  0  0
  7 19  1  0  0  0  0
  8  7  1  0  0  0  0
  9 21  1  6  0  0  0
  9  8  1  0  0  0  0
 10 11  1  6  0  0  0
 10  9  1  0  0  0  0
 10  5  1  0  0  0  0
 11 12  1  0  0  0  0
 13 11  1  0  0  0  0
 14 13  1  0  0  0  0
 15 13  2  0  0  0  0
 16 17  1  0  0  0  0
 18 16  2  0  0  0  0
 19 20  1  0  0  0  0
 22 21  1  0  0  0  0
 23 24  1  0  0  0  0
 25 28  1  0  0  0  0
 26 28  1  0  0  0  0
 26 30  1  0  0  0  0
 27 26  2  0  0  0  0
 28 29  1  0  0  0  0
 30 31  1  0  0  0  0
 31 33  1  0  0  0  0
 32 33  1  0  0  0  0
 32 36  2  0  0  0  0
 33 34  2  0  0  0  0
 34 35  1  0  0  0  0
 35 37  1  0  0  0  0
 36 35  1  0  0  0  0
 37 38  1  0  0  0  0
 38 39  1  0  0  0  0
 39 40  2  0  0  0  0
 41 40  1  0  0  0  0
 41 44  1  0  0  0  0
 42 41  2  0  0  0  0
 43 38  2  0  0  0  0
 43 42  1  0  0  0  0
 45 44  1  0  0  0  0
M  END
>  <REMARK>
 VINA RESULT:    -4.499      0.000      0.000
 INTER + INTRA:         -12.292
 INTER:                  -8.504
 INTRA:                  -3.788
 UNBOUND:                -3.979
  Name = lig_assembled_24.pdb
  19 active torsions:
  status: ('A' for Active; 'I' for Inactive)
    1  A    between atoms: _2  and  _9
    2  A    between atoms: _4  and  _21
    3  A    between atoms: _6  and  _7
    4  A    between atoms: _6  and  _21
    5  A    between atoms: _9  and  _10
    6  A    between atoms: _13  and  _16
    7  A    between atoms: _14  and  _16
    8  A    between atoms: _17  and  _37
    9  A    between atoms: _19  and  _25
   10  A    between atoms: _20  and  _24
   11  A    between atoms: _24  and  _25
   12  A    between atoms: _27  and  _28
   13  A    between atoms: _29  and  _30
   14  A    between atoms: _31  and  _33
   15  A    between atoms: _33  and  _34
   16  A    between atoms: _33  and  _35
   17  A    between atoms: _35  and  _36
   18  A    between atoms: _35  and  _37
   19  A    between atoms: _38  and  _40
                            x       y       z     vdW  Elec       q    Type
                         _______ _______ _______ _____ _____    ______ ____

>  <TORSDO>
F 16

$$$$
lig_assembled_25.pdb
 OpenBabel07252309473D

 49 53  0  0  1  0  0  0  0  0999 V2000
   -2.9210   13.0440   24.3880 C   0  0  0  0  0  0  0  0  0  0  0  0
   -4.7510   13.3980   22.7660 C   0  0  0  0  0  0  0  0  0  0  0  0
   -5.5410   13.8300   23.6090 O   0  0  0  0  0  0  0  0  0  0  0  0
   -3.5080   13.0020   23.0430 N   0  0  0  0  0  0  0  0  0  0  0  0
   -2.9380   12.6540   22.2850 H   0  0  0  0  0  0  0  0  0  0  0  0
   -5.1730   13.3040   21.4030 O   0  0  0  0  0  0  0  0  0  0  0  0
   -5.0640   11.9480   20.9620 C   0  0  0  0  0  0  0  0  0  0  0  0
   -6.5920   12.3210   19.0580 N   0  0  0  0  0  0  0  0  0  0  0  0
   -5.4000   11.8430   19.5290 C   0  0  0  0  0  0  0  0  0  0  0  0
   -4.6910   11.2920   18.4840 C   0  0  0  0  0  0  0  0  0  0  0  0
   -5.5120   11.4480   17.4040 N   0  0  0  0  0  0  0  0  0  0  0  0
   -6.6530   12.0800   17.7570 N   0  0  0  0  0  0  0  0  0  0  0  0
   -5.3580   10.9740   16.0380 C   0  0  0  0  0  0  0  0  0  0  0  0
   -4.4300    9.7700   15.9410 C   0  0  0  0  0  0  0  0  0  0  0  0
   -3.3830   10.0410   15.0320 C   0  0  0  0  0  0  0  0  0  0  0  0
   -3.5430   11.3860   14.5170 C   0  0  0  0  0  0  0  0  0  0  0  0
   -2.7950   12.0820   13.5820 C   0  0  0  0  0  0  0  0  0  0  0  0
   -3.1970   13.3760   13.2390 C   0  0  0  0  0  0  0  0  0  0  0  0
   -4.3300   13.9590   13.8310 C   0  0  0  0  0  0  0  0  0  0  0  0
   -5.0860   13.2600   14.7750 C   0  0  0  0  0  0  0  0  0  0  0  0
   -2.4230    9.0810   14.7620 C   0  0  0  0  0  0  0  0  0  0  0  0
   -2.5190    7.8440   15.4080 C   0  0  0  0  0  0  0  0  0  0  0  0
   -3.5640    7.5780   16.3070 C   0  0  0  0  0  0  0  0  0  0  0  0
   -4.5350    8.5430   16.5800 C   0  0  0  0  0  0  0  0  0  0  0  0
   -4.6820   11.9760   15.1110 C   0  0  0  0  0  0  0  0  0  0  0  0
   -3.2190   11.7750   25.1780 C   0  0  1  0  0  0  0  0  0  0  0  0
   -2.0860   10.8910   25.1360 O   0  0  0  0  0  0  0  0  0  0  0  0
   -2.0820   10.3370   25.9200 H   0  0  0  0  0  0  0  0  0  0  0  0
   -3.5750   12.1440   26.6290 C   0  0  2  0  0  0  0  0  0  0  0  0
   -3.3650   10.9680   27.5930 C   0  0  2  0  0  0  0  0  0  0  0  0
   -4.0010    9.7950   27.0130 O   0  0  0  0  0  0  0  0  0  0  0  0
   -3.8110    8.5420   27.7500 C   0  0  2  0  0  0  0  0  0  0  0  0
   -4.2610    8.7070   29.2220 C   0  0  0  0  0  0  0  0  0  0  0  0
   -3.6350    9.9590   29.8720 C   0  0  1  0  0  0  0  0  0  0  0  0
   -3.8900   11.2040   29.0210 C   0  0  1  0  0  0  0  0  0  0  0  0
   -3.2150   12.3740   29.6060 N   0  0  0  0  0  0  0  0  0  0  0  0
   -2.2050   12.3830   29.6080 H   0  0  0  0  0  0  0  0  0  0  0  0
   -3.8510   13.4230   30.1340 C   0  0  0  0  0  0  0  0  0  0  0  0
   -5.3900   13.3660   30.1390 C   0  0  0  0  0  0  0  0  0  0  0  0
   -3.2600   14.3960   30.6030 O   0  0  0  0  0  0  0  0  0  0  0  0
   -2.3340    8.1010   27.7080 C   0  0  0  0  0  0  0  0  0  0  0  0
   -1.8320    7.5210   28.6710 O   0  0  0  0  0  0  0  0  0  0  0  0
   -1.6430    8.3240   26.7130 O   0  0  0  0  0  0  0  0  0  0  0  0
   -4.1920   10.1560   31.1730 O   0  0  0  0  0  0  0  0  0  0  0  0
   -5.1500   10.1260   31.1190 H   0  0  0  0  0  0  0  0  0  0  0  0
   -4.6420    7.5270   27.1290 O   0  0  0  0  0  0  0  0  0  0  0  0
   -4.9990    7.7890   25.7480 C   0  0  0  0  0  0  0  0  0  0  0  0
   -4.9370   12.6100   26.7030 O   0  0  0  0  0  0  0  0  0  0  0  0
   -5.4970   12.0500   26.1600 H   0  0  0  0  0  0  0  0  0  0  0  0
  2  4  1  0  0  0  0
  2  3  2  0  0  0  0
  4  1  1  0  0  0  0
  5  4  1  0  0  0  0
  6  2  1  0  0  0  0
  7  6  1  0  0  0  0
  8  9  1  0  0  0  0
  9  7  1  0  0  0  0
 10  9  2  0  0  0  0
 11 12  1  0  0  0  0
 11 10  1  0  0  0  0
 12  8  2  0  0  0  0
 13 11  1  0  0  0  0
 14 13  1  0  0  0  0
 14 24  2  0  0  0  0
 15 14  1  0  0  0  0
 16 15  1  0  0  0  0
 16 25  2  0  0  0  0
 17 16  1  0  0  0  0
 18 17  2  0  0  0  0
 18 19  1  0  0  0  0
 19 20  2  0  0  0  0
 20 25  1  0  0  0  0
 21 15  2  0  0  0  0
 21 22  1  0  0  0  0
 22 23  2  0  0  0  0
 23 24  1  0  0  0  0
 25 13  1  0  0  0  0
 26  1  1  6  0  0  0
 26 29  1  0  0  0  0
 27 26  1  0  0  0  0
 27 28  1  0  0  0  0
 29 48  1  6  0  0  0
 30 29  1  6  0  0  0
 30 35  1  0  0  0  0
 31 30  1  0  0  0  0
 31 32  1  0  0  0  0
 32 46  1  6  0  0  0
 32 33  1  0  0  0  0
 33 34  1  0  0  0  0
 34 44  1  1  0  0  0
 35 36  1  1  0  0  0
 35 34  1  0  0  0  0
 36 37  1  0  0  0  0
 36 38  1  0  0  0  0
 38 39  1  0  0  0  0
 38 40  2  0  0  0  0
 41 32  1  0  0  0  0
 41 42  1  0  0  0  0
 43 41  2  0  0  0  0
 45 44  1  0  0  0  0
 47 46  1  0  0  0  0
 49 48  1  0  0  0  0
M  END
>  <REMARK>
 VINA RESULT:    -5.939      0.000      0.000
 INTER + INTRA:         -12.753
 INTER:                 -10.689
 INTRA:                  -2.064
 UNBOUND:                -2.475
  Name = lig_assembled_25.pdb
  16 active torsions:
  status: ('A' for Active; 'I' for Inactive)
    1  A    between atoms: _2  and  _9
    2  A    between atoms: _4  and  _25
    3  A    between atoms: _6  and  _7
    4  A    between atoms: _6  and  _25
    5  A    between atoms: _21  and  _41
    6  A    between atoms: _23  and  _29
    7  A    between atoms: _24  and  _28
    8  A    between atoms: _28  and  _29
    9  A    between atoms: _31  and  _32
   10  A    between atoms: _33  and  _34
   11  A    between atoms: _35  and  _37
   12  A    between atoms: _37  and  _38
   13  A    between atoms: _37  and  _39
   14  A    between atoms: _39  and  _40
   15  A    between atoms: _39  and  _41
   16  A    between atoms: _42  and  _44
                            x       y       z     vdW  Elec       q    Type
                         _______ _______ _______ _____ _____    ______ ____

>  <TORSDO>
F 14

$$$$
lig_assembled_26.pdb
 OpenBabel07252309473D

 47 49  0  0  1  0  0  0  0  0999 V2000
   -4.0180   11.3850   22.0380 C   0  0  1  0  0  0  0  0  0  0  0  0
   -3.8460   10.0300   21.5930 O   0  0  0  0  0  0  0  0  0  0  0  0
   -4.2500    9.4310   22.2260 H   0  0  0  0  0  0  0  0  0  0  0  0
   -2.9700   11.7510   23.1040 C   0  0  2  0  0  0  0  0  0  0  0  0
   -3.3350   11.1940   24.4880 C   0  0  2  0  0  0  0  0  0  0  0  0
   -3.1450    9.7530   24.4540 O   0  0  0  0  0  0  0  0  0  0  0  0
   -3.3460    9.0570   25.7290 C   0  0  2  0  0  0  0  0  0  0  0  0
   -4.7420    9.3870   26.3110 C   0  0  0  0  0  0  0  0  0  0  0  0
   -5.0030   10.9080   26.3380 C   0  0  1  0  0  0  0  0  0  0  0  0
   -4.7610   11.5300   24.9620 C   0  0  1  0  0  0  0  0  0  0  0  0
   -4.9280   12.9910   25.0210 N   0  0  0  0  0  0  0  0  0  0  0  0
   -4.2400   13.5240   25.5340 H   0  0  0  0  0  0  0  0  0  0  0  0
   -5.9300   13.6580   24.4420 C   0  0  0  0  0  0  0  0  0  0  0  0
   -6.9770   12.8140   23.6900 C   0  0  0  0  0  0  0  0  0  0  0  0
   -6.0360   14.8830   24.4950 O   0  0  0  0  0  0  0  0  0  0  0  0
   -2.2550    9.4530   26.7460 C   0  0  0  0  0  0  0  0  0  0  0  0
   -1.1330    9.7740   26.3580 O   0  0  0  0  0  0  0  0  0  0  0  0
   -2.4980    9.4520   27.9530 O   0  0  0  0  0  0  0  0  0  0  0  0
   -3.2820    7.6300   25.4760 O   0  0  0  0  0  0  0  0  0  0  0  0
   -4.1890    7.1480   24.4520 C   0  0  0  0  0  0  0  0  0  0  0  0
   -6.3500   11.1580   26.7380 O   0  0  0  0  0  0  0  0  0  0  0  0
   -6.5310   12.1000   26.6830 H   0  0  0  0  0  0  0  0  0  0  0  0
   -2.8090   13.1820   23.1720 O   0  0  0  0  0  0  0  0  0  0  0  0
   -3.4080   13.5410   23.8300 H   0  0  0  0  0  0  0  0  0  0  0  0
   -3.8970   12.3420   20.8560 C   0  0  0  0  0  0  0  0  0  0  0  0
   -5.9720   12.3560   19.5140 C   0  0  0  0  0  0  0  0  0  0  0  0
   -6.5560   13.1510   20.2540 O   0  0  0  0  0  0  0  0  0  0  0  0
   -4.7290   11.9190   19.7230 N   0  0  0  0  0  0  0  0  0  0  0  0
   -4.3390   11.2600   19.0650 H   0  0  0  0  0  0  0  0  0  0  0  0
   -6.6490   11.8570   18.3580 O   0  0  0  0  0  0  0  0  0  0  0  0
   -7.0660   10.5090   18.5940 C   0  0  0  0  0  0  0  0  0  0  0  0
   -5.1170    8.9740   18.6280 N   0  0  0  0  0  0  0  0  0  0  0  0
   -6.1430    9.5640   17.9410 C   0  0  0  0  0  0  0  0  0  0  0  0
   -6.1300    9.1180   16.6400 C   0  0  0  0  0  0  0  0  0  0  0  0
   -5.0560    8.2810   16.5840 N   0  0  0  0  0  0  0  0  0  0  0  0
   -4.4660    8.1750   17.7920 N   0  0  0  0  0  0  0  0  0  0  0  0
   -4.5590    7.4860   15.4710 C   0  0  1  0  0  0  0  0  0  0  0  0
   -5.5480    6.4340   14.9510 C   0  0  0  0  0  0  0  0  0  0  0  0
   -3.9940    8.3510   14.3300 C   0  0  0  0  0  0  0  0  0  0  0  0
   -2.9470    9.3550   14.7750 C   0  0  0  0  0  0  0  0  0  0  0  0
   -1.8300    9.0130   15.1610 O   0  0  0  0  0  0  0  0  0  0  0  0
   -3.2980   10.8070   14.7830 C   0  0  0  0  0  0  0  0  0  0  0  0
   -3.6580   11.4870   15.9530 C   0  0  0  0  0  0  0  0  0  0  0  0
   -3.9360   12.8550   15.9090 C   0  0  0  0  0  0  0  0  0  0  0  0
   -3.8640   13.5480   14.7010 C   0  0  0  0  0  0  0  0  0  0  0  0
   -3.5180   12.8770   13.5320 C   0  0  0  0  0  0  0  0  0  0  0  0
   -3.2350   11.5110   13.5720 C   0  0  0  0  0  0  0  0  0  0  0  0
  1 25  1  6  0  0  0
  1  4  1  0  0  0  0
  2  1  1  0  0  0  0
  2  3  1  0  0  0  0
  4 23  1  1  0  0  0
  5  4  1  6  0  0  0
  5 10  1  0  0  0  0
  6  5  1  0  0  0  0
  6  7  1  0  0  0  0
  7 19  1  6  0  0  0
  7  8  1  0  0  0  0
  7 16  1  0  0  0  0
  8  9  1  0  0  0  0
  9 21  1  6  0  0  0
 10 11  1  1  0  0  0
 10  9  1  0  0  0  0
 11 12  1  0  0  0  0
 13 15  2  0  0  0  0
 13 11  1  0  0  0  0
 14 13  1  0  0  0  0
 16 18  1  0  0  0  0
 17 16  2  0  0  0  0
 20 19  1  0  0  0  0
 22 21  1  0  0  0  0
 23 24  1  0  0  0  0
 26 28  1  0  0  0  0
 26 27  2  0  0  0  0
 28 25  1  0  0  0  0
 29 28  1  0  0  0  0
 30 31  1  0  0  0  0
 30 26  1  0  0  0  0
 33 31  1  0  0  0  0
 33 32  1  0  0  0  0
 34 33  2  0  0  0  0
 35 34  1  0  0  0  0
 35 36  1  0  0  0  0
 36 32  2  0  0  0  0
 37 38  1  6  0  0  0
 37 35  1  0  0  0  0
 39 40  1  0  0  0  0
 39 37  1  0  0  0  0
 40 42  1  0  0  0  0
 40 41  2  0  0  0  0
 42 43  2  0  0  0  0
 44 43  1  0  0  0  0
 45 44  2  0  0  0  0
 46 47  2  0  0  0  0
 46 45  1  0  0  0  0
 47 42  1  0  0  0  0
M  END
>  <REMARK>
 VINA RESULT:    -5.457      0.000      0.000
 INTER + INTRA:         -13.081
 INTER:                 -10.131
 INTRA:                  -2.950
 UNBOUND:                -2.678
  Name = lig_assembled_26.pdb
  20 active torsions:
  status: ('A' for Active; 'I' for Inactive)
    1  A    between atoms: _2  and  _9
    2  A    between atoms: _4  and  _23
    3  A    between atoms: _6  and  _7
    4  A    between atoms: _6  and  _23
    5  A    between atoms: _9  and  _10
    6  A    between atoms: _9  and  _11
    7  A    between atoms: _11  and  _12
    8  A    between atoms: _12  and  _13
    9  A    between atoms: _19  and  _39
   10  A    between atoms: _21  and  _27
   11  A    between atoms: _22  and  _26
   12  A    between atoms: _26  and  _27
   13  A    between atoms: _29  and  _30
   14  A    between atoms: _31  and  _32
   15  A    between atoms: _33  and  _35
   16  A    between atoms: _35  and  _36
   17  A    between atoms: _35  and  _37
   18  A    between atoms: _37  and  _38
   19  A    between atoms: _37  and  _39
   20  A    between atoms: _40  and  _42
                            x       y       z     vdW  Elec       q    Type
                         _______ _______ _______ _____ _____    ______ ____

>  <TORSDO>
F 17

$$$$
lig_assembled_27.pdb
 OpenBabel07252309473D

 43 45  0  0  1  0  0  0  0  0999 V2000
   -3.0640   12.2490   25.9690 C   0  0  2  0  0  0  0  0  0  0  0  0
   -3.6120   13.2450   25.0890 O   0  0  0  0  0  0  0  0  0  0  0  0
   -4.5570   13.1020   24.9920 H   0  0  0  0  0  0  0  0  0  0  0  0
   -2.3270   11.1870   25.1600 C   0  0  0  0  0  0  0  0  0  0  0  0
   -3.5690   10.1450   23.2950 C   0  0  0  0  0  0  0  0  0  0  0  0
   -3.9480    9.1800   23.9630 O   0  0  0  0  0  0  0  0  0  0  0  0
   -2.8030   11.1270   23.7720 N   0  0  0  0  0  0  0  0  0  0  0  0
   -2.5360   11.8720   23.1440 H   0  0  0  0  0  0  0  0  0  0  0  0
   -3.9580   10.2360   21.9220 O   0  0  0  0  0  0  0  0  0  0  0  0
   -5.2050   10.9290   21.8240 C   0  0  0  0  0  0  0  0  0  0  0  0
   -5.7240   12.9920   23.0890 N   0  0  0  0  0  0  0  0  0  0  0  0
   -5.0180   12.3650   22.1020 C   0  0  0  0  0  0  0  0  0  0  0  0
   -4.1850   13.2760   21.4980 C   0  0  0  0  0  0  0  0  0  0  0  0
   -4.4090   14.4610   22.1610 N   0  0  0  0  0  0  0  0  0  0  0  0
   -5.3500   14.2640   23.1180 N   0  0  0  0  0  0  0  0  0  0  0  0
   -3.8050   15.7260   21.9490 C   0  0  0  0  0  0  0  0  0  0  0  0
   -4.5810   16.8930   22.0440 C   0  0  0  0  0  0  0  0  0  0  0  0
   -3.9980   18.1450   21.8340 C   0  0  0  0  0  0  0  0  0  0  0  0
   -2.6420   18.2420   21.5280 C   0  0  0  0  0  0  0  0  0  0  0  0
   -1.8700   17.0860   21.4370 C   0  0  0  0  0  0  0  0  0  0  0  0
   -0.1950   17.2060   21.0610 Cl  0  0  0  0  0  0  0  0  0  0  0  0
   -2.4400   15.8290   21.6450 C   0  0  0  0  0  0  0  0  0  0  0  0
   -4.1720   11.5820   26.8030 C   0  0  2  0  0  0  0  0  0  0  0  0
   -3.6310   10.4370   27.6710 C   0  0  2  0  0  0  0  0  0  0  0  0
   -4.2570    9.2030   27.2240 O   0  0  0  0  0  0  0  0  0  0  0  0
   -3.7800    7.9780   27.8730 C   0  0  2  0  0  0  0  0  0  0  0  0
   -3.9020    8.0990   29.4120 C   0  0  0  0  0  0  0  0  0  0  0  0
   -3.2780    9.4110   29.9310 C   0  0  1  0  0  0  0  0  0  0  0  0
   -3.8430   10.6210   29.1850 C   0  0  1  0  0  0  0  0  0  0  0  0
   -3.1780   11.8560   29.6280 N   0  0  0  0  0  0  0  0  0  0  0  0
   -2.1780   11.9240   29.5020 H   0  0  0  0  0  0  0  0  0  0  0  0
   -3.8090   12.8930   30.1850 C   0  0  0  0  0  0  0  0  0  0  0  0
   -5.3290   12.7470   30.3870 C   0  0  0  0  0  0  0  0  0  0  0  0
   -3.2280   13.9210   30.5330 O   0  0  0  0  0  0  0  0  0  0  0  0
   -2.3120    7.6940   27.4930 C   0  0  0  0  0  0  0  0  0  0  0  0
   -1.5380    7.2190   28.3220 O   0  0  0  0  0  0  0  0  0  0  0  0
   -1.9030    7.9390   26.3570 O   0  0  0  0  0  0  0  0  0  0  0  0
   -3.5450    9.5530   31.3270 O   0  0  0  0  0  0  0  0  0  0  0  0
   -3.1710    8.8070   31.8020 H   0  0  0  0  0  0  0  0  0  0  0  0
   -4.6200    6.8800   27.4330 O   0  0  0  0  0  0  0  0  0  0  0  0
   -5.8590    7.2760   26.7910 C   0  0  0  0  0  0  0  0  0  0  0  0
   -5.2210   11.0990   25.9400 O   0  0  0  0  0  0  0  0  0  0  0  0
   -5.7170   10.4130   26.3920 H   0  0  0  0  0  0  0  0  0  0  0  0
  1  4  1  6  0  0  0
  1 23  1  0  0  0  0
  2  1  1  0  0  0  0
  3  2  1  0  0  0  0
  5  7  1  0  0  0  0
  5  6  2  0  0  0  0
  7  4  1  0  0  0  0
  8  7  1  0  0  0  0
  9  5  1  0  0  0  0
 10  9  1  0  0  0  0
 10 12  1  0  0  0  0
 11 15  2  0  0  0  0
 12 11  1  0  0  0  0
 13 12  2  0  0  0  0
 13 14  1  0  0  0  0
 14 15  1  0  0  0  0
 16 17  1  0  0  0  0
 16 14  1  0  0  0  0
 18 17  2  0  0  0  0
 19 18  1  0  0  0  0
 20 19  2  0  0  0  0
 20 22  1  0  0  0  0
 21 20  1  0  0  0  0
 22 16  2  0  0  0  0
 23 42  1  6  0  0  0
 24 23  1  6  0  0  0
 24 29  1  0  0  0  0
 25 24  1  0  0  0  0
 25 26  1  0  0  0  0
 26 40  1  6  0  0  0
 26 27  1  0  0  0  0
 27 28  1  0  0  0  0
 28 38  1  1  0  0  0
 29 30  1  1  0  0  0
 29 28  1  0  0  0  0
 30 32  1  0  0  0  0
 31 30  1  0  0  0  0
 32 33  1  0  0  0  0
 32 34  2  0  0  0  0
 35 26  1  0  0  0  0
 35 36  1  0  0  0  0
 37 35  2  0  0  0  0
 38 39  1  0  0  0  0
 41 40  1  0  0  0  0
 42 43  1  0  0  0  0
M  END
>  <REMARK>
 VINA RESULT:    -5.109      0.000      0.000
 INTER + INTRA:         -12.217
 INTER:                  -9.649
 INTRA:                  -2.567
 UNBOUND:                -3.373
  Name = lig_assembled_27.pdb
  16 active torsions:
  status: ('A' for Active; 'I' for Inactive)
    1  A    between atoms: _2  and  _9
    2  A    between atoms: _4  and  _18
    3  A    between atoms: _6  and  _7
    4  A    between atoms: _6  and  _18
    5  A    between atoms: _14  and  _34
    6  A    between atoms: _16  and  _22
    7  A    between atoms: _17  and  _21
    8  A    between atoms: _21  and  _22
    9  A    between atoms: _24  and  _25
   10  A    between atoms: _26  and  _27
   11  A    between atoms: _28  and  _30
   12  A    between atoms: _30  and  _31
   13  A    between atoms: _30  and  _32
   14  A    between atoms: _32  and  _33
   15  A    between atoms: _32  and  _34
   16  A    between atoms: _35  and  _37
                            x       y       z     vdW  Elec       q    Type
                         _______ _______ _______ _____ _____    ______ ____

>  <TORSDO>
F 14

$$$$
lig_assembled_28.pdb
 OpenBabel07252309473D

 46 49  0  0  1  0  0  0  0  0999 V2000
   -2.9120   11.2030   23.0340 C   0  0  2  0  0  0  0  0  0  0  0  0
   -2.3720   11.7850   24.2320 O   0  0  0  0  0  0  0  0  0  0  0  0
   -1.4150   11.8260   24.1650 H   0  0  0  0  0  0  0  0  0  0  0  0
   -3.6380   12.2690   22.2180 C   0  0  0  0  0  0  0  0  0  0  0  0
   -5.3040   13.9440   22.9410 C   0  0  0  0  0  0  0  0  0  0  0  0
   -4.6600   14.9060   22.5160 O   0  0  0  0  0  0  0  0  0  0  0  0
   -4.8990   12.6770   22.8500 N   0  0  0  0  0  0  0  0  0  0  0  0
   -5.4930   11.9570   23.2370 H   0  0  0  0  0  0  0  0  0  0  0  0
   -6.5630   14.1770   23.5770 O   0  0  0  0  0  0  0  0  0  0  0  0
   -6.3560   14.8900   24.7990 C   0  0  0  0  0  0  0  0  0  0  0  0
   -5.0040   13.1680   25.9610 N   0  0  0  0  0  0  0  0  0  0  0  0
   -6.1270   13.9480   25.9110 C   0  0  0  0  0  0  0  0  0  0  0  0
   -6.8930   13.7070   27.0290 C   0  0  0  0  0  0  0  0  0  0  0  0
   -6.1380   12.8440   27.7700 N   0  0  0  0  0  0  0  0  0  0  0  0
   -5.0260   12.4850   27.0990 N   0  0  0  0  0  0  0  0  0  0  0  0
   -6.3150   12.3680   29.1360 C   0  0  0  0  0  0  0  0  0  0  0  0
   -5.0470   12.3910   29.9560 C   0  0  0  0  0  0  0  0  0  0  0  0
   -4.5090   13.6150   30.3940 C   0  0  0  0  0  0  0  0  0  0  0  0
   -3.4180   13.5780   31.2350 C   0  0  0  0  0  0  0  0  0  0  0  0
   -2.8100   14.6620   31.7920 O   0  0  0  0  0  0  0  0  0  0  0  0
   -1.8470   14.0160   32.6510 C   0  0  0  0  0  0  0  0  0  0  0  0
   -1.7960   12.5830   32.4780 O   0  0  0  0  0  0  0  0  0  0  0  0
   -2.8380   12.3960   31.6240 C   0  0  0  0  0  0  0  0  0  0  0  0
   -3.3150   11.1780   31.1880 C   0  0  0  0  0  0  0  0  0  0  0  0
   -4.4360   11.1780   30.3520 C   0  0  0  0  0  0  0  0  0  0  0  0
   -3.8860   10.0600   23.3670 C   0  0  2  0  0  0  0  0  0  0  0  0
   -3.8540    9.6910   24.8570 C   0  0  2  0  0  0  0  0  0  0  0  0
   -2.8850    8.6210   25.0330 O   0  0  0  0  0  0  0  0  0  0  0  0
   -2.6420    8.2070   26.4180 C   0  0  2  0  0  0  0  0  0  0  0  0
   -3.9730    7.8260   27.1110 C   0  0  0  0  0  0  0  0  0  0  0  0
   -5.0460    8.9200   26.9240 C   0  0  1  0  0  0  0  0  0  0  0  0
   -5.2150    9.2760   25.4470 C   0  0  1  0  0  0  0  0  0  0  0  0
   -6.1760   10.3790   25.2900 N   0  0  0  0  0  0  0  0  0  0  0  0
   -6.0150   11.2240   25.8200 H   0  0  0  0  0  0  0  0  0  0  0  0
   -7.2470   10.3370   24.4920 C   0  0  0  0  0  0  0  0  0  0  0  0
   -7.4790    9.0250   23.7180 C   0  0  0  0  0  0  0  0  0  0  0  0
   -8.0270   11.2820   24.3690 O   0  0  0  0  0  0  0  0  0  0  0  0
   -1.9520    9.3350   27.2130 C   0  0  0  0  0  0  0  0  0  0  0  0
   -1.2110   10.1330   26.6400 O   0  0  0  0  0  0  0  0  0  0  0  0
   -2.1350    9.4460   28.4260 O   0  0  0  0  0  0  0  0  0  0  0  0
   -1.7880    7.0340   26.3930 O   0  0  0  0  0  0  0  0  0  0  0  0
   -2.4380    5.7950   26.7730 C   0  0  0  0  0  0  0  0  0  0  0  0
   -6.2950    8.4640   27.4450 O   0  0  0  0  0  0  0  0  0  0  0  0
   -6.8760    9.2140   27.5890 H   0  0  0  0  0  0  0  0  0  0  0  0
   -3.5860    8.9020   22.5620 O   0  0  0  0  0  0  0  0  0  0  0  0
   -3.1730    8.2300   23.1090 H   0  0  0  0  0  0  0  0  0  0  0  0
  1  4  1  1  0  0  0
  1 26  1  0  0  0  0
  1  2  1  0  0  0  0
  3  2  1  0  0  0  0
  4  7  1  0  0  0  0
  5  9  1  0  0  0  0
  6  5  2  0  0  0  0
  7  5  1  0  0  0  0
  7  8  1  0  0  0  0
  9 10  1  0  0  0  0
 10 12  1  0  0  0  0
 11 15  2  0  0  0  0
 12 11  1  0  0  0  0
 12 13  2  0  0  0  0
 13 14  1  0  0  0  0
 14 16  1  0  0  0  0
 15 14  1  0  0  0  0
 16 17  1  0  0  0  0
 17 25  1  0  0  0  0
 17 18  2  0  0  0  0
 18 19  1  0  0  0  0
 19 23  2  0  0  0  0
 19 20  1  0  0  0  0
 20 21  1  0  0  0  0
 22 21  1  0  0  0  0
 23 22  1  0  0  0  0
 24 23  1  0  0  0  0
 25 24  2  0  0  0  0
 26 45  1  6  0  0  0
 27 26  1  6  0  0  0
 27 28  1  0  0  0  0
 27 32  1  0  0  0  0
 28 29  1  0  0  0  0
 29 41  1  6  0  0  0
 29 30  1  0  0  0  0
 29 38  1  0  0  0  0
 31 30  1  0  0  0  0
 31 43  1  6  0  0  0
 32 33  1  1  0  0  0
 32 31  1  0  0  0  0
 33 34  1  0  0  0  0
 35 33  1  0  0  0  0
 36 35  1  0  0  0  0
 37 35  2  0  0  0  0
 38 40  1  0  0  0  0
 39 38  2  0  0  0  0
 41 42  1  0  0  0  0
 43 44  1  0  0  0  0
 45 46  1  0  0  0  0
M  END
>  <REMARK>
 VINA RESULT:    -5.439      0.000      0.000
 INTER + INTRA:         -12.780
 INTER:                  -8.906
 INTRA:                  -3.873
 UNBOUND:                -3.049
  Name = lig_assembled_28.pdb
  17 active torsions:
  status: ('A' for Active; 'I' for Inactive)
    1  A    between atoms: _2  and  _9
    2  A    between atoms: _4  and  _22
    3  A    between atoms: _6  and  _7
    4  A    between atoms: _6  and  _22
    5  A    between atoms: _9  and  _10
    6  A    between atoms: _18  and  _38
    7  A    between atoms: _20  and  _26
    8  A    between atoms: _21  and  _25
    9  A    between atoms: _25  and  _26
   10  A    between atoms: _28  and  _29
   11  A    between atoms: _30  and  _31
   12  A    between atoms: _32  and  _34
   13  A    between atoms: _34  and  _35
   14  A    between atoms: _34  and  _36
   15  A    between atoms: _36  and  _37
   16  A    between atoms: _36  and  _38
   17  A    between atoms: _39  and  _41
                            x       y       z     vdW  Elec       q    Type
                         _______ _______ _______ _____ _____    ______ ____

>  <TORSDO>
F 15

$$$$
lig_assembled_29.pdb
 OpenBabel07252309473D

 47 49  0  0  1  0  0  0  0  0999 V2000
   -3.2750   11.8250   25.1050 C   0  0  1  0  0  0  0  0  0  0  0  0
   -2.1080   10.9910   25.0120 O   0  0  0  0  0  0  0  0  0  0  0  0
   -1.8640   10.8850   24.0900 H   0  0  0  0  0  0  0  0  0  0  0  0
   -3.6200   12.1260   26.5740 C   0  0  2  0  0  0  0  0  0  0  0  0
   -3.3620   10.9190   27.4880 C   0  0  2  0  0  0  0  0  0  0  0  0
   -3.9910    9.7570   26.8810 O   0  0  0  0  0  0  0  0  0  0  0  0
   -3.7590    8.4810   27.5650 C   0  0  2  0  0  0  0  0  0  0  0  0
   -4.1730    8.5820   29.0530 C   0  0  0  0  0  0  0  0  0  0  0  0
   -3.5540    9.8210   29.7340 C   0  0  1  0  0  0  0  0  0  0  0  0
   -3.8540   11.0920   28.9370 C   0  0  1  0  0  0  0  0  0  0  0  0
   -3.1860   12.2520   29.5470 N   0  0  0  0  0  0  0  0  0  0  0  0
   -2.1760   12.2710   29.5430 H   0  0  0  0  0  0  0  0  0  0  0  0
   -3.8280   13.2820   30.1060 C   0  0  0  0  0  0  0  0  0  0  0  0
   -5.3660   13.2100   30.1200 C   0  0  0  0  0  0  0  0  0  0  0  0
   -3.2420   14.2480   30.5970 O   0  0  0  0  0  0  0  0  0  0  0  0
   -2.2750    8.0710   27.4690 C   0  0  0  0  0  0  0  0  0  0  0  0
   -1.6280    8.3190   26.4520 O   0  0  0  0  0  0  0  0  0  0  0  0
   -1.7250    7.4930   28.4070 O   0  0  0  0  0  0  0  0  0  0  0  0
   -4.5860    7.4740   26.9280 O   0  0  0  0  0  0  0  0  0  0  0  0
   -5.3030    7.9240   25.7510 C   0  0  0  0  0  0  0  0  0  0  0  0
   -4.0790    9.9590   31.0540 O   0  0  0  0  0  0  0  0  0  0  0  0
   -3.6720    9.3080   31.6310 H   0  0  0  0  0  0  0  0  0  0  0  0
   -4.9930   12.5500   26.6850 O   0  0  0  0  0  0  0  0  0  0  0  0
   -5.5710   11.8440   26.3840 H   0  0  0  0  0  0  0  0  0  0  0  0
   -3.0430   13.1330   24.3570 C   0  0  0  0  0  0  0  0  0  0  0  0
   -5.1650   13.6760   23.2130 C   0  0  0  0  0  0  0  0  0  0  0  0
   -5.7470   14.0110   24.2480 O   0  0  0  0  0  0  0  0  0  0  0  0
   -3.9030   13.2470   23.1730 N   0  0  0  0  0  0  0  0  0  0  0  0
   -3.5170   12.9850   22.2770 H   0  0  0  0  0  0  0  0  0  0  0  0
   -5.8690   13.7380   21.9700 O   0  0  0  0  0  0  0  0  0  0  0  0
   -6.5260   12.4910   21.7300 C   0  0  0  0  0  0  0  0  0  0  0  0
   -4.5420   11.2420   20.9230 N   0  0  0  0  0  0  0  0  0  0  0  0
   -5.8070   11.7190   20.7000 C   0  0  0  0  0  0  0  0  0  0  0  0
   -6.2200   11.3300   19.4460 C   0  0  0  0  0  0  0  0  0  0  0  0
   -5.1990   10.5420   18.9960 N   0  0  0  0  0  0  0  0  0  0  0  0
   -4.1740   10.5300   19.8650 N   0  0  0  0  0  0  0  0  0  0  0  0
   -5.1540    9.7410   17.7870 C   0  0  0  0  0  0  0  0  0  0  0  0
   -4.4360   10.4800   16.6800 C   0  0  0  0  0  0  0  0  0  0  0  0
   -3.6490    9.7730   15.7540 C   0  0  0  0  0  0  0  0  0  0  0  0
   -3.0420   10.4350   14.6760 C   0  0  0  0  0  0  0  0  0  0  0  0
   -3.2170   11.8250   14.5260 C   0  0  0  0  0  0  0  0  0  0  0  0
   -4.0000   12.5250   15.4480 C   0  0  0  0  0  0  0  0  0  0  0  0
   -4.6030   11.8580   16.5180 C   0  0  0  0  0  0  0  0  0  0  0  0
   -2.2770    9.8140   13.7200 O   0  0  0  0  0  0  0  0  0  0  0  0
   -2.9020    8.8320   12.9050 C   0  0  0  0  0  0  0  0  0  0  0  0
   -2.5860   12.4010   13.4500 O   0  0  0  0  0  0  0  0  0  0  0  0
   -2.7210   13.8040   13.2790 C   0  0  0  0  0  0  0  0  0  0  0  0
  1 25  1  6  0  0  0
  1  4  1  0  0  0  0
  2  1  1  0  0  0  0
  3  2  1  0  0  0  0
  4 23  1  6  0  0  0
  5  4  1  6  0  0  0
  5 10  1  0  0  0  0
  6  5  1  0  0  0  0
  6  7  1  0  0  0  0
  7 19  1  6  0  0  0
  7  8  1  0  0  0  0
  8  9  1  0  0  0  0
  9 21  1  1  0  0  0
 10 11  1  1  0  0  0
 10  9  1  0  0  0  0
 11 13  1  0  0  0  0
 12 11  1  0  0  0  0
 13 14  1  0  0  0  0
 13 15  2  0  0  0  0
 16  7  1  0  0  0  0
 16 18  1  0  0  0  0
 17 16  2  0  0  0  0
 20 19  1  0  0  0  0
 21 22  1  0  0  0  0
 24 23  1  0  0  0  0
 26 27  2  0  0  0  0
 28 26  1  0  0  0  0
 28 25  1  0  0  0  0
 29 28  1  0  0  0  0
 30 26  1  0  0  0  0
 31 30  1  0  0  0  0
 33 32  1  0  0  0  0
 33 31  1  0  0  0  0
 34 33  2  0  0  0  0
 35 34  1  0  0  0  0
 35 36  1  0  0  0  0
 36 32  2  0  0  0  0
 37 35  1  0  0  0  0
 38 37  1  0  0  0  0
 39 38  2  0  0  0  0
 40 39  1  0  0  0  0
 41 40  2  0  0  0  0
 41 42  1  0  0  0  0
 42 43  2  0  0  0  0
 43 38  1  0  0  0  0
 44 40  1  0  0  0  0
 45 44  1  0  0  0  0
 46 41  1  0  0  0  0
 47 46  1  0  0  0  0
M  END
>  <REMARK>
 VINA RESULT:    -5.384      0.000      0.000
 INTER + INTRA:         -12.853
 INTER:                 -10.274
 INTRA:                  -2.579
 UNBOUND:                -2.590
  Name = lig_assembled_29.pdb
  21 active torsions:
  status: ('A' for Active; 'I' for Inactive)
    1  A    between atoms: _2  and  _9
    2  A    between atoms: _4  and  _23
    3  A    between atoms: _6  and  _7
    4  A    between atoms: _6  and  _23
    5  A    between atoms: _9  and  _10
    6  A    between atoms: _12  and  _18
    7  A    between atoms: _13  and  _18
    8  A    between atoms: _14  and  _17
    9  A    between atoms: _15  and  _17
   10  A    between atoms: _19  and  _39
   11  A    between atoms: _21  and  _27
   12  A    between atoms: _22  and  _26
   13  A    between atoms: _26  and  _27
   14  A    between atoms: _29  and  _30
   15  A    between atoms: _31  and  _32
   16  A    between atoms: _33  and  _35
   17  A    between atoms: _35  and  _36
   18  A    between atoms: _35  and  _37
   19  A    between atoms: _37  and  _38
   20  A    between atoms: _37  and  _39
   21  A    between atoms: _40  and  _42
                            x       y       z     vdW  Elec       q    Type
                         _______ _______ _______ _____ _____    ______ ____

>  <TORSDO>
F 17

$$$$
lig_assembled_2.pdb
 OpenBabel07252309473D

 43 45  0  0  1  0  0  0  0  0999 V2000
   -1.8720    8.5380   13.6210 C   0  0  2  0  0  0  0  0  0  0  0  0
   -2.0490    8.2110   12.2330 O   0  0  0  0  0  0  0  0  0  0  0  0
   -2.4310    8.9620   11.7720 H   0  0  0  0  0  0  0  0  0  0  0  0
   -1.9250    7.2700   14.4670 C   0  0  0  0  0  0  0  0  0  0  0  0
   -3.1710    6.7160   16.5280 C   0  0  0  0  0  0  0  0  0  0  0  0
   -2.1890    6.2470   17.1070 O   0  0  0  0  0  0  0  0  0  0  0  0
   -3.1390    7.2110   15.2900 N   0  0  0  0  0  0  0  0  0  0  0  0
   -3.9990    7.5660   14.8960 H   0  0  0  0  0  0  0  0  0  0  0  0
   -4.4310    6.7380   17.2030 O   0  0  0  0  0  0  0  0  0  0  0  0
   -5.2590    7.7570   16.6360 C   0  0  0  0  0  0  0  0  0  0  0  0
   -6.8050    8.9240   18.1760 N   0  0  0  0  0  0  0  0  0  0  0  0
   -5.5560    8.7950   17.6420 C   0  0  0  0  0  0  0  0  0  0  0  0
   -4.7270    9.7400   18.2010 C   0  0  0  0  0  0  0  0  0  0  0  0
   -5.5170   10.4140   19.1040 N   0  0  0  0  0  0  0  0  0  0  0  0
   -6.7750    9.9130   19.0580 N   0  0  0  0  0  0  0  0  0  0  0  0
   -5.1520   11.4530   20.0010 C   0  0  0  0  0  0  0  0  0  0  0  0
   -6.1200   12.3130   20.5400 C   0  0  0  0  0  0  0  0  0  0  0  0
   -5.7350   13.3530   21.3920 C   0  0  0  0  0  0  0  0  0  0  0  0
   -4.3900   13.5360   21.7080 C   0  0  0  0  0  0  0  0  0  0  0  0
   -3.9240   14.8320   22.7380 Cl  0  0  0  0  0  0  0  0  0  0  0  0
   -3.4230   12.6790   21.1890 C   0  0  0  0  0  0  0  0  0  0  0  0
   -3.8000   11.6360   20.3380 C   0  0  0  0  0  0  0  0  0  0  0  0
   -2.9570    9.5190   14.0970 C   0  0  2  0  0  0  0  0  0  0  0  0
   -3.2470   10.6110   13.0560 C   0  0  2  0  0  0  0  0  0  0  0  0
   -1.9740   11.0690   12.5230 O   0  0  0  0  0  0  0  0  0  0  0  0
   -2.0580   12.0450   11.4320 C   0  0  2  0  0  0  0  0  0  0  0  0
   -2.9150   13.2610   11.8590 C   0  0  0  0  0  0  0  0  0  0  0  0
   -4.2660   12.8230   12.4620 C   0  0  1  0  0  0  0  0  0  0  0  0
   -4.0610   11.8060   13.5850 C   0  0  1  0  0  0  0  0  0  0  0  0
   -5.3580   11.3310   14.0930 N   0  0  0  0  0  0  0  0  0  0  0  0
   -5.9120   10.7390   13.4900 H   0  0  0  0  0  0  0  0  0  0  0  0
   -5.8510   11.6310   15.2980 C   0  0  0  0  0  0  0  0  0  0  0  0
   -4.9940   12.5560   16.1820 C   0  0  0  0  0  0  0  0  0  0  0  0
   -6.9340   11.2060   15.7020 O   0  0  0  0  0  0  0  0  0  0  0  0
   -2.6680   11.4020   10.1690 C   0  0  0  0  0  0  0  0  0  0  0  0
   -3.1500   12.1080    9.2850 O   0  0  0  0  0  0  0  0  0  0  0  0
   -2.6790   10.1770   10.0350 O   0  0  0  0  0  0  0  0  0  0  0  0
   -4.9550   13.9620   12.9780 O   0  0  0  0  0  0  0  0  0  0  0  0
   -4.5280   14.2570   13.7860 H   0  0  0  0  0  0  0  0  0  0  0  0
   -0.7150   12.5100   11.1420 O   0  0  0  0  0  0  0  0  0  0  0  0
   -0.5190   13.9400   11.2830 C   0  0  0  0  0  0  0  0  0  0  0  0
   -2.5700   10.1180   15.3500 O   0  0  0  0  0  0  0  0  0  0  0  0
   -2.2850    9.4320   15.9580 H   0  0  0  0  0  0  0  0  0  0  0  0
  1 23  1  0  0  0  0
  1  4  1  1  0  0  0
  2  1  1  0  0  0  0
  3  2  1  0  0  0  0
  4  7  1  0  0  0  0
  5  6  2  0  0  0  0
  5  9  1  0  0  0  0
  7  5  1  0  0  0  0
  8  7  1  0  0  0  0
 10  9  1  0  0  0  0
 10 12  1  0  0  0  0
 11 15  2  0  0  0  0
 12 11  1  0  0  0  0
 12 13  2  0  0  0  0
 13 14  1  0  0  0  0
 14 16  1  0  0  0  0
 15 14  1  0  0  0  0
 16 22  2  0  0  0  0
 16 17  1  0  0  0  0
 17 18  2  0  0  0  0
 18 19  1  0  0  0  0
 19 20  1  0  0  0  0
 21 19  2  0  0  0  0
 22 21  1  0  0  0  0
 23 42  1  1  0  0  0
 24 29  1  0  0  0  0
 24 23  1  1  0  0  0
 25 24  1  0  0  0  0
 26 35  1  6  0  0  0
 26 27  1  0  0  0  0
 26 25  1  0  0  0  0
 27 28  1  0  0  0  0
 28 38  1  1  0  0  0
 28 29  1  0  0  0  0
 29 30  1  6  0  0  0
 30 32  1  0  0  0  0
 31 30  1  0  0  0  0
 32 34  2  0  0  0  0
 32 33  1  0  0  0  0
 36 35  2  0  0  0  0
 37 35  1  0  0  0  0
 38 39  1  0  0  0  0
 40 41  1  0  0  0  0
 40 26  1  0  0  0  0
 42 43  1  0  0  0  0
M  END
>  <REMARK>
 VINA RESULT:    -5.794      0.000      0.000
 INTER + INTRA:         -11.865
 INTER:                  -8.780
 INTRA:                  -3.085
 UNBOUND:                -1.837
  Name = lig_assembled_2.pdb
  16 active torsions:
  status: ('A' for Active; 'I' for Inactive)
    1  A    between atoms: _2  and  _9
    2  A    between atoms: _4  and  _18
    3  A    between atoms: _6  and  _7
    4  A    between atoms: _6  and  _18
    5  A    between atoms: _14  and  _34
    6  A    between atoms: _16  and  _22
    7  A    between atoms: _17  and  _21
    8  A    between atoms: _21  and  _22
    9  A    between atoms: _24  and  _25
   10  A    between atoms: _26  and  _27
   11  A    between atoms: _28  and  _30
   12  A    between atoms: _30  and  _31
   13  A    between atoms: _30  and  _32
   14  A    between atoms: _32  and  _33
   15  A    between atoms: _32  and  _34
   16  A    between atoms: _35  and  _37
                            x       y       z     vdW  Elec       q    Type
                         _______ _______ _______ _____ _____    ______ ____

>  <TORSDO>
F 14

$$$$
lig_assembled_30.pdb
 OpenBabel07252309473D

 50 51  0  0  1  0  0  0  0  0999 V2000
   -3.9170    6.9320   23.4360 C   0  0  0  0  0  0  0  0  0  0  0  0
   -3.6860    7.5360   22.3860 O   0  0  0  0  0  0  0  0  0  0  0  0
   -5.1340    6.7950   23.9640 N   0  0  0  0  0  0  0  0  0  0  0  0
   -5.2250    6.2730   24.8240 H   0  0  0  0  0  0  0  0  0  0  0  0
   -2.8310    6.3310   24.1450 O   0  0  0  0  0  0  0  0  0  0  0  0
   -3.3200    5.7280   25.3460 C   0  0  0  0  0  0  0  0  0  0  0  0
   -1.8200    7.3840   26.4110 N   0  0  0  0  0  0  0  0  0  0  0  0
   -2.8300    6.4650   26.5250 C   0  0  0  0  0  0  0  0  0  0  0  0
   -3.2310    6.3950   27.8410 C   0  0  0  0  0  0  0  0  0  0  0  0
   -2.4260    7.2930   28.4730 N   0  0  0  0  0  0  0  0  0  0  0  0
   -1.5790    7.8860   27.6160 N   0  0  0  0  0  0  0  0  0  0  0  0
   -2.3790    7.6060   29.8850 C   0  0  0  0  0  0  0  0  0  0  0  0
   -2.9910    8.9730   30.1690 C   0  0  0  0  0  0  0  0  0  0  0  0
   -3.8750    8.9580   31.4140 C   0  0  0  0  0  0  0  0  0  0  0  0
   -3.8980   10.3420   32.0610 C   0  0  0  0  0  0  0  0  0  0  0  0
   -2.5240   11.0050   32.0310 C   0  0  0  0  0  0  0  0  0  0  0  0
   -2.6510   12.5220   32.1770 C   0  0  0  0  0  0  0  0  0  0  0  0
   -2.9600   13.1750   30.8320 C   0  0  0  0  0  0  0  0  0  0  0  0
   -4.2950   13.9180   30.8600 C   0  0  0  0  0  0  0  0  0  0  0  0
   -5.1480   13.5290   29.6530 C   0  0  0  0  0  0  0  0  0  0  0  0
   -4.6500   12.2450   28.9930 C   0  0  0  0  0  0  0  0  0  0  0  0
   -5.7680   11.2440   28.8180 C   0  0  0  0  0  0  0  0  0  0  0  0
   -6.4730   10.8050   29.7140 O   0  0  0  0  0  0  0  0  0  0  0  0
   -5.9220   10.8640   27.5290 O   0  0  0  0  0  0  0  0  0  0  0  0
   -5.0960   10.8930   27.0110 H   0  0  0  0  0  0  0  0  0  0  0  0
   -6.3500    7.3590   23.3650 C   0  0  0  0  0  0  0  0  0  0  0  0
   -6.7730    8.6540   24.0510 C   0  0  1  0  0  0  0  0  0  0  0  0
   -6.0360    8.8270   25.2720 O   0  0  0  0  0  0  0  0  0  0  0  0
   -6.0930    8.0250   25.7970 H   0  0  0  0  0  0  0  0  0  0  0  0
   -6.5440    9.8390   23.0970 C   0  0  2  0  0  0  0  0  0  0  0  0
   -5.1940   10.5290   23.3470 C   0  0  2  0  0  0  0  0  0  0  0  0
   -5.3750   11.4860   24.4270 O   0  0  0  0  0  0  0  0  0  0  0  0
   -4.1590   12.1700   24.8780 C   0  0  2  0  0  0  0  0  0  0  0  0
   -3.4490   12.8550   23.6850 C   0  0  0  0  0  0  0  0  0  0  0  0
   -3.2640   11.8850   22.4990 C   0  0  1  0  0  0  0  0  0  0  0  0
   -4.5900   11.2280   22.1150 C   0  0  1  0  0  0  0  0  0  0  0  0
   -4.3850   10.2420   21.0420 N   0  0  0  0  0  0  0  0  0  0  0  0
   -3.8410    9.4180   21.2560 H   0  0  0  0  0  0  0  0  0  0  0  0
   -4.8710   10.3650   19.8040 C   0  0  0  0  0  0  0  0  0  0  0  0
   -5.6740   11.6440   19.5020 C   0  0  0  0  0  0  0  0  0  0  0  0
   -4.6950    9.5160   18.9290 O   0  0  0  0  0  0  0  0  0  0  0  0
   -3.1900   11.1750   25.5520 C   0  0  0  0  0  0  0  0  0  0  0  0
   -3.6220   10.1560   26.0890 O   0  0  0  0  0  0  0  0  0  0  0  0
   -1.9780   11.3920   25.5580 O   0  0  0  0  0  0  0  0  0  0  0  0
   -2.7470   12.5950   21.3720 O   0  0  0  0  0  0  0  0  0  0  0  0
   -3.0830   13.4940   21.3780 H   0  0  0  0  0  0  0  0  0  0  0  0
   -4.5470   13.1940   25.8290 O   0  0  0  0  0  0  0  0  0  0  0  0
   -5.8690   13.7520   25.6230 C   0  0  0  0  0  0  0  0  0  0  0  0
   -7.6190   10.7920   23.2200 O   0  0  0  0  0  0  0  0  0  0  0  0
   -8.3340   10.4030   23.7310 H   0  0  0  0  0  0  0  0  0  0  0  0
  1  3  1  0  0  0  0
  1  5  1  0  0  0  0
  2  1  2  0  0  0  0
  3  4  1  0  0  0  0
  5  6  1  0  0  0  0
  6  8  1  0  0  0  0
  7  8  1  0  0  0  0
  7 11  2  0  0  0  0
  8  9  2  0  0  0  0
  9 10  1  0  0  0  0
 10 12  1  0  0  0  0
 11 10  1  0  0  0  0
 12 13  1  0  0  0  0
 13 14  1  0  0  0  0
 14 15  1  0  0  0  0
 16 15  1  0  0  0  0
 16 17  1  0  0  0  0
 18 19  1  0  0  0  0
 18 17  1  0  0  0  0
 20 19  1  0  0  0  0
 21 20  1  0  0  0  0
 22 21  1  0  0  0  0
 22 23  2  0  0  0  0
 24 22  1  0  0  0  0
 25 24  1  0  0  0  0
 26  3  1  0  0  0  0
 27 26  1  6  0  0  0
 27 28  1  0  0  0  0
 28 29  1  0  0  0  0
 30 49  1  1  0  0  0
 30 27  1  0  0  0  0
 31 30  1  6  0  0  0
 31 32  1  0  0  0  0
 32 33  1  0  0  0  0
 33 42  1  1  0  0  0
 33 47  1  0  0  0  0
 34 33  1  0  0  0  0
 35 45  1  6  0  0  0
 35 34  1  0  0  0  0
 36 37  1  6  0  0  0
 36 35  1  0  0  0  0
 36 31  1  0  0  0  0
 37 38  1  0  0  0  0
 39 37  1  0  0  0  0
 40 39  1  0  0  0  0
 41 39  2  0  0  0  0
 42 44  2  0  0  0  0
 42 43  1  0  0  0  0
 45 46  1  0  0  0  0
 48 47  1  0  0  0  0
 49 50  1  0  0  0  0
M  END
>  <REMARK>
 VINA RESULT:    -4.974      0.000      0.000
 INTER + INTRA:         -15.407
 INTER:                  -9.870
 INTRA:                  -5.537
 UNBOUND:                -3.746
  Name = lig_assembled_30.pdb
  27 active torsions:
  status: ('A' for Active; 'I' for Inactive)
    1  A    between atoms: _2  and  _9
    2  A    between atoms: _4  and  _25
    3  A    between atoms: _5  and  _18
    4  A    between atoms: _5  and  _19
    5  A    between atoms: _6  and  _7
    6  A    between atoms: _6  and  _25
    7  A    between atoms: _9  and  _10
    8  A    between atoms: _10  and  _11
    9  A    between atoms: _11  and  _12
   10  A    between atoms: _12  and  _13
   11  A    between atoms: _13  and  _14
   12  A    between atoms: _14  and  _15
   13  A    between atoms: _15  and  _16
   14  A    between atoms: _16  and  _17
   15  A    between atoms: _17  and  _18
   16  A    between atoms: _21  and  _41
   17  A    between atoms: _23  and  _29
   18  A    between atoms: _24  and  _28
   19  A    between atoms: _28  and  _29
   20  A    between atoms: _31  and  _32
   21  A    between atoms: _33  and  _34
   22  A    between atoms: _35  and  _37
   23  A    between atoms: _37  and  _38
   24  A    between atoms: _37  and  _39
   25  A    between atoms: _39  and  _40
   26  A    between atoms: _39  and  _41
   27  A    between atoms: _42  and  _44
                            x       y       z     vdW  Elec       q    Type
                         _______ _______ _______ _____ _____    ______ ____

>  <TORSDO>
F 25

$$$$
lig_assembled_31.pdb
 OpenBabel07252309473D

 50 52  0  0  1  0  0  0  0  0999 V2000
   -4.1280    7.1650   23.4030 C   0  0  0  0  0  0  0  0  0  0  0  0
   -4.0230    7.8930   22.4130 O   0  0  0  0  0  0  0  0  0  0  0  0
   -5.2830    6.8990   24.0140 N   0  0  0  0  0  0  0  0  0  0  0  0
   -5.2690    6.2820   24.8140 H   0  0  0  0  0  0  0  0  0  0  0  0
   -2.9530    6.5550   23.9440 O   0  0  0  0  0  0  0  0  0  0  0  0
   -3.3060    5.7630   25.0810 C   0  0  0  0  0  0  0  0  0  0  0  0
   -1.9910    7.4910   26.2700 N   0  0  0  0  0  0  0  0  0  0  0  0
   -2.7920    6.3820   26.3190 C   0  0  0  0  0  0  0  0  0  0  0  0
   -2.9810    6.0240   27.6350 C   0  0  0  0  0  0  0  0  0  0  0  0
   -2.2620    6.9480   28.3330 N   0  0  0  0  0  0  0  0  0  0  0  0
   -1.6730    7.8320   27.5120 N   0  0  0  0  0  0  0  0  0  0  0  0
   -2.0880    7.0490   29.7680 C   0  0  0  0  0  0  0  0  0  0  0  0
   -3.0120    8.0980   30.3660 C   0  0  0  0  0  0  0  0  0  0  0  0
   -2.6680    9.4740   30.0310 N   0  0  0  0  0  0  0  0  0  0  0  0
   -1.7340    9.7150   29.7340 H   0  0  0  0  0  0  0  0  0  0  0  0
   -3.4620   10.4790   30.5180 C   0  0  0  0  0  0  0  0  0  0  0  0
   -4.5010   10.2640   31.1370 O   0  0  0  0  0  0  0  0  0  0  0  0
   -3.0180   11.7340   30.2330 N   0  0  0  0  0  0  0  0  0  0  0  0
   -2.1430   11.9100   29.7600 H   0  0  0  0  0  0  0  0  0  0  0  0
   -3.7900   12.8620   30.6990 C   0  0  0  0  0  0  0  0  0  0  0  0
   -3.1870   13.5450   31.8710 C   0  0  0  0  0  0  0  0  0  0  0  0
   -1.9780   13.1120   32.3420 O   0  0  0  0  0  0  0  0  0  0  0  0
   -1.6650   13.9050   33.4040 C   0  0  0  0  0  0  0  0  0  0  0  0
   -2.6530   14.8370   33.6250 C   0  0  0  0  0  0  0  0  0  0  0  0
   -3.6360   14.6060   32.6350 C   0  0  0  0  0  0  0  0  0  0  0  0
   -6.5750    7.4530   23.5900 C   0  0  0  0  0  0  0  0  0  0  0  0
   -6.9860    8.6520   24.4380 C   0  0  1  0  0  0  0  0  0  0  0  0
   -6.3580    8.5790   25.7290 O   0  0  0  0  0  0  0  0  0  0  0  0
   -6.4560    7.6920   26.0830 H   0  0  0  0  0  0  0  0  0  0  0  0
   -6.6000    9.9520   23.7120 C   0  0  2  0  0  0  0  0  0  0  0  0
   -5.3580   10.6120   24.3280 C   0  0  2  0  0  0  0  0  0  0  0  0
   -5.7820   11.3520   25.5060 O   0  0  0  0  0  0  0  0  0  0  0  0
   -4.7060   11.9660   26.2900 C   0  0  2  0  0  0  0  0  0  0  0  0
   -3.8300   12.8720   25.3900 C   0  0  0  0  0  0  0  0  0  0  0  0
   -3.3810   12.1380   24.1090 C   0  0  1  0  0  0  0  0  0  0  0  0
   -4.5780   11.5360   23.3730 C   0  0  1  0  0  0  0  0  0  0  0  0
   -4.1290   10.7660   22.2020 N   0  0  0  0  0  0  0  0  0  0  0  0
   -3.5180    9.9780   22.3620 H   0  0  0  0  0  0  0  0  0  0  0  0
   -4.4780   11.0410   20.9420 C   0  0  0  0  0  0  0  0  0  0  0  0
   -5.3900   12.2640   20.7300 C   0  0  0  0  0  0  0  0  0  0  0  0
   -4.0980   10.3700   19.9820 O   0  0  0  0  0  0  0  0  0  0  0  0
   -3.8240   10.8850   26.9480 C   0  0  0  0  0  0  0  0  0  0  0  0
   -2.6190   11.0810   27.1080 O   0  0  0  0  0  0  0  0  0  0  0  0
   -4.3160    9.8190   27.3200 O   0  0  0  0  0  0  0  0  0  0  0  0
   -2.7070   13.0520   23.2420 O   0  0  0  0  0  0  0  0  0  0  0  0
   -2.2500   13.7140   23.7660 H   0  0  0  0  0  0  0  0  0  0  0  0
   -5.3140   12.7920   27.3160 O   0  0  0  0  0  0  0  0  0  0  0  0
   -6.3300   13.7110   26.8400 C   0  0  0  0  0  0  0  0  0  0  0  0
   -7.7080   10.8740   23.7210 O   0  0  0  0  0  0  0  0  0  0  0  0
   -7.4280   11.7080   24.1070 H   0  0  0  0  0  0  0  0  0  0  0  0
  1  5  1  0  0  0  0
  1  3  1  0  0  0  0
  2  1  2  0  0  0  0
  3  4  1  0  0  0  0
  5  6  1  0  0  0  0
  6  8  1  0  0  0  0
  7  8  1  0  0  0  0
  7 11  2  0  0  0  0
  8  9  2  0  0  0  0
  9 10  1  0  0  0  0
 10 12  1  0  0  0  0
 11 10  1  0  0  0  0
 12 13  1  0  0  0  0
 14 13  1  0  0  0  0
 14 16  1  0  0  0  0
 15 14  1  0  0  0  0
 16 17  2  0  0  0  0
 18 16  1  0  0  0  0
 18 20  1  0  0  0  0
 19 18  1  0  0  0  0
 20 21  1  0  0  0  0
 21 22  1  0  0  0  0
 21 25  2  0  0  0  0
 22 23  1  0  0  0  0
 23 24  2  0  0  0  0
 25 24  1  0  0  0  0
 26  3  1  0  0  0  0
 27 26  1  6  0  0  0
 27 28  1  0  0  0  0
 28 29  1  0  0  0  0
 30 49  1  1  0  0  0
 30 27  1  0  0  0  0
 31 30  1  6  0  0  0
 31 32  1  0  0  0  0
 32 33  1  0  0  0  0
 33 42  1  1  0  0  0
 33 47  1  0  0  0  0
 34 33  1  0  0  0  0
 35 45  1  6  0  0  0
 35 34  1  0  0  0  0
 36 37  1  6  0  0  0
 36 35  1  0  0  0  0
 36 31  1  0  0  0  0
 37 38  1  0  0  0  0
 39 37  1  0  0  0  0
 40 39  1  0  0  0  0
 41 39  2  0  0  0  0
 42 43  2  0  0  0  0
 42 44  1  0  0  0  0
 45 46  1  0  0  0  0
 48 47  1  0  0  0  0
 49 50  1  0  0  0  0
M  END
>  <REMARK>
 VINA RESULT:    -5.268      0.000      0.000
 INTER + INTRA:         -13.932
 INTER:                  -9.336
 INTRA:                  -4.595
 UNBOUND:                -3.581
  Name = lig_assembled_31.pdb
  20 active torsions:
  status: ('A' for Active; 'I' for Inactive)
    1  A    between atoms: _2  and  _11
    2  A    between atoms: _3  and  _12
    3  A    between atoms: _4  and  _14
    4  A    between atoms: _6  and  _24
    5  A    between atoms: _8  and  _9
    6  A    between atoms: _8  and  _24
    7  A    between atoms: _11  and  _12
    8  A    between atoms: _14  and  _15
    9  A    between atoms: _20  and  _40
   10  A    between atoms: _22  and  _28
   11  A    between atoms: _23  and  _27
   12  A    between atoms: _27  and  _28
   13  A    between atoms: _30  and  _31
   14  A    between atoms: _32  and  _33
   15  A    between atoms: _34  and  _36
   16  A    between atoms: _36  and  _37
   17  A    between atoms: _36  and  _38
   18  A    between atoms: _38  and  _39
   19  A    between atoms: _38  and  _40
   20  A    between atoms: _41  and  _43
                            x       y       z     vdW  Elec       q    Type
                         _______ _______ _______ _____ _____    ______ ____

>  <TORSDO>
F 18

$$$$
lig_assembled_32.pdb
 OpenBabel07252309473D

 42 43  0  0  1  0  0  0  0  0999 V2000
   -2.9340   11.8520   23.0790 C   0  0  1  0  0  0  0  0  0  0  0  0
   -2.3460   12.2430   24.3300 O   0  0  0  0  0  0  0  0  0  0  0  0
   -3.0350   12.3440   24.9910 H   0  0  0  0  0  0  0  0  0  0  0  0
   -3.8290   10.6130   23.2550 C   0  0  2  0  0  0  0  0  0  0  0  0
   -3.9710   10.2080   24.7300 C   0  0  2  0  0  0  0  0  0  0  0  0
   -2.9050    9.2690   25.0410 O   0  0  0  0  0  0  0  0  0  0  0  0
   -2.8170    8.8500   26.4430 C   0  0  2  0  0  0  0  0  0  0  0  0
   -4.1740    8.2790   26.9230 C   0  0  0  0  0  0  0  0  0  0  0  0
   -5.3430    9.2290   26.5860 C   0  0  1  0  0  0  0  0  0  0  0  0
   -5.3370    9.6020   25.1030 C   0  0  1  0  0  0  0  0  0  0  0  0
   -6.4010   10.5750   24.8120 N   0  0  0  0  0  0  0  0  0  0  0  0
   -6.3540   11.4760   25.2670 H   0  0  0  0  0  0  0  0  0  0  0  0
   -7.4260   10.3460   23.9870 C   0  0  0  0  0  0  0  0  0  0  0  0
   -7.4830    8.9540   23.3290 C   0  0  0  0  0  0  0  0  0  0  0  0
   -8.2960   11.1850   23.7510 O   0  0  0  0  0  0  0  0  0  0  0  0
   -2.4090   10.0350   27.3430 C   0  0  0  0  0  0  0  0  0  0  0  0
   -2.6960   10.0330   28.5390 O   0  0  0  0  0  0  0  0  0  0  0  0
   -1.7930   10.9930   26.8730 O   0  0  0  0  0  0  0  0  0  0  0  0
   -1.8210    7.8000   26.5370 O   0  0  0  0  0  0  0  0  0  0  0  0
   -2.2910    6.5600   27.1210 C   0  0  0  0  0  0  0  0  0  0  0  0
   -6.5840    8.6000   26.9080 O   0  0  0  0  0  0  0  0  0  0  0  0
   -6.5850    8.3490   27.8350 H   0  0  0  0  0  0  0  0  0  0  0  0
   -3.3080    9.5100   22.4860 O   0  0  0  0  0  0  0  0  0  0  0  0
   -3.4190    9.6930   21.5500 H   0  0  0  0  0  0  0  0  0  0  0  0
   -3.7600   13.0000   22.5090 C   0  0  0  0  0  0  0  0  0  0  0  0
   -5.6680   14.1330   23.5950 C   0  0  0  0  0  0  0  0  0  0  0  0
   -6.4820   13.7960   22.7320 O   0  0  0  0  0  0  0  0  0  0  0  0
   -4.3750   13.8110   23.5670 N   0  0  0  0  0  0  0  0  0  0  0  0
   -3.7840   14.1420   24.3170 H   0  0  0  0  0  0  0  0  0  0  0  0
   -6.1160   14.9230   24.7000 O   0  0  0  0  0  0  0  0  0  0  0  0
   -6.9810   14.1400   25.5270 C   0  0  0  0  0  0  0  0  0  0  0  0
   -5.2840   12.8360   26.7710 N   0  0  0  0  0  0  0  0  0  0  0  0
   -6.2930   13.7630   26.7770 C   0  0  0  0  0  0  0  0  0  0  0  0
   -6.4940   14.2020   28.0670 C   0  0  0  0  0  0  0  0  0  0  0  0
   -5.5870   13.4970   28.7960 N   0  0  0  0  0  0  0  0  0  0  0  0
   -4.8600   12.6780   28.0170 N   0  0  0  0  0  0  0  0  0  0  0  0
   -5.3480   13.5490   30.2210 C   0  0  0  0  0  0  0  0  0  0  0  0
   -4.2450   14.5350   30.5790 C   0  0  0  0  0  0  0  0  0  0  0  0
   -3.0190   13.7980   31.0350 C   0  0  0  0  0  0  0  0  0  0  0  0
   -2.2090   14.2240   31.8430 O   0  0  0  0  0  0  0  0  0  0  0  0
   -2.8840   12.5910   30.4410 O   0  0  0  0  0  0  0  0  0  0  0  0
   -3.6530   12.0000   30.5530 H   0  0  0  0  0  0  0  0  0  0  0  0
  1 25  1  1  0  0  0
  1  4  1  0  0  0  0
  1  2  1  0  0  0  0
  2  3  1  0  0  0  0
  4 23  1  6  0  0  0
  5  4  1  6  0  0  0
  5  6  1  0  0  0  0
  5 10  1  0  0  0  0
  6  7  1  0  0  0  0
  7 19  1  1  0  0  0
  7  8  1  0  0  0  0
  7 16  1  0  0  0  0
  9 21  1  6  0  0  0
  9  8  1  0  0  0  0
 10 11  1  1  0  0  0
 10  9  1  0  0  0  0
 11 12  1  0  0  0  0
 13 11  1  0  0  0  0
 14 13  1  0  0  0  0
 15 13  2  0  0  0  0
 16 17  1  0  0  0  0
 18 16  2  0  0  0  0
 19 20  1  0  0  0  0
 21 22  1  0  0  0  0
 24 23  1  0  0  0  0
 25 28  1  0  0  0  0
 26 30  1  0  0  0  0
 27 26  2  0  0  0  0
 28 26  1  0  0  0  0
 28 29  1  0  0  0  0
 30 31  1  0  0  0  0
 31 33  1  0  0  0  0
 32 33  1  0  0  0  0
 32 36  2  0  0  0  0
 33 34  2  0  0  0  0
 34 35  1  0  0  0  0
 35 37  1  0  0  0  0
 36 35  1  0  0  0  0
 37 38  1  0  0  0  0
 38 39  1  0  0  0  0
 39 40  2  0  0  0  0
 41 42  1  0  0  0  0
 41 39  1  0  0  0  0
M  END
>  <REMARK>
 VINA RESULT:    -5.053      0.000      0.000
 INTER + INTRA:         -11.783
 INTER:                  -8.060
 INTRA:                  -3.723
 UNBOUND:                -2.299
  Name = lig_assembled_32.pdb
  19 active torsions:
  status: ('A' for Active; 'I' for Inactive)
    1  A    between atoms: _2  and  _9
    2  A    between atoms: _4  and  _17
    3  A    between atoms: _5  and  _10
    4  A    between atoms: _5  and  _11
    5  A    between atoms: _6  and  _7
    6  A    between atoms: _6  and  _17
    7  A    between atoms: _9  and  _10
    8  A    between atoms: _13  and  _33
    9  A    between atoms: _15  and  _21
   10  A    between atoms: _16  and  _20
   11  A    between atoms: _20  and  _21
   12  A    between atoms: _23  and  _24
   13  A    between atoms: _25  and  _26
   14  A    between atoms: _27  and  _29
   15  A    between atoms: _29  and  _30
   16  A    between atoms: _29  and  _31
   17  A    between atoms: _31  and  _32
   18  A    between atoms: _31  and  _33
   19  A    between atoms: _34  and  _36
                            x       y       z     vdW  Elec       q    Type
                         _______ _______ _______ _____ _____    ______ ____

>  <TORSDO>
F 17

$$$$
lig_assembled_33.pdb
 OpenBabel07252309473D

 45 46  0  0  1  0  0  0  0  0999 V2000
   -2.0860    8.0720   27.7610 C   0  0  1  0  0  0  0  0  0  0  0  0
   -2.1330    9.4870   27.5140 O   0  0  0  0  0  0  0  0  0  0  0  0
   -1.8680    9.6630   26.6080 H   0  0  0  0  0  0  0  0  0  0  0  0
   -2.9460    7.6990   28.9810 C   0  0  2  0  0  0  0  0  0  0  0  0
   -3.8910    8.8370   29.3920 C   0  0  2  0  0  0  0  0  0  0  0  0
   -3.1160    9.8150   30.1380 O   0  0  0  0  0  0  0  0  0  0  0  0
   -3.8340   11.0320   30.5250 C   0  0  2  0  0  0  0  0  0  0  0  0
   -5.1200   10.6750   31.3110 C   0  0  0  0  0  0  0  0  0  0  0  0
   -5.9630    9.6140   30.5720 C   0  0  1  0  0  0  0  0  0  0  0  0
   -5.1160    8.3920   30.2140 C   0  0  1  0  0  0  0  0  0  0  0  0
   -5.9070    7.4270   29.4350 N   0  0  0  0  0  0  0  0  0  0  0  0
   -6.2720    7.7280   28.5420 H   0  0  0  0  0  0  0  0  0  0  0  0
   -6.1740    6.1800   29.8300 C   0  0  0  0  0  0  0  0  0  0  0  0
   -5.6260    5.7600   31.2070 C   0  0  0  0  0  0  0  0  0  0  0  0
   -6.8270    5.3880   29.1490 O   0  0  0  0  0  0  0  0  0  0  0  0
   -4.2050   11.8670   29.2820 C   0  0  0  0  0  0  0  0  0  0  0  0
   -3.4420   11.9160   28.3180 O   0  0  0  0  0  0  0  0  0  0  0  0
   -5.2660   12.4920   29.2430 O   0  0  0  0  0  0  0  0  0  0  0  0
   -7.0540    9.2050   31.3970 O   0  0  0  0  0  0  0  0  0  0  0  0
   -6.7390    8.5920   32.0650 H   0  0  0  0  0  0  0  0  0  0  0  0
   -2.9680   11.8080   31.3940 O   0  0  0  0  0  0  0  0  0  0  0  0
   -3.6560   12.5980   32.3970 C   0  0  0  0  0  0  0  0  0  0  0  0
   -2.1020    7.3290   30.0890 O   0  0  0  0  0  0  0  0  0  0  0  0
   -1.1820    7.4640   29.8500 H   0  0  0  0  0  0  0  0  0  0  0  0
   -2.5820    7.3120   26.5360 C   0  0  0  0  0  0  0  0  0  0  0  0
   -4.8700    7.8440   25.7690 C   0  0  0  0  0  0  0  0  0  0  0  0
   -5.3980    6.9300   26.4070 O   0  0  0  0  0  0  0  0  0  0  0  0
   -3.5600    8.0910   25.7660 N   0  0  0  0  0  0  0  0  0  0  0  0
   -3.2210    8.8590   25.2030 H   0  0  0  0  0  0  0  0  0  0  0  0
   -5.6940    8.7010   24.9740 O   0  0  0  0  0  0  0  0  0  0  0  0
   -5.6450    8.2770   23.6080 C   0  0  0  0  0  0  0  0  0  0  0  0
   -3.5330    8.9880   22.5340 N   0  0  0  0  0  0  0  0  0  0  0  0
   -4.8550    9.2260   22.8030 C   0  0  0  0  0  0  0  0  0  0  0  0
   -5.2250   10.4190   22.2190 C   0  0  0  0  0  0  0  0  0  0  0  0
   -4.0870   10.8480   21.6060 N   0  0  0  0  0  0  0  0  0  0  0  0
   -3.0680    9.9960   21.8110 N   0  0  0  0  0  0  0  0  0  0  0  0
   -3.8870   12.0520   20.8250 C   0  0  0  0  0  0  0  0  0  0  0  0
   -3.2640   13.1750   21.6510 C   0  0  0  0  0  0  0  0  0  0  0  0
   -4.2990   13.9490   22.4710 C   0  0  0  0  0  0  0  0  0  0  0  0
   -4.2810   13.4650   23.9230 C   0  0  0  0  0  0  0  0  0  0  0  0
   -2.9070   12.9680   24.3640 C   0  0  0  0  0  0  0  0  0  0  0  0
   -2.9970   11.5970   24.9980 C   0  0  0  0  0  0  0  0  0  0  0  0
   -2.0900   10.7830   25.0540 O   0  0  0  0  0  0  0  0  0  0  0  0
   -4.2200   11.3520   25.5220 O   0  0  0  0  0  0  0  0  0  0  0  0
   -4.7560   12.1530   25.6650 H   0  0  0  0  0  0  0  0  0  0  0  0
  1 25  1  6  0  0  0
  1  4  1  0  0  0  0
  2  1  1  0  0  0  0
  3  2  1  0  0  0  0
  4 23  1  1  0  0  0
  5  4  1  1  0  0  0
  5  6  1  0  0  0  0
  5 10  1  0  0  0  0
  6  7  1  0  0  0  0
  7 16  1  6  0  0  0
  7  8  1  0  0  0  0
  7 21  1  0  0  0  0
  9  8  1  0  0  0  0
  9 19  1  1  0  0  0
 10 11  1  6  0  0  0
 10  9  1  0  0  0  0
 11 13  1  0  0  0  0
 12 11  1  0  0  0  0
 13 14  1  0  0  0  0
 15 13  2  0  0  0  0
 17 16  2  0  0  0  0
 18 16  1  0  0  0  0
 19 20  1  0  0  0  0
 21 22  1  0  0  0  0
 24 23  1  0  0  0  0
 26 27  2  0  0  0  0
 28 26  1  0  0  0  0
 28 25  1  0  0  0  0
 29 28  1  0  0  0  0
 30 26  1  0  0  0  0
 31 30  1  0  0  0  0
 32 33  1  0  0  0  0
 33 31  1  0  0  0  0
 34 33  2  0  0  0  0
 35 36  1  0  0  0  0
 35 34  1  0  0  0  0
 36 32  2  0  0  0  0
 37 35  1  0  0  0  0
 37 38  1  0  0  0  0
 38 39  1  0  0  0  0
 39 40  1  0  0  0  0
 40 41  1  0  0  0  0
 41 42  1  0  0  0  0
 42 43  2  0  0  0  0
 42 44  1  0  0  0  0
 44 45  1  0  0  0  0
M  END
>  <REMARK>
 VINA RESULT:    -4.118      0.000      0.000
 INTER + INTRA:         -12.948
 INTER:                  -8.052
 INTRA:                  -4.896
 UNBOUND:                -4.498
  Name = lig_assembled_33.pdb
  22 active torsions:
  status: ('A' for Active; 'I' for Inactive)
    1  A    between atoms: _2  and  _9
    2  A    between atoms: _4  and  _20
    3  A    between atoms: _5  and  _13
    4  A    between atoms: _5  and  _14
    5  A    between atoms: _6  and  _7
    6  A    between atoms: _6  and  _20
    7  A    between atoms: _9  and  _10
    8  A    between atoms: _10  and  _11
    9  A    between atoms: _11  and  _12
   10  A    between atoms: _12  and  _13
   11  A    between atoms: _16  and  _36
   12  A    between atoms: _18  and  _24
   13  A    between atoms: _19  and  _23
   14  A    between atoms: _23  and  _24
   15  A    between atoms: _26  and  _27
   16  A    between atoms: _28  and  _29
   17  A    between atoms: _30  and  _32
   18  A    between atoms: _32  and  _33
   19  A    between atoms: _32  and  _34
   20  A    between atoms: _34  and  _35
   21  A    between atoms: _34  and  _36
   22  A    between atoms: _37  and  _39
                            x       y       z     vdW  Elec       q    Type
                         _______ _______ _______ _____ _____    ______ ____

>  <TORSDO>
F 20

$$$$
lig_assembled_34.pdb
 OpenBabel07252309473D

 62 67  0  0  1  0  0  0  0  0999 V2000
   -8.6760   12.3700   21.8010 N   0  0  0  0  0  0  0  0  0  0  0  0
   -7.5450   12.1890   22.5440 C   0  0  0  0  0  0  0  0  0  0  0  0
   -6.4990   11.9070   21.7010 C   0  0  0  0  0  0  0  0  0  0  0  0
   -7.0280   11.9520   20.4290 N   0  0  0  0  0  0  0  0  0  0  0  0
   -8.3610   12.2100   20.5180 N   0  0  0  0  0  0  0  0  0  0  0  0
   -6.3440   11.8130   19.1910 C   0  0  0  0  0  0  0  0  0  0  0  0
   -7.0580   11.4540   18.0430 C   0  0  0  0  0  0  0  0  0  0  0  0
   -6.4260   11.1730   16.8070 C   0  0  0  0  0  0  0  0  0  0  0  0
   -5.0290   11.3340   16.7140 C   0  0  0  0  0  0  0  0  0  0  0  0
   -4.3190   11.7460   17.8680 C   0  0  0  0  0  0  0  0  0  0  0  0
   -4.9610   11.9670   19.0990 C   0  0  0  0  0  0  0  0  0  0  0  0
   -4.2140   11.0230   15.4940 C   0  0  0  0  0  0  0  0  0  0  0  0
   -3.9470   11.9570   14.5370 C   0  0  0  0  0  0  0  0  0  0  0  0
   -4.4840   13.3230   14.5900 C   0  0  0  0  0  0  0  0  0  0  0  0
   -4.3660   14.1630   13.5510 C   0  0  0  0  0  0  0  0  0  0  0  0
   -3.6530   13.7470   12.3200 C   0  0  0  0  0  0  0  0  0  0  0  0
   -3.5940   14.4830   11.3380 O   0  0  0  0  0  0  0  0  0  0  0  0
   -2.9530   12.4480   12.3450 C   0  0  0  0  0  0  0  0  0  0  0  0
   -3.0670   11.6310   13.3990 C   0  0  0  0  0  0  0  0  0  0  0  0
   -2.2810   10.4890   13.4350 O   0  0  0  0  0  0  0  0  0  0  0  0
   -2.5660    9.5270   14.3670 C   0  0  0  0  0  0  0  0  0  0  0  0
   -1.8070    8.3580   14.3010 C   0  0  0  0  0  0  0  0  0  0  0  0
   -2.0810    7.3200   15.1780 C   0  0  0  0  0  0  0  0  0  0  0  0
   -3.1520    7.4060   16.0610 C   0  0  0  0  0  0  0  0  0  0  0  0
   -3.8950    8.5880   16.1240 C   0  0  0  0  0  0  0  0  0  0  0  0
   -3.5700    9.6900   15.3190 C   0  0  0  0  0  0  0  0  0  0  0  0
   -1.2690    6.2250   15.1560 O   0  0  0  0  0  0  0  0  0  0  0  0
   -1.7750    5.4920   14.7660 H   0  0  0  0  0  0  0  0  0  0  0  0
   -7.3140   10.6410   15.6990 C   0  0  0  0  0  0  0  0  0  0  0  0
   -7.4780    9.3780   15.6720 O   0  0  0  0  0  0  0  0  0  0  0  0
   -7.7640   11.4590   14.8450 O   0  0  0  0  0  0  0  0  0  0  0  0
   -7.5380   12.3000   24.0160 C   0  0  0  0  0  0  0  0  0  0  0  0
   -8.3990   11.3200   24.6020 O   0  0  0  0  0  0  0  0  0  0  0  0
   -8.3240   11.4100   26.0270 C   0  0  0  0  0  0  0  0  0  0  0  0
   -8.6800   10.4450   26.7080 O   0  0  0  0  0  0  0  0  0  0  0  0
   -7.8630   12.5520   26.5380 N   0  0  0  0  0  0  0  0  0  0  0  0
   -7.5860   13.2840   25.8980 H   0  0  0  0  0  0  0  0  0  0  0  0
   -7.7330   12.8070   27.9780 C   0  0  0  0  0  0  0  0  0  0  0  0
   -6.2970   13.1430   28.3690 C   0  0  1  0  0  0  0  0  0  0  0  0
   -6.2910   14.0760   29.4620 O   0  0  0  0  0  0  0  0  0  0  0  0
   -6.0590   14.9490   29.1370 H   0  0  0  0  0  0  0  0  0  0  0  0
   -5.5520   11.8510   28.7440 C   0  0  2  0  0  0  0  0  0  0  0  0
   -4.3650   11.5760   27.8090 C   0  0  2  0  0  0  0  0  0  0  0  0
   -4.8970   11.2010   26.5090 O   0  0  0  0  0  0  0  0  0  0  0  0
   -3.9030   11.0020   25.4500 C   0  0  2  0  0  0  0  0  0  0  0  0
   -2.8360    9.9720   25.8960 C   0  0  0  0  0  0  0  0  0  0  0  0
   -2.2630   10.3120   27.2880 C   0  0  1  0  0  0  0  0  0  0  0  0
   -3.3840   10.5000   28.3110 C   0  0  1  0  0  0  0  0  0  0  0  0
   -2.8300   10.9090   29.6120 N   0  0  0  0  0  0  0  0  0  0  0  0
   -2.3880   11.8150   29.6730 H   0  0  0  0  0  0  0  0  0  0  0  0
   -2.8740   10.1600   30.7170 C   0  0  0  0  0  0  0  0  0  0  0  0
   -3.5310    8.7730   30.5850 C   0  0  0  0  0  0  0  0  0  0  0  0
   -2.4150   10.5340   31.7970 O   0  0  0  0  0  0  0  0  0  0  0  0
   -3.2140   12.3340   25.0890 C   0  0  0  0  0  0  0  0  0  0  0  0
   -3.8880   13.3270   24.8160 O   0  0  0  0  0  0  0  0  0  0  0  0
   -1.9850   12.4170   25.0720 O   0  0  0  0  0  0  0  0  0  0  0  0
   -1.4000    9.2610   27.7240 O   0  0  0  0  0  0  0  0  0  0  0  0
   -1.5170    9.1190   28.6660 H   0  0  0  0  0  0  0  0  0  0  0  0
   -4.5880   10.4750   24.2840 O   0  0  0  0  0  0  0  0  0  0  0  0
   -3.7190   10.0340   23.2110 C   0  0  0  0  0  0  0  0  0  0  0  0
   -6.4610   10.7320   28.7340 O   0  0  0  0  0  0  0  0  0  0  0  0
   -6.8260   10.6240   27.8530 H   0  0  0  0  0  0  0  0  0  0  0  0
  1  2  1  0  0  0  0
  2 32  1  0  0  0  0
  3  2  2  0  0  0  0
  4  5  1  0  0  0  0
  4  3  1  0  0  0  0
  5  1  2  0  0  0  0
  6  4  1  0  0  0  0
  7  6  2  0  0  0  0
  8  7  1  0  0  0  0
  9  8  2  0  0  0  0
  9 10  1  0  0  0  0
 10 11  2  0  0  0  0
 11  6  1  0  0  0  0
 12  9  1  0  0  0  0
 13 14  1  0  0  0  0
 13 12  2  0  0  0  0
 15 14  2  0  0  0  0
 16 18  1  0  0  0  0
 16 15  1  0  0  0  0
 17 16  2  0  0  0  0
 18 19  2  0  0  0  0
 19 20  1  0  0  0  0
 19 13  1  0  0  0  0
 20 21  1  0  0  0  0
 21 26  2  0  0  0  0
 22 21  1  0  0  0  0
 22 23  1  0  0  0  0
 23 24  2  0  0  0  0
 24 25  1  0  0  0  0
 26 12  1  0  0  0  0
 26 25  1  0  0  0  0
 27 23  1  0  0  0  0
 28 27  1  0  0  0  0
 29  8  1  0  0  0  0
 30 29  1  0  0  0  0
 31 29  2  0  0  0  0
 32 33  1  0  0  0  0
 33 34  1  0  0  0  0
 34 36  1  0  0  0  0
 34 35  2  0  0  0  0
 36 38  1  0  0  0  0
 37 36  1  0  0  0  0
 39 38  1  1  0  0  0
 39 42  1  0  0  0  0
 39 40  1  0  0  0  0
 41 40  1  0  0  0  0
 42 61  1  6  0  0  0
 43 48  1  0  0  0  0
 43 42  1  1  0  0  0
 44 43  1  0  0  0  0
 45 59  1  6  0  0  0
 45 46  1  0  0  0  0
 45 44  1  0  0  0  0
 46 47  1  0  0  0  0
 47 57  1  1  0  0  0
 47 48  1  0  0  0  0
 48 49  1  1  0  0  0
 49 50  1  0  0  0  0
 49 51  1  0  0  0  0
 51 53  2  0  0  0  0
 52 51  1  0  0  0  0
 54 45  1  0  0  0  0
 55 54  2  0  0  0  0
 56 54  1  0  0  0  0
 57 58  1  0  0  0  0
 60 59  1  0  0  0  0
 62 61  1  0  0  0  0
M  END
>  <REMARK>
 VINA RESULT:    -6.298      0.000      0.000
 INTER + INTRA:         -15.217
 INTER:                 -11.401
 INTRA:                  -3.817
 UNBOUND:                -3.396
  Name = lig_assembled_34.pdb
  19 active torsions:
  status: ('A' for Active; 'I' for Inactive)
    1  A    between atoms: _2  and  _9
    2  A    between atoms: _4  and  _37
    3  A    between atoms: _6  and  _7
    4  A    between atoms: _6  and  _37
    5  A    between atoms: _11  and  _12
    6  A    between atoms: _13  and  _14
    7  A    between atoms: _18  and  _31
    8  A    between atoms: _33  and  _53
    9  A    between atoms: _35  and  _41
   10  A    between atoms: _36  and  _40
   11  A    between atoms: _40  and  _41
   12  A    between atoms: _43  and  _44
   13  A    between atoms: _45  and  _46
   14  A    between atoms: _47  and  _49
   15  A    between atoms: _49  and  _50
   16  A    between atoms: _49  and  _51
   17  A    between atoms: _51  and  _52
   18  A    between atoms: _51  and  _53
   19  A    between atoms: _54  and  _56
                            x       y       z     vdW  Elec       q    Type
                         _______ _______ _______ _____ _____    ______ ____

>  <TORSDO>
F 17

$$$$
lig_assembled_35.pdb
 OpenBabel07252309473D

 42 43  0  0  1  0  0  0  0  0999 V2000
   -4.5370   11.8310   25.6510 C   0  0  1  0  0  0  0  0  0  0  0  0
   -3.5140   10.8950   25.2730 O   0  0  0  0  0  0  0  0  0  0  0  0
   -3.9000   10.1950   24.7410 H   0  0  0  0  0  0  0  0  0  0  0  0
   -4.4420   12.1750   27.1470 C   0  0  2  0  0  0  0  0  0  0  0  0
   -3.7200   11.0800   27.9470 C   0  0  2  0  0  0  0  0  0  0  0  0
   -4.2980    9.7990   27.5740 O   0  0  0  0  0  0  0  0  0  0  0  0
   -3.6570    8.6190   28.1640 C   0  0  2  0  0  0  0  0  0  0  0  0
   -3.6110    8.7430   29.7060 C   0  0  0  0  0  0  0  0  0  0  0  0
   -3.0330   10.1030   30.1510 C   0  0  1  0  0  0  0  0  0  0  0  0
   -3.7710   11.2600   29.4760 C   0  0  1  0  0  0  0  0  0  0  0  0
   -3.1550   12.5460   29.8400 N   0  0  0  0  0  0  0  0  0  0  0  0
   -2.2120   12.7240   29.5250 H   0  0  0  0  0  0  0  0  0  0  0  0
   -3.7620   13.4930   30.5600 C   0  0  0  0  0  0  0  0  0  0  0  0
   -5.1890   13.1810   31.0480 C   0  0  0  0  0  0  0  0  0  0  0  0
   -3.2270   14.5670   30.8380 O   0  0  0  0  0  0  0  0  0  0  0  0
   -2.2250    8.4440   27.6170 C   0  0  0  0  0  0  0  0  0  0  0  0
   -1.3200    8.0670   28.3600 O   0  0  0  0  0  0  0  0  0  0  0  0
   -1.9750    8.6780   26.4340 O   0  0  0  0  0  0  0  0  0  0  0  0
   -4.4560    7.4570   27.8220 O   0  0  0  0  0  0  0  0  0  0  0  0
   -5.6950    7.3260   28.5640 C   0  0  0  0  0  0  0  0  0  0  0  0
   -3.1490   10.2350   31.5690 O   0  0  0  0  0  0  0  0  0  0  0  0
   -2.6140    9.5630   31.9980 H   0  0  0  0  0  0  0  0  0  0  0  0
   -5.7590   12.3990   27.6900 O   0  0  0  0  0  0  0  0  0  0  0  0
   -6.3250   11.6540   27.4750 H   0  0  0  0  0  0  0  0  0  0  0  0
   -4.4080   13.1070   24.8260 C   0  0  0  0  0  0  0  0  0  0  0  0
   -4.0920   13.2960   22.3820 C   0  0  0  0  0  0  0  0  0  0  0  0
   -5.1480   13.9050   22.1980 O   0  0  0  0  0  0  0  0  0  0  0  0
   -3.6700   12.8790   23.5770 N   0  0  0  0  0  0  0  0  0  0  0  0
   -2.7940   12.3780   23.6250 H   0  0  0  0  0  0  0  0  0  0  0  0
   -3.2550   13.0040   21.2610 O   0  0  0  0  0  0  0  0  0  0  0  0
   -3.8540   11.9710   20.4740 C   0  0  0  0  0  0  0  0  0  0  0  0
   -2.9610   10.1920   21.9440 N   0  0  0  0  0  0  0  0  0  0  0  0
   -4.0220   10.7460   21.2790 C   0  0  0  0  0  0  0  0  0  0  0  0
   -5.1440    9.9800   21.5050 C   0  0  0  0  0  0  0  0  0  0  0  0
   -4.7040    8.9850   22.3290 N   0  0  0  0  0  0  0  0  0  0  0  0
   -3.3870    9.1050   22.5720 N   0  0  0  0  0  0  0  0  0  0  0  0
   -5.4310    7.8720   22.9070 C   0  0  1  0  0  0  0  0  0  0  0  0
   -4.8560    6.5400   22.4350 C   0  0  0  0  0  0  0  0  0  0  0  0
   -5.4840    7.9690   24.4180 C   0  0  0  0  0  0  0  0  0  0  0  0
   -6.5170    8.0110   25.0730 O   0  0  0  0  0  0  0  0  0  0  0  0
   -4.2690    8.0360   25.0170 O   0  0  0  0  0  0  0  0  0  0  0  0
   -3.7070    8.7940   24.7560 H   0  0  0  0  0  0  0  0  0  0  0  0
  1 25  1  6  0  0  0
  1  4  1  0  0  0  0
  2  1  1  0  0  0  0
  3  2  1  0  0  0  0
  4 23  1  1  0  0  0
  5  4  1  6  0  0  0
  5 10  1  0  0  0  0
  6  5  1  0  0  0  0
  6  7  1  0  0  0  0
  7 16  1  6  0  0  0
  7  8  1  0  0  0  0
  8  9  1  0  0  0  0
  9 21  1  1  0  0  0
 10 11  1  6  0  0  0
 10  9  1  0  0  0  0
 11 13  1  0  0  0  0
 12 11  1  0  0  0  0
 13 15  2  0  0  0  0
 13 14  1  0  0  0  0
 16 17  1  0  0  0  0
 18 16  2  0  0  0  0
 19  7  1  0  0  0  0
 19 20  1  0  0  0  0
 21 22  1  0  0  0  0
 24 23  1  0  0  0  0
 26 28  1  0  0  0  0
 27 26  2  0  0  0  0
 28 29  1  0  0  0  0
 28 25  1  0  0  0  0
 30 26  1  0  0  0  0
 31 30  1  0  0  0  0
 31 33  1  0  0  0  0
 32 36  2  0  0  0  0
 33 34  2  0  0  0  0
 33 32  1  0  0  0  0
 34 35  1  0  0  0  0
 35 36  1  0  0  0  0
 35 37  1  0  0  0  0
 37 38  1  1  0  0  0
 37 39  1  0  0  0  0
 39 41  1  0  0  0  0
 39 40  2  0  0  0  0
 42 41  1  0  0  0  0
M  END
>  <REMARK>
 VINA RESULT:    -4.541      0.000      0.000
 INTER + INTRA:         -11.978
 INTER:                  -8.187
 INTRA:                  -3.791
 UNBOUND:                -3.721
  Name = lig_assembled_35.pdb
  19 active torsions:
  status: ('A' for Active; 'I' for Inactive)
    1  A    between atoms: _2  and  _9
    2  A    between atoms: _4  and  _17
    3  A    between atoms: _5  and  _9
    4  A    between atoms: _5  and  _11
    5  A    between atoms: _6  and  _7
    6  A    between atoms: _6  and  _17
    7  A    between atoms: _9  and  _10
    8  A    between atoms: _13  and  _33
    9  A    between atoms: _15  and  _21
   10  A    between atoms: _16  and  _20
   11  A    between atoms: _20  and  _21
   12  A    between atoms: _23  and  _24
   13  A    between atoms: _25  and  _26
   14  A    between atoms: _27  and  _29
   15  A    between atoms: _29  and  _30
   16  A    between atoms: _29  and  _31
   17  A    between atoms: _31  and  _32
   18  A    between atoms: _31  and  _33
   19  A    between atoms: _34  and  _36
                            x       y       z     vdW  Elec       q    Type
                         _______ _______ _______ _____ _____    ______ ____

>  <TORSDO>
F 16

$$$$
lig_assembled_36.pdb
 OpenBabel07252309473D

 45 47  0  0  1  0  0  0  0  0999 V2000
   -3.0550   11.5580   25.3630 C   0  0  1  0  0  0  0  0  0  0  0  0
   -1.9280   10.6660   25.3590 O   0  0  0  0  0  0  0  0  0  0  0  0
   -1.5880   10.5750   26.2530 H   0  0  0  0  0  0  0  0  0  0  0  0
   -3.4600   11.9260   26.8010 C   0  0  2  0  0  0  0  0  0  0  0  0
   -3.2420   10.7620   27.7790 C   0  0  2  0  0  0  0  0  0  0  0  0
   -3.8310    9.5690   27.1920 O   0  0  0  0  0  0  0  0  0  0  0  0
   -3.6260    8.3260   27.9430 C   0  0  2  0  0  0  0  0  0  0  0  0
   -4.1160    8.4880   29.4020 C   0  0  0  0  0  0  0  0  0  0  0  0
   -3.5410    9.7610   30.0580 C   0  0  1  0  0  0  0  0  0  0  0  0
   -3.8080   10.9930   29.1920 C   0  0  1  0  0  0  0  0  0  0  0  0
   -3.1800   12.1850   29.7840 N   0  0  0  0  0  0  0  0  0  0  0  0
   -2.1710   12.2090   29.8390 H   0  0  0  0  0  0  0  0  0  0  0  0
   -3.8560   13.2360   30.2550 C   0  0  0  0  0  0  0  0  0  0  0  0
   -5.3920   13.1580   30.1820 C   0  0  0  0  0  0  0  0  0  0  0  0
   -3.3020   14.2280   30.7320 O   0  0  0  0  0  0  0  0  0  0  0  0
   -2.1370    7.9250   27.9400 C   0  0  0  0  0  0  0  0  0  0  0  0
   -1.6440    7.3620   28.9170 O   0  0  0  0  0  0  0  0  0  0  0  0
   -1.4270    8.1640   26.9620 O   0  0  0  0  0  0  0  0  0  0  0  0
   -4.4130    7.2850   27.3090 O   0  0  0  0  0  0  0  0  0  0  0  0
   -5.0090    6.3270   28.2210 C   0  0  0  0  0  0  0  0  0  0  0  0
   -4.1340    9.9510   31.3430 O   0  0  0  0  0  0  0  0  0  0  0  0
   -3.8840    9.2280   31.9220 H   0  0  0  0  0  0  0  0  0  0  0  0
   -4.8360   12.3520   26.8360 O   0  0  0  0  0  0  0  0  0  0  0  0
   -4.8800   13.2730   27.1040 H   0  0  0  0  0  0  0  0  0  0  0  0
   -2.7180   12.8270   24.5880 C   0  0  0  0  0  0  0  0  0  0  0  0
   -4.5870   13.1440   23.0030 C   0  0  0  0  0  0  0  0  0  0  0  0
   -5.3970   13.4640   23.8760 O   0  0  0  0  0  0  0  0  0  0  0  0
   -3.3150   12.8240   23.2470 N   0  0  0  0  0  0  0  0  0  0  0  0
   -2.7300   12.5660   22.4650 H   0  0  0  0  0  0  0  0  0  0  0  0
   -5.0150   13.1020   21.6390 O   0  0  0  0  0  0  0  0  0  0  0  0
   -3.9150   12.7300   20.8040 C   0  0  0  0  0  0  0  0  0  0  0  0
   -4.3850   10.3820   20.1700 N   0  0  0  0  0  0  0  0  0  0  0  0
   -4.3370   11.7080   19.8280 C   0  0  0  0  0  0  0  0  0  0  0  0
   -4.7500   11.8520   18.5230 C   0  0  0  0  0  0  0  0  0  0  0  0
   -5.1250   10.5920   18.1600 N   0  0  0  0  0  0  0  0  0  0  0  0
   -4.8530    9.7030   19.1330 N   0  0  0  0  0  0  0  0  0  0  0  0
   -5.7580   10.1690   16.9270 C   0  0  0  0  0  0  0  0  0  0  0  0
   -4.7620    9.5160   15.9960 C   0  0  0  0  0  0  0  0  0  0  0  0
   -5.0110    8.2470   15.4510 C   0  0  0  0  0  0  0  0  0  0  0  0
   -4.0860    7.6520   14.5870 C   0  0  0  0  0  0  0  0  0  0  0  0
   -2.8990    8.3150   14.2600 C   0  0  0  0  0  0  0  0  0  0  0  0
   -2.6330    9.5680   14.8170 C   0  0  0  0  0  0  0  0  0  0  0  0
   -3.5560   10.1620   15.6830 C   0  0  0  0  0  0  0  0  0  0  0  0
   -1.9610    7.7110   13.3560 C   0  0  0  0  0  0  0  0  0  0  0  0
   -1.2040    7.2140   12.6320 N   0  0  0  0  0  0  0  0  0  0  0  0
  1 25  1  6  0  0  0
  1  4  1  0  0  0  0
  2  1  1  0  0  0  0
  2  3  1  0  0  0  0
  4 23  1  6  0  0  0
  5  4  1  6  0  0  0
  5 10  1  0  0  0  0
  6  5  1  0  0  0  0
  6  7  1  0  0  0  0
  7 19  1  6  0  0  0
  7  8  1  0  0  0  0
  8  9  1  0  0  0  0
  9 21  1  1  0  0  0
 10 11  1  1  0  0  0
 10  9  1  0  0  0  0
 11 12  1  0  0  0  0
 11 13  1  0  0  0  0
 13 15  2  0  0  0  0
 14 13  1  0  0  0  0
 16  7  1  0  0  0  0
 16 17  1  0  0  0  0
 18 16  2  0  0  0  0
 19 20  1  0  0  0  0
 21 22  1  0  0  0  0
 23 24  1  0  0  0  0
 26 28  1  0  0  0  0
 26 27  2  0  0  0  0
 28 25  1  0  0  0  0
 29 28  1  0  0  0  0
 30 26  1  0  0  0  0
 31 30  1  0  0  0  0
 33 32  1  0  0  0  0
 33 31  1  0  0  0  0
 34 33  2  0  0  0  0
 35 34  1  0  0  0  0
 35 36  1  0  0  0  0
 36 32  2  0  0  0  0
 37 35  1  0  0  0  0
 38 37  1  0  0  0  0
 39 38  2  0  0  0  0
 40 39  1  0  0  0  0
 41 40  2  0  0  0  0
 41 42  1  0  0  0  0
 42 43  2  0  0  0  0
 43 38  1  0  0  0  0
 44 41  1  0  0  0  0
 45 44  3  0  0  0  0
M  END
>  <REMARK>
 VINA RESULT:    -5.253      0.000      0.000
 INTER + INTRA:         -12.417
 INTER:                 -10.224
 INTRA:                  -2.192
 UNBOUND:                -2.711
  Name = lig_assembled_36.pdb
  18 active torsions:
  status: ('A' for Active; 'I' for Inactive)
    1  A    between atoms: _2  and  _10
    2  A    between atoms: _5  and  _21
    3  A    between atoms: _7  and  _8
    4  A    between atoms: _7  and  _21
    5  A    between atoms: _10  and  _11
    6  A    between atoms: _14  and  _15
    7  A    between atoms: _17  and  _37
    8  A    between atoms: _19  and  _25
    9  A    between atoms: _20  and  _24
   10  A    between atoms: _24  and  _25
   11  A    between atoms: _27  and  _28
   12  A    between atoms: _29  and  _30
   13  A    between atoms: _31  and  _33
   14  A    between atoms: _33  and  _34
   15  A    between atoms: _33  and  _35
   16  A    between atoms: _35  and  _36
   17  A    between atoms: _35  and  _37
   18  A    between atoms: _38  and  _40
                            x       y       z     vdW  Elec       q    Type
                         _______ _______ _______ _____ _____    ______ ____

>  <TORSDO>
F 16

$$$$
lig_assembled_37.pdb
 OpenBabel07252309473D

 48 50  0  0  1  0  0  0  0  0999 V2000
   -3.1840   11.3460   27.8230 C   0  0  0  0  0  0  0  0  0  0  0  0
   -2.5240    9.5820   26.2230 C   0  0  0  0  0  0  0  0  0  0  0  0
   -1.3170    9.8100   26.3260 O   0  0  0  0  0  0  0  0  0  0  0  0
   -3.4680   10.2560   26.8810 N   0  0  0  0  0  0  0  0  0  0  0  0
   -4.4330   10.0020   26.7240 H   0  0  0  0  0  0  0  0  0  0  0  0
   -2.9630    8.5410   25.3470 O   0  0  0  0  0  0  0  0  0  0  0  0
   -4.3650    8.3260   25.5250 C   0  0  0  0  0  0  0  0  0  0  0  0
   -5.7830   10.2160   24.7750 N   0  0  0  0  0  0  0  0  0  0  0  0
   -5.1320    9.0440   24.4900 C   0  0  0  0  0  0  0  0  0  0  0  0
   -5.3320    8.7290   23.1650 C   0  0  0  0  0  0  0  0  0  0  0  0
   -6.1350    9.7300   22.7030 N   0  0  0  0  0  0  0  0  0  0  0  0
   -6.3880   10.6310   23.6700 N   0  0  0  0  0  0  0  0  0  0  0  0
   -6.6500    9.9520   21.3660 C   0  0  1  0  0  0  0  0  0  0  0  0
   -7.6710   11.0890   21.3430 C   0  0  0  0  0  0  0  0  0  0  0  0
   -5.5310   10.2330   20.3890 C   0  0  0  0  0  0  0  0  0  0  0  0
   -4.8150    9.3680   19.8980 O   0  0  0  0  0  0  0  0  0  0  0  0
   -5.4260   11.5650   20.1330 O   0  0  0  0  0  0  0  0  0  0  0  0
   -4.1240   12.1420   20.3150 C   0  0  0  0  0  0  0  0  0  0  0  0
   -3.9290   12.5270   21.7590 C   0  0  0  0  0  0  0  0  0  0  0  0
   -4.6450   13.5980   22.3120 C   0  0  0  0  0  0  0  0  0  0  0  0
   -4.4860   13.9380   23.6560 C   0  0  0  0  0  0  0  0  0  0  0  0
   -3.6080   13.2130   24.4610 C   0  0  0  0  0  0  0  0  0  0  0  0
   -2.8860   12.1510   23.9210 C   0  0  0  0  0  0  0  0  0  0  0  0
   -3.0430   11.8110   22.5750 C   0  0  0  0  0  0  0  0  0  0  0  0
   -4.4340   12.1570   28.1490 C   0  0  1  0  0  0  0  0  0  0  0  0
   -5.5970   11.5040   27.6130 O   0  0  0  0  0  0  0  0  0  0  0  0
   -6.3730   11.7730   28.1100 H   0  0  0  0  0  0  0  0  0  0  0  0
   -4.5530   12.3280   29.6730 C   0  0  2  0  0  0  0  0  0  0  0  0
   -4.1890   11.0420   30.4290 C   0  0  2  0  0  0  0  0  0  0  0  0
   -5.3780   10.2080   30.4920 O   0  0  0  0  0  0  0  0  0  0  0  0
   -5.1930    8.8830   31.0910 C   0  0  2  0  0  0  0  0  0  0  0  0
   -4.5680    9.0100   32.5020 C   0  0  0  0  0  0  0  0  0  0  0  0
   -3.3170    9.9140   32.4920 C   0  0  1  0  0  0  0  0  0  0  0  0
   -3.6230   11.2650   31.8440 C   0  0  1  0  0  0  0  0  0  0  0  0
   -2.4030   12.0850   31.7620 N   0  0  0  0  0  0  0  0  0  0  0  0
   -1.6170   11.7100   31.2500 H   0  0  0  0  0  0  0  0  0  0  0  0
   -2.2670   13.2910   32.3200 C   0  0  0  0  0  0  0  0  0  0  0  0
   -3.4740   13.8230   33.1150 C   0  0  0  0  0  0  0  0  0  0  0  0
   -1.2390   13.9610   32.2220 O   0  0  0  0  0  0  0  0  0  0  0  0
   -4.2880    8.0040   30.2030 C   0  0  0  0  0  0  0  0  0  0  0  0
   -4.2760    8.1590   28.9830 O   0  0  0  0  0  0  0  0  0  0  0  0
   -3.5700    7.1390   30.7070 O   0  0  0  0  0  0  0  0  0  0  0  0
   -6.4980    8.2630   31.2230 O   0  0  0  0  0  0  0  0  0  0  0  0
   -7.5980    9.1880   31.4130 C   0  0  0  0  0  0  0  0  0  0  0  0
   -2.8650   10.1250   33.8300 O   0  0  0  0  0  0  0  0  0  0  0  0
   -3.2460   10.9370   34.1730 H   0  0  0  0  0  0  0  0  0  0  0  0
   -5.8860   12.7500   30.0230 O   0  0  0  0  0  0  0  0  0  0  0  0
   -6.4770   11.9930   30.0050 H   0  0  0  0  0  0  0  0  0  0  0  0
  2  3  2  0  0  0  0
  2  4  1  0  0  0  0
  4  1  1  0  0  0  0
  5  4  1  0  0  0  0
  6  7  1  0  0  0  0
  6  2  1  0  0  0  0
  9  8  1  0  0  0  0
  9  7  1  0  0  0  0
 10  9  2  0  0  0  0
 11 10  1  0  0  0  0
 11 12  1  0  0  0  0
 12  8  2  0  0  0  0
 13 14  1  1  0  0  0
 13 11  1  0  0  0  0
 15 13  1  0  0  0  0
 16 15  2  0  0  0  0
 17 18  1  0  0  0  0
 17 15  1  0  0  0  0
 18 19  1  0  0  0  0
 19 20  2  0  0  0  0
 19 24  1  0  0  0  0
 20 21  1  0  0  0  0
 21 22  2  0  0  0  0
 23 22  1  0  0  0  0
 24 23  2  0  0  0  0
 25  1  1  1  0  0  0
 25 28  1  0  0  0  0
 26 27  1  0  0  0  0
 26 25  1  0  0  0  0
 28 47  1  6  0  0  0
 29 28  1  1  0  0  0
 29 30  1  0  0  0  0
 29 34  1  0  0  0  0
 30 31  1  0  0  0  0
 31 40  1  6  0  0  0
 31 43  1  0  0  0  0
 31 32  1  0  0  0  0
 33 32  1  0  0  0  0
 33 45  1  1  0  0  0
 34 35  1  6  0  0  0
 34 33  1  0  0  0  0
 35 37  1  0  0  0  0
 36 35  1  0  0  0  0
 37 38  1  0  0  0  0
 39 37  2  0  0  0  0
 40 42  1  0  0  0  0
 41 40  2  0  0  0  0
 43 44  1  0  0  0  0
 45 46  1  0  0  0  0
 48 47  1  0  0  0  0
M  END
>  <REMARK>
 VINA RESULT:    -5.419      0.000      0.000
 INTER + INTRA:         -13.706
 INTER:                  -9.659
 INTRA:                  -4.047
 UNBOUND:                -3.060
  Name = lig_assembled_37.pdb
  21 active torsions:
  status: ('A' for Active; 'I' for Inactive)
    1  A    between atoms: _2  and  _9
    2  A    between atoms: _4  and  _24
    3  A    between atoms: _6  and  _7
    4  A    between atoms: _6  and  _24
    5  A    between atoms: _9  and  _10
    6  A    between atoms: _9  and  _11
    7  A    between atoms: _11  and  _18
    8  A    between atoms: _12  and  _13
    9  A    between atoms: _12  and  _18
   10  A    between atoms: _20  and  _40
   11  A    between atoms: _22  and  _28
   12  A    between atoms: _23  and  _27
   13  A    between atoms: _27  and  _28
   14  A    between atoms: _30  and  _31
   15  A    between atoms: _32  and  _33
   16  A    between atoms: _34  and  _36
   17  A    between atoms: _36  and  _37
   18  A    between atoms: _36  and  _38
   19  A    between atoms: _38  and  _39
   20  A    between atoms: _38  and  _40
   21  A    between atoms: _41  and  _43
                            x       y       z     vdW  Elec       q    Type
                         _______ _______ _______ _____ _____    ______ ____

>  <TORSDO>
F 18

$$$$
lig_assembled_38.pdb
 OpenBabel07252309473D

 44 46  0  0  1  0  0  0  0  0999 V2000
   -5.3110   11.9730   27.2130 C   0  0  2  0  0  0  0  0  0  0  0  0
   -5.8970   10.7250   26.8090 O   0  0  0  0  0  0  0  0  0  0  0  0
   -5.6490   10.0380   27.4330 H   0  0  0  0  0  0  0  0  0  0  0  0
   -3.9180   12.1150   26.6090 C   0  0  0  0  0  0  0  0  0  0  0  0
   -2.8510   10.8520   24.7730 C   0  0  0  0  0  0  0  0  0  0  0  0
   -1.8590   10.5410   25.4370 O   0  0  0  0  0  0  0  0  0  0  0  0
   -3.8590   11.5900   25.2390 N   0  0  0  0  0  0  0  0  0  0  0  0
   -4.6250   11.8010   24.6150 H   0  0  0  0  0  0  0  0  0  0  0  0
   -2.9460   10.4080   23.4170 O   0  0  0  0  0  0  0  0  0  0  0  0
   -3.1570   11.5320   22.5600 C   0  0  0  0  0  0  0  0  0  0  0  0
   -4.2150    9.8150   21.1210 N   0  0  0  0  0  0  0  0  0  0  0  0
   -3.7800   11.1030   21.2920 C   0  0  0  0  0  0  0  0  0  0  0  0
   -4.0630   11.8280   20.1560 C   0  0  0  0  0  0  0  0  0  0  0  0
   -4.7200   10.9400   19.3530 N   0  0  0  0  0  0  0  0  0  0  0  0
   -4.7960    9.7280   19.9330 N   0  0  0  0  0  0  0  0  0  0  0  0
   -5.4900   11.2300   18.1570 C   0  0  0  0  0  0  0  0  0  0  0  0
   -4.6570   11.2710   16.9000 C   0  0  0  0  0  0  0  0  0  0  0  0
   -3.9820   10.1270   16.4450 C   0  0  0  0  0  0  0  0  0  0  0  0
   -3.2860   10.1470   15.2320 C   0  0  0  0  0  0  0  0  0  0  0  0
   -3.2550   11.3080   14.4610 C   0  0  0  0  0  0  0  0  0  0  0  0
   -3.9120   12.4480   14.9110 C   0  0  0  0  0  0  0  0  0  0  0  0
   -3.8810   14.0230   13.8640 Br  0  0  0  0  0  0  0  0  0  0  0  0
   -4.6110   12.4380   16.1200 C   0  0  0  0  0  0  0  0  0  0  0  0
   -5.2200   12.0690   28.7450 C   0  0  2  0  0  0  0  0  0  0  0  0
   -4.1740   11.1030   29.3230 C   0  0  2  0  0  0  0  0  0  0  0  0
   -4.7950    9.7940   29.4480 O   0  0  0  0  0  0  0  0  0  0  0  0
   -3.9100    8.7120   29.8880 C   0  0  2  0  0  0  0  0  0  0  0  0
   -3.2130    9.0900   31.2180 C   0  0  0  0  0  0  0  0  0  0  0  0
   -2.5650   10.4880   31.1440 C   0  0  1  0  0  0  0  0  0  0  0  0
   -3.5740   11.5360   30.6730 C   0  0  1  0  0  0  0  0  0  0  0  0
   -2.9230   12.8480   30.5240 N   0  0  0  0  0  0  0  0  0  0  0  0
   -2.1930   12.9350   29.8310 H   0  0  0  0  0  0  0  0  0  0  0  0
   -3.2340   13.9290   31.2430 C   0  0  0  0  0  0  0  0  0  0  0  0
   -4.3330   13.7560   32.3080 C   0  0  0  0  0  0  0  0  0  0  0  0
   -2.6820   15.0180   31.0860 O   0  0  0  0  0  0  0  0  0  0  0  0
   -2.8430    8.4080   28.8150 C   0  0  0  0  0  0  0  0  0  0  0  0
   -1.7780    7.8800   29.1320 O   0  0  0  0  0  0  0  0  0  0  0  0
   -3.0470    8.6910   27.6340 O   0  0  0  0  0  0  0  0  0  0  0  0
   -4.7220    7.5320   30.1160 O   0  0  0  0  0  0  0  0  0  0  0  0
   -4.4050    6.7940   31.3230 C   0  0  0  0  0  0  0  0  0  0  0  0
   -2.0690   10.8580   32.4310 O   0  0  0  0  0  0  0  0  0  0  0  0
   -1.4520   10.1910   32.7410 H   0  0  0  0  0  0  0  0  0  0  0  0
   -6.5100   11.8150   29.3370 O   0  0  0  0  0  0  0  0  0  0  0  0
   -6.9170   12.6480   29.5860 H   0  0  0  0  0  0  0  0  0  0  0  0
  1  4  1  6  0  0  0
  1 24  1  0  0  0  0
  2  1  1  0  0  0  0
  2  3  1  0  0  0  0
  5  7  1  0  0  0  0
  5  6  2  0  0  0  0
  7  4  1  0  0  0  0
  8  7  1  0  0  0  0
  9  5  1  0  0  0  0
 10  9  1  0  0  0  0
 11 12  1  0  0  0  0
 12 10  1  0  0  0  0
 13 12  2  0  0  0  0
 14 15  1  0  0  0  0
 14 13  1  0  0  0  0
 15 11  2  0  0  0  0
 16 14  1  0  0  0  0
 17 16  1  0  0  0  0
 18 17  1  0  0  0  0
 19 18  2  0  0  0  0
 20 21  2  0  0  0  0
 20 19  1  0  0  0  0
 21 23  1  0  0  0  0
 22 21  1  0  0  0  0
 23 17  2  0  0  0  0
 24 43  1  1  0  0  0
 25 24  1  1  0  0  0
 25 26  1  0  0  0  0
 25 30  1  0  0  0  0
 26 27  1  0  0  0  0
 27 36  1  6  0  0  0
 27 39  1  0  0  0  0
 27 28  1  0  0  0  0
 29 28  1  0  0  0  0
 29 41  1  1  0  0  0
 30 31  1  6  0  0  0
 30 29  1  0  0  0  0
 31 33  1  0  0  0  0
 32 31  1  0  0  0  0
 33 34  1  0  0  0  0
 35 33  2  0  0  0  0
 36 37  1  0  0  0  0
 38 36  2  0  0  0  0
 39 40  1  0  0  0  0
 41 42  1  0  0  0  0
 43 44  1  0  0  0  0
M  END
>  <REMARK>
 VINA RESULT:    -5.212      0.000      0.000
 INTER + INTRA:         -12.085
 INTER:                 -10.303
 INTRA:                  -1.783
 UNBOUND:                -2.759
  Name = lig_assembled_38.pdb
  17 active torsions:
  status: ('A' for Active; 'I' for Inactive)
    1  A    between atoms: _2  and  _9
    2  A    between atoms: _4  and  _19
    3  A    between atoms: _6  and  _7
    4  A    between atoms: _6  and  _19
    5  A    between atoms: _9  and  _10
    6  A    between atoms: _15  and  _35
    7  A    between atoms: _17  and  _23
    8  A    between atoms: _18  and  _22
    9  A    between atoms: _22  and  _23
   10  A    between atoms: _25  and  _26
   11  A    between atoms: _27  and  _28
   12  A    between atoms: _29  and  _31
   13  A    between atoms: _31  and  _32
   14  A    between atoms: _31  and  _33
   15  A    between atoms: _33  and  _34
   16  A    between atoms: _33  and  _35
   17  A    between atoms: _36  and  _38
                            x       y       z     vdW  Elec       q    Type
                         _______ _______ _______ _____ _____    ______ ____

>  <TORSDO>
F 15

$$$$
lig_assembled_39.pdb
 OpenBabel07252309473D

 44 46  0  0  1  0  0  0  0  0999 V2000
   -3.1820   10.2840   30.9590 C   0  0  2  0  0  0  0  0  0  0  0  0
   -2.1250   11.1210   31.4560 O   0  0  0  0  0  0  0  0  0  0  0  0
   -1.8480   11.7310   30.7670 H   0  0  0  0  0  0  0  0  0  0  0  0
   -2.5980    9.0140   30.3490 C   0  0  0  0  0  0  0  0  0  0  0  0
   -1.9610    8.1720   28.1150 C   0  0  0  0  0  0  0  0  0  0  0  0
   -1.3270    7.2100   28.5540 O   0  0  0  0  0  0  0  0  0  0  0  0
   -2.5820    9.0690   28.8820 N   0  0  0  0  0  0  0  0  0  0  0  0
   -3.0680    9.8300   28.4280 H   0  0  0  0  0  0  0  0  0  0  0  0
   -2.0450    8.3600   26.7000 O   0  0  0  0  0  0  0  0  0  0  0  0
   -3.3010    8.9610   26.3710 C   0  0  0  0  0  0  0  0  0  0  0  0
   -2.3310   11.2020   25.9670 N   0  0  0  0  0  0  0  0  0  0  0  0
   -3.0960   10.1530   25.5280 C   0  0  0  0  0  0  0  0  0  0  0  0
   -3.5540   10.4280   24.2590 C   0  0  0  0  0  0  0  0  0  0  0  0
   -2.9660   11.6190   23.9520 N   0  0  0  0  0  0  0  0  0  0  0  0
   -2.2830   12.1110   25.0020 N   0  0  0  0  0  0  0  0  0  0  0  0
   -2.9540   12.3080   22.6690 C   0  0  0  0  0  0  0  0  0  0  0  0
   -4.2360   13.0710   22.3870 C   0  0  0  0  0  0  0  0  0  0  0  0
   -4.5520   14.2470   23.0960 C   0  0  0  0  0  0  0  0  0  0  0  0
   -5.7310   14.9560   22.8500 C   0  0  0  0  0  0  0  0  0  0  0  0
   -6.6360   14.4920   21.9040 C   0  0  0  0  0  0  0  0  0  0  0  0
   -6.3710   13.3090   21.2190 C   0  0  0  0  0  0  0  0  0  0  0  0
   -5.1880   12.5960   21.4640 C   0  0  0  0  0  0  0  0  0  0  0  0
   -4.9630   10.9660   20.5120 Br  0  0  0  0  0  0  0  0  0  0  0  0
   -4.0190   11.0250   29.9020 C   0  0  2  0  0  0  0  0  0  0  0  0
   -4.2040   12.5100   30.2470 C   0  0  2  0  0  0  0  0  0  0  0  0
   -4.3910   12.6140   31.6850 O   0  0  0  0  0  0  0  0  0  0  0  0
   -4.4790   13.9780   32.2160 C   0  0  2  0  0  0  0  0  0  0  0  0
   -5.5890   14.7720   31.4840 C   0  0  0  0  0  0  0  0  0  0  0  0
   -5.4510   14.6640   29.9510 C   0  0  1  0  0  0  0  0  0  0  0  0
   -5.3640   13.2030   29.5100 C   0  0  1  0  0  0  0  0  0  0  0  0
   -5.1460   13.1160   28.0570 N   0  0  0  0  0  0  0  0  0  0  0  0
   -4.2510   13.4150   27.6960 H   0  0  0  0  0  0  0  0  0  0  0  0
   -6.0530   12.6680   27.1850 C   0  0  0  0  0  0  0  0  0  0  0  0
   -7.4160   12.2440   27.7640 C   0  0  0  0  0  0  0  0  0  0  0  0
   -5.8360   12.5920   25.9750 O   0  0  0  0  0  0  0  0  0  0  0  0
   -3.1320   14.7130   32.0600 C   0  0  0  0  0  0  0  0  0  0  0  0
   -3.1020   15.9400   31.9660 O   0  0  0  0  0  0  0  0  0  0  0  0
   -2.0750   14.0810   32.0300 O   0  0  0  0  0  0  0  0  0  0  0  0
   -4.8290   13.8920   33.6210 O   0  0  0  0  0  0  0  0  0  0  0  0
   -5.5170   12.6750   34.0070 C   0  0  0  0  0  0  0  0  0  0  0  0
   -6.5750   15.2810   29.3220 O   0  0  0  0  0  0  0  0  0  0  0  0
   -6.4060   16.2190   29.2110 H   0  0  0  0  0  0  0  0  0  0  0  0
   -5.3030   10.3870   29.7490 O   0  0  0  0  0  0  0  0  0  0  0  0
   -5.9920   10.9730   30.0690 H   0  0  0  0  0  0  0  0  0  0  0  0
  1  4  1  6  0  0  0
  1  2  1  0  0  0  0
  3  2  1  0  0  0  0
  5  6  2  0  0  0  0
  5  7  1  0  0  0  0
  7  4  1  0  0  0  0
  8  7  1  0  0  0  0
  9  5  1  0  0  0  0
 10  9  1  0  0  0  0
 12 11  1  0  0  0  0
 12 10  1  0  0  0  0
 13 12  2  0  0  0  0
 14 13  1  0  0  0  0
 14 15  1  0  0  0  0
 15 11  2  0  0  0  0
 16 14  1  0  0  0  0
 17 16  1  0  0  0  0
 17 18  2  0  0  0  0
 19 18  1  0  0  0  0
 20 19  2  0  0  0  0
 21 22  2  0  0  0  0
 21 20  1  0  0  0  0
 22 17  1  0  0  0  0
 23 22  1  0  0  0  0
 24 43  1  1  0  0  0
 24  1  1  0  0  0  0
 25 24  1  6  0  0  0
 25 26  1  0  0  0  0
 26 27  1  0  0  0  0
 27 36  1  6  0  0  0
 27 39  1  0  0  0  0
 28 27  1  0  0  0  0
 29 41  1  6  0  0  0
 29 28  1  0  0  0  0
 30 31  1  6  0  0  0
 30 29  1  0  0  0  0
 30 25  1  0  0  0  0
 32 31  1  0  0  0  0
 33 34  1  0  0  0  0
 33 31  1  0  0  0  0
 35 33  2  0  0  0  0
 37 36  2  0  0  0  0
 38 36  1  0  0  0  0
 39 40  1  0  0  0  0
 42 41  1  0  0  0  0
 43 44  1  0  0  0  0
M  END
>  <REMARK>
 VINA RESULT:    -5.328      0.000      0.000
 INTER + INTRA:         -12.312
 INTER:                  -9.186
 INTRA:                  -3.126
 UNBOUND:                -2.779
  Name = lig_assembled_39.pdb
  17 active torsions:
  status: ('A' for Active; 'I' for Inactive)
    1  A    between atoms: _2  and  _9
    2  A    between atoms: _4  and  _19
    3  A    between atoms: _6  and  _7
    4  A    between atoms: _6  and  _19
    5  A    between atoms: _9  and  _10
    6  A    between atoms: _15  and  _35
    7  A    between atoms: _17  and  _23
    8  A    between atoms: _18  and  _22
    9  A    between atoms: _22  and  _23
   10  A    between atoms: _25  and  _26
   11  A    between atoms: _27  and  _28
   12  A    between atoms: _29  and  _31
   13  A    between atoms: _31  and  _32
   14  A    between atoms: _31  and  _33
   15  A    between atoms: _33  and  _34
   16  A    between atoms: _33  and  _35
   17  A    between atoms: _36  and  _38
                            x       y       z     vdW  Elec       q    Type
                         _______ _______ _______ _____ _____    ______ ____

>  <TORSDO>
F 15

$$$$
lig_assembled_3.pdb
 OpenBabel07252309473D

 42 44  0  0  1  0  0  0  0  0999 V2000
   -2.3440    9.7350   26.9990 C   0  0  2  0  0  0  0  0  0  0  0  0
   -1.1460    9.9110   26.2240 O   0  0  0  0  0  0  0  0  0  0  0  0
   -0.5950   10.5830   26.6340 H   0  0  0  0  0  0  0  0  0  0  0  0
   -1.9950    9.2100   28.3870 C   0  0  0  0  0  0  0  0  0  0  0  0
   -3.5480    9.5030   30.2870 C   0  0  0  0  0  0  0  0  0  0  0  0
   -3.9560    8.3400   30.2550 O   0  0  0  0  0  0  0  0  0  0  0  0
   -2.6370    9.9970   29.4470 N   0  0  0  0  0  0  0  0  0  0  0  0
   -2.3730   10.9670   29.5470 H   0  0  0  0  0  0  0  0  0  0  0  0
   -4.0730   10.3960   31.2720 O   0  0  0  0  0  0  0  0  0  0  0  0
   -3.0190   10.8260   32.1370 C   0  0  0  0  0  0  0  0  0  0  0  0
   -1.7320   12.9200   32.4240 N   0  0  0  0  0  0  0  0  0  0  0  0
   -2.9070   12.2980   32.1170 C   0  0  0  0  0  0  0  0  0  0  0  0
   -3.8530   13.2480   31.8100 C   0  0  0  0  0  0  0  0  0  0  0  0
   -3.1970   14.4530   31.9170 N   0  0  0  0  0  0  0  0  0  0  0  0
   -1.9160   14.2280   32.3060 N   0  0  0  0  0  0  0  0  0  0  0  0
   -3.6890   15.7590   31.6630 C   0  0  0  0  0  0  0  0  0  0  0  0
   -3.4890   16.7960   32.5860 C   0  0  0  0  0  0  0  0  0  0  0  0
   -4.0080   18.0680   32.3310 C   0  0  0  0  0  0  0  0  0  0  0  0
   -4.7220   18.3130   31.1600 C   0  0  0  0  0  0  0  0  0  0  0  0
   -4.9160   17.2890   30.2340 C   0  0  0  0  0  0  0  0  0  0  0  0
   -4.4010   16.0150   30.4820 C   0  0  0  0  0  0  0  0  0  0  0  0
   -3.3080    8.7570   26.3060 C   0  0  2  0  0  0  0  0  0  0  0  0
   -4.1510    9.4460   25.2230 C   0  0  2  0  0  0  0  0  0  0  0  0
   -3.2820    9.7320   24.0940 O   0  0  0  0  0  0  0  0  0  0  0  0
   -3.9410   10.3000   22.9140 C   0  0  2  0  0  0  0  0  0  0  0  0
   -4.7370   11.5710   23.2970 C   0  0  0  0  0  0  0  0  0  0  0  0
   -5.6530   11.3240   24.5140 C   0  0  1  0  0  0  0  0  0  0  0  0
   -4.8650   10.7300   25.6830 C   0  0  1  0  0  0  0  0  0  0  0  0
   -5.7640   10.4190   26.8050 N   0  0  0  0  0  0  0  0  0  0  0  0
   -6.4030    9.6430   26.6970 H   0  0  0  0  0  0  0  0  0  0  0  0
   -5.7910   11.0930   27.9570 C   0  0  0  0  0  0  0  0  0  0  0  0
   -4.8250   12.2860   28.0820 C   0  0  0  0  0  0  0  0  0  0  0  0
   -6.5450   10.8000   28.8860 O   0  0  0  0  0  0  0  0  0  0  0  0
   -4.8930    9.2700   22.2710 C   0  0  0  0  0  0  0  0  0  0  0  0
   -4.5840    8.0790   22.2320 O   0  0  0  0  0  0  0  0  0  0  0  0
   -5.9700    9.6280   21.7930 O   0  0  0  0  0  0  0  0  0  0  0  0
   -6.2500   12.5540   24.9260 O   0  0  0  0  0  0  0  0  0  0  0  0
   -5.7990   13.2870   24.5010 H   0  0  0  0  0  0  0  0  0  0  0  0
   -2.9130   10.6740   21.9610 O   0  0  0  0  0  0  0  0  0  0  0  0
   -3.1800   11.8900   21.2170 C   0  0  0  0  0  0  0  0  0  0  0  0
   -4.1660    8.1310   27.2810 O   0  0  0  0  0  0  0  0  0  0  0  0
   -4.7470    7.5050   26.8410 H   0  0  0  0  0  0  0  0  0  0  0  0
  1  4  1  1  0  0  0
  2  3  1  0  0  0  0
  2  1  1  0  0  0  0
  4  7  1  0  0  0  0
  5  9  1  0  0  0  0
  6  5  2  0  0  0  0
  7  8  1  0  0  0  0
  7  5  1  0  0  0  0
  9 10  1  0  0  0  0
 12 10  1  0  0  0  0
 12 11  1  0  0  0  0
 13 14  1  0  0  0  0
 13 12  2  0  0  0  0
 14 15  1  0  0  0  0
 15 11  2  0  0  0  0
 16 14  1  0  0  0  0
 16 17  2  0  0  0  0
 18 17  1  0  0  0  0
 19 18  2  0  0  0  0
 20 21  2  0  0  0  0
 20 19  1  0  0  0  0
 21 16  1  0  0  0  0
 22  1  1  0  0  0  0
 22 41  1  1  0  0  0
 23 28  1  0  0  0  0
 23 22  1  1  0  0  0
 24 23  1  0  0  0  0
 25 39  1  6  0  0  0
 25 26  1  0  0  0  0
 25 24  1  0  0  0  0
 26 27  1  0  0  0  0
 27 37  1  1  0  0  0
 27 28  1  0  0  0  0
 28 29  1  1  0  0  0
 29 31  1  0  0  0  0
 30 29  1  0  0  0  0
 31 32  1  0  0  0  0
 31 33  2  0  0  0  0
 34 25  1  0  0  0  0
 35 34  1  0  0  0  0
 36 34  2  0  0  0  0
 38 37  1  0  0  0  0
 40 39  1  0  0  0  0
 42 41  1  0  0  0  0
M  END
>  <REMARK>
 VINA RESULT:    -5.458      0.000      0.000
 INTER + INTRA:         -11.953
 INTER:                  -9.277
 INTRA:                  -2.676
 UNBOUND:                -2.505
  Name = lig_assembled_3.pdb
  16 active torsions:
  status: ('A' for Active; 'I' for Inactive)
    1  A    between atoms: _2  and  _9
    2  A    between atoms: _4  and  _18
    3  A    between atoms: _6  and  _7
    4  A    between atoms: _6  and  _18
    5  A    between atoms: _14  and  _34
    6  A    between atoms: _16  and  _22
    7  A    between atoms: _17  and  _21
    8  A    between atoms: _21  and  _22
    9  A    between atoms: _24  and  _25
   10  A    between atoms: _26  and  _27
   11  A    between atoms: _28  and  _30
   12  A    between atoms: _30  and  _31
   13  A    between atoms: _30  and  _32
   14  A    between atoms: _32  and  _33
   15  A    between atoms: _32  and  _34
   16  A    between atoms: _35  and  _37
                            x       y       z     vdW  Elec       q    Type
                         _______ _______ _______ _____ _____    ______ ____

>  <TORSDO>
F 14

$$$$
lig_assembled_40.pdb
 OpenBabel07252309473D

 43 45  0  0  1  0  0  0  0  0999 V2000
   -3.1860   11.8010   25.1540 C   0  0  2  0  0  0  0  0  0  0  0  0
   -2.0880   10.8760   25.0990 O   0  0  0  0  0  0  0  0  0  0  0  0
   -1.2820   11.3470   24.8740 H   0  0  0  0  0  0  0  0  0  0  0  0
   -2.8380   13.0700   24.3820 C   0  0  0  0  0  0  0  0  0  0  0  0
   -4.8410   13.8830   23.1860 C   0  0  0  0  0  0  0  0  0  0  0  0
   -5.3400   14.4070   24.1840 O   0  0  0  0  0  0  0  0  0  0  0  0
   -3.6770   13.2320   23.1890 N   0  0  0  0  0  0  0  0  0  0  0  0
   -3.3540   12.8280   22.3210 H   0  0  0  0  0  0  0  0  0  0  0  0
   -5.5360   13.9630   21.9390 O   0  0  0  0  0  0  0  0  0  0  0  0
   -6.2540   12.7470   21.7140 C   0  0  0  0  0  0  0  0  0  0  0  0
   -7.1220   12.6620   19.3980 N   0  0  0  0  0  0  0  0  0  0  0  0
   -6.1490   12.3420   20.2990 C   0  0  0  0  0  0  0  0  0  0  0  0
   -5.1520   11.6470   19.6570 C   0  0  0  0  0  0  0  0  0  0  0  0
   -5.5460   11.5920   18.3390 N   0  0  0  0  0  0  0  0  0  0  0  0
   -6.7550   12.1960   18.2110 N   0  0  0  0  0  0  0  0  0  0  0  0
   -4.8460   11.0540   17.2290 C   0  0  0  0  0  0  0  0  0  0  0  0
   -4.8770    9.6810   16.9580 C   0  0  0  0  0  0  0  0  0  0  0  0
   -4.1260    9.1560   15.9020 C   0  0  0  0  0  0  0  0  0  0  0  0
   -3.3380    9.9920   15.1050 C   0  0  0  0  0  0  0  0  0  0  0  0
   -3.3370   11.3690   15.3550 C   0  0  0  0  0  0  0  0  0  0  0  0
   -2.4940    9.4260   14.0000 C   0  0  0  0  0  0  0  0  0  0  0  0
   -4.0850   11.9000   16.4090 C   0  0  0  0  0  0  0  0  0  0  0  0
   -3.5280   12.1630   26.6090 C   0  0  2  0  0  0  0  0  0  0  0  0
   -3.3400   10.9710   27.5600 C   0  0  2  0  0  0  0  0  0  0  0  0
   -3.9760    9.8120   26.9550 O   0  0  0  0  0  0  0  0  0  0  0  0
   -3.8060    8.5470   27.6770 C   0  0  2  0  0  0  0  0  0  0  0  0
   -4.2750    8.6950   29.1450 C   0  0  0  0  0  0  0  0  0  0  0  0
   -3.6500    9.9330   29.8210 C   0  0  1  0  0  0  0  0  0  0  0  0
   -3.8840   11.1910   28.9840 C   0  0  1  0  0  0  0  0  0  0  0  0
   -3.2090   12.3480   29.5940 N   0  0  0  0  0  0  0  0  0  0  0  0
   -2.2000   12.3400   29.6320 H   0  0  0  0  0  0  0  0  0  0  0  0
   -3.8440   13.4080   30.1010 C   0  0  0  0  0  0  0  0  0  0  0  0
   -5.3840   13.3790   30.0510 C   0  0  0  0  0  0  0  0  0  0  0  0
   -3.2530   14.3700   30.5930 O   0  0  0  0  0  0  0  0  0  0  0  0
   -2.3310    8.0960   27.6500 C   0  0  0  0  0  0  0  0  0  0  0  0
   -1.8490    7.4930   28.6080 O   0  0  0  0  0  0  0  0  0  0  0  0
   -1.6230    8.3350   26.6710 O   0  0  0  0  0  0  0  0  0  0  0  0
   -4.2240   10.1160   31.1160 O   0  0  0  0  0  0  0  0  0  0  0  0
   -3.5490    9.9880   31.7870 H   0  0  0  0  0  0  0  0  0  0  0  0
   -4.6340    7.5470   27.0300 O   0  0  0  0  0  0  0  0  0  0  0  0
   -5.7280    7.0420   27.8370 C   0  0  0  0  0  0  0  0  0  0  0  0
   -4.8800   12.6570   26.6940 O   0  0  0  0  0  0  0  0  0  0  0  0
   -4.9230   13.5370   26.3110 H   0  0  0  0  0  0  0  0  0  0  0  0
  1  4  1  6  0  0  0
  1 23  1  0  0  0  0
  2  1  1  0  0  0  0
  3  2  1  0  0  0  0
  5  7  1  0  0  0  0
  5  6  2  0  0  0  0
  7  4  1  0  0  0  0
  8  7  1  0  0  0  0
  9  5  1  0  0  0  0
 10  9  1  0  0  0  0
 11 12  1  0  0  0  0
 12 10  1  0  0  0  0
 13 12  2  0  0  0  0
 14 13  1  0  0  0  0
 15 14  1  0  0  0  0
 15 11  2  0  0  0  0
 16 14  1  0  0  0  0
 17 16  1  0  0  0  0
 18 17  2  0  0  0  0
 19 20  2  0  0  0  0
 19 18  1  0  0  0  0
 20 22  1  0  0  0  0
 21 19  1  0  0  0  0
 22 16  2  0  0  0  0
 23 42  1  6  0  0  0
 24 23  1  6  0  0  0
 24 29  1  0  0  0  0
 25 24  1  0  0  0  0
 25 26  1  0  0  0  0
 26 40  1  6  0  0  0
 26 27  1  0  0  0  0
 27 28  1  0  0  0  0
 28 38  1  1  0  0  0
 29 30  1  1  0  0  0
 29 28  1  0  0  0  0
 30 31  1  0  0  0  0
 30 32  1  0  0  0  0
 32 34  2  0  0  0  0
 33 32  1  0  0  0  0
 35 26  1  0  0  0  0
 35 36  1  0  0  0  0
 37 35  2  0  0  0  0
 38 39  1  0  0  0  0
 40 41  1  0  0  0  0
 43 42  1  0  0  0  0
M  END
>  <REMARK>
 VINA RESULT:    -5.721      0.000      0.000
 INTER + INTRA:         -11.715
 INTER:                  -9.492
 INTRA:                  -2.224
 UNBOUND:                -1.813
  Name = lig_assembled_40.pdb
  17 active torsions:
  status: ('A' for Active; 'I' for Inactive)
    1  A    between atoms: _2  and  _9
    2  A    between atoms: _4  and  _19
    3  A    between atoms: _6  and  _7
    4  A    between atoms: _6  and  _19
    5  A    between atoms: _12  and  _13
    6  A    between atoms: _15  and  _35
    7  A    between atoms: _17  and  _23
    8  A    between atoms: _18  and  _22
    9  A    between atoms: _22  and  _23
   10  A    between atoms: _25  and  _26
   11  A    between atoms: _27  and  _28
   12  A    between atoms: _29  and  _31
   13  A    between atoms: _31  and  _32
   14  A    between atoms: _31  and  _33
   15  A    between atoms: _33  and  _34
   16  A    between atoms: _33  and  _35
   17  A    between atoms: _36  and  _38
                            x       y       z     vdW  Elec       q    Type
                         _______ _______ _______ _____ _____    ______ ____

>  <TORSDO>
F 14

$$$$
lig_assembled_41.pdb
 OpenBabel07252309473D

 45 47  0  0  1  0  0  0  0  0999 V2000
   -6.7740    8.7240   24.0890 C   0  0  2  0  0  0  0  0  0  0  0  0
   -6.0810    8.8920   25.3370 O   0  0  0  0  0  0  0  0  0  0  0  0
   -5.2750    8.3700   25.3300 H   0  0  0  0  0  0  0  0  0  0  0  0
   -6.3700    7.4020   23.4430 C   0  0  0  0  0  0  0  0  0  0  0  0
   -3.9280    7.0310   23.3840 C   0  0  0  0  0  0  0  0  0  0  0  0
   -3.7740    7.5980   22.2990 O   0  0  0  0  0  0  0  0  0  0  0  0
   -5.1080    6.8890   23.9890 N   0  0  0  0  0  0  0  0  0  0  0  0
   -5.1350    6.4000   24.8730 H   0  0  0  0  0  0  0  0  0  0  0  0
   -2.7880    6.4820   24.0490 O   0  0  0  0  0  0  0  0  0  0  0  0
   -3.2160    5.7160   25.1780 C   0  0  0  0  0  0  0  0  0  0  0  0
   -1.7540    7.0890   26.6130 N   0  0  0  0  0  0  0  0  0  0  0  0
   -2.9400    6.4460   26.4290 C   0  0  0  0  0  0  0  0  0  0  0  0
   -3.7310    6.6340   27.5410 C   0  0  0  0  0  0  0  0  0  0  0  0
   -2.9370    7.3160   28.4350 N   0  0  0  0  0  0  0  0  0  0  0  0
   -1.7780    7.6600   27.8080 N   0  0  0  0  0  0  0  0  0  0  0  0
   -3.2010    7.7620   29.7610 C   0  0  0  0  0  0  0  0  0  0  0  0
   -3.6920    9.0420   30.0970 C   0  0  0  0  0  0  0  0  0  0  0  0
   -3.8600    9.3690   31.4590 C   0  0  0  0  0  0  0  0  0  0  0  0
   -3.5440    8.4570   32.4690 C   0  0  0  0  0  0  0  0  0  0  0  0
   -3.0850    7.1910   32.1380 C   0  0  0  0  0  0  0  0  0  0  0  0
   -2.9260    6.8420   30.7990 C   0  0  0  0  0  0  0  0  0  0  0  0
   -4.2470   10.0080   29.1010 C   0  0  0  0  0  0  0  0  0  0  0  0
   -5.1650    9.6540   28.3650 O   0  0  0  0  0  0  0  0  0  0  0  0
   -3.6860   11.4060   29.0020 C   0  0  0  0  0  0  0  0  0  0  0  0
   -6.4630    9.8830   23.1270 C   0  0  2  0  0  0  0  0  0  0  0  0
   -5.0690   10.4790   23.3720 C   0  0  2  0  0  0  0  0  0  0  0  0
   -5.1650   11.3930   24.4990 O   0  0  0  0  0  0  0  0  0  0  0  0
   -3.9000   11.9820   24.9480 C   0  0  2  0  0  0  0  0  0  0  0  0
   -3.1800   12.6800   23.7680 C   0  0  0  0  0  0  0  0  0  0  0  0
   -3.0810   11.7580   22.5350 C   0  0  1  0  0  0  0  0  0  0  0  0
   -4.4540   11.1990   22.1570 C   0  0  1  0  0  0  0  0  0  0  0  0
   -4.3340   10.2540   21.0350 N   0  0  0  0  0  0  0  0  0  0  0  0
   -3.8680    9.3740   21.2070 H   0  0  0  0  0  0  0  0  0  0  0  0
   -4.8010   10.4840   19.8050 C   0  0  0  0  0  0  0  0  0  0  0  0
   -5.4820   11.8450   19.5690 C   0  0  0  0  0  0  0  0  0  0  0  0
   -4.6990    9.6680   18.8880 O   0  0  0  0  0  0  0  0  0  0  0  0
   -2.9770   10.9010   25.5490 C   0  0  0  0  0  0  0  0  0  0  0  0
   -3.3750    9.7440   25.6720 O   0  0  0  0  0  0  0  0  0  0  0  0
   -1.8350   11.1870   25.9100 O   0  0  0  0  0  0  0  0  0  0  0  0
   -2.5500   12.4880   21.4290 O   0  0  0  0  0  0  0  0  0  0  0  0
   -1.7320   12.9160   21.6910 H   0  0  0  0  0  0  0  0  0  0  0  0
   -4.2020   12.9810   25.9550 O   0  0  0  0  0  0  0  0  0  0  0  0
   -5.6080   13.1120   26.2850 C   0  0  0  0  0  0  0  0  0  0  0  0
   -7.4690   10.9080   23.2430 O   0  0  0  0  0  0  0  0  0  0  0  0
   -8.1100   10.6540   23.9110 H   0  0  0  0  0  0  0  0  0  0  0  0
  1  4  1  6  0  0  0
  1  2  1  0  0  0  0
  3  2  1  0  0  0  0
  4  7  1  0  0  0  0
  5  7  1  0  0  0  0
  5  9  1  0  0  0  0
  6  5  2  0  0  0  0
  7  8  1  0  0  0  0
  9 10  1  0  0  0  0
 10 12  1  0  0  0  0
 11 15  2  0  0  0  0
 12 11  1  0  0  0  0
 12 13  2  0  0  0  0
 13 14  1  0  0  0  0
 14 16  1  0  0  0  0
 15 14  1  0  0  0  0
 16 17  2  0  0  0  0
 16 21  1  0  0  0  0
 17 18  1  0  0  0  0
 18 19  2  0  0  0  0
 20 19  1  0  0  0  0
 21 20  2  0  0  0  0
 22 17  1  0  0  0  0
 23 22  2  0  0  0  0
 24 22  1  0  0  0  0
 25 44  1  1  0  0  0
 25  1  1  0  0  0  0
 26 25  1  6  0  0  0
 26 27  1  0  0  0  0
 27 28  1  0  0  0  0
 28 37  1  1  0  0  0
 28 42  1  0  0  0  0
 29 28  1  0  0  0  0
 30 40  1  6  0  0  0
 30 29  1  0  0  0  0
 31 32  1  6  0  0  0
 31 30  1  0  0  0  0
 31 26  1  0  0  0  0
 32 33  1  0  0  0  0
 34 32  1  0  0  0  0
 35 34  1  0  0  0  0
 36 34  2  0  0  0  0
 37 38  2  0  0  0  0
 37 39  1  0  0  0  0
 40 41  1  0  0  0  0
 42 43  1  0  0  0  0
 44 45  1  0  0  0  0
M  END
>  <REMARK>
 VINA RESULT:    -5.231      0.000      0.000
 INTER + INTRA:         -12.115
 INTER:                  -8.579
 INTRA:                  -3.536
 UNBOUND:                -2.756
  Name = lig_assembled_41.pdb
  18 active torsions:
  status: ('A' for Active; 'I' for Inactive)
    1  A    between atoms: _2  and  _9
    2  A    between atoms: _4  and  _21
    3  A    between atoms: _6  and  _7
    4  A    between atoms: _6  and  _21
    5  A    between atoms: _10  and  _11
    6  A    between atoms: _11  and  _12
    7  A    between atoms: _17  and  _37
    8  A    between atoms: _19  and  _25
    9  A    between atoms: _20  and  _24
   10  A    between atoms: _24  and  _25
   11  A    between atoms: _27  and  _28
   12  A    between atoms: _29  and  _30
   13  A    between atoms: _31  and  _33
   14  A    between atoms: _33  and  _34
   15  A    between atoms: _33  and  _35
   16  A    between atoms: _35  and  _36
   17  A    between atoms: _35  and  _37
   18  A    between atoms: _38  and  _40
                            x       y       z     vdW  Elec       q    Type
                         _______ _______ _______ _____ _____    ______ ____

>  <TORSDO>
F 15

$$$$
lig_assembled_42.pdb
 OpenBabel07252309473D

 45 48  0  0  1  0  0  0  0  0999 V2000
   -1.9450    8.5130   13.7240 C   0  0  2  0  0  0  0  0  0  0  0  0
   -2.1240    8.2620   12.3210 O   0  0  0  0  0  0  0  0  0  0  0  0
   -2.7300    7.5270   12.2010 H   0  0  0  0  0  0  0  0  0  0  0  0
   -2.1000    7.2160   14.5110 C   0  0  0  0  0  0  0  0  0  0  0  0
   -3.5620    6.6550   16.4220 C   0  0  0  0  0  0  0  0  0  0  0  0
   -2.6440    6.2090   17.1150 O   0  0  0  0  0  0  0  0  0  0  0  0
   -3.3990    7.1400   15.1910 N   0  0  0  0  0  0  0  0  0  0  0  0
   -4.2150    7.4740   14.6980 H   0  0  0  0  0  0  0  0  0  0  0  0
   -4.8910    6.6580   16.9500 O   0  0  0  0  0  0  0  0  0  0  0  0
   -5.3940    7.9970   16.9700 C   0  0  0  0  0  0  0  0  0  0  0  0
   -5.7430    7.9170   19.4250 N   0  0  0  0  0  0  0  0  0  0  0  0
   -5.2780    8.5730   18.3230 C   0  0  0  0  0  0  0  0  0  0  0  0
   -4.7340    9.7720   18.7140 C   0  0  0  0  0  0  0  0  0  0  0  0
   -4.8870    9.8100   20.0790 N   0  0  0  0  0  0  0  0  0  0  0  0
   -5.5030    8.6730   20.4900 N   0  0  0  0  0  0  0  0  0  0  0  0
   -4.4970   10.8330   20.9790 C   0  0  0  0  0  0  0  0  0  0  0  0
   -3.7100   10.5220   22.0980 C   0  0  0  0  0  0  0  0  0  0  0  0
   -3.3560   11.5510   22.9430 C   0  0  0  0  0  0  0  0  0  0  0  0
   -2.5970   11.4200   24.0620 O   0  0  0  0  0  0  0  0  0  0  0  0
   -2.5520   12.7870   24.5190 C   0  0  0  0  0  0  0  0  0  0  0  0
   -3.2870   13.6980   23.6730 O   0  0  0  0  0  0  0  0  0  0  0  0
   -3.7490   12.8480   22.7180 C   0  0  0  0  0  0  0  0  0  0  0  0
   -4.5240   13.1910   21.6310 C   0  0  0  0  0  0  0  0  0  0  0  0
   -4.9030   12.1700   20.7490 C   0  0  0  0  0  0  0  0  0  0  0  0
   -2.9640    9.5470   14.2320 C   0  0  2  0  0  0  0  0  0  0  0  0
   -3.2810   10.6140   13.1740 C   0  0  2  0  0  0  0  0  0  0  0  0
   -2.0230   11.0550   12.5930 O   0  0  0  0  0  0  0  0  0  0  0  0
   -2.1370   12.0050   11.4820 C   0  0  2  0  0  0  0  0  0  0  0  0
   -2.9780   13.2340   11.9040 C   0  0  0  0  0  0  0  0  0  0  0  0
   -4.3120   12.8150   12.5570 C   0  0  1  0  0  0  0  0  0  0  0  0
   -4.0770   11.8240   13.6980 C   0  0  1  0  0  0  0  0  0  0  0  0
   -5.3590   11.3660   14.2540 N   0  0  0  0  0  0  0  0  0  0  0  0
   -5.9670   10.8240   13.6550 H   0  0  0  0  0  0  0  0  0  0  0  0
   -5.7740   11.6190   15.4990 C   0  0  0  0  0  0  0  0  0  0  0  0
   -4.8370   12.4690   16.3780 C   0  0  0  0  0  0  0  0  0  0  0  0
   -6.8470   11.2090   15.9430 O   0  0  0  0  0  0  0  0  0  0  0  0
   -2.7850   11.3340   10.2540 C   0  0  0  0  0  0  0  0  0  0  0  0
   -3.2580   12.0210    9.3490 O   0  0  0  0  0  0  0  0  0  0  0  0
   -2.8350   10.1060   10.1670 O   0  0  0  0  0  0  0  0  0  0  0  0
   -4.9830   13.9680   13.0650 O   0  0  0  0  0  0  0  0  0  0  0  0
   -4.3470   14.5460   13.4940 H   0  0  0  0  0  0  0  0  0  0  0  0
   -0.8010   12.4590   11.1420 O   0  0  0  0  0  0  0  0  0  0  0  0
   -0.6700   13.8910   10.9580 C   0  0  0  0  0  0  0  0  0  0  0  0
   -2.4800   10.1710   15.4380 O   0  0  0  0  0  0  0  0  0  0  0  0
   -2.6010    9.5740   16.1790 H   0  0  0  0  0  0  0  0  0  0  0  0
  1 25  1  0  0  0  0
  1  4  1  1  0  0  0
  2  1  1  0  0  0  0
  3  2  1  0  0  0  0
  4  7  1  0  0  0  0
  5  9  1  0  0  0  0
  5  6  2  0  0  0  0
  7  5  1  0  0  0  0
  8  7  1  0  0  0  0
  9 10  1  0  0  0  0
 10 12  1  0  0  0  0
 11 15  2  0  0  0  0
 12 13  2  0  0  0  0
 12 11  1  0  0  0  0
 13 14  1  0  0  0  0
 14 15  1  0  0  0  0
 14 16  1  0  0  0  0
 16 17  2  0  0  0  0
 17 18  1  0  0  0  0
 18 19  1  0  0  0  0
 19 20  1  0  0  0  0
 21 20  1  0  0  0  0
 22 18  2  0  0  0  0
 22 21  1  0  0  0  0
 23 22  1  0  0  0  0
 24 16  1  0  0  0  0
 24 23  2  0  0  0  0
 25 44  1  1  0  0  0
 26 31  1  0  0  0  0
 26 25  1  1  0  0  0
 27 26  1  0  0  0  0
 28 37  1  6  0  0  0
 28 29  1  0  0  0  0
 28 27  1  0  0  0  0
 29 30  1  0  0  0  0
 30 40  1  1  0  0  0
 30 31  1  0  0  0  0
 31 32  1  6  0  0  0
 32 34  1  0  0  0  0
 33 32  1  0  0  0  0
 34 36  2  0  0  0  0
 34 35  1  0  0  0  0
 38 37  2  0  0  0  0
 39 37  1  0  0  0  0
 40 41  1  0  0  0  0
 42 28  1  0  0  0  0
 43 42  1  0  0  0  0
 44 45  1  0  0  0  0
M  END
>  <REMARK>
 VINA RESULT:    -5.287      0.000      0.000
 INTER + INTRA:         -12.508
 INTER:                  -9.668
 INTRA:                  -2.840
 UNBOUND:                -3.358
  Name = lig_assembled_42.pdb
  16 active torsions:
  status: ('A' for Active; 'I' for Inactive)
    1  A    between atoms: _2  and  _9
    2  A    between atoms: _4  and  _21
    3  A    between atoms: _6  and  _7
    4  A    between atoms: _6  and  _21
    5  A    between atoms: _17  and  _37
    6  A    between atoms: _19  and  _25
    7  A    between atoms: _20  and  _24
    8  A    between atoms: _24  and  _25
    9  A    between atoms: _27  and  _28
   10  A    between atoms: _29  and  _30
   11  A    between atoms: _31  and  _33
   12  A    between atoms: _33  and  _34
   13  A    between atoms: _33  and  _35
   14  A    between atoms: _35  and  _36
   15  A    between atoms: _35  and  _37
   16  A    between atoms: _38  and  _40
                            x       y       z     vdW  Elec       q    Type
                         _______ _______ _______ _____ _____    ______ ____

>  <TORSDO>
F 14

$$$$
lig_assembled_43.pdb
 OpenBabel07252309473D

 42 43  0  0  1  0  0  0  0  0999 V2000
   -3.2330   10.4480   31.3770 C   0  0  1  0  0  0  0  0  0  0  0  0
   -2.1230   11.3070   31.6870 O   0  0  0  0  0  0  0  0  0  0  0  0
   -2.4000   11.9720   32.3220 H   0  0  0  0  0  0  0  0  0  0  0  0
   -4.1490   11.0910   30.3220 C   0  0  2  0  0  0  0  0  0  0  0  0
   -4.2900   12.6070   30.5260 C   0  0  2  0  0  0  0  0  0  0  0  0
   -4.5950   12.8430   31.9280 O   0  0  0  0  0  0  0  0  0  0  0  0
   -4.6610   14.2500   32.3340 C   0  0  2  0  0  0  0  0  0  0  0  0
   -5.6640   15.0240   31.4430 C   0  0  0  0  0  0  0  0  0  0  0  0
   -5.3990   14.7780   29.9430 C   0  0  1  0  0  0  0  0  0  0  0  0
   -5.3470   13.2820   29.6320 C   0  0  1  0  0  0  0  0  0  0  0  0
   -5.0080   13.0610   28.2180 N   0  0  0  0  0  0  0  0  0  0  0  0
   -4.0910   13.3430   27.9030 H   0  0  0  0  0  0  0  0  0  0  0  0
   -5.8340   12.5120   27.3230 C   0  0  0  0  0  0  0  0  0  0  0  0
   -7.2350   12.1170   27.8280 C   0  0  0  0  0  0  0  0  0  0  0  0
   -5.5180   12.3250   26.1470 O   0  0  0  0  0  0  0  0  0  0  0  0
   -3.2710   14.9130   32.2410 C   0  0  0  0  0  0  0  0  0  0  0  0
   -2.2520   14.2240   32.2710 O   0  0  0  0  0  0  0  0  0  0  0  0
   -3.1680   16.1360   32.1350 O   0  0  0  0  0  0  0  0  0  0  0  0
   -6.4330   15.3840   29.1660 O   0  0  0  0  0  0  0  0  0  0  0  0
   -7.2050   15.5300   29.7180 H   0  0  0  0  0  0  0  0  0  0  0  0
   -5.1350   14.3000   33.7050 O   0  0  0  0  0  0  0  0  0  0  0  0
   -6.3350   13.5290   33.9660 C   0  0  0  0  0  0  0  0  0  0  0  0
   -5.4470   10.4650   30.3420 O   0  0  0  0  0  0  0  0  0  0  0  0
   -5.4350    9.7220   30.9510 H   0  0  0  0  0  0  0  0  0  0  0  0
   -2.7260    9.1050   30.8610 C   0  0  0  0  0  0  0  0  0  0  0  0
   -2.0230    8.1340   28.7010 C   0  0  0  0  0  0  0  0  0  0  0  0
   -1.3800    7.2160   29.2160 O   0  0  0  0  0  0  0  0  0  0  0  0
   -2.6780    9.0650   29.3950 N   0  0  0  0  0  0  0  0  0  0  0  0
   -3.1690    9.7840   28.8820 H   0  0  0  0  0  0  0  0  0  0  0  0
   -2.0800    8.2270   27.2750 O   0  0  0  0  0  0  0  0  0  0  0  0
   -3.3970    8.6130   26.8740 C   0  0  0  0  0  0  0  0  0  0  0  0
   -2.3280   10.3270   25.4430 N   0  0  0  0  0  0  0  0  0  0  0  0
   -3.3420    9.4270   25.6470 C   0  0  0  0  0  0  0  0  0  0  0  0
   -4.1970    9.4620   24.5680 C   0  0  0  0  0  0  0  0  0  0  0  0
   -3.6520   10.4050   23.7500 N   0  0  0  0  0  0  0  0  0  0  0  0
   -2.5300   10.9220   24.2750 N   0  0  0  0  0  0  0  0  0  0  0  0
   -4.1560   10.8840   22.4800 C   0  0  0  0  0  0  0  0  0  0  0  0
   -3.0540   11.5350   21.6500 C   0  0  0  0  0  0  0  0  0  0  0  0
   -3.4280   12.9510   21.2070 C   0  0  0  0  0  0  0  0  0  0  0  0
   -3.5570   13.8770   22.4180 C   0  0  0  0  0  0  0  0  0  0  0  0
   -3.3580   15.3170   22.0490 C   0  0  0  0  0  0  0  0  0  0  0  0
   -4.3300   16.2380   22.0880 C   0  0  0  0  0  0  0  0  0  0  0  0
  1 25  1  6  0  0  0
  1  2  1  0  0  0  0
  2  3  1  0  0  0  0
  4 23  1  1  0  0  0
  4  1  1  0  0  0  0
  5  4  1  1  0  0  0
  5  6  1  0  0  0  0
  6  7  1  0  0  0  0
  7 16  1  6  0  0  0
  7 21  1  0  0  0  0
  8  7  1  0  0  0  0
  9 19  1  6  0  0  0
  9  8  1  0  0  0  0
 10 11  1  6  0  0  0
 10  9  1  0  0  0  0
 10  5  1  0  0  0  0
 12 11  1  0  0  0  0
 13 14  1  0  0  0  0
 13 11  1  0  0  0  0
 15 13  2  0  0  0  0
 16 17  1  0  0  0  0
 18 16  2  0  0  0  0
 19 20  1  0  0  0  0
 21 22  1  0  0  0  0
 23 24  1  0  0  0  0
 26 27  2  0  0  0  0
 26 28  1  0  0  0  0
 28 25  1  0  0  0  0
 29 28  1  0  0  0  0
 30 26  1  0  0  0  0
 31 30  1  0  0  0  0
 32 33  1  0  0  0  0
 33 31  1  0  0  0  0
 34 33  2  0  0  0  0
 35 36  1  0  0  0  0
 35 34  1  0  0  0  0
 36 32  2  0  0  0  0
 37 35  1  0  0  0  0
 38 37  1  0  0  0  0
 39 38  1  0  0  0  0
 39 40  1  0  0  0  0
 41 42  2  0  0  0  0
 41 40  1  0  0  0  0
M  END
>  <REMARK>
 VINA RESULT:    -4.473      0.000      0.000
 INTER + INTRA:         -12.246
 INTER:                  -9.542
 INTRA:                  -2.704
 UNBOUND:                -3.458
  Name = lig_assembled_43.pdb
  20 active torsions:
  status: ('A' for Active; 'I' for Inactive)
    1  A    between atoms: _2  and  _9
    2  A    between atoms: _4  and  _18
    3  A    between atoms: _6  and  _7
    4  A    between atoms: _6  and  _18
    5  A    between atoms: _9  and  _10
    6  A    between atoms: _10  and  _11
    7  A    between atoms: _11  and  _12
    8  A    between atoms: _12  and  _13
    9  A    between atoms: _14  and  _34
   10  A    between atoms: _16  and  _22
   11  A    between atoms: _17  and  _21
   12  A    between atoms: _21  and  _22
   13  A    between atoms: _24  and  _25
   14  A    between atoms: _26  and  _27
   15  A    between atoms: _28  and  _30
   16  A    between atoms: _30  and  _31
   17  A    between atoms: _30  and  _32
   18  A    between atoms: _32  and  _33
   19  A    between atoms: _32  and  _34
   20  A    between atoms: _35  and  _37
                            x       y       z     vdW  Elec       q    Type
                         _______ _______ _______ _____ _____    ______ ____

>  <TORSDO>
F 18

$$$$
lig_assembled_44.pdb
 OpenBabel07252309473D

 44 46  0  0  1  0  0  0  0  0999 V2000
   -3.5400   11.2300   21.6050 C   0  0  2  0  0  0  0  0  0  0  0  0
   -2.9870   12.2160   22.4930 O   0  0  0  0  0  0  0  0  0  0  0  0
   -3.6990   12.6850   22.9340 H   0  0  0  0  0  0  0  0  0  0  0  0
   -4.6450   11.8520   20.7590 C   0  0  0  0  0  0  0  0  0  0  0  0
   -4.7590   10.5840   18.6410 C   0  0  0  0  0  0  0  0  0  0  0  0
   -5.3210    9.6090   19.1460 O   0  0  0  0  0  0  0  0  0  0  0  0
   -4.4020   11.6740   19.3220 N   0  0  0  0  0  0  0  0  0  0  0  0
   -3.9370   12.4180   18.8210 H   0  0  0  0  0  0  0  0  0  0  0  0
   -4.4600   10.5660   17.2430 O   0  0  0  0  0  0  0  0  0  0  0  0
   -4.5380   11.8950   16.7210 C   0  0  0  0  0  0  0  0  0  0  0  0
   -2.9030   11.0600   15.0550 N   0  0  0  0  0  0  0  0  0  0  0  0
   -3.8570   11.9750   15.4150 C   0  0  0  0  0  0  0  0  0  0  0  0
   -4.0290   12.8740   14.3870 C   0  0  0  0  0  0  0  0  0  0  0  0
   -3.2090   12.4060   13.4020 N   0  0  0  0  0  0  0  0  0  0  0  0
   -2.5030   11.3400   13.8220 N   0  0  0  0  0  0  0  0  0  0  0  0
   -3.0460   12.9130   12.0540 C   0  0  0  0  0  0  0  0  0  0  0  0
   -1.7860   13.7350   11.9200 C   0  0  0  0  0  0  0  0  0  0  0  0
   -0.6930   13.2550   11.1820 C   0  0  0  0  0  0  0  0  0  0  0  0
    0.4770   14.0090   11.0740 C   0  0  0  0  0  0  0  0  0  0  0  0
    0.5600   15.2500   11.7030 C   0  0  0  0  0  0  0  0  0  0  0  0
    2.1380   16.2780   11.5410 Br  0  0  0  0  0  0  0  0  0  0  0  0
   -0.5100   15.7370   12.4500 C   0  0  0  0  0  0  0  0  0  0  0  0
   -1.6790   14.9790   12.5630 C   0  0  0  0  0  0  0  0  0  0  0  0
   -4.1050   10.0360   22.3930 C   0  0  2  0  0  0  0  0  0  0  0  0
   -4.1950   10.3270   23.8980 C   0  0  2  0  0  0  0  0  0  0  0  0
   -2.9770    9.8370   24.5220 O   0  0  0  0  0  0  0  0  0  0  0  0
   -2.8370   10.1240   25.9530 C   0  0  2  0  0  0  0  0  0  0  0  0
   -4.0700    9.6030   26.7320 C   0  0  0  0  0  0  0  0  0  0  0  0
   -5.3910   10.0730   26.0870 C   0  0  1  0  0  0  0  0  0  0  0  0
   -5.4280    9.7260   24.5980 C   0  0  1  0  0  0  0  0  0  0  0  0
   -6.6530   10.2550   23.9760 N   0  0  0  0  0  0  0  0  0  0  0  0
   -6.8180   11.2500   24.0330 H   0  0  0  0  0  0  0  0  0  0  0  0
   -7.5590    9.5060   23.3420 C   0  0  0  0  0  0  0  0  0  0  0  0
   -7.2900    7.9900   23.2960 C   0  0  0  0  0  0  0  0  0  0  0  0
   -8.5680    9.9790   22.8180 O   0  0  0  0  0  0  0  0  0  0  0  0
   -2.6780   11.6390   26.1940 C   0  0  0  0  0  0  0  0  0  0  0  0
   -2.1080   12.3430   25.3600 O   0  0  0  0  0  0  0  0  0  0  0  0
   -3.1180   12.1580   27.2210 O   0  0  0  0  0  0  0  0  0  0  0  0
   -1.6620    9.4260   26.4380 O   0  0  0  0  0  0  0  0  0  0  0  0
   -1.5780    9.2960   27.8800 C   0  0  0  0  0  0  0  0  0  0  0  0
   -6.4960    9.4490   26.7430 O   0  0  0  0  0  0  0  0  0  0  0  0
   -7.1330   10.1180   27.0040 H   0  0  0  0  0  0  0  0  0  0  0  0
   -3.3010    8.8620   22.1610 O   0  0  0  0  0  0  0  0  0  0  0  0
   -3.1870    8.3840   22.9860 H   0  0  0  0  0  0  0  0  0  0  0  0
  1  4  1  1  0  0  0
  1 24  1  0  0  0  0
  1  2  1  0  0  0  0
  2  3  1  0  0  0  0
  5  6  2  0  0  0  0
  5  7  1  0  0  0  0
  7  4  1  0  0  0  0
  8  7  1  0  0  0  0
  9  5  1  0  0  0  0
 10  9  1  0  0  0  0
 11 12  1  0  0  0  0
 12 10  1  0  0  0  0
 13 12  2  0  0  0  0
 14 15  1  0  0  0  0
 14 13  1  0  0  0  0
 15 11  2  0  0  0  0
 16 14  1  0  0  0  0
 17 16  1  0  0  0  0
 17 23  2  0  0  0  0
 18 17  1  0  0  0  0
 19 18  2  0  0  0  0
 19 20  1  0  0  0  0
 20 22  2  0  0  0  0
 21 20  1  0  0  0  0
 22 23  1  0  0  0  0
 24 43  1  1  0  0  0
 25 24  1  6  0  0  0
 25 26  1  0  0  0  0
 25 30  1  0  0  0  0
 26 27  1  0  0  0  0
 27 36  1  1  0  0  0
 27 39  1  0  0  0  0
 27 28  1  0  0  0  0
 29 28  1  0  0  0  0
 29 41  1  1  0  0  0
 30 31  1  6  0  0  0
 30 29  1  0  0  0  0
 31 32  1  0  0  0  0
 33 31  1  0  0  0  0
 34 33  1  0  0  0  0
 35 33  2  0  0  0  0
 36 38  1  0  0  0  0
 37 36  2  0  0  0  0
 39 40  1  0  0  0  0
 41 42  1  0  0  0  0
 43 44  1  0  0  0  0
M  END
>  <REMARK>
 VINA RESULT:    -5.225      0.000      0.000
 INTER + INTRA:         -12.192
 INTER:                 -10.415
 INTRA:                  -1.777
 UNBOUND:                -2.844
  Name = lig_assembled_44.pdb
  17 active torsions:
  status: ('A' for Active; 'I' for Inactive)
    1  A    between atoms: _2  and  _9
    2  A    between atoms: _4  and  _19
    3  A    between atoms: _6  and  _7
    4  A    between atoms: _6  and  _19
    5  A    between atoms: _9  and  _10
    6  A    between atoms: _15  and  _35
    7  A    between atoms: _17  and  _23
    8  A    between atoms: _18  and  _22
    9  A    between atoms: _22  and  _23
   10  A    between atoms: _25  and  _26
   11  A    between atoms: _27  and  _28
   12  A    between atoms: _29  and  _31
   13  A    between atoms: _31  and  _32
   14  A    between atoms: _31  and  _33
   15  A    between atoms: _33  and  _34
   16  A    between atoms: _33  and  _35
   17  A    between atoms: _36  and  _38
                            x       y       z     vdW  Elec       q    Type
                         _______ _______ _______ _____ _____    ______ ____

>  <TORSDO>
F 15

$$$$
lig_assembled_46.pdb
 OpenBabel07252309473D

 43 45  0  0  1  0  0  0  0  0999 V2000
   -3.2730   11.8230   25.0730 C   0  0  2  0  0  0  0  0  0  0  0  0
   -2.1610   10.9220   24.9490 O   0  0  0  0  0  0  0  0  0  0  0  0
   -2.4690   10.0770   24.6110 H   0  0  0  0  0  0  0  0  0  0  0  0
   -2.9740   13.1260   24.3400 C   0  0  0  0  0  0  0  0  0  0  0  0
   -5.0600   13.8890   23.2590 C   0  0  0  0  0  0  0  0  0  0  0  0
   -5.5630   14.3020   24.3060 O   0  0  0  0  0  0  0  0  0  0  0  0
   -3.8570   13.3200   23.1840 N   0  0  0  0  0  0  0  0  0  0  0  0
   -3.5340   13.0030   22.2800 H   0  0  0  0  0  0  0  0  0  0  0  0
   -5.7960   14.0130   22.0390 O   0  0  0  0  0  0  0  0  0  0  0  0
   -6.4790   12.7870   21.7660 C   0  0  0  0  0  0  0  0  0  0  0  0
   -4.9380   10.9490   21.1570 N   0  0  0  0  0  0  0  0  0  0  0  0
   -5.7330   11.9930   20.7710 C   0  0  0  0  0  0  0  0  0  0  0  0
   -5.7120   12.0920   19.3960 C   0  0  0  0  0  0  0  0  0  0  0  0
   -4.9320   11.0420   19.0010 N   0  0  0  0  0  0  0  0  0  0  0  0
   -4.4570   10.3660   20.0650 N   0  0  0  0  0  0  0  0  0  0  0  0
   -4.8070   10.4860   17.6650 C   0  0  0  0  0  0  0  0  0  0  0  0
   -4.9540   11.5080   16.5660 C   0  0  0  0  0  0  0  0  0  0  0  0
   -3.8900   12.3560   16.2210 C   0  0  0  0  0  0  0  0  0  0  0  0
   -4.0030   13.2330   15.1390 C   0  0  0  0  0  0  0  0  0  0  0  0
   -5.1760   13.2700   14.3890 C   0  0  0  0  0  0  0  0  0  0  0  0
   -6.2430   12.4400   14.7250 C   0  0  0  0  0  0  0  0  0  0  0  0
   -6.1330   11.5630   15.8070 C   0  0  0  0  0  0  0  0  0  0  0  0
   -3.5760   12.1230   26.5520 C   0  0  2  0  0  0  0  0  0  0  0  0
   -3.3330   10.9010   27.4500 C   0  0  2  0  0  0  0  0  0  0  0  0
   -3.9550    9.7490   26.8160 O   0  0  0  0  0  0  0  0  0  0  0  0
   -3.7340    8.4630   27.4840 C   0  0  2  0  0  0  0  0  0  0  0  0
   -4.1690    8.5410   28.9680 C   0  0  0  0  0  0  0  0  0  0  0  0
   -3.5580    9.7690   29.6760 C   0  0  1  0  0  0  0  0  0  0  0  0
   -3.8450   11.0520   28.8950 C   0  0  1  0  0  0  0  0  0  0  0  0
   -3.1840   12.2020   29.5320 N   0  0  0  0  0  0  0  0  0  0  0  0
   -2.1740   12.2230   29.5360 H   0  0  0  0  0  0  0  0  0  0  0  0
   -3.8330   13.2190   30.1070 C   0  0  0  0  0  0  0  0  0  0  0  0
   -5.3710   13.1440   30.1070 C   0  0  0  0  0  0  0  0  0  0  0  0
   -3.2530   14.1770   30.6200 O   0  0  0  0  0  0  0  0  0  0  0  0
   -2.2500    8.0520   27.4030 C   0  0  0  0  0  0  0  0  0  0  0  0
   -1.5770    8.3490   26.4160 O   0  0  0  0  0  0  0  0  0  0  0  0
   -1.7240    7.4230   28.3220 O   0  0  0  0  0  0  0  0  0  0  0  0
   -4.5540    7.4660   26.8200 O   0  0  0  0  0  0  0  0  0  0  0  0
   -5.0990    7.8760   25.5400 C   0  0  0  0  0  0  0  0  0  0  0  0
   -4.1020    9.8870   30.9910 O   0  0  0  0  0  0  0  0  0  0  0  0
   -4.8510   10.4880   30.9760 H   0  0  0  0  0  0  0  0  0  0  0  0
   -4.9340   12.5840   26.6970 O   0  0  0  0  0  0  0  0  0  0  0  0
   -5.5280   11.8300   26.7200 H   0  0  0  0  0  0  0  0  0  0  0  0
  1  4  1  6  0  0  0
  1 23  1  0  0  0  0
  2  1  1  0  0  0  0
  3  2  1  0  0  0  0
  5  6  2  0  0  0  0
  7  5  1  0  0  0  0
  7  4  1  0  0  0  0
  8  7  1  0  0  0  0
  9  5  1  0  0  0  0
 10  9  1  0  0  0  0
 12 11  1  0  0  0  0
 12 10  1  0  0  0  0
 13 12  2  0  0  0  0
 14 13  1  0  0  0  0
 14 15  1  0  0  0  0
 15 11  2  0  0  0  0
 16 14  1  0  0  0  0
 17 16  1  0  0  0  0
 18 17  1  0  0  0  0
 19 18  2  0  0  0  0
 20 21  2  0  0  0  0
 20 19  1  0  0  0  0
 21 22  1  0  0  0  0
 22 17  2  0  0  0  0
 23 42  1  6  0  0  0
 24 23  1  6  0  0  0
 24 29  1  0  0  0  0
 25 24  1  0  0  0  0
 25 26  1  0  0  0  0
 26 38  1  6  0  0  0
 26 27  1  0  0  0  0
 27 28  1  0  0  0  0
 28 40  1  1  0  0  0
 29 30  1  1  0  0  0
 29 28  1  0  0  0  0
 30 31  1  0  0  0  0
 30 32  1  0  0  0  0
 32 33  1  0  0  0  0
 32 34  2  0  0  0  0
 35 26  1  0  0  0  0
 35 37  1  0  0  0  0
 36 35  2  0  0  0  0
 39 38  1  0  0  0  0
 41 40  1  0  0  0  0
 42 43  1  0  0  0  0
M  END
>  <REMARK>
 VINA RESULT:    -4.838      0.000      0.000
 INTER + INTRA:         -11.869
 INTER:                  -9.302
 INTRA:                  -2.567
 UNBOUND:                -3.213
  Name = lig_assembled_46.pdb
  17 active torsions:
  status: ('A' for Active; 'I' for Inactive)
    1  A    between atoms: _2  and  _9
    2  A    between atoms: _4  and  _19
    3  A    between atoms: _6  and  _7
    4  A    between atoms: _6  and  _19
    5  A    between atoms: _9  and  _10
    6  A    between atoms: _15  and  _35
    7  A    between atoms: _17  and  _23
    8  A    between atoms: _18  and  _22
    9  A    between atoms: _22  and  _23
   10  A    between atoms: _25  and  _26
   11  A    between atoms: _27  and  _28
   12  A    between atoms: _29  and  _31
   13  A    between atoms: _31  and  _32
   14  A    between atoms: _31  and  _33
   15  A    between atoms: _33  and  _34
   16  A    between atoms: _33  and  _35
   17  A    between atoms: _36  and  _38
                            x       y       z     vdW  Elec       q    Type
                         _______ _______ _______ _____ _____    ______ ____

>  <TORSDO>
F 15

$$$$
lig_assembled_47.pdb
 OpenBabel07252309473D

 55 58  0  0  1  0  0  0  0  0999 V2000
   -5.1330   14.6690   23.1930 C   0  0  0  0  0  0  0  0  0  0  0  0
   -4.3660   14.9450   22.2680 O   0  0  0  0  0  0  0  0  0  0  0  0
   -4.7990   13.9100   24.2370 N   0  0  0  0  0  0  0  0  0  0  0  0
   -5.4950   13.7480   24.9520 H   0  0  0  0  0  0  0  0  0  0  0  0
   -3.4760   13.2950   24.4070 C   0  0  0  0  0  0  0  0  0  0  0  0
   -3.5510   11.9950   25.2010 C   0  0  1  0  0  0  0  0  0  0  0  0
   -2.3350   11.2480   25.0350 O   0  0  0  0  0  0  0  0  0  0  0  0
   -1.8590   11.5750   24.2680 H   0  0  0  0  0  0  0  0  0  0  0  0
   -3.8030   12.3130   26.6850 C   0  0  2  0  0  0  0  0  0  0  0  0
   -3.4070   11.1460   27.6010 C   0  0  2  0  0  0  0  0  0  0  0  0
   -4.0010    9.9330   27.0620 O   0  0  0  0  0  0  0  0  0  0  0  0
   -3.6420    8.6910   27.7520 C   0  0  2  0  0  0  0  0  0  0  0  0
   -3.9580    8.8010   29.2640 C   0  0  0  0  0  0  0  0  0  0  0  0
   -3.3730   10.0910   29.8760 C   0  0  1  0  0  0  0  0  0  0  0  0
   -3.8070   11.3220   29.0780 C   0  0  1  0  0  0  0  0  0  0  0  0
   -3.1740   12.5350   29.6180 N   0  0  0  0  0  0  0  0  0  0  0  0
   -2.1700   12.6160   29.5440 H   0  0  0  0  0  0  0  0  0  0  0  0
   -3.8400   13.5370   30.1980 C   0  0  0  0  0  0  0  0  0  0  0  0
   -5.3670   13.3720   30.3180 C   0  0  0  0  0  0  0  0  0  0  0  0
   -3.2850   14.5490   30.6280 O   0  0  0  0  0  0  0  0  0  0  0  0
   -2.1450    8.3710   27.5600 C   0  0  0  0  0  0  0  0  0  0  0  0
   -1.5100    7.8140   28.4550 O   0  0  0  0  0  0  0  0  0  0  0  0
   -1.5720    8.6700   26.5120 O   0  0  0  0  0  0  0  0  0  0  0  0
   -4.4450    7.6190   27.1940 O   0  0  0  0  0  0  0  0  0  0  0  0
   -5.6040    7.2470   27.9830 C   0  0  0  0  0  0  0  0  0  0  0  0
   -3.8150   10.2270   31.2270 O   0  0  0  0  0  0  0  0  0  0  0  0
   -3.1320    9.9060   31.8210 H   0  0  0  0  0  0  0  0  0  0  0  0
   -5.1870   12.6590   26.8910 O   0  0  0  0  0  0  0  0  0  0  0  0
   -5.5390   12.1480   27.6230 H   0  0  0  0  0  0  0  0  0  0  0  0
   -6.4660   15.1870   23.1690 O   0  0  0  0  0  0  0  0  0  0  0  0
   -7.4000   14.1060   23.2160 C   0  0  0  0  0  0  0  0  0  0  0  0
   -7.6900   14.2370   20.7540 N   0  0  0  0  0  0  0  0  0  0  0  0
   -7.5550   13.4790   21.8880 C   0  0  0  0  0  0  0  0  0  0  0  0
   -7.6210   12.1470   21.5440 C   0  0  0  0  0  0  0  0  0  0  0  0
   -7.8450   12.1620   20.1990 N   0  0  0  0  0  0  0  0  0  0  0  0
   -7.8650   13.4190   19.7240 N   0  0  0  0  0  0  0  0  0  0  0  0
   -8.1970   11.0440   19.3350 C   0  0  0  0  0  0  0  0  0  0  0  0
   -7.1860   10.7820   18.2150 C   0  0  1  0  0  0  0  0  0  0  0  0
   -7.8290   11.2200   16.9060 C   0  0  0  0  0  0  0  0  0  0  0  0
   -8.1330   10.4340   16.0210 O   0  0  0  0  0  0  0  0  0  0  0  0
   -8.1610   12.5230   16.7970 O   0  0  0  0  0  0  0  0  0  0  0  0
   -8.4720   12.8560   15.9390 H   0  0  0  0  0  0  0  0  0  0  0  0
   -5.7890   11.4460   18.4290 C   0  0  0  0  0  0  0  0  0  0  0  0
   -5.0230   10.9950   19.6740 C   0  0  0  0  0  0  0  0  0  0  0  0
   -4.0390   11.8350   20.2310 C   0  0  0  0  0  0  0  0  0  0  0  0
   -3.3210   11.4530   21.3690 C   0  0  0  0  0  0  0  0  0  0  0  0
   -3.5590   10.2180   21.9630 C   0  0  0  0  0  0  0  0  0  0  0  0
   -4.5130    9.3660   21.4160 C   0  0  0  0  0  0  0  0  0  0  0  0
   -5.2460    9.7540   20.2890 C   0  0  0  0  0  0  0  0  0  0  0  0
   -4.9540   11.3500   17.1460 C   0  0  0  0  0  0  0  0  0  0  0  0
   -4.4440   10.1120   16.7210 C   0  0  0  0  0  0  0  0  0  0  0  0
   -3.5430   10.0440   15.6530 C   0  0  0  0  0  0  0  0  0  0  0  0
   -3.1620   11.2030   14.9810 C   0  0  0  0  0  0  0  0  0  0  0  0
   -3.6880   12.4300   15.3640 C   0  0  0  0  0  0  0  0  0  0  0  0
   -4.5750   12.5030   16.4370 C   0  0  0  0  0  0  0  0  0  0  0  0
  1  3  1  0  0  0  0
  2  1  2  0  0  0  0
  3  5  1  0  0  0  0
  3  4  1  0  0  0  0
  6  5  1  6  0  0  0
  6  9  1  0  0  0  0
  7  6  1  0  0  0  0
  8  7  1  0  0  0  0
  9 28  1  6  0  0  0
 10  9  1  6  0  0  0
 10 15  1  0  0  0  0
 11 10  1  0  0  0  0
 11 12  1  0  0  0  0
 12 24  1  6  0  0  0
 12 13  1  0  0  0  0
 13 14  1  0  0  0  0
 14 26  1  1  0  0  0
 15 16  1  1  0  0  0
 15 14  1  0  0  0  0
 16 18  1  0  0  0  0
 17 16  1  0  0  0  0
 18 19  1  0  0  0  0
 18 20  2  0  0  0  0
 21 12  1  0  0  0  0
 21 22  1  0  0  0  0
 23 21  2  0  0  0  0
 24 25  1  0  0  0  0
 26 27  1  0  0  0  0
 28 29  1  0  0  0  0
 30  1  1  0  0  0  0
 30 31  1  0  0  0  0
 32 33  1  0  0  0  0
 33 31  1  0  0  0  0
 34 33  2  0  0  0  0
 35 34  1  0  0  0  0
 36 35  1  0  0  0  0
 36 32  2  0  0  0  0
 37 35  1  0  0  0  0
 38 43  1  0  0  0  0
 38 37  1  1  0  0  0
 39 38  1  0  0  0  0
 40 39  2  0  0  0  0
 41 39  1  0  0  0  0
 42 41  1  0  0  0  0
 43 44  1  0  0  0  0
 44 45  2  0  0  0  0
 44 49  1  0  0  0  0
 45 46  1  0  0  0  0
 46 47  2  0  0  0  0
 48 47  1  0  0  0  0
 49 48  2  0  0  0  0
 50 43  1  0  0  0  0
 51 50  1  0  0  0  0
 52 51  2  0  0  0  0
 53 54  2  0  0  0  0
 53 52  1  0  0  0  0
 54 55  1  0  0  0  0
 55 50  2  0  0  0  0
M  END
>  <REMARK>
 VINA RESULT:    -5.770      0.000      0.000
 INTER + INTRA:         -15.234
 INTER:                 -11.626
 INTRA:                  -3.609
 UNBOUND:                -3.392
  Name = lig_assembled_47.pdb
  22 active torsions:
  status: ('A' for Active; 'I' for Inactive)
    1  A    between atoms: _2  and  _9
    2  A    between atoms: _4  and  _30
    3  A    between atoms: _6  and  _7
    4  A    between atoms: _6  and  _30
    5  A    between atoms: _9  and  _10
    6  A    between atoms: _10  and  _11
    7  A    between atoms: _10  and  _12
    8  A    between atoms: _11  and  _24
    9  A    between atoms: _12  and  _13
   10  A    between atoms: _12  and  _19
   11  A    between atoms: _26  and  _46
   12  A    between atoms: _28  and  _34
   13  A    between atoms: _29  and  _33
   14  A    between atoms: _33  and  _34
   15  A    between atoms: _36  and  _37
   16  A    between atoms: _38  and  _39
   17  A    between atoms: _40  and  _42
   18  A    between atoms: _42  and  _43
   19  A    between atoms: _42  and  _44
   20  A    between atoms: _44  and  _45
   21  A    between atoms: _44  and  _46
   22  A    between atoms: _47  and  _49
                            x       y       z     vdW  Elec       q    Type
                         _______ _______ _______ _____ _____    ______ ____

>  <TORSDO>
F 20

$$$$
lig_assembled_48.pdb
 OpenBabel07252309473D

 42 44  0  0  1  0  0  0  0  0999 V2000
   -3.1190   10.2740   31.0240 C   0  0  2  0  0  0  0  0  0  0  0  0
   -2.0890   11.1190   31.5620 O   0  0  0  0  0  0  0  0  0  0  0  0
   -1.9400   10.8960   32.4840 H   0  0  0  0  0  0  0  0  0  0  0  0
   -2.4960    9.0520   30.3560 C   0  0  0  0  0  0  0  0  0  0  0  0
   -1.9100    8.2830   28.0830 C   0  0  0  0  0  0  0  0  0  0  0  0
   -1.5320    7.1700   28.4550 O   0  0  0  0  0  0  0  0  0  0  0  0
   -2.3700    9.2280   28.9040 N   0  0  0  0  0  0  0  0  0  0  0  0
   -2.6470   10.1140   28.5050 H   0  0  0  0  0  0  0  0  0  0  0  0
   -1.8560    8.6050   26.6900 O   0  0  0  0  0  0  0  0  0  0  0  0
   -3.1420    9.0530   26.2540 C   0  0  0  0  0  0  0  0  0  0  0  0
   -2.2040   11.3040   25.8530 N   0  0  0  0  0  0  0  0  0  0  0  0
   -3.0040   10.2760   25.4410 C   0  0  0  0  0  0  0  0  0  0  0  0
   -3.5620   10.5990   24.2240 C   0  0  0  0  0  0  0  0  0  0  0  0
   -2.9900   11.7940   23.9010 N   0  0  0  0  0  0  0  0  0  0  0  0
   -2.2320   12.2450   24.9220 N   0  0  0  0  0  0  0  0  0  0  0  0
   -3.0360   12.5670   22.6650 C   0  0  0  0  0  0  0  0  0  0  0  0
   -4.0000   11.9270   21.6470 C   0  0  0  0  0  0  0  0  0  0  0  0
   -5.4570   12.1160   22.0620 C   0  0  0  0  0  0  0  0  0  0  0  0
   -5.8020   13.5960   22.1730 C   0  0  0  0  0  0  0  0  0  0  0  0
   -4.8550   14.3490   23.1040 C   0  0  0  0  0  0  0  0  0  0  0  0
   -3.3750   14.0630   22.8220 C   0  0  0  0  0  0  0  0  0  0  0  0
   -3.9780   11.0370   30.0020 C   0  0  2  0  0  0  0  0  0  0  0  0
   -4.1330   12.5200   30.3680 C   0  0  2  0  0  0  0  0  0  0  0  0
   -4.3320   12.6070   31.8060 O   0  0  0  0  0  0  0  0  0  0  0  0
   -4.3950   13.9640   32.3570 C   0  0  2  0  0  0  0  0  0  0  0  0
   -5.4780   14.7950   31.6270 C   0  0  0  0  0  0  0  0  0  0  0  0
   -5.3260   14.7080   30.0940 C   0  0  1  0  0  0  0  0  0  0  0  0
   -5.2690   13.2520   29.6300 C   0  0  1  0  0  0  0  0  0  0  0  0
   -5.0370   13.1820   28.1790 N   0  0  0  0  0  0  0  0  0  0  0  0
   -4.1340   13.4750   27.8310 H   0  0  0  0  0  0  0  0  0  0  0  0
   -5.9400   12.7570   27.2910 C   0  0  0  0  0  0  0  0  0  0  0  0
   -7.3140   12.3430   27.8510 C   0  0  0  0  0  0  0  0  0  0  0  0
   -5.7120   12.6960   26.0830 O   0  0  0  0  0  0  0  0  0  0  0  0
   -3.0290   14.6700   32.2270 C   0  0  0  0  0  0  0  0  0  0  0  0
   -2.9700   15.8970   32.1540 O   0  0  0  0  0  0  0  0  0  0  0  0
   -1.9870   14.0140   32.1960 O   0  0  0  0  0  0  0  0  0  0  0  0
   -6.4290   15.3600   29.4620 O   0  0  0  0  0  0  0  0  0  0  0  0
   -7.2510   15.0110   29.8140 H   0  0  0  0  0  0  0  0  0  0  0  0
   -4.7620   13.8640   33.7570 O   0  0  0  0  0  0  0  0  0  0  0  0
   -5.0680   12.5220   34.2150 C   0  0  0  0  0  0  0  0  0  0  0  0
   -5.2740   10.4170   29.8810 O   0  0  0  0  0  0  0  0  0  0  0  0
   -5.1910    9.4710   30.0200 H   0  0  0  0  0  0  0  0  0  0  0  0
  1  4  1  6  0  0  0
  1  2  1  0  0  0  0
  2  3  1  0  0  0  0
  5  6  2  0  0  0  0
  5  7  1  0  0  0  0
  7  4  1  0  0  0  0
  8  7  1  0  0  0  0
  9  5  1  0  0  0  0
 10  9  1  0  0  0  0
 12 11  1  0  0  0  0
 12 10  1  0  0  0  0
 13 12  2  0  0  0  0
 14 13  1  0  0  0  0
 14 15  1  0  0  0  0
 15 11  2  0  0  0  0
 16 21  1  0  0  0  0
 16 14  1  0  0  0  0
 17 18  1  0  0  0  0
 17 16  1  0  0  0  0
 18 19  1  0  0  0  0
 19 20  1  0  0  0  0
 21 20  1  0  0  0  0
 22 41  1  1  0  0  0
 22  1  1  0  0  0  0
 23 22  1  6  0  0  0
 23 24  1  0  0  0  0
 24 25  1  0  0  0  0
 25 34  1  6  0  0  0
 25 39  1  0  0  0  0
 26 25  1  0  0  0  0
 27 37  1  6  0  0  0
 27 26  1  0  0  0  0
 28 29  1  6  0  0  0
 28 27  1  0  0  0  0
 28 23  1  0  0  0  0
 30 29  1  0  0  0  0
 31 32  1  0  0  0  0
 31 29  1  0  0  0  0
 33 31  2  0  0  0  0
 35 34  2  0  0  0  0
 36 34  1  0  0  0  0
 37 38  1  0  0  0  0
 39 40  1  0  0  0  0
 41 42  1  0  0  0  0
M  END
>  <REMARK>
 VINA RESULT:    -5.445      0.000      0.000
 INTER + INTRA:         -11.932
 INTER:                  -9.282
 INTRA:                  -2.649
 UNBOUND:                -2.508
  Name = lig_assembled_48.pdb
  16 active torsions:
  status: ('A' for Active; 'I' for Inactive)
    1  A    between atoms: _2  and  _9
    2  A    between atoms: _4  and  _18
    3  A    between atoms: _6  and  _7
    4  A    between atoms: _6  and  _18
    5  A    between atoms: _14  and  _34
    6  A    between atoms: _16  and  _22
    7  A    between atoms: _17  and  _21
    8  A    between atoms: _21  and  _22
    9  A    between atoms: _24  and  _25
   10  A    between atoms: _26  and  _27
   11  A    between atoms: _28  and  _30
   12  A    between atoms: _30  and  _31
   13  A    between atoms: _30  and  _32
   14  A    between atoms: _32  and  _33
   15  A    between atoms: _32  and  _34
   16  A    between atoms: _35  and  _37
                            x       y       z     vdW  Elec       q    Type
                         _______ _______ _______ _____ _____    ______ ____

>  <TORSDO>
F 14

$$$$
lig_assembled_49.pdb
 OpenBabel07252309473D

 41 43  0  0  1  0  0  0  0  0999 V2000
   -4.1270   11.1740   30.2280 C   0  0  2  0  0  0  0  0  0  0  0  0
   -4.2700   12.6770   30.5110 C   0  0  2  0  0  0  0  0  0  0  0  0
   -4.5300   12.8410   31.9330 O   0  0  0  0  0  0  0  0  0  0  0  0
   -4.5910   14.2260   32.4100 C   0  0  2  0  0  0  0  0  0  0  0  0
   -5.6270   15.0350   31.5910 C   0  0  0  0  0  0  0  0  0  0  0  0
   -5.4100   14.8660   30.0730 C   0  0  1  0  0  0  0  0  0  0  0  0
   -5.3590   13.3870   29.6870 C   0  0  1  0  0  0  0  0  0  0  0  0
   -5.0660   13.2380   28.2530 N   0  0  0  0  0  0  0  0  0  0  0  0
   -4.1530   13.5220   27.9270 H   0  0  0  0  0  0  0  0  0  0  0  0
   -5.9270   12.7530   27.3550 C   0  0  0  0  0  0  0  0  0  0  0  0
   -7.3190   12.3550   27.8790 C   0  0  0  0  0  0  0  0  0  0  0  0
   -5.6490   12.6260   26.1620 O   0  0  0  0  0  0  0  0  0  0  0  0
   -3.2090   14.9030   32.3050 C   0  0  0  0  0  0  0  0  0  0  0  0
   -2.1840   14.2230   32.3100 O   0  0  0  0  0  0  0  0  0  0  0  0
   -3.1190   16.1280   32.2140 O   0  0  0  0  0  0  0  0  0  0  0  0
   -6.4730   15.5010   29.3610 O   0  0  0  0  0  0  0  0  0  0  0  0
   -6.3190   15.4200   28.4160 H   0  0  0  0  0  0  0  0  0  0  0  0
   -5.0200   14.2040   33.7960 O   0  0  0  0  0  0  0  0  0  0  0  0
   -6.4380   13.9750   33.9950 C   0  0  0  0  0  0  0  0  0  0  0  0
   -5.4260   10.5510   30.1870 O   0  0  0  0  0  0  0  0  0  0  0  0
   -5.3920    9.7780   29.6170 H   0  0  0  0  0  0  0  0  0  0  0  0
   -3.2340   10.4720   31.2660 C   0  0  2  0  0  0  0  0  0  0  0  0
   -2.1130   11.2970   31.6220 O   0  0  0  0  0  0  0  0  0  0  0  0
   -2.3600   11.8790   32.3450 H   0  0  0  0  0  0  0  0  0  0  0  0
   -2.7450    9.1420   30.7020 C   0  0  0  0  0  0  0  0  0  0  0  0
   -2.1240    8.2350   28.4890 C   0  0  0  0  0  0  0  0  0  0  0  0
   -1.4100    7.3420   28.9510 O   0  0  0  0  0  0  0  0  0  0  0  0
   -2.7810    9.1250   29.2340 N   0  0  0  0  0  0  0  0  0  0  0  0
   -3.3340    9.8260   28.7620 H   0  0  0  0  0  0  0  0  0  0  0  0
   -2.2680    8.3450   27.0700 O   0  0  0  0  0  0  0  0  0  0  0  0
   -3.4410    9.1050   26.7670 C   0  0  0  0  0  0  0  0  0  0  0  0
   -2.2970   11.1810   26.0600 N   0  0  0  0  0  0  0  0  0  0  0  0
   -3.1360   10.1410   25.7620 C   0  0  0  0  0  0  0  0  0  0  0  0
   -3.5810   10.2780   24.4660 C   0  0  0  0  0  0  0  0  0  0  0  0
   -2.9820   11.4240   24.0330 N   0  0  0  0  0  0  0  0  0  0  0  0
   -2.2090   11.9610   24.9920 N   0  0  0  0  0  0  0  0  0  0  0  0
   -3.1200   12.0600   22.7440 C   0  0  0  0  0  0  0  0  0  0  0  0
   -3.2940   11.0770   21.5850 C   0  0  0  0  0  0  0  0  0  0  0  0
   -3.8460   11.9560   20.4760 C   0  0  0  0  0  0  0  0  0  0  0  0
   -4.8180   12.8890   21.1860 C   0  0  0  0  0  0  0  0  0  0  0  0
   -4.3190   13.0110   22.6280 C   0  0  0  0  0  0  0  0  0  0  0  0
  1 20  1  1  0  0  0
  1 22  1  0  0  0  0
  2  1  1  6  0  0  0
  2  3  1  0  0  0  0
  3  4  1  0  0  0  0
  4 13  1  6  0  0  0
  4 18  1  0  0  0  0
  5  4  1  0  0  0  0
  6 16  1  6  0  0  0
  6  5  1  0  0  0  0
  7  8  1  6  0  0  0
  7  6  1  0  0  0  0
  7  2  1  0  0  0  0
  9  8  1  0  0  0  0
 10 11  1  0  0  0  0
 10  8  1  0  0  0  0
 12 10  2  0  0  0  0
 13 14  1  0  0  0  0
 15 13  2  0  0  0  0
 17 16  1  0  0  0  0
 18 19  1  0  0  0  0
 21 20  1  0  0  0  0
 22 25  1  6  0  0  0
 22 23  1  0  0  0  0
 23 24  1  0  0  0  0
 26 27  2  0  0  0  0
 26 28  1  0  0  0  0
 28 25  1  0  0  0  0
 29 28  1  0  0  0  0
 30 26  1  0  0  0  0
 31 30  1  0  0  0  0
 33 32  1  0  0  0  0
 33 31  1  0  0  0  0
 34 33  2  0  0  0  0
 35 34  1  0  0  0  0
 35 36  1  0  0  0  0
 36 32  2  0  0  0  0
 37 35  1  0  0  0  0
 38 37  1  0  0  0  0
 39 40  1  0  0  0  0
 39 38  1  0  0  0  0
 40 41  1  0  0  0  0
 41 37  1  0  0  0  0
M  END
>  <REMARK>
 VINA RESULT:    -5.570      0.000      0.000
 INTER + INTRA:         -11.651
 INTER:                  -8.862
 INTRA:                  -2.789
 UNBOUND:                -2.010
  Name = lig_assembled_49.pdb
  16 active torsions:
  status: ('A' for Active; 'I' for Inactive)
    1  A    between atoms: _2  and  _9
    2  A    between atoms: _4  and  _17
    3  A    between atoms: _6  and  _7
    4  A    between atoms: _6  and  _17
    5  A    between atoms: _13  and  _33
    6  A    between atoms: _15  and  _21
    7  A    between atoms: _16  and  _20
    8  A    between atoms: _20  and  _21
    9  A    between atoms: _23  and  _24
   10  A    between atoms: _25  and  _26
   11  A    between atoms: _27  and  _29
   12  A    between atoms: _29  and  _30
   13  A    between atoms: _29  and  _31
   14  A    between atoms: _31  and  _32
   15  A    between atoms: _31  and  _33
   16  A    between atoms: _34  and  _36
                            x       y       z     vdW  Elec       q    Type
                         _______ _______ _______ _____ _____    ______ ____

>  <TORSDO>
F 14

$$$$
lig_assembled_4.pdb
 OpenBabel07252309473D

 45 47  0  0  1  0  0  0  0  0999 V2000
   -6.6840    8.7660   23.7930 C   0  0  2  0  0  0  0  0  0  0  0  0
   -5.9700    9.0110   25.0150 O   0  0  0  0  0  0  0  0  0  0  0  0
   -5.8900    8.1920   25.5100 H   0  0  0  0  0  0  0  0  0  0  0  0
   -6.2380    7.4400   23.1850 C   0  0  0  0  0  0  0  0  0  0  0  0
   -3.8150    7.0610   23.4840 C   0  0  0  0  0  0  0  0  0  0  0  0
   -3.4950    7.7040   22.4810 O   0  0  0  0  0  0  0  0  0  0  0  0
   -5.0740    6.8820   23.8840 N   0  0  0  0  0  0  0  0  0  0  0  0
   -5.2360    6.3300   24.7150 H   0  0  0  0  0  0  0  0  0  0  0  0
   -2.7900    6.4600   24.2790 O   0  0  0  0  0  0  0  0  0  0  0  0
   -3.3470    6.0130   25.5180 C   0  0  0  0  0  0  0  0  0  0  0  0
   -1.7830    7.4810   26.7400 N   0  0  0  0  0  0  0  0  0  0  0  0
   -3.0330    6.9620   26.6020 C   0  0  0  0  0  0  0  0  0  0  0  0
   -3.8340    7.4380   27.6160 C   0  0  0  0  0  0  0  0  0  0  0  0
   -2.9810    8.1530   28.4350 N   0  0  0  0  0  0  0  0  0  0  0  0
   -1.7700    8.2230   27.8400 N   0  0  0  0  0  0  0  0  0  0  0  0
   -3.2740    8.7180   29.7130 C   0  0  0  0  0  0  0  0  0  0  0  0
   -3.7620   10.0410   29.8880 C   0  0  0  0  0  0  0  0  0  0  0  0
   -3.9810   10.4850   31.2120 C   0  0  0  0  0  0  0  0  0  0  0  0
   -3.7200    9.6760   32.3190 C   0  0  0  0  0  0  0  0  0  0  0  0
   -3.2510    8.3840   32.1350 C   0  0  0  0  0  0  0  0  0  0  0  0
   -3.0270    7.9080   30.8450 C   0  0  0  0  0  0  0  0  0  0  0  0
   -4.0540   11.0110   28.7420 C   0  0  0  0  0  0  0  0  0  0  0  0
   -3.8020   12.4930   29.0620 C   0  0  0  0  0  0  0  0  0  0  0  0
   -5.4920   10.8240   28.2520 C   0  0  0  0  0  0  0  0  0  0  0  0
   -6.4500    9.9000   22.7810 C   0  0  2  0  0  0  0  0  0  0  0  0
   -5.1260   10.6370   23.0350 C   0  0  2  0  0  0  0  0  0  0  0  0
   -5.3390   11.5760   24.1240 O   0  0  0  0  0  0  0  0  0  0  0  0
   -4.1480   12.2990   24.5800 C   0  0  2  0  0  0  0  0  0  0  0  0
   -3.4660   13.0210   23.3910 C   0  0  0  0  0  0  0  0  0  0  0  0
   -3.2480   12.0700   22.1960 C   0  0  1  0  0  0  0  0  0  0  0  0
   -4.5500   11.3680   21.8090 C   0  0  1  0  0  0  0  0  0  0  0  0
   -4.3110   10.4010   20.7260 N   0  0  0  0  0  0  0  0  0  0  0  0
   -3.7350    9.5970   20.9310 H   0  0  0  0  0  0  0  0  0  0  0  0
   -4.8070   10.5150   19.4910 C   0  0  0  0  0  0  0  0  0  0  0  0
   -5.6610   11.7640   19.2040 C   0  0  0  0  0  0  0  0  0  0  0  0
   -4.6030    9.6810   18.6090 O   0  0  0  0  0  0  0  0  0  0  0  0
   -3.1420   11.3350   25.2420 C   0  0  0  0  0  0  0  0  0  0  0  0
   -2.0070   11.7180   25.5210 O   0  0  0  0  0  0  0  0  0  0  0  0
   -3.4660   10.1740   25.4980 O   0  0  0  0  0  0  0  0  0  0  0  0
   -2.7600   12.8080   21.0760 O   0  0  0  0  0  0  0  0  0  0  0  0
   -3.4680   12.9320   20.4400 H   0  0  0  0  0  0  0  0  0  0  0  0
   -4.5710   13.3000   25.5410 O   0  0  0  0  0  0  0  0  0  0  0  0
   -5.9760   13.6530   25.4800 C   0  0  0  0  0  0  0  0  0  0  0  0
   -7.5500   10.8310   22.8140 O   0  0  0  0  0  0  0  0  0  0  0  0
   -7.4540   11.4140   23.5710 H   0  0  0  0  0  0  0  0  0  0  0  0
  1  4  1  6  0  0  0
  1  2  1  0  0  0  0
  2  3  1  0  0  0  0
  4  7  1  0  0  0  0
  5  7  1  0  0  0  0
  5  9  1  0  0  0  0
  6  5  2  0  0  0  0
  7  8  1  0  0  0  0
  9 10  1  0  0  0  0
 10 12  1  0  0  0  0
 11 15  2  0  0  0  0
 12 11  1  0  0  0  0
 12 13  2  0  0  0  0
 13 14  1  0  0  0  0
 14 16  1  0  0  0  0
 15 14  1  0  0  0  0
 16 17  2  0  0  0  0
 16 21  1  0  0  0  0
 17 18  1  0  0  0  0
 18 19  2  0  0  0  0
 20 19  1  0  0  0  0
 21 20  2  0  0  0  0
 22 23  1  0  0  0  0
 22 17  1  0  0  0  0
 24 22  1  0  0  0  0
 25 44  1  1  0  0  0
 25  1  1  0  0  0  0
 26 25  1  6  0  0  0
 26 27  1  0  0  0  0
 27 28  1  0  0  0  0
 28 37  1  1  0  0  0
 28 42  1  0  0  0  0
 29 28  1  0  0  0  0
 30 40  1  6  0  0  0
 30 29  1  0  0  0  0
 31 32  1  6  0  0  0
 31 30  1  0  0  0  0
 31 26  1  0  0  0  0
 32 33  1  0  0  0  0
 34 32  1  0  0  0  0
 35 34  1  0  0  0  0
 36 34  2  0  0  0  0
 37 39  2  0  0  0  0
 37 38  1  0  0  0  0
 41 40  1  0  0  0  0
 43 42  1  0  0  0  0
 44 45  1  0  0  0  0
M  END
>  <REMARK>
 VINA RESULT:    -5.715      0.000      0.000
 INTER + INTRA:         -12.529
 INTER:                  -8.922
 INTRA:                  -3.607
 UNBOUND:                -2.303
  Name = lig_assembled_4.pdb
  19 active torsions:
  status: ('A' for Active; 'I' for Inactive)
    1  A    between atoms: _2  and  _9
    2  A    between atoms: _4  and  _21
    3  A    between atoms: _6  and  _7
    4  A    between atoms: _6  and  _21
    5  A    between atoms: _10  and  _11
    6  A    between atoms: _11  and  _12
    7  A    between atoms: _11  and  _13
    8  A    between atoms: _17  and  _37
    9  A    between atoms: _19  and  _25
   10  A    between atoms: _20  and  _24
   11  A    between atoms: _24  and  _25
   12  A    between atoms: _27  and  _28
   13  A    between atoms: _29  and  _30
   14  A    between atoms: _31  and  _33
   15  A    between atoms: _33  and  _34
   16  A    between atoms: _33  and  _35
   17  A    between atoms: _35  and  _36
   18  A    between atoms: _35  and  _37
   19  A    between atoms: _38  and  _40
                            x       y       z     vdW  Elec       q    Type
                         _______ _______ _______ _____ _____    ______ ____

>  <TORSDO>
F 15

$$$$
lig_assembled_50.pdb
 OpenBabel07252309473D

 43 44  0  0  1  0  0  0  0  0999 V2000
   -3.2780   11.8260   25.0640 C   0  0  1  0  0  0  0  0  0  0  0  0
   -2.1060   10.9990   24.9780 O   0  0  0  0  0  0  0  0  0  0  0  0
   -1.8460   10.7180   25.8590 H   0  0  0  0  0  0  0  0  0  0  0  0
   -3.6380   12.1180   26.5310 C   0  0  2  0  0  0  0  0  0  0  0  0
   -3.3710   10.9120   27.4430 C   0  0  2  0  0  0  0  0  0  0  0  0
   -3.9980    9.7470   26.8390 O   0  0  0  0  0  0  0  0  0  0  0  0
   -3.7570    8.4720   27.5210 C   0  0  2  0  0  0  0  0  0  0  0  0
   -4.1640    8.5710   29.0120 C   0  0  0  0  0  0  0  0  0  0  0  0
   -3.5470    9.8130   29.6890 C   0  0  1  0  0  0  0  0  0  0  0  0
   -3.8570   11.0820   28.8950 C   0  0  1  0  0  0  0  0  0  0  0  0
   -3.1920   12.2450   29.5020 N   0  0  0  0  0  0  0  0  0  0  0  0
   -2.1820   12.2710   29.4900 H   0  0  0  0  0  0  0  0  0  0  0  0
   -3.8350   13.2690   30.0690 C   0  0  0  0  0  0  0  0  0  0  0  0
   -5.3730   13.1880   30.0950 C   0  0  0  0  0  0  0  0  0  0  0  0
   -3.2520   14.2380   30.5570 O   0  0  0  0  0  0  0  0  0  0  0  0
   -2.2710    8.0690   27.4180 C   0  0  0  0  0  0  0  0  0  0  0  0
   -1.6350    8.3010   26.3910 O   0  0  0  0  0  0  0  0  0  0  0  0
   -1.7090    7.5110   28.3620 O   0  0  0  0  0  0  0  0  0  0  0  0
   -4.0680    9.9480   31.0130 O   0  0  0  0  0  0  0  0  0  0  0  0
   -4.3180   10.8620   31.1670 H   0  0  0  0  0  0  0  0  0  0  0  0
   -4.5820    7.4610   26.8880 O   0  0  0  0  0  0  0  0  0  0  0  0
   -5.9410    7.8740   26.5970 C   0  0  0  0  0  0  0  0  0  0  0  0
   -5.0190   12.5220   26.6320 O   0  0  0  0  0  0  0  0  0  0  0  0
   -5.3450   12.7680   25.7630 H   0  0  0  0  0  0  0  0  0  0  0  0
   -3.0460   13.1390   24.3250 C   0  0  0  0  0  0  0  0  0  0  0  0
   -5.0320   13.5090   22.9020 C   0  0  0  0  0  0  0  0  0  0  0  0
   -5.7670   13.8140   23.8440 O   0  0  0  0  0  0  0  0  0  0  0  0
   -3.7480   13.1730   23.0360 N   0  0  0  0  0  0  0  0  0  0  0  0
   -3.2300   12.9290   22.2040 H   0  0  0  0  0  0  0  0  0  0  0  0
   -5.5680   13.5040   21.5760 O   0  0  0  0  0  0  0  0  0  0  0  0
   -6.6320   12.5510   21.4950 C   0  0  0  0  0  0  0  0  0  0  0  0
   -5.2900   10.7050   20.5270 N   0  0  0  0  0  0  0  0  0  0  0  0
   -6.0970   11.1760   21.5340 C   0  0  0  0  0  0  0  0  0  0  0  0
   -6.2590   10.1850   22.4800 C   0  0  0  0  0  0  0  0  0  0  0  0
   -5.5380    9.1440   21.9890 N   0  0  0  0  0  0  0  0  0  0  0  0
   -4.9430    9.4630   20.8250 N   0  0  0  0  0  0  0  0  0  0  0  0
   -5.3710    7.8230   22.5520 C   0  0  0  0  0  0  0  0  0  0  0  0
   -3.9760    7.5620   23.1310 C   0  0  1  0  0  0  0  0  0  0  0  0
   -3.5930    8.5360   24.1060 O   0  0  0  0  0  0  0  0  0  0  0  0
   -2.7340    8.9230   23.8390 H   0  0  0  0  0  0  0  0  0  0  0  0
   -3.8060    6.1530   23.7130 C   0  0  0  0  0  0  0  0  0  0  0  0
   -2.8140    6.1300   24.7390 O   0  0  0  0  0  0  0  0  0  0  0  0
   -3.0840    5.4720   25.4080 H   0  0  0  0  0  0  0  0  0  0  0  0
  1 25  1  6  0  0  0
  1  4  1  0  0  0  0
  2  1  1  0  0  0  0
  2  3  1  0  0  0  0
  4 23  1  6  0  0  0
  5  4  1  6  0  0  0
  5 10  1  0  0  0  0
  6  5  1  0  0  0  0
  6  7  1  0  0  0  0
  7 21  1  6  0  0  0
  7  8  1  0  0  0  0
  8  9  1  0  0  0  0
  9 19  1  1  0  0  0
 10 11  1  1  0  0  0
 10  9  1  0  0  0  0
 11 13  1  0  0  0  0
 12 11  1  0  0  0  0
 13 14  1  0  0  0  0
 13 15  2  0  0  0  0
 16  7  1  0  0  0  0
 16 18  1  0  0  0  0
 17 16  2  0  0  0  0
 19 20  1  0  0  0  0
 22 21  1  0  0  0  0
 24 23  1  0  0  0  0
 26 28  1  0  0  0  0
 26 27  2  0  0  0  0
 28 25  1  0  0  0  0
 29 28  1  0  0  0  0
 30 26  1  0  0  0  0
 31 33  1  0  0  0  0
 31 30  1  0  0  0  0
 32 36  2  0  0  0  0
 32 33  1  0  0  0  0
 33 34  2  0  0  0  0
 35 34  1  0  0  0  0
 35 37  1  0  0  0  0
 36 35  1  0  0  0  0
 38 37  1  1  0  0  0
 38 41  1  0  0  0  0
 38 39  1  0  0  0  0
 40 39  1  0  0  0  0
 41 42  1  0  0  0  0
 42 43  1  0  0  0  0
M  END
>  <REMARK>
 VINA RESULT:    -4.775      0.000      0.000
 INTER + INTRA:         -12.150
 INTER:                  -7.911
 INTRA:                  -4.239
 UNBOUND:                -3.048
  Name = lig_assembled_50.pdb
  20 active torsions:
  status: ('A' for Active; 'I' for Inactive)
    1  A    between atoms: _2  and  _9
    2  A    between atoms: _4  and  _17
    3  A    between atoms: _5  and  _10
    4  A    between atoms: _5  and  _11
    5  A    between atoms: _6  and  _7
    6  A    between atoms: _6  and  _17
    7  A    between atoms: _9  and  _10
    8  A    between atoms: _10  and  _12
    9  A    between atoms: _13  and  _33
   10  A    between atoms: _15  and  _21
   11  A    between atoms: _16  and  _20
   12  A    between atoms: _20  and  _21
   13  A    between atoms: _23  and  _24
   14  A    between atoms: _25  and  _26
   15  A    between atoms: _27  and  _29
   16  A    between atoms: _29  and  _30
   17  A    between atoms: _29  and  _31
   18  A    between atoms: _31  and  _32
   19  A    between atoms: _31  and  _33
   20  A    between atoms: _34  and  _36
                            x       y       z     vdW  Elec       q    Type
                         _______ _______ _______ _____ _____    ______ ____

>  <TORSDO>
F 18

$$$$
lig_assembled_51.pdb
 OpenBabel07252309473D

 46 50  0  0  1  0  0  0  0  0999 V2000
   -2.9470   11.5350   23.6390 C   0  0  2  0  0  0  0  0  0  0  0  0
   -2.2950   11.8480   24.8810 O   0  0  0  0  0  0  0  0  0  0  0  0
   -1.3780   11.5620   24.8430 H   0  0  0  0  0  0  0  0  0  0  0  0
   -3.7160   12.7510   23.1330 C   0  0  0  0  0  0  0  0  0  0  0  0
   -5.6030   13.8320   24.3050 C   0  0  0  0  0  0  0  0  0  0  0  0
   -6.4360   13.5180   23.4510 O   0  0  0  0  0  0  0  0  0  0  0  0
   -4.3080   13.5210   24.2330 N   0  0  0  0  0  0  0  0  0  0  0  0
   -3.7010   13.8320   24.9780 H   0  0  0  0  0  0  0  0  0  0  0  0
   -6.0280   14.5800   25.4470 O   0  0  0  0  0  0  0  0  0  0  0  0
   -6.6960   13.7120   26.3660 C   0  0  0  0  0  0  0  0  0  0  0  0
   -4.7440   12.4540   27.2220 N   0  0  0  0  0  0  0  0  0  0  0  0
   -5.7830   13.3120   27.4520 C   0  0  0  0  0  0  0  0  0  0  0  0
   -5.7810   13.6720   28.7800 C   0  0  0  0  0  0  0  0  0  0  0  0
   -4.7170   12.9970   29.3120 N   0  0  0  0  0  0  0  0  0  0  0  0
   -4.0990   12.2680   28.3650 N   0  0  0  0  0  0  0  0  0  0  0  0
   -4.2570   13.0030   30.7030 C   0  0  1  0  0  0  0  0  0  0  0  0
   -3.3560   11.7660   30.9710 C   0  0  0  0  0  0  0  0  0  0  0  0
   -2.8230   11.7790   32.4150 C   0  0  1  0  0  0  0  0  0  0  0  0
   -2.0100   13.0640   32.6430 C   0  0  0  0  0  0  0  0  0  0  0  0
   -2.9000   14.2980   32.4250 C   0  0  2  0  0  0  0  0  0  0  0  0
   -4.0830   14.2510   33.4040 C   0  0  0  0  0  0  0  0  0  0  0  0
   -4.9040   12.9730   33.1720 C   0  0  2  0  0  0  0  0  0  0  0  0
   -4.0060   11.7460   33.3930 C   0  0  0  0  0  0  0  0  0  0  0  0
   -3.4330   14.2910   30.9830 C   0  0  0  0  0  0  0  0  0  0  0  0
   -5.4310   12.9630   31.7270 C   0  0  0  0  0  0  0  0  0  0  0  0
   -3.9130   10.3490   23.8080 C   0  0  2  0  0  0  0  0  0  0  0  0
   -3.8770    9.7740   25.2320 C   0  0  2  0  0  0  0  0  0  0  0  0
   -2.8610    8.7340   25.2680 O   0  0  0  0  0  0  0  0  0  0  0  0
   -2.6110    8.1380   26.5840 C   0  0  2  0  0  0  0  0  0  0  0  0
   -3.9290    7.6040   27.1960 C   0  0  0  0  0  0  0  0  0  0  0  0
   -5.0490    8.6650   27.1500 C   0  0  1  0  0  0  0  0  0  0  0  0
   -5.2220    9.2190   25.7360 C   0  0  1  0  0  0  0  0  0  0  0  0
   -6.2310   10.2900   25.7220 N   0  0  0  0  0  0  0  0  0  0  0  0
   -6.0450   11.1200   26.2670 H   0  0  0  0  0  0  0  0  0  0  0  0
   -7.3770   10.2360   25.0380 C   0  0  0  0  0  0  0  0  0  0  0  0
   -7.6430    8.9460   24.2390 C   0  0  0  0  0  0  0  0  0  0  0  0
   -8.1970   11.1540   25.0330 O   0  0  0  0  0  0  0  0  0  0  0  0
   -1.9800    9.1710   27.5410 C   0  0  0  0  0  0  0  0  0  0  0  0
   -2.1820    9.0990   28.7520 O   0  0  0  0  0  0  0  0  0  0  0  0
   -1.2690   10.0760   27.1010 O   0  0  0  0  0  0  0  0  0  0  0  0
   -6.2800    8.0840   27.5820 O   0  0  0  0  0  0  0  0  0  0  0  0
   -6.8410    8.7660   27.9590 H   0  0  0  0  0  0  0  0  0  0  0  0
   -1.7030    7.0200   26.4050 O   0  0  0  0  0  0  0  0  0  0  0  0
   -1.9370    5.8950   27.2890 C   0  0  0  0  0  0  0  0  0  0  0  0
   -3.6070    9.3190   22.8480 O   0  0  0  0  0  0  0  0  0  0  0  0
   -3.3190    8.5270   23.3080 H   0  0  0  0  0  0  0  0  0  0  0  0
  1  4  1  1  0  0  0
  1 26  1  0  0  0  0
  1  2  1  0  0  0  0
  3  2  1  0  0  0  0
  4  7  1  0  0  0  0
  5  9  1  0  0  0  0
  6  5  2  0  0  0  0
  7  5  1  0  0  0  0
  7  8  1  0  0  0  0
  9 10  1  0  0  0  0
 10 12  1  0  0  0  0
 11 12  1  0  0  0  0
 11 15  2  0  0  0  0
 12 13  2  0  0  0  0
 13 14  1  0  0  0  0
 15 14  1  0  0  0  0
 16 14  1  6  0  0  0
 16 17  1  0  0  0  0
 16 24  1  0  0  0  0
 16 25  1  0  0  0  0
 18 17  1  6  0  0  0
 18 19  1  0  0  0  0
 18 23  1  0  0  0  0
 20 24  1  6  0  0  0
 20 19  1  0  0  0  0
 20 21  1  0  0  0  0
 22 25  1  6  0  0  0
 22 23  1  0  0  0  0
 22 21  1  0  0  0  0
 26 45  1  6  0  0  0
 27 26  1  6  0  0  0
 27 28  1  0  0  0  0
 27 32  1  0  0  0  0
 28 29  1  0  0  0  0
 29 43  1  6  0  0  0
 29 30  1  0  0  0  0
 29 38  1  0  0  0  0
 31 30  1  0  0  0  0
 31 41  1  6  0  0  0
 32 33  1  1  0  0  0
 32 31  1  0  0  0  0
 33 34  1  0  0  0  0
 35 33  1  0  0  0  0
 36 35  1  0  0  0  0
 37 35  2  0  0  0  0
 38 39  1  0  0  0  0
 40 38  2  0  0  0  0
 41 42  1  0  0  0  0
 43 44  1  0  0  0  0
 45 46  1  0  0  0  0
M  END
>  <REMARK>
 VINA RESULT:    -5.407      0.000      0.000
 INTER + INTRA:         -12.348
 INTER:                  -8.841
 INTRA:                  -3.507
 UNBOUND:                -2.989
  Name = lig_assembled_51.pdb
  16 active torsions:
  status: ('A' for Active; 'I' for Inactive)
    1  A    between atoms: _2  and  _9
    2  A    between atoms: _4  and  _22
    3  A    between atoms: _6  and  _7
    4  A    between atoms: _6  and  _22
    5  A    between atoms: _18  and  _38
    6  A    between atoms: _20  and  _26
    7  A    between atoms: _21  and  _25
    8  A    between atoms: _25  and  _26
    9  A    between atoms: _28  and  _29
   10  A    between atoms: _30  and  _31
   11  A    between atoms: _32  and  _34
   12  A    between atoms: _34  and  _35
   13  A    between atoms: _34  and  _36
   14  A    between atoms: _36  and  _37
   15  A    between atoms: _36  and  _38
   16  A    between atoms: _39  and  _41
                            x       y       z     vdW  Elec       q    Type
                         _______ _______ _______ _____ _____    ______ ____

>  <TORSDO>
F 14

$$$$
lig_assembled_52.pdb
 OpenBabel07252309473D

 42 44  0  0  1  0  0  0  0  0999 V2000
   -2.3220    9.7240   26.9740 C   0  0  2  0  0  0  0  0  0  0  0  0
   -1.1360    9.8960   26.1800 O   0  0  0  0  0  0  0  0  0  0  0  0
   -0.6130    9.0920   26.2070 H   0  0  0  0  0  0  0  0  0  0  0  0
   -1.9500    9.2110   28.3620 C   0  0  0  0  0  0  0  0  0  0  0  0
   -3.4750    9.4410   30.2920 C   0  0  0  0  0  0  0  0  0  0  0  0
   -3.8110    8.2540   30.2870 O   0  0  0  0  0  0  0  0  0  0  0  0
   -2.6150    9.9750   29.4240 N   0  0  0  0  0  0  0  0  0  0  0  0
   -2.4100   10.9610   29.5020 H   0  0  0  0  0  0  0  0  0  0  0  0
   -4.0330   10.3160   31.2750 O   0  0  0  0  0  0  0  0  0  0  0  0
   -3.0030   10.7480   32.1690 C   0  0  0  0  0  0  0  0  0  0  0  0
   -1.7280   12.8520   32.4310 N   0  0  0  0  0  0  0  0  0  0  0  0
   -2.9100   12.2200   32.1690 C   0  0  0  0  0  0  0  0  0  0  0  0
   -3.8790   13.1660   31.9280 C   0  0  0  0  0  0  0  0  0  0  0  0
   -3.2320   14.3760   32.0350 N   0  0  0  0  0  0  0  0  0  0  0  0
   -1.9330   14.1600   32.3520 N   0  0  0  0  0  0  0  0  0  0  0  0
   -3.7510   15.6740   31.8460 C   0  0  0  0  0  0  0  0  0  0  0  0
   -4.3920   16.0500   30.6630 C   0  0  0  0  0  0  0  0  0  0  0  0
   -4.8640   17.3540   30.5290 C   0  0  0  0  0  0  0  0  0  0  0  0
   -4.6810   18.2350   31.5820 C   0  0  0  0  0  0  0  0  0  0  0  0
   -4.0740   17.9000   32.7400 N   0  0  0  0  0  0  0  0  0  0  0  0
   -3.6200   16.6270   32.8500 C   0  0  0  0  0  0  0  0  0  0  0  0
   -3.2930    8.7360   26.3050 C   0  0  2  0  0  0  0  0  0  0  0  0
   -4.1360    9.4070   25.2100 C   0  0  2  0  0  0  0  0  0  0  0  0
   -3.2590    9.7000   24.0880 O   0  0  0  0  0  0  0  0  0  0  0  0
   -3.9140   10.2510   22.8980 C   0  0  2  0  0  0  0  0  0  0  0  0
   -4.7320   11.5130   23.2670 C   0  0  0  0  0  0  0  0  0  0  0  0
   -5.6570   11.2590   24.4760 C   0  0  1  0  0  0  0  0  0  0  0  0
   -4.8730   10.6840   25.6550 C   0  0  1  0  0  0  0  0  0  0  0  0
   -5.7790   10.3650   26.7700 N   0  0  0  0  0  0  0  0  0  0  0  0
   -6.3990    9.5750   26.6630 H   0  0  0  0  0  0  0  0  0  0  0  0
   -5.8350   11.0520   27.9150 C   0  0  0  0  0  0  0  0  0  0  0  0
   -4.8950   12.2660   28.0370 C   0  0  0  0  0  0  0  0  0  0  0  0
   -6.5930   10.7520   28.8370 O   0  0  0  0  0  0  0  0  0  0  0  0
   -4.8450    9.2040   22.2520 C   0  0  0  0  0  0  0  0  0  0  0  0
   -5.9120    9.5500   21.7480 O   0  0  0  0  0  0  0  0  0  0  0  0
   -4.5280    8.0140   22.2340 O   0  0  0  0  0  0  0  0  0  0  0  0
   -6.2760   12.4830   24.8740 O   0  0  0  0  0  0  0  0  0  0  0  0
   -5.6000   13.1260   25.1000 H   0  0  0  0  0  0  0  0  0  0  0  0
   -2.8820   10.6360   21.9540 O   0  0  0  0  0  0  0  0  0  0  0  0
   -3.1430   11.8620   21.2260 C   0  0  0  0  0  0  0  0  0  0  0  0
   -4.1520    8.1370   27.2960 O   0  0  0  0  0  0  0  0  0  0  0  0
   -4.0780    7.1810   27.2480 H   0  0  0  0  0  0  0  0  0  0  0  0
  1  4  1  1  0  0  0
  2  3  1  0  0  0  0
  2  1  1  0  0  0  0
  4  7  1  0  0  0  0
  5  9  1  0  0  0  0
  6  5  2  0  0  0  0
  7  8  1  0  0  0  0
  7  5  1  0  0  0  0
  9 10  1  0  0  0  0
 10 12  1  0  0  0  0
 12 11  1  0  0  0  0
 13 14  1  0  0  0  0
 13 12  2  0  0  0  0
 14 15  1  0  0  0  0
 15 11  2  0  0  0  0
 16 14  1  0  0  0  0
 16 21  2  0  0  0  0
 17 16  1  0  0  0  0
 18 17  2  0  0  0  0
 18 19  1  0  0  0  0
 19 20  2  0  0  0  0
 20 21  1  0  0  0  0
 22  1  1  0  0  0  0
 22 41  1  1  0  0  0
 23 28  1  0  0  0  0
 23 22  1  1  0  0  0
 24 23  1  0  0  0  0
 25 39  1  6  0  0  0
 25 26  1  0  0  0  0
 25 24  1  0  0  0  0
 26 27  1  0  0  0  0
 27 37  1  1  0  0  0
 27 28  1  0  0  0  0
 28 29  1  1  0  0  0
 29 31  1  0  0  0  0
 30 29  1  0  0  0  0
 31 32  1  0  0  0  0
 31 33  2  0  0  0  0
 34 25  1  0  0  0  0
 35 34  2  0  0  0  0
 36 34  1  0  0  0  0
 37 38  1  0  0  0  0
 40 39  1  0  0  0  0
 42 41  1  0  0  0  0
M  END
>  <REMARK>
 VINA RESULT:    -5.443      0.000      0.000
 INTER + INTRA:         -11.708
 INTER:                  -9.080
 INTRA:                  -2.627
 UNBOUND:                -2.287
  Name = lig_assembled_52.pdb
  16 active torsions:
  status: ('A' for Active; 'I' for Inactive)
    1  A    between atoms: _2  and  _10
    2  A    between atoms: _5  and  _18
    3  A    between atoms: _7  and  _8
    4  A    between atoms: _7  and  _18
    5  A    between atoms: _14  and  _34
    6  A    between atoms: _16  and  _22
    7  A    between atoms: _17  and  _21
    8  A    between atoms: _21  and  _22
    9  A    between atoms: _24  and  _25
   10  A    between atoms: _26  and  _27
   11  A    between atoms: _28  and  _30
   12  A    between atoms: _30  and  _31
   13  A    between atoms: _30  and  _32
   14  A    between atoms: _32  and  _33
   15  A    between atoms: _32  and  _34
   16  A    between atoms: _35  and  _37
                            x       y       z     vdW  Elec       q    Type
                         _______ _______ _______ _____ _____    ______ ____

>  <TORSDO>
F 14

$$$$
lig_assembled_53.pdb
 OpenBabel07252309473D

 41 42  0  0  1  0  0  0  0  0999 V2000
   -3.6520   12.0420   26.4860 C   0  0  2  0  0  0  0  0  0  0  0  0
   -3.4330   10.8230   27.3930 C   0  0  2  0  0  0  0  0  0  0  0  0
   -4.0500    9.6720   26.7520 O   0  0  0  0  0  0  0  0  0  0  0  0
   -3.8490    8.3870   27.4280 C   0  0  2  0  0  0  0  0  0  0  0  0
   -4.3110    8.4740   28.9040 C   0  0  0  0  0  0  0  0  0  0  0  0
   -3.7060    9.7010   29.6180 C   0  0  1  0  0  0  0  0  0  0  0  0
   -3.9710   10.9820   28.8280 C   0  0  1  0  0  0  0  0  0  0  0  0
   -3.3160   12.1310   29.4730 N   0  0  0  0  0  0  0  0  0  0  0  0
   -2.3060   12.1380   29.5110 H   0  0  0  0  0  0  0  0  0  0  0  0
   -3.9680   13.1640   30.0120 C   0  0  0  0  0  0  0  0  0  0  0  0
   -5.5070   13.1110   29.9600 C   0  0  0  0  0  0  0  0  0  0  0  0
   -3.3930   14.1200   30.5330 O   0  0  0  0  0  0  0  0  0  0  0  0
   -2.3650    7.9670   27.3760 C   0  0  0  0  0  0  0  0  0  0  0  0
   -1.6790    8.2350   26.3900 O   0  0  0  0  0  0  0  0  0  0  0  0
   -1.8540    7.3620   28.3190 O   0  0  0  0  0  0  0  0  0  0  0  0
   -4.6610    7.3930   26.7520 O   0  0  0  0  0  0  0  0  0  0  0  0
   -6.0750    7.4360   27.0740 C   0  0  0  0  0  0  0  0  0  0  0  0
   -4.2740    9.8270   30.9230 O   0  0  0  0  0  0  0  0  0  0  0  0
   -5.1570   10.1970   30.8530 H   0  0  0  0  0  0  0  0  0  0  0  0
   -5.0080   12.5170   26.6100 O   0  0  0  0  0  0  0  0  0  0  0  0
   -5.5720   11.8000   26.9080 H   0  0  0  0  0  0  0  0  0  0  0  0
   -3.3310   11.7330   25.0130 C   0  0  2  0  0  0  0  0  0  0  0  0
   -2.2550   10.7870   24.9100 O   0  0  0  0  0  0  0  0  0  0  0  0
   -1.7440   10.7930   25.7220 H   0  0  0  0  0  0  0  0  0  0  0  0
   -2.9620   13.0250   24.2910 C   0  0  0  0  0  0  0  0  0  0  0  0
   -4.9090   13.6190   22.8900 C   0  0  0  0  0  0  0  0  0  0  0  0
   -5.6040   13.9760   23.8430 O   0  0  0  0  0  0  0  0  0  0  0  0
   -3.6640   13.1540   23.0080 N   0  0  0  0  0  0  0  0  0  0  0  0
   -3.1770   12.8760   22.1680 H   0  0  0  0  0  0  0  0  0  0  0  0
   -5.4500   13.6930   21.5690 O   0  0  0  0  0  0  0  0  0  0  0  0
   -6.4580   12.6910   21.4080 C   0  0  0  0  0  0  0  0  0  0  0  0
   -4.7110   11.0050   20.9130 N   0  0  0  0  0  0  0  0  0  0  0  0
   -5.8740   11.3440   21.5510 C   0  0  0  0  0  0  0  0  0  0  0  0
   -6.3220   10.2610   22.2740 C   0  0  0  0  0  0  0  0  0  0  0  0
   -5.4280    9.2750   21.9850 N   0  0  0  0  0  0  0  0  0  0  0  0
   -4.4340    9.7420   21.2030 N   0  0  0  0  0  0  0  0  0  0  0  0
   -5.3200    7.9270   22.5030 C   0  0  0  0  0  0  0  0  0  0  0  0
   -3.9630    7.5460   23.0310 C   0  0  0  0  0  0  0  0  0  0  0  0
   -3.2440    6.6480   22.6180 O   0  0  0  0  0  0  0  0  0  0  0  0
   -3.5770    8.3190   24.0800 O   0  0  0  0  0  0  0  0  0  0  0  0
   -4.0180    8.1330   24.9310 H   0  0  0  0  0  0  0  0  0  0  0  0
  1 20  1  6  0  0  0
  2  1  1  6  0  0  0
  2  7  1  0  0  0  0
  3  2  1  0  0  0  0
  3  4  1  0  0  0  0
  4 16  1  6  0  0  0
  4  5  1  0  0  0  0
  5  6  1  0  0  0  0
  6 18  1  1  0  0  0
  7  8  1  1  0  0  0
  7  6  1  0  0  0  0
  8  9  1  0  0  0  0
  8 10  1  0  0  0  0
 10 12  2  0  0  0  0
 11 10  1  0  0  0  0
 13  4  1  0  0  0  0
 13 15  1  0  0  0  0
 14 13  2  0  0  0  0
 16 17  1  0  0  0  0
 19 18  1  0  0  0  0
 20 21  1  0  0  0  0
 22 25  1  6  0  0  0
 22  1  1  0  0  0  0
 23 22  1  0  0  0  0
 23 24  1  0  0  0  0
 26 28  1  0  0  0  0
 26 27  2  0  0  0  0
 28 25  1  0  0  0  0
 29 28  1  0  0  0  0
 30 26  1  0  0  0  0
 31 33  1  0  0  0  0
 31 30  1  0  0  0  0
 32 36  2  0  0  0  0
 32 33  1  0  0  0  0
 33 34  2  0  0  0  0
 35 34  1  0  0  0  0
 35 37  1  0  0  0  0
 36 35  1  0  0  0  0
 37 38  1  0  0  0  0
 38 40  1  0  0  0  0
 39 38  2  0  0  0  0
 40 41  1  0  0  0  0
M  END
>  <REMARK>
 VINA RESULT:    -4.223      0.000      0.000
 INTER + INTRA:         -11.787
 INTER:                  -8.060
 INTRA:                  -3.728
 UNBOUND:                -4.108
  Name = lig_assembled_53.pdb
  18 active torsions:
  status: ('A' for Active; 'I' for Inactive)
    1  A    between atoms: _2  and  _9
    2  A    between atoms: _4  and  _16
    3  A    between atoms: _5  and  _9
    4  A    between atoms: _5  and  _10
    5  A    between atoms: _6  and  _7
    6  A    between atoms: _6  and  _16
    7  A    between atoms: _12  and  _32
    8  A    between atoms: _14  and  _20
    9  A    between atoms: _15  and  _19
   10  A    between atoms: _19  and  _20
   11  A    between atoms: _22  and  _23
   12  A    between atoms: _24  and  _25
   13  A    between atoms: _26  and  _28
   14  A    between atoms: _28  and  _29
   15  A    between atoms: _28  and  _30
   16  A    between atoms: _30  and  _31
   17  A    between atoms: _30  and  _32
   18  A    between atoms: _33  and  _35
                            x       y       z     vdW  Elec       q    Type
                         _______ _______ _______ _____ _____    ______ ____

>  <TORSDO>
F 16

$$$$
lig_assembled_54.pdb
 OpenBabel07252309473D

 45 46  0  0  1  0  0  0  0  0999 V2000
   -3.4450   10.7620   21.4630 C   0  0  1  0  0  0  0  0  0  0  0  0
   -2.7370   11.7540   22.2240 O   0  0  0  0  0  0  0  0  0  0  0  0
   -2.5300   11.4030   23.0940 H   0  0  0  0  0  0  0  0  0  0  0  0
   -4.1810    9.7790   22.3890 C   0  0  2  0  0  0  0  0  0  0  0  0
   -4.1800   10.2510   23.8500 C   0  0  2  0  0  0  0  0  0  0  0  0
   -2.9270    9.8290   24.4550 O   0  0  0  0  0  0  0  0  0  0  0  0
   -2.7010   10.2850   25.8300 C   0  0  2  0  0  0  0  0  0  0  0  0
   -3.8860    9.8740   26.7380 C   0  0  0  0  0  0  0  0  0  0  0  0
   -5.2420   10.2740   26.1210 C   0  0  1  0  0  0  0  0  0  0  0  0
   -5.3700    9.7500   24.6900 C   0  0  1  0  0  0  0  0  0  0  0  0
   -6.6280   10.2110   24.0830 N   0  0  0  0  0  0  0  0  0  0  0  0
   -6.8040   11.2060   24.0600 H   0  0  0  0  0  0  0  0  0  0  0  0
   -7.5530    9.4010   23.5600 C   0  0  0  0  0  0  0  0  0  0  0  0
   -7.2660    7.8890   23.6340 C   0  0  0  0  0  0  0  0  0  0  0  0
   -8.5910    9.8160   23.0450 O   0  0  0  0  0  0  0  0  0  0  0  0
   -2.5240   11.8170   25.8750 C   0  0  0  0  0  0  0  0  0  0  0  0
   -2.1830   12.4320   24.8660 O   0  0  0  0  0  0  0  0  0  0  0  0
   -2.7230   12.4380   26.9200 O   0  0  0  0  0  0  0  0  0  0  0  0
   -6.3070    9.7440   26.9130 O   0  0  0  0  0  0  0  0  0  0  0  0
   -5.9420    9.2270   27.6350 H   0  0  0  0  0  0  0  0  0  0  0  0
   -1.4990    9.6400   26.3260 O   0  0  0  0  0  0  0  0  0  0  0  0
   -1.6850    8.8290   27.5130 C   0  0  0  0  0  0  0  0  0  0  0  0
   -3.5920    8.4670   22.2900 O   0  0  0  0  0  0  0  0  0  0  0  0
   -4.2350    7.8060   22.5570 H   0  0  0  0  0  0  0  0  0  0  0  0
   -4.4490   11.4360   20.5330 C   0  0  0  0  0  0  0  0  0  0  0  0
   -5.9440   12.8970   21.8510 C   0  0  0  0  0  0  0  0  0  0  0  0
   -5.1270   13.8170   21.9330 O   0  0  0  0  0  0  0  0  0  0  0  0
   -5.7090   11.7450   21.2200 N   0  0  0  0  0  0  0  0  0  0  0  0
   -6.4380   11.0470   21.2150 H   0  0  0  0  0  0  0  0  0  0  0  0
   -7.2260   13.0500   22.4640 O   0  0  0  0  0  0  0  0  0  0  0  0
   -7.1770   14.1180   23.4140 C   0  0  0  0  0  0  0  0  0  0  0  0
   -8.2430   12.5180   24.9750 N   0  0  0  0  0  0  0  0  0  0  0  0
   -7.4250   13.5980   24.7730 C   0  0  0  0  0  0  0  0  0  0  0  0
   -6.9280   14.0220   25.9870 C   0  0  0  0  0  0  0  0  0  0  0  0
   -7.4500   13.1370   26.8810 N   0  0  0  0  0  0  0  0  0  0  0  0
   -8.2450   12.2390   26.2720 N   0  0  0  0  0  0  0  0  0  0  0  0
   -7.1960   13.0430   28.3050 C   0  0  0  0  0  0  0  0  0  0  0  0
   -5.8110   13.5560   28.6660 C   0  0  0  0  0  0  0  0  0  0  0  0
   -4.9760   12.5490   29.4660 C   0  0  0  0  0  0  0  0  0  0  0  0
   -5.6630   11.2980   29.5540 O   0  0  0  0  0  0  0  0  0  0  0  0
   -5.3390   10.5360   30.7150 C   0  0  0  0  0  0  0  0  0  0  0  0
   -4.2610    9.5330   30.3560 C   0  0  0  0  0  0  0  0  0  0  0  0
   -4.7830   13.0910   30.7780 O   0  0  0  0  0  0  0  0  0  0  0  0
   -3.4490   13.5590   30.9860 C   0  0  0  0  0  0  0  0  0  0  0  0
   -3.4450   15.0740   30.9680 C   0  0  0  0  0  0  0  0  0  0  0  0
  1 25  1  6  0  0  0
  1  2  1  0  0  0  0
  1  4  1  0  0  0  0
  2  3  1  0  0  0  0
  4 23  1  1  0  0  0
  5  4  1  6  0  0  0
  5  6  1  0  0  0  0
  5 10  1  0  0  0  0
  6  7  1  0  0  0  0
  7 16  1  1  0  0  0
  7 21  1  0  0  0  0
  7  8  1  0  0  0  0
  9  8  1  0  0  0  0
  9 19  1  1  0  0  0
 10 11  1  6  0  0  0
 10  9  1  0  0  0  0
 12 11  1  0  0  0  0
 13 14  1  0  0  0  0
 13 11  1  0  0  0  0
 15 13  2  0  0  0  0
 16 18  1  0  0  0  0
 17 16  2  0  0  0  0
 19 20  1  0  0  0  0
 21 22  1  0  0  0  0
 23 24  1  0  0  0  0
 25 28  1  0  0  0  0
 26 27  2  0  0  0  0
 26 30  1  0  0  0  0
 28 26  1  0  0  0  0
 29 28  1  0  0  0  0
 30 31  1  0  0  0  0
 31 33  1  0  0  0  0
 32 36  2  0  0  0  0
 33 32  1  0  0  0  0
 33 34  2  0  0  0  0
 34 35  1  0  0  0  0
 35 37  1  0  0  0  0
 36 35  1  0  0  0  0
 37 38  1  0  0  0  0
 38 39  1  0  0  0  0
 39 40  1  0  0  0  0
 39 43  1  0  0  0  0
 40 41  1  0  0  0  0
 42 41  1  0  0  0  0
 43 44  1  0  0  0  0
 45 44  1  0  0  0  0
M  END
>  <REMARK>
 VINA RESULT:    -4.706      0.000      0.000
 INTER + INTRA:         -12.581
 INTER:                  -7.702
 INTRA:                  -4.878
 UNBOUND:                -2.785
  Name = lig_assembled_54.pdb
  24 active torsions:
  status: ('A' for Active; 'I' for Inactive)
    1  A    between atoms: _2  and  _9
    2  A    between atoms: _4  and  _21
    3  A    between atoms: _5  and  _14
    4  A    between atoms: _6  and  _7
    5  A    between atoms: _6  and  _21
    6  A    between atoms: _9  and  _10
    7  A    between atoms: _10  and  _11
    8  A    between atoms: _11  and  _15
    9  A    between atoms: _11  and  _16
   10  A    between atoms: _12  and  _13
   11  A    between atoms: _12  and  _16
   12  A    between atoms: _14  and  _15
   13  A    between atoms: _17  and  _37
   14  A    between atoms: _19  and  _25
   15  A    between atoms: _20  and  _24
   16  A    between atoms: _24  and  _25
   17  A    between atoms: _27  and  _28
   18  A    between atoms: _29  and  _30
   19  A    between atoms: _31  and  _33
   20  A    between atoms: _33  and  _34
   21  A    between atoms: _33  and  _35
   22  A    between atoms: _35  and  _36
   23  A    between atoms: _35  and  _37
   24  A    between atoms: _38  and  _40
                            x       y       z     vdW  Elec       q    Type
                         _______ _______ _______ _____ _____    ______ ____

>  <TORSDO>
F 20

$$$$
lig_assembled_55.pdb
 OpenBabel07252309473D

 44 45  0  0  1  0  0  0  0  0999 V2000
   -3.3060   11.8110   25.0150 C   0  0  1  0  0  0  0  0  0  0  0  0
   -2.2060   10.8950   24.8940 O   0  0  0  0  0  0  0  0  0  0  0  0
   -2.5260    9.9950   24.9980 H   0  0  0  0  0  0  0  0  0  0  0  0
   -3.6240   12.0970   26.4930 C   0  0  2  0  0  0  0  0  0  0  0  0
   -3.3750   10.8710   27.3840 C   0  0  2  0  0  0  0  0  0  0  0  0
   -4.0040    9.7230   26.7530 O   0  0  0  0  0  0  0  0  0  0  0  0
   -3.7790    8.4340   27.4130 C   0  0  2  0  0  0  0  0  0  0  0  0
   -4.1990    8.5080   28.9020 C   0  0  0  0  0  0  0  0  0  0  0  0
   -3.5790    9.7320   29.6080 C   0  0  1  0  0  0  0  0  0  0  0  0
   -3.8720   11.0180   28.8350 C   0  0  1  0  0  0  0  0  0  0  0  0
   -3.2030   12.1650   29.4700 N   0  0  0  0  0  0  0  0  0  0  0  0
   -2.1930   12.1770   29.4770 H   0  0  0  0  0  0  0  0  0  0  0  0
   -3.8440   13.1900   30.0370 C   0  0  0  0  0  0  0  0  0  0  0  0
   -5.3830   13.1290   30.0330 C   0  0  0  0  0  0  0  0  0  0  0  0
   -3.2580   14.1440   30.5490 O   0  0  0  0  0  0  0  0  0  0  0  0
   -2.2960    8.0210   27.3160 C   0  0  0  0  0  0  0  0  0  0  0  0
   -1.7650    7.3940   28.2320 O   0  0  0  0  0  0  0  0  0  0  0  0
   -1.6300    8.3140   26.3220 O   0  0  0  0  0  0  0  0  0  0  0  0
   -4.6070    7.4410   26.7540 O   0  0  0  0  0  0  0  0  0  0  0  0
   -5.8050    7.0640   27.4780 C   0  0  0  0  0  0  0  0  0  0  0  0
   -4.1100    9.8460   30.9290 O   0  0  0  0  0  0  0  0  0  0  0  0
   -3.4080   10.0910   31.5370 H   0  0  0  0  0  0  0  0  0  0  0  0
   -4.9880   12.5410   26.6300 O   0  0  0  0  0  0  0  0  0  0  0  0
   -5.1130   13.3520   26.1300 H   0  0  0  0  0  0  0  0  0  0  0  0
   -2.9760   13.1190   24.3030 C   0  0  0  0  0  0  0  0  0  0  0  0
   -4.2770   13.0880   22.2030 C   0  0  0  0  0  0  0  0  0  0  0  0
   -3.5630   12.2400   21.6630 O   0  0  0  0  0  0  0  0  0  0  0  0
   -4.0720   13.5610   23.4330 N   0  0  0  0  0  0  0  0  0  0  0  0
   -4.7070   14.2630   23.7860 H   0  0  0  0  0  0  0  0  0  0  0  0
   -5.3960   13.6130   21.4850 O   0  0  0  0  0  0  0  0  0  0  0  0
   -6.4340   13.9620   22.4050 C   0  0  0  0  0  0  0  0  0  0  0  0
   -6.8960   12.6910   24.4750 N   0  0  0  0  0  0  0  0  0  0  0  0
   -6.9250   12.7620   23.1070 C   0  0  0  0  0  0  0  0  0  0  0  0
   -7.4540   11.5920   22.6060 C   0  0  0  0  0  0  0  0  0  0  0  0
   -7.7070   10.8440   23.7160 N   0  0  0  0  0  0  0  0  0  0  0  0
   -7.3730   11.5090   24.8370 N   0  0  0  0  0  0  0  0  0  0  0  0
   -8.2840    9.5200   23.7910 C   0  0  0  0  0  0  0  0  0  0  0  0
   -7.2980    8.4400   24.2500 C   0  0  0  0  0  0  0  0  0  0  0  0
   -5.8870    8.9150   24.3370 N   0  0  0  0  0  0  0  0  0  0  0  0
   -5.5280    8.8050   25.2930 H   0  0  0  0  0  0  0  0  0  0  0  0
   -4.8290    8.3230   23.1670 S   0  0  0  0  0  0  0  0  0  0  0  0
   -5.3420    8.7540   21.8850 O   0  0  0  0  0  0  0  0  0  0  0  0
   -3.4850    8.6500   23.5880 O   0  0  0  0  0  0  0  0  0  0  0  0
   -5.0840    6.5690   23.3100 C   0  0  0  0  0  0  0  0  0  0  0  0
  1 25  1  6  0  0  0
  1  4  1  0  0  0  0
  2  3  1  0  0  0  0
  2  1  1  0  0  0  0
  4 23  1  6  0  0  0
  5  4  1  6  0  0  0
  5 10  1  0  0  0  0
  6  5  1  0  0  0  0
  6  7  1  0  0  0  0
  7 19  1  6  0  0  0
  7  8  1  0  0  0  0
  8  9  1  0  0  0  0
  9 21  1  1  0  0  0
 10 11  1  1  0  0  0
 10  9  1  0  0  0  0
 11 12  1  0  0  0  0
 11 13  1  0  0  0  0
 13 15  2  0  0  0  0
 14 13  1  0  0  0  0
 16  7  1  0  0  0  0
 16 17  1  0  0  0  0
 18 16  2  0  0  0  0
 19 20  1  0  0  0  0
 21 22  1  0  0  0  0
 24 23  1  0  0  0  0
 26 28  1  0  0  0  0
 27 26  2  0  0  0  0
 28 29  1  0  0  0  0
 28 25  1  0  0  0  0
 30 26  1  0  0  0  0
 30 31  1  0  0  0  0
 31 33  1  0  0  0  0
 32 36  2  0  0  0  0
 33 32  1  0  0  0  0
 34 33  2  0  0  0  0
 34 35  1  0  0  0  0
 35 37  1  0  0  0  0
 35 36  1  0  0  0  0
 37 38  1  0  0  0  0
 38 39  1  0  0  0  0
 39 40  1  0  0  0  0
 41 44  1  0  0  0  0
 41 43  2  0  0  0  0
 41 39  1  0  0  0  0
 42 41  2  0  0  0  0
M  END
>  <REMARK>
 VINA RESULT:    -4.862      0.000      0.000
 INTER + INTRA:         -12.068
 INTER:                  -7.428
 INTRA:                  -4.640
 UNBOUND:                -2.799
  Name = lig_assembled_55.pdb
  20 active torsions:
  status: ('A' for Active; 'I' for Inactive)
    1  A    between atoms: _2  and  _10
    2  A    between atoms: _3  and  _11
    3  A    between atoms: _3  and  _38
    4  A    between atoms: _5  and  _18
    5  A    between atoms: _6  and  _38
    6  A    between atoms: _7  and  _8
    7  A    between atoms: _7  and  _18
    8  A    between atoms: _10  and  _11
    9  A    between atoms: _14  and  _34
   10  A    between atoms: _16  and  _22
   11  A    between atoms: _17  and  _21
   12  A    between atoms: _21  and  _22
   13  A    between atoms: _24  and  _25
   14  A    between atoms: _26  and  _27
   15  A    between atoms: _28  and  _30
   16  A    between atoms: _30  and  _31
   17  A    between atoms: _30  and  _32
   18  A    between atoms: _32  and  _33
   19  A    between atoms: _32  and  _34
   20  A    between atoms: _35  and  _37
                            x       y       z     vdW  Elec       q    Type
                         _______ _______ _______ _____ _____    ______ ____

>  <TORSDO>
F 17

$$$$
lig_assembled_56.pdb
 OpenBabel07252309473D

 42 44  0  0  1  0  0  0  0  0999 V2000
   -3.2800   11.7500   25.0830 C   0  0  2  0  0  0  0  0  0  0  0  0
   -2.1650   10.8430   25.0350 O   0  0  0  0  0  0  0  0  0  0  0  0
   -2.3360   10.0950   25.6110 H   0  0  0  0  0  0  0  0  0  0  0  0
   -2.9330   13.0430   24.3520 C   0  0  0  0  0  0  0  0  0  0  0  0
   -4.8920   13.6180   22.9600 C   0  0  0  0  0  0  0  0  0  0  0  0
   -5.5810   13.9850   23.9150 O   0  0  0  0  0  0  0  0  0  0  0  0
   -3.6460   13.1570   23.0740 N   0  0  0  0  0  0  0  0  0  0  0  0
   -3.1650   12.8700   22.2330 H   0  0  0  0  0  0  0  0  0  0  0  0
   -5.4440   13.6760   21.6430 O   0  0  0  0  0  0  0  0  0  0  0  0
   -5.9030   12.3770   21.2580 C   0  0  0  0  0  0  0  0  0  0  0  0
   -6.8680   12.2650   18.9830 N   0  0  0  0  0  0  0  0  0  0  0  0
   -5.7770   12.2000   19.8000 C   0  0  0  0  0  0  0  0  0  0  0  0
   -4.6580   11.9620   19.0340 C   0  0  0  0  0  0  0  0  0  0  0  0
   -5.1180   11.9070   17.7390 N   0  0  0  0  0  0  0  0  0  0  0  0
   -6.4620   12.0830   17.7350 N   0  0  0  0  0  0  0  0  0  0  0  0
   -4.3850   11.7140   16.5430 C   0  0  0  0  0  0  0  0  0  0  0  0
   -4.1800   12.7670   15.6470 C   0  0  0  0  0  0  0  0  0  0  0  0
   -3.4670   12.5040   14.4880 C   0  0  0  0  0  0  0  0  0  0  0  0
   -2.9580   11.2940   14.1750 N   0  0  0  0  0  0  0  0  0  0  0  0
   -3.1670   10.2960   15.0590 C   0  0  0  0  0  0  0  0  0  0  0  0
   -3.8640   10.4520   16.2440 C   0  0  0  0  0  0  0  0  0  0  0  0
   -3.6660   12.0690   26.5370 C   0  0  2  0  0  0  0  0  0  0  0  0
   -3.4140   10.8810   27.4770 C   0  0  2  0  0  0  0  0  0  0  0  0
   -4.0420    9.7070   26.8910 O   0  0  0  0  0  0  0  0  0  0  0  0
   -3.8140    8.4450   27.6020 C   0  0  2  0  0  0  0  0  0  0  0  0
   -4.2340    8.5770   29.0870 C   0  0  0  0  0  0  0  0  0  0  0  0
   -3.6160    9.8290   29.7440 C   0  0  1  0  0  0  0  0  0  0  0  0
   -3.9110   11.0830   28.9200 C   0  0  1  0  0  0  0  0  0  0  0  0
   -3.2440   12.2550   29.5090 N   0  0  0  0  0  0  0  0  0  0  0  0
   -2.2340   12.2680   29.5180 H   0  0  0  0  0  0  0  0  0  0  0  0
   -3.8870   13.3030   30.0330 C   0  0  0  0  0  0  0  0  0  0  0  0
   -5.4260   13.2410   30.0280 C   0  0  0  0  0  0  0  0  0  0  0  0
   -3.3020   14.2780   30.5060 O   0  0  0  0  0  0  0  0  0  0  0  0
   -2.3300    8.0310   27.5200 C   0  0  0  0  0  0  0  0  0  0  0  0
   -1.6830    8.2440   26.4960 O   0  0  0  0  0  0  0  0  0  0  0  0
   -1.7810    7.4850   28.4780 O   0  0  0  0  0  0  0  0  0  0  0  0
   -4.1460    9.9950   31.0590 O   0  0  0  0  0  0  0  0  0  0  0  0
   -4.1350   10.9250   31.2950 H   0  0  0  0  0  0  0  0  0  0  0  0
   -4.6400    7.4260   26.9830 O   0  0  0  0  0  0  0  0  0  0  0  0
   -5.2900    7.8290   25.7510 C   0  0  0  0  0  0  0  0  0  0  0  0
   -5.0480   12.4720   26.6070 O   0  0  0  0  0  0  0  0  0  0  0  0
   -5.4270   12.4720   25.7240 H   0  0  0  0  0  0  0  0  0  0  0  0
  1  4  1  6  0  0  0
  1 22  1  0  0  0  0
  2  1  1  0  0  0  0
  2  3  1  0  0  0  0
  5  7  1  0  0  0  0
  5  6  2  0  0  0  0
  7  4  1  0  0  0  0
  8  7  1  0  0  0  0
  9  5  1  0  0  0  0
 10  9  1  0  0  0  0
 11 12  1  0  0  0  0
 12 10  1  0  0  0  0
 13 12  2  0  0  0  0
 14 13  1  0  0  0  0
 15 14  1  0  0  0  0
 15 11  2  0  0  0  0
 16 14  1  0  0  0  0
 17 16  2  0  0  0  0
 18 17  1  0  0  0  0
 19 18  2  0  0  0  0
 19 20  1  0  0  0  0
 20 21  2  0  0  0  0
 21 16  1  0  0  0  0
 22 41  1  6  0  0  0
 23 22  1  6  0  0  0
 23 28  1  0  0  0  0
 24 23  1  0  0  0  0
 24 25  1  0  0  0  0
 25 39  1  6  0  0  0
 25 26  1  0  0  0  0
 26 27  1  0  0  0  0
 27 37  1  1  0  0  0
 28 29  1  1  0  0  0
 28 27  1  0  0  0  0
 29 30  1  0  0  0  0
 29 31  1  0  0  0  0
 31 33  2  0  0  0  0
 32 31  1  0  0  0  0
 34 25  1  0  0  0  0
 34 36  1  0  0  0  0
 35 34  2  0  0  0  0
 37 38  1  0  0  0  0
 40 39  1  0  0  0  0
 42 41  1  0  0  0  0
M  END
>  <REMARK>
 VINA RESULT:    -5.313      0.000      0.000
 INTER + INTRA:         -11.689
 INTER:                  -9.546
 INTRA:                  -2.143
 UNBOUND:                -2.494
  Name = lig_assembled_56.pdb
  16 active torsions:
  status: ('A' for Active; 'I' for Inactive)
    1  A    between atoms: _2  and  _10
    2  A    between atoms: _5  and  _18
    3  A    between atoms: _7  and  _8
    4  A    between atoms: _7  and  _18
    5  A    between atoms: _14  and  _34
    6  A    between atoms: _16  and  _22
    7  A    between atoms: _17  and  _21
    8  A    between atoms: _21  and  _22
    9  A    between atoms: _24  and  _25
   10  A    between atoms: _26  and  _27
   11  A    between atoms: _28  and  _30
   12  A    between atoms: _30  and  _31
   13  A    between atoms: _30  and  _32
   14  A    between atoms: _32  and  _33
   15  A    between atoms: _32  and  _34
   16  A    between atoms: _35  and  _37
                            x       y       z     vdW  Elec       q    Type
                         _______ _______ _______ _____ _____    ______ ____

>  <TORSDO>
F 14

$$$$
lig_assembled_57.pdb
 OpenBabel07252309473D

 43 45  0  0  1  0  0  0  0  0999 V2000
   -3.2800   10.3600   30.9970 C   0  0  2  0  0  0  0  0  0  0  0  0
   -2.2410   11.2460   31.4450 O   0  0  0  0  0  0  0  0  0  0  0  0
   -1.6530   10.7760   32.0400 H   0  0  0  0  0  0  0  0  0  0  0  0
   -2.6760    9.2070   30.2020 C   0  0  0  0  0  0  0  0  0  0  0  0
   -1.9350    8.7440   27.8910 C   0  0  0  0  0  0  0  0  0  0  0  0
   -1.4380    7.6510   28.1690 O   0  0  0  0  0  0  0  0  0  0  0  0
   -2.5290    9.5410   28.7800 N   0  0  0  0  0  0  0  0  0  0  0  0
   -2.8980   10.4250   28.4580 H   0  0  0  0  0  0  0  0  0  0  0  0
   -1.8790    9.2090   26.5400 O   0  0  0  0  0  0  0  0  0  0  0  0
   -2.3620   10.5540   26.4770 C   0  0  0  0  0  0  0  0  0  0  0  0
   -3.0250    9.9380   24.1790 N   0  0  0  0  0  0  0  0  0  0  0  0
   -2.6950   10.9060   25.0840 C   0  0  0  0  0  0  0  0  0  0  0  0
   -2.7650   12.1390   24.4710 C   0  0  0  0  0  0  0  0  0  0  0  0
   -3.2290   11.8630   23.2200 N   0  0  0  0  0  0  0  0  0  0  0  0
   -3.3120   10.5290   23.0310 N   0  0  0  0  0  0  0  0  0  0  0  0
   -3.6830   12.7450   22.1500 C   0  0  0  0  0  0  0  0  0  0  0  0
   -5.0590   12.3050   21.6290 C   0  0  0  0  0  0  0  0  0  0  0  0
   -6.1530   12.6700   22.6300 C   0  0  0  0  0  0  0  0  0  0  0  0
   -6.2120   14.1080   22.9130 N   0  0  0  0  0  0  0  0  0  0  0  0
   -4.9240   14.6480   23.3500 C   0  0  0  0  0  0  0  0  0  0  0  0
   -6.8010   14.8660   21.8120 C   0  0  0  0  0  0  0  0  0  0  0  0
   -3.7240   14.2470   22.4800 C   0  0  0  0  0  0  0  0  0  0  0  0
   -4.3030   11.1070   30.1240 C   0  0  2  0  0  0  0  0  0  0  0  0
   -4.3650   12.6040   30.4600 C   0  0  2  0  0  0  0  0  0  0  0  0
   -4.5490   12.7330   31.8960 O   0  0  0  0  0  0  0  0  0  0  0  0
   -4.5260   14.1030   32.4180 C   0  0  2  0  0  0  0  0  0  0  0  0
   -5.5630   14.9820   31.6770 C   0  0  0  0  0  0  0  0  0  0  0  0
   -5.4270   14.8530   30.1450 C   0  0  1  0  0  0  0  0  0  0  0  0
   -5.4600   13.3870   29.7120 C   0  0  1  0  0  0  0  0  0  0  0  0
   -5.2430   13.2730   28.2620 N   0  0  0  0  0  0  0  0  0  0  0  0
   -4.3460   13.5600   27.8950 H   0  0  0  0  0  0  0  0  0  0  0  0
   -6.1530   12.8150   27.3980 C   0  0  0  0  0  0  0  0  0  0  0  0
   -7.5190   12.4110   27.9840 C   0  0  0  0  0  0  0  0  0  0  0  0
   -5.9380   12.7170   26.1890 O   0  0  0  0  0  0  0  0  0  0  0  0
   -3.1210   14.7220   32.2660 C   0  0  0  0  0  0  0  0  0  0  0  0
   -2.9900   15.9410   32.1540 O   0  0  0  0  0  0  0  0  0  0  0  0
   -2.1200   14.0050   32.2540 O   0  0  0  0  0  0  0  0  0  0  0  0
   -6.4930   15.5570   29.5060 O   0  0  0  0  0  0  0  0  0  0  0  0
   -7.2370   15.6280   30.1090 H   0  0  0  0  0  0  0  0  0  0  0  0
   -4.8880   14.0540   33.8220 O   0  0  0  0  0  0  0  0  0  0  0  0
   -6.2130   13.5320   34.0950 C   0  0  0  0  0  0  0  0  0  0  0  0
   -5.6070   10.5110   30.2670 O   0  0  0  0  0  0  0  0  0  0  0  0
   -6.2350   10.9770   29.7090 H   0  0  0  0  0  0  0  0  0  0  0  0
  1  4  1  6  0  0  0
  1  2  1  0  0  0  0
  2  3  1  0  0  0  0
  5  6  2  0  0  0  0
  5  7  1  0  0  0  0
  7  4  1  0  0  0  0
  8  7  1  0  0  0  0
  9  5  1  0  0  0  0
 10  9  1  0  0  0  0
 11 12  1  0  0  0  0
 12 10  1  0  0  0  0
 13 12  2  0  0  0  0
 14 13  1  0  0  0  0
 15 14  1  0  0  0  0
 15 11  2  0  0  0  0
 16 22  1  0  0  0  0
 16 14  1  0  0  0  0
 17 16  1  0  0  0  0
 17 18  1  0  0  0  0
 18 19  1  0  0  0  0
 19 20  1  0  0  0  0
 21 19  1  0  0  0  0
 22 20  1  0  0  0  0
 23 42  1  1  0  0  0
 23  1  1  0  0  0  0
 24 23  1  6  0  0  0
 24 25  1  0  0  0  0
 25 26  1  0  0  0  0
 26 35  1  6  0  0  0
 26 40  1  0  0  0  0
 27 26  1  0  0  0  0
 28 38  1  6  0  0  0
 28 27  1  0  0  0  0
 29 30  1  6  0  0  0
 29 28  1  0  0  0  0
 29 24  1  0  0  0  0
 31 30  1  0  0  0  0
 32 33  1  0  0  0  0
 32 30  1  0  0  0  0
 34 32  2  0  0  0  0
 36 35  2  0  0  0  0
 37 35  1  0  0  0  0
 38 39  1  0  0  0  0
 40 41  1  0  0  0  0
 43 42  1  0  0  0  0
M  END
>  <REMARK>
 VINA RESULT:    -5.499      0.000      0.000
 INTER + INTRA:         -11.513
 INTER:                  -8.971
 INTRA:                  -2.542
 UNBOUND:                -1.997
  Name = lig_assembled_57.pdb
  17 active torsions:
  status: ('A' for Active; 'I' for Inactive)
    1  A    between atoms: _2  and  _10
    2  A    between atoms: _3  and  _13
    3  A    between atoms: _5  and  _19
    4  A    between atoms: _7  and  _8
    5  A    between atoms: _7  and  _19
    6  A    between atoms: _15  and  _35
    7  A    between atoms: _17  and  _23
    8  A    between atoms: _18  and  _22
    9  A    between atoms: _22  and  _23
   10  A    between atoms: _25  and  _26
   11  A    between atoms: _27  and  _28
   12  A    between atoms: _29  and  _31
   13  A    between atoms: _31  and  _32
   14  A    between atoms: _31  and  _33
   15  A    between atoms: _33  and  _34
   16  A    between atoms: _33  and  _35
   17  A    between atoms: _36  and  _38
                            x       y       z     vdW  Elec       q    Type
                         _______ _______ _______ _____ _____    ______ ____

>  <TORSDO>
F 14

$$$$
lig_assembled_58.pdb
 OpenBabel07252309473D

 49 52  0  0  1  0  0  0  0  0999 V2000
   -6.2360    6.0790   18.2680 C   0  0  0  0  0  0  0  0  0  0  0  0
   -5.8040    6.6130   20.6420 C   0  0  0  0  0  0  0  0  0  0  0  0
   -5.1880    5.5680   20.8630 O   0  0  0  0  0  0  0  0  0  0  0  0
   -6.3340    6.9310   19.4600 N   0  0  0  0  0  0  0  0  0  0  0  0
   -6.8300    7.8070   19.3800 H   0  0  0  0  0  0  0  0  0  0  0  0
   -5.9780    7.5540   21.7040 O   0  0  0  0  0  0  0  0  0  0  0  0
   -6.3040    8.8350   21.1590 C   0  0  0  0  0  0  0  0  0  0  0  0
   -4.2870   10.1590   20.5620 N   0  0  0  0  0  0  0  0  0  0  0  0
   -5.2450    9.8110   21.4760 C   0  0  0  0  0  0  0  0  0  0  0  0
   -5.0440   10.5320   22.6300 C   0  0  0  0  0  0  0  0  0  0  0  0
   -4.0490   11.4140   22.3070 N   0  0  0  0  0  0  0  0  0  0  0  0
   -3.5450   11.1260   21.0860 N   0  0  0  0  0  0  0  0  0  0  0  0
   -3.5400   12.5700   23.0690 C   0  0  0  0  0  0  0  0  0  0  0  0
   -4.2890   13.8430   22.6500 C   0  0  0  0  0  0  0  0  0  0  0  0
   -5.6620   13.7900   22.3540 C   0  0  0  0  0  0  0  0  0  0  0  0
   -6.3400   14.9310   21.9160 C   0  0  0  0  0  0  0  0  0  0  0  0
   -5.6650   16.1430   21.7810 C   0  0  0  0  0  0  0  0  0  0  0  0
   -4.3060   16.2150   22.0670 C   0  0  0  0  0  0  0  0  0  0  0  0
   -3.6240   15.0740   22.4860 C   0  0  0  0  0  0  0  0  0  0  0  0
   -3.4970   12.3120   24.5810 C   0  0  0  0  0  0  0  0  0  0  0  0
   -4.5030   12.8040   25.4330 C   0  0  0  0  0  0  0  0  0  0  0  0
   -4.4570   12.5680   26.8100 C   0  0  0  0  0  0  0  0  0  0  0  0
   -3.4210   11.8180   27.3580 C   0  0  0  0  0  0  0  0  0  0  0  0
   -2.4480   11.2760   26.5290 C   0  0  0  0  0  0  0  0  0  0  0  0
   -2.4960   11.5040   25.1550 C   0  0  0  0  0  0  0  0  0  0  0  0
   -5.0060    6.4130   17.4300 C   0  0  1  0  0  0  0  0  0  0  0  0
   -4.9240    5.5250   16.3030 O   0  0  0  0  0  0  0  0  0  0  0  0
   -5.5750    5.7800   15.6460 H   0  0  0  0  0  0  0  0  0  0  0  0
   -5.0800    7.8790   16.9710 C   0  0  2  0  0  0  0  0  0  0  0  0
   -4.1680    8.1540   15.7660 C   0  0  2  0  0  0  0  0  0  0  0  0
   -2.9240    7.4310   15.9730 O   0  0  0  0  0  0  0  0  0  0  0  0
   -1.9640    7.4910   14.8670 C   0  0  2  0  0  0  0  0  0  0  0  0
   -1.6580    8.9620   14.4940 C   0  0  0  0  0  0  0  0  0  0  0  0
   -2.9520    9.7790   14.2950 C   0  0  1  0  0  0  0  0  0  0  0  0
   -3.8790    9.6440   15.5040 C   0  0  1  0  0  0  0  0  0  0  0  0
   -5.1440   10.3560   15.2650 N   0  0  0  0  0  0  0  0  0  0  0  0
   -5.7730    9.9790   14.5710 H   0  0  0  0  0  0  0  0  0  0  0  0
   -5.5150   11.4670   15.9070 C   0  0  0  0  0  0  0  0  0  0  0  0
   -4.5220   12.0300   16.9410 C   0  0  0  0  0  0  0  0  0  0  0  0
   -6.5880   12.0340   15.6970 O   0  0  0  0  0  0  0  0  0  0  0  0
   -2.5090    6.7480   13.6290 C   0  0  0  0  0  0  0  0  0  0  0  0
   -2.0600    6.9950   12.5100 O   0  0  0  0  0  0  0  0  0  0  0  0
   -3.3970    5.9030   13.7490 O   0  0  0  0  0  0  0  0  0  0  0  0
   -2.6270   11.1570   14.1040 O   0  0  0  0  0  0  0  0  0  0  0  0
   -2.5530   11.3420   13.1650 H   0  0  0  0  0  0  0  0  0  0  0  0
   -0.7310    6.8650   15.3080 O   0  0  0  0  0  0  0  0  0  0  0  0
   -0.8130    6.1820   16.5840 C   0  0  0  0  0  0  0  0  0  0  0  0
   -4.7410    8.7590   18.0610 O   0  0  0  0  0  0  0  0  0  0  0  0
   -4.4930    9.6190   17.7140 H   0  0  0  0  0  0  0  0  0  0  0  0
  1  4  1  0  0  0  0
  2  3  2  0  0  0  0
  2  6  1  0  0  0  0
  4  2  1  0  0  0  0
  5  4  1  0  0  0  0
  7  9  1  0  0  0  0
  7  6  1  0  0  0  0
  8 12  2  0  0  0  0
  8  9  1  0  0  0  0
  9 10  2  0  0  0  0
 11 10  1  0  0  0  0
 11 13  1  0  0  0  0
 12 11  1  0  0  0  0
 13 20  1  0  0  0  0
 14 13  1  0  0  0  0
 15 14  2  0  0  0  0
 16 15  1  0  0  0  0
 17 16  2  0  0  0  0
 17 18  1  0  0  0  0
 18 19  2  0  0  0  0
 19 14  1  0  0  0  0
 20 25  2  0  0  0  0
 20 21  1  0  0  0  0
 21 22  2  0  0  0  0
 22 23  1  0  0  0  0
 24 23  2  0  0  0  0
 25 24  1  0  0  0  0
 26  1  1  6  0  0  0
 27 26  1  0  0  0  0
 28 27  1  0  0  0  0
 29 26  1  0  0  0  0
 29 48  1  1  0  0  0
 30 31  1  0  0  0  0
 30 29  1  1  0  0  0
 32 41  1  6  0  0  0
 32 46  1  0  0  0  0
 32 31  1  0  0  0  0
 33 32  1  0  0  0  0
 34 44  1  1  0  0  0
 34 33  1  0  0  0  0
 34 35  1  0  0  0  0
 35 36  1  6  0  0  0
 35 30  1  0  0  0  0
 36 38  1  0  0  0  0
 37 36  1  0  0  0  0
 38 39  1  0  0  0  0
 40 38  2  0  0  0  0
 41 43  1  0  0  0  0
 42 41  2  0  0  0  0
 45 44  1  0  0  0  0
 46 47  1  0  0  0  0
 49 48  1  0  0  0  0
M  END
>  <REMARK>
 VINA RESULT:    -5.798      0.000      0.000
 INTER + INTRA:         -13.822
 INTER:                 -10.401
 INTRA:                  -3.421
 UNBOUND:                -3.108
  Name = lig_assembled_58.pdb
  18 active torsions:
  status: ('A' for Active; 'I' for Inactive)
    1  A    between atoms: _2  and  _9
    2  A    between atoms: _4  and  _25
    3  A    between atoms: _6  and  _7
    4  A    between atoms: _6  and  _25
    5  A    between atoms: _9  and  _10
    6  A    between atoms: _9  and  _16
    7  A    between atoms: _21  and  _41
    8  A    between atoms: _23  and  _29
    9  A    between atoms: _24  and  _28
   10  A    between atoms: _28  and  _29
   11  A    between atoms: _31  and  _32
   12  A    between atoms: _33  and  _34
   13  A    between atoms: _35  and  _37
   14  A    between atoms: _37  and  _38
   15  A    between atoms: _37  and  _39
   16  A    between atoms: _39  and  _40
   17  A    between atoms: _39  and  _41
   18  A    between atoms: _42  and  _44
                            x       y       z     vdW  Elec       q    Type
                         _______ _______ _______ _____ _____    ______ ____

>  <TORSDO>
F 16

$$$$
lig_assembled_59.pdb
 OpenBabel07252309473D

 45 47  0  0  1  0  0  0  0  0999 V2000
   -3.1830   11.6280   22.6360 C   0  0  1  0  0  0  0  0  0  0  0  0
   -2.4300   12.1270   23.7540 O   0  0  0  0  0  0  0  0  0  0  0  0
   -3.0330   12.4200   24.4410 H   0  0  0  0  0  0  0  0  0  0  0  0
   -3.9120   10.3240   23.0030 C   0  0  2  0  0  0  0  0  0  0  0  0
   -4.0160   10.1270   24.5220 C   0  0  2  0  0  0  0  0  0  0  0  0
   -3.0210    9.1420   24.9140 O   0  0  0  0  0  0  0  0  0  0  0  0
   -2.9010    8.9010   26.3550 C   0  0  2  0  0  0  0  0  0  0  0  0
   -4.2760    8.5240   26.9580 C   0  0  0  0  0  0  0  0  0  0  0  0
   -5.3740    9.5260   26.5420 C   0  0  1  0  0  0  0  0  0  0  0  0
   -5.4090    9.7030   25.0230 C   0  0  1  0  0  0  0  0  0  0  0  0
   -6.3990   10.7240   24.6460 N   0  0  0  0  0  0  0  0  0  0  0  0
   -6.3200   11.6370   25.0720 H   0  0  0  0  0  0  0  0  0  0  0  0
   -7.3940   10.5230   23.7790 C   0  0  0  0  0  0  0  0  0  0  0  0
   -7.5020    9.1130   23.1670 C   0  0  0  0  0  0  0  0  0  0  0  0
   -8.2000   11.4010   23.4700 O   0  0  0  0  0  0  0  0  0  0  0  0
   -2.3480   10.1500   27.0740 C   0  0  0  0  0  0  0  0  0  0  0  0
   -1.9620   11.1200   26.4230 O   0  0  0  0  0  0  0  0  0  0  0  0
   -2.2880   10.1870   28.3040 O   0  0  0  0  0  0  0  0  0  0  0  0
   -1.9950    7.7850   26.5500 O   0  0  0  0  0  0  0  0  0  0  0  0
   -2.6180    6.5670   27.0310 C   0  0  0  0  0  0  0  0  0  0  0  0
   -6.6470    9.0590   26.9910 O   0  0  0  0  0  0  0  0  0  0  0  0
   -6.9310    9.5800   27.7450 H   0  0  0  0  0  0  0  0  0  0  0  0
   -3.2460    9.1970   22.4000 O   0  0  0  0  0  0  0  0  0  0  0  0
   -3.0700    8.5320   23.0700 H   0  0  0  0  0  0  0  0  0  0  0  0
   -4.2000   12.6710   22.1850 C   0  0  0  0  0  0  0  0  0  0  0  0
   -5.7560   14.2240   23.3130 C   0  0  0  0  0  0  0  0  0  0  0  0
   -6.6010   14.1790   22.4160 O   0  0  0  0  0  0  0  0  0  0  0  0
   -4.6020   13.5560   23.2850 N   0  0  0  0  0  0  0  0  0  0  0  0
   -3.9680   13.6650   24.0640 H   0  0  0  0  0  0  0  0  0  0  0  0
   -6.0050   15.0400   24.4610 O   0  0  0  0  0  0  0  0  0  0  0  0
   -7.2400   14.6490   25.0660 C   0  0  0  0  0  0  0  0  0  0  0  0
   -7.8710   12.7540   26.5240 N   0  0  0  0  0  0  0  0  0  0  0  0
   -6.9880   13.7500   26.2090 C   0  0  0  0  0  0  0  0  0  0  0  0
   -5.9420   13.7230   27.1010 C   0  0  0  0  0  0  0  0  0  0  0  0
   -6.2310   12.6800   27.9520 N   0  0  0  0  0  0  0  0  0  0  0  0
   -7.4030   12.1050   27.5810 N   0  0  0  0  0  0  0  0  0  0  0  0
   -5.4690   12.2400   29.0670 C   0  0  0  0  0  0  0  0  0  0  0  0
   -4.4890   13.0800   29.5930 C   0  0  0  0  0  0  0  0  0  0  0  0
   -3.7170   12.6250   30.6600 C   0  0  0  0  0  0  0  0  0  0  0  0
   -3.9380   11.3510   31.1880 C   0  0  0  0  0  0  0  0  0  0  0  0
   -4.9390   10.5830   30.6000 C   0  0  0  0  0  0  0  0  0  0  0  0
   -5.7110   10.9970   29.5660 N   0  0  0  0  0  0  0  0  0  0  0  0
   -3.0580   10.8070   32.2750 C   0  0  0  0  0  0  0  0  0  0  0  0
   -1.7710   11.4060   32.2470 O   0  0  0  0  0  0  0  0  0  0  0  0
   -1.1390   10.7080   31.9980 H   0  0  0  0  0  0  0  0  0  0  0  0
  1 25  1  1  0  0  0
  1  4  1  0  0  0  0
  1  2  1  0  0  0  0
  2  3  1  0  0  0  0
  4 23  1  6  0  0  0
  5  4  1  6  0  0  0
  5  6  1  0  0  0  0
  5 10  1  0  0  0  0
  6  7  1  0  0  0  0
  7 19  1  1  0  0  0
  7  8  1  0  0  0  0
  7 16  1  0  0  0  0
  9  8  1  0  0  0  0
  9 21  1  6  0  0  0
 10 11  1  1  0  0  0
 10  9  1  0  0  0  0
 11 12  1  0  0  0  0
 13 11  1  0  0  0  0
 14 13  1  0  0  0  0
 15 13  2  0  0  0  0
 16 18  1  0  0  0  0
 17 16  2  0  0  0  0
 19 20  1  0  0  0  0
 21 22  1  0  0  0  0
 23 24  1  0  0  0  0
 25 28  1  0  0  0  0
 26 30  1  0  0  0  0
 27 26  2  0  0  0  0
 28 26  1  0  0  0  0
 28 29  1  0  0  0  0
 30 31  1  0  0  0  0
 31 33  1  0  0  0  0
 32 36  2  0  0  0  0
 33 32  1  0  0  0  0
 33 34  2  0  0  0  0
 34 35  1  0  0  0  0
 35 37  1  0  0  0  0
 36 35  1  0  0  0  0
 37 42  2  0  0  0  0
 37 38  1  0  0  0  0
 38 39  2  0  0  0  0
 39 40  1  0  0  0  0
 40 43  1  0  0  0  0
 41 40  2  0  0  0  0
 42 41  1  0  0  0  0
 44 43  1  0  0  0  0
 45 44  1  0  0  0  0
M  END
>  <REMARK>
 VINA RESULT:    -5.419      0.000      0.000
 INTER + INTRA:         -12.218
 INTER:                  -8.124
 INTRA:                  -4.093
 UNBOUND:                -2.363
  Name = lig_assembled_59.pdb
  18 active torsions:
  status: ('A' for Active; 'I' for Inactive)
    1  A    between atoms: _2  and  _10
    2  A    between atoms: _5  and  _20
    3  A    between atoms: _7  and  _8
    4  A    between atoms: _7  and  _20
    5  A    between atoms: _13  and  _14
    6  A    between atoms: _14  and  _15
    7  A    between atoms: _16  and  _36
    8  A    between atoms: _18  and  _24
    9  A    between atoms: _19  and  _23
   10  A    between atoms: _23  and  _24
   11  A    between atoms: _26  and  _27
   12  A    between atoms: _28  and  _29
   13  A    between atoms: _30  and  _32
   14  A    between atoms: _32  and  _33
   15  A    between atoms: _32  and  _34
   16  A    between atoms: _34  and  _35
   17  A    between atoms: _34  and  _36
   18  A    between atoms: _37  and  _39
                            x       y       z     vdW  Elec       q    Type
                         _______ _______ _______ _____ _____    ______ ____

>  <TORSDO>
F 16

$$$$
lig_assembled_5.pdb
 OpenBabel07252309473D

 44 46  0  0  1  0  0  0  0  0999 V2000
   -6.6120    8.8810   23.2410 C   0  0  2  0  0  0  0  0  0  0  0  0
   -6.3470    9.1010   24.6360 O   0  0  0  0  0  0  0  0  0  0  0  0
   -5.4660    9.4680   24.7410 H   0  0  0  0  0  0  0  0  0  0  0  0
   -5.7010    7.7820   22.7040 C   0  0  0  0  0  0  0  0  0  0  0  0
   -3.6680    6.5670   23.4090 C   0  0  0  0  0  0  0  0  0  0  0  0
   -3.4850    6.0440   22.3070 O   0  0  0  0  0  0  0  0  0  0  0  0
   -4.6820    7.3880   23.6850 N   0  0  0  0  0  0  0  0  0  0  0  0
   -4.7530    7.7610   24.6210 H   0  0  0  0  0  0  0  0  0  0  0  0
   -2.7520    6.2880   24.4710 O   0  0  0  0  0  0  0  0  0  0  0  0
   -3.4670    6.1990   25.7070 C   0  0  0  0  0  0  0  0  0  0  0  0
   -1.7660    7.7340   26.6420 N   0  0  0  0  0  0  0  0  0  0  0  0
   -3.0540    7.2850   26.6160 C   0  0  0  0  0  0  0  0  0  0  0  0
   -3.7970    8.0010   27.5250 C   0  0  0  0  0  0  0  0  0  0  0  0
   -2.9170    8.9080   28.0700 N   0  0  0  0  0  0  0  0  0  0  0  0
   -1.6880    8.7140   27.5320 N   0  0  0  0  0  0  0  0  0  0  0  0
   -3.1710    9.9340   29.0180 C   0  0  0  0  0  0  0  0  0  0  0  0
   -3.6340   11.1900   28.6080 C   0  0  0  0  0  0  0  0  0  0  0  0
   -3.8200   12.2050   29.5500 C   0  0  0  0  0  0  0  0  0  0  0  0
   -3.5700   11.9790   30.9050 C   0  0  0  0  0  0  0  0  0  0  0  0
   -3.1260   10.7250   31.3180 C   0  0  0  0  0  0  0  0  0  0  0  0
   -2.9250    9.7030   30.3800 C   0  0  0  0  0  0  0  0  0  0  0  0
   -3.7320   13.0740   31.7090 O   0  0  0  0  0  0  0  0  0  0  0  0
   -3.0560   14.2570   31.3070 C   0  0  0  0  0  0  0  0  0  0  0  0
   -6.3960   10.1700   22.4300 C   0  0  2  0  0  0  0  0  0  0  0  0
   -5.0310   10.8130   22.7180 C   0  0  2  0  0  0  0  0  0  0  0  0
   -5.1750   11.6610   23.8910 O   0  0  0  0  0  0  0  0  0  0  0  0
   -3.9390   12.2790   24.3810 C   0  0  2  0  0  0  0  0  0  0  0  0
   -3.2420   13.0690   23.2470 C   0  0  0  0  0  0  0  0  0  0  0  0
   -3.0950   12.2180   21.9670 C   0  0  1  0  0  0  0  0  0  0  0  0
   -4.4390   11.6210   21.5480 C   0  0  1  0  0  0  0  0  0  0  0  0
   -4.2710   10.7430   20.3800 N   0  0  0  0  0  0  0  0  0  0  0  0
   -3.6010    9.9890   20.4490 H   0  0  0  0  0  0  0  0  0  0  0  0
   -4.9450   10.8760   19.2340 C   0  0  0  0  0  0  0  0  0  0  0  0
   -5.9380   12.0500   19.1520 C   0  0  0  0  0  0  0  0  0  0  0  0
   -4.7940   10.1170   18.2770 O   0  0  0  0  0  0  0  0  0  0  0  0
   -2.9740   11.2090   24.9330 C   0  0  0  0  0  0  0  0  0  0  0  0
   -1.9780   11.5440   25.5730 O   0  0  0  0  0  0  0  0  0  0  0  0
   -3.1920   10.0120   24.7400 O   0  0  0  0  0  0  0  0  0  0  0  0
   -4.2920   13.2100   25.4370 O   0  0  0  0  0  0  0  0  0  0  0  0
   -5.6470   13.0830   25.9380 C   0  0  0  0  0  0  0  0  0  0  0  0
   -2.5880   13.0270   20.9060 O   0  0  0  0  0  0  0  0  0  0  0  0
   -3.2100   13.7340   20.7160 H   0  0  0  0  0  0  0  0  0  0  0  0
   -7.4540   11.1100   22.7000 O   0  0  0  0  0  0  0  0  0  0  0  0
   -7.1270   12.0050   22.5800 H   0  0  0  0  0  0  0  0  0  0  0  0
  1  4  1  6  0  0  0
  1  2  1  0  0  0  0
  2  3  1  0  0  0  0
  4  7  1  0  0  0  0
  5  7  1  0  0  0  0
  5  9  1  0  0  0  0
  6  5  2  0  0  0  0
  7  8  1  0  0  0  0
  9 10  1  0  0  0  0
 10 12  1  0  0  0  0
 11 15  2  0  0  0  0
 12 11  1  0  0  0  0
 12 13  2  0  0  0  0
 13 14  1  0  0  0  0
 14 16  1  0  0  0  0
 15 14  1  0  0  0  0
 16 21  1  0  0  0  0
 17 16  2  0  0  0  0
 17 18  1  0  0  0  0
 18 19  2  0  0  0  0
 19 20  1  0  0  0  0
 19 22  1  0  0  0  0
 21 20  2  0  0  0  0
 23 22  1  0  0  0  0
 24 43  1  1  0  0  0
 24  1  1  0  0  0  0
 25 24  1  6  0  0  0
 25 26  1  0  0  0  0
 26 27  1  0  0  0  0
 27 36  1  1  0  0  0
 27 39  1  0  0  0  0
 28 27  1  0  0  0  0
 29 41  1  6  0  0  0
 29 28  1  0  0  0  0
 30 31  1  6  0  0  0
 30 29  1  0  0  0  0
 30 25  1  0  0  0  0
 31 32  1  0  0  0  0
 33 31  1  0  0  0  0
 34 33  1  0  0  0  0
 35 33  2  0  0  0  0
 36 37  1  0  0  0  0
 38 36  2  0  0  0  0
 39 40  1  0  0  0  0
 42 41  1  0  0  0  0
 44 43  1  0  0  0  0
M  END
>  <REMARK>
 VINA RESULT:    -5.217      0.000      0.000
 INTER + INTRA:         -12.126
 INTER:                  -9.272
 INTRA:                  -2.854
 UNBOUND:                -2.792
  Name = lig_assembled_5.pdb
  18 active torsions:
  status: ('A' for Active; 'I' for Inactive)
    1  A    between atoms: _2  and  _9
    2  A    between atoms: _4  and  _20
    3  A    between atoms: _6  and  _7
    4  A    between atoms: _6  and  _20
    5  A    between atoms: _12  and  _15
    6  A    between atoms: _13  and  _15
    7  A    between atoms: _16  and  _36
    8  A    between atoms: _18  and  _24
    9  A    between atoms: _19  and  _23
   10  A    between atoms: _23  and  _24
   11  A    between atoms: _26  and  _27
   12  A    between atoms: _28  and  _29
   13  A    between atoms: _30  and  _32
   14  A    between atoms: _32  and  _33
   15  A    between atoms: _32  and  _34
   16  A    between atoms: _34  and  _35
   17  A    between atoms: _34  and  _36
   18  A    between atoms: _37  and  _39
                            x       y       z     vdW  Elec       q    Type
                         _______ _______ _______ _____ _____    ______ ____

>  <TORSDO>
F 15

$$$$
lig_assembled_60.pdb
 OpenBabel07252309473D

 48 50  0  0  1  0  0  0  0  0999 V2000
   -1.8530    7.2490   14.4720 C   0  0  0  0  0  0  0  0  0  0  0  0
   -3.3170    6.4600   16.2990 C   0  0  0  0  0  0  0  0  0  0  0  0
   -2.3840    6.0810   17.0110 O   0  0  0  0  0  0  0  0  0  0  0  0
   -3.1610    7.0120   15.0950 N   0  0  0  0  0  0  0  0  0  0  0  0
   -3.9880    7.2810   14.5830 H   0  0  0  0  0  0  0  0  0  0  0  0
   -4.6580    6.3040   16.7710 O   0  0  0  0  0  0  0  0  0  0  0  0
   -5.4630    7.3840   16.2890 C   0  0  0  0  0  0  0  0  0  0  0  0
   -6.9600    8.4220   17.9660 N   0  0  0  0  0  0  0  0  0  0  0  0
   -5.7330    8.3460   17.3740 C   0  0  0  0  0  0  0  0  0  0  0  0
   -4.8920    9.2610   17.9640 C   0  0  0  0  0  0  0  0  0  0  0  0
   -5.6480    9.8560   18.9490 N   0  0  0  0  0  0  0  0  0  0  0  0
   -6.9040    9.3470   18.9140 N   0  0  0  0  0  0  0  0  0  0  0  0
   -5.2480   10.8150   19.9150 C   0  0  0  0  0  0  0  0  0  0  0  0
   -5.8980   12.0570   20.0000 C   0  0  0  0  0  0  0  0  0  0  0  0
   -5.4510   13.0200   20.9060 C   0  0  0  0  0  0  0  0  0  0  0  0
   -4.3640   12.7400   21.7380 C   0  0  0  0  0  0  0  0  0  0  0  0
   -3.7190   11.5020   21.6720 C   0  0  0  0  0  0  0  0  0  0  0  0
   -4.1660   10.5370   20.7650 C   0  0  0  0  0  0  0  0  0  0  0  0
   -3.7590   13.9970   22.8250 S   0  0  0  0  0  0  0  0  0  0  0  0
   -2.9970   14.9590   22.0640 O   0  0  0  0  0  0  0  0  0  0  0  0
   -4.8150   14.3850   23.7320 O   0  0  0  0  0  0  0  0  0  0  0  0
   -2.6460   13.1450   23.7450 N   0  0  0  0  0  0  0  0  0  0  0  0
   -2.9210   12.1640   23.8000 H   0  0  0  0  0  0  0  0  0  0  0  0
   -2.5340   13.5940   24.6540 H   0  0  0  0  0  0  0  0  0  0  0  0
   -1.8600    8.4950   13.5920 C   0  0  1  0  0  0  0  0  0  0  0  0
   -2.1240    8.1310   12.2270 O   0  0  0  0  0  0  0  0  0  0  0  0
   -3.0260    7.8110   12.1500 H   0  0  0  0  0  0  0  0  0  0  0  0
   -2.9160    9.4850   14.1110 C   0  0  2  0  0  0  0  0  0  0  0  0
   -3.2050   10.6050   13.1010 C   0  0  2  0  0  0  0  0  0  0  0  0
   -1.9360   11.0390   12.5390 O   0  0  0  0  0  0  0  0  0  0  0  0
   -2.0250   12.0380   11.4700 C   0  0  2  0  0  0  0  0  0  0  0  0
   -2.8350   13.2690   11.9450 C   0  0  0  0  0  0  0  0  0  0  0  0
   -4.1800   12.8550   12.5790 C   0  0  1  0  0  0  0  0  0  0  0  0
   -3.9710   11.8110   13.6760 C   0  0  1  0  0  0  0  0  0  0  0  0
   -5.2650   11.3610   14.2120 N   0  0  0  0  0  0  0  0  0  0  0  0
   -5.8610   10.8110   13.6080 H   0  0  0  0  0  0  0  0  0  0  0  0
   -5.7040   11.6300   15.4450 C   0  0  0  0  0  0  0  0  0  0  0  0
   -4.7850   12.4910   16.3310 C   0  0  0  0  0  0  0  0  0  0  0  0
   -6.7870   11.2280   15.8720 O   0  0  0  0  0  0  0  0  0  0  0  0
   -2.6890   11.4370   10.2140 C   0  0  0  0  0  0  0  0  0  0  0  0
   -2.7580   10.2170   10.0720 O   0  0  0  0  0  0  0  0  0  0  0  0
   -3.1550   12.1720    9.3420 O   0  0  0  0  0  0  0  0  0  0  0  0
   -4.8230   14.0020   13.1370 O   0  0  0  0  0  0  0  0  0  0  0  0
   -5.7290   14.0460   12.8230 H   0  0  0  0  0  0  0  0  0  0  0  0
   -0.6780   12.4730   11.1500 O   0  0  0  0  0  0  0  0  0  0  0  0
   -0.4210   13.8830   11.3700 C   0  0  0  0  0  0  0  0  0  0  0  0
   -2.4930   10.0490   15.3690 O   0  0  0  0  0  0  0  0  0  0  0  0
   -2.4060   11.0010   15.2810 H   0  0  0  0  0  0  0  0  0  0  0  0
  1  4  1  0  0  0  0
  2  6  1  0  0  0  0
  2  3  2  0  0  0  0
  4  2  1  0  0  0  0
  5  4  1  0  0  0  0
  7  6  1  0  0  0  0
  7  9  1  0  0  0  0
  8 12  2  0  0  0  0
  9 10  2  0  0  0  0
  9  8  1  0  0  0  0
 10 11  1  0  0  0  0
 11 13  1  0  0  0  0
 12 11  1  0  0  0  0
 13 14  2  0  0  0  0
 13 18  1  0  0  0  0
 14 15  1  0  0  0  0
 15 16  2  0  0  0  0
 16 19  1  0  0  0  0
 17 16  1  0  0  0  0
 18 17  2  0  0  0  0
 19 21  2  0  0  0  0
 19 22  1  0  0  0  0
 20 19  2  0  0  0  0
 22 23  1  0  0  0  0
 22 24  1  0  0  0  0
 25 28  1  0  0  0  0
 25  1  1  1  0  0  0
 26 25  1  0  0  0  0
 27 26  1  0  0  0  0
 28 47  1  1  0  0  0
 29 34  1  0  0  0  0
 29 28  1  1  0  0  0
 30 29  1  0  0  0  0
 31 40  1  6  0  0  0
 31 32  1  0  0  0  0
 31 30  1  0  0  0  0
 32 33  1  0  0  0  0
 33 43  1  1  0  0  0
 33 34  1  0  0  0  0
 34 35  1  6  0  0  0
 35 37  1  0  0  0  0
 36 35  1  0  0  0  0
 37 39  2  0  0  0  0
 37 38  1  0  0  0  0
 41 40  1  0  0  0  0
 42 40  2  0  0  0  0
 44 43  1  0  0  0  0
 45 46  1  0  0  0  0
 45 31  1  0  0  0  0
 48 47  1  0  0  0  0
M  END
>  <REMARK>
 VINA RESULT:    -6.054      0.000      0.000
 INTER + INTRA:         -12.964
 INTER:                  -9.780
 INTRA:                  -3.183
 UNBOUND:                -1.954
  Name = lig_assembled_60.pdb
  18 active torsions:
  status: ('A' for Active; 'I' for Inactive)
    1  A    between atoms: _2  and  _10
    2  A    between atoms: _3  and  _41
    3  A    between atoms: _5  and  _21
    4  A    between atoms: _7  and  _8
    5  A    between atoms: _7  and  _21
    6  A    between atoms: _13  and  _41
    7  A    between atoms: _17  and  _37
    8  A    between atoms: _19  and  _25
    9  A    between atoms: _20  and  _24
   10  A    between atoms: _24  and  _25
   11  A    between atoms: _27  and  _28
   12  A    between atoms: _29  and  _30
   13  A    between atoms: _31  and  _33
   14  A    between atoms: _33  and  _34
   15  A    between atoms: _33  and  _35
   16  A    between atoms: _35  and  _36
   17  A    between atoms: _35  and  _37
   18  A    between atoms: _38  and  _40
                            x       y       z     vdW  Elec       q    Type
                         _______ _______ _______ _____ _____    ______ ____

>  <TORSDO>
F 16

$$$$
lig_assembled_61.pdb
 OpenBabel07252309473D

 42 44  0  0  1  0  0  0  0  0999 V2000
   -3.2930   10.2110   31.0530 C   0  0  2  0  0  0  0  0  0  0  0  0
   -2.0770   10.8670   31.4470 O   0  0  0  0  0  0  0  0  0  0  0  0
   -2.1700   11.8150   31.3270 H   0  0  0  0  0  0  0  0  0  0  0  0
   -2.9820    8.8260   30.4940 C   0  0  0  0  0  0  0  0  0  0  0  0
   -2.3580    8.3460   28.1520 C   0  0  0  0  0  0  0  0  0  0  0  0
   -1.2010    8.0210   28.4280 O   0  0  0  0  0  0  0  0  0  0  0  0
   -3.2560    8.7420   29.0550 N   0  0  0  0  0  0  0  0  0  0  0  0
   -4.1780    8.9980   28.7290 H   0  0  0  0  0  0  0  0  0  0  0  0
   -2.7820    8.3090   26.7870 O   0  0  0  0  0  0  0  0  0  0  0  0
   -3.7890    9.3020   26.5730 C   0  0  0  0  0  0  0  0  0  0  0  0
   -2.4640   11.2550   25.8280 N   0  0  0  0  0  0  0  0  0  0  0  0
   -3.3580   10.2570   25.5360 C   0  0  0  0  0  0  0  0  0  0  0  0
   -3.7150   10.3450   24.2080 C   0  0  0  0  0  0  0  0  0  0  0  0
   -3.0510   11.4500   23.7630 N   0  0  0  0  0  0  0  0  0  0  0  0
   -2.2680   11.9700   24.7280 N   0  0  0  0  0  0  0  0  0  0  0  0
   -3.0800   12.0440   22.4390 C   0  0  0  0  0  0  0  0  0  0  0  0
   -3.9530   13.2670   22.3950 C   0  0  0  0  0  0  0  0  0  0  0  0
   -3.4690   14.6080   22.2170 C   0  0  0  0  0  0  0  0  0  0  0  0
   -4.4750   15.5480   22.2530 C   0  0  0  0  0  0  0  0  0  0  0  0
   -6.0090   14.8360   22.4870 S   0  0  0  0  0  0  0  0  0  0  0  0
   -5.3290   13.2690   22.5530 C   0  0  0  0  0  0  0  0  0  0  0  0
   -4.0440   11.0350   29.9930 C   0  0  2  0  0  0  0  0  0  0  0  0
   -4.1430   12.5190   30.3780 C   0  0  2  0  0  0  0  0  0  0  0  0
   -4.3910   12.5930   31.8090 O   0  0  0  0  0  0  0  0  0  0  0  0
   -4.4110   13.9440   32.3790 C   0  0  2  0  0  0  0  0  0  0  0  0
   -5.4280   14.8350   31.6240 C   0  0  0  0  0  0  0  0  0  0  0  0
   -5.2230   14.7630   30.0960 C   0  0  1  0  0  0  0  0  0  0  0  0
   -5.2160   13.3130   29.6110 C   0  0  1  0  0  0  0  0  0  0  0  0
   -4.9340   13.2540   28.1680 N   0  0  0  0  0  0  0  0  0  0  0  0
   -4.0010   13.4890   27.8600 H   0  0  0  0  0  0  0  0  0  0  0  0
   -5.8310   12.9100   27.2400 C   0  0  0  0  0  0  0  0  0  0  0  0
   -7.2510   12.5840   27.7390 C   0  0  0  0  0  0  0  0  0  0  0  0
   -5.5620   12.8550   26.0390 O   0  0  0  0  0  0  0  0  0  0  0  0
   -3.0110   14.5870   32.3100 C   0  0  0  0  0  0  0  0  0  0  0  0
   -2.8820   15.8060   32.4160 O   0  0  0  0  0  0  0  0  0  0  0  0
   -2.0100   13.8880   32.1490 O   0  0  0  0  0  0  0  0  0  0  0  0
   -4.8330   13.8400   33.7630 O   0  0  0  0  0  0  0  0  0  0  0  0
   -4.9240   12.4870   34.2760 C   0  0  0  0  0  0  0  0  0  0  0  0
   -6.2710   15.4750   29.4360 O   0  0  0  0  0  0  0  0  0  0  0  0
   -6.1970   15.3470   28.4880 H   0  0  0  0  0  0  0  0  0  0  0  0
   -5.3600   10.4890   29.7790 O   0  0  0  0  0  0  0  0  0  0  0  0
   -6.0190   11.0930   30.1290 H   0  0  0  0  0  0  0  0  0  0  0  0
  1  4  1  6  0  0  0
  1  2  1  0  0  0  0
  3  2  1  0  0  0  0
  5  6  2  0  0  0  0
  5  7  1  0  0  0  0
  7  4  1  0  0  0  0
  8  7  1  0  0  0  0
  9  5  1  0  0  0  0
 10  9  1  0  0  0  0
 12 11  1  0  0  0  0
 12 10  1  0  0  0  0
 13 12  2  0  0  0  0
 14 13  1  0  0  0  0
 14 15  1  0  0  0  0
 15 11  2  0  0  0  0
 16 14  1  0  0  0  0
 17 16  1  0  0  0  0
 17 21  2  0  0  0  0
 18 19  2  0  0  0  0
 18 17  1  0  0  0  0
 19 20  1  0  0  0  0
 20 21  1  0  0  0  0
 22 41  1  1  0  0  0
 22  1  1  0  0  0  0
 23 22  1  6  0  0  0
 23 24  1  0  0  0  0
 24 25  1  0  0  0  0
 25 34  1  6  0  0  0
 25 37  1  0  0  0  0
 26 25  1  0  0  0  0
 27 39  1  6  0  0  0
 27 26  1  0  0  0  0
 28 29  1  6  0  0  0
 28 27  1  0  0  0  0
 28 23  1  0  0  0  0
 30 29  1  0  0  0  0
 31 32  1  0  0  0  0
 31 29  1  0  0  0  0
 33 31  2  0  0  0  0
 34 35  1  0  0  0  0
 36 34  2  0  0  0  0
 37 38  1  0  0  0  0
 40 39  1  0  0  0  0
 41 42  1  0  0  0  0
M  END
>  <REMARK>
 VINA RESULT:    -5.238      0.000      0.000
 INTER + INTRA:         -11.606
 INTER:                  -8.573
 INTRA:                  -3.033
 UNBOUND:                -2.233
  Name = lig_assembled_61.pdb
  17 active torsions:
  status: ('A' for Active; 'I' for Inactive)
    1  A    between atoms: _2  and  _9
    2  A    between atoms: _4  and  _17
    3  A    between atoms: _6  and  _7
    4  A    between atoms: _6  and  _17
    5  A    between atoms: _9  and  _10
    6  A    between atoms: _13  and  _33
    7  A    between atoms: _15  and  _21
    8  A    between atoms: _16  and  _20
    9  A    between atoms: _20  and  _21
   10  A    between atoms: _23  and  _24
   11  A    between atoms: _25  and  _26
   12  A    between atoms: _27  and  _29
   13  A    between atoms: _29  and  _30
   14  A    between atoms: _29  and  _31
   15  A    between atoms: _31  and  _32
   16  A    between atoms: _31  and  _33
   17  A    between atoms: _34  and  _36
                            x       y       z     vdW  Elec       q    Type
                         _______ _______ _______ _____ _____    ______ ____

>  <TORSDO>
F 15

$$$$
lig_assembled_62.pdb
 OpenBabel07252309473D

 45 46  0  0  1  0  0  0  0  0999 V2000
   -5.7200    8.2540   25.3160 C   0  0  1  0  0  0  0  0  0  0  0  0
   -5.8960    8.8900   26.5930 O   0  0  0  0  0  0  0  0  0  0  0  0
   -6.1670    9.8020   26.4630 H   0  0  0  0  0  0  0  0  0  0  0  0
   -5.9230    9.2590   24.1690 C   0  0  2  0  0  0  0  0  0  0  0  0
   -4.9130   10.4150   24.2270 C   0  0  2  0  0  0  0  0  0  0  0  0
   -5.2700   11.2640   25.3530 O   0  0  0  0  0  0  0  0  0  0  0  0
   -4.3480   12.3690   25.6300 C   0  0  2  0  0  0  0  0  0  0  0  0
   -4.1460   13.2360   24.3630 C   0  0  0  0  0  0  0  0  0  0  0  0
   -3.7960   12.3740   23.1320 C   0  0  1  0  0  0  0  0  0  0  0  0
   -4.8190   11.2530   22.9390 C   0  0  1  0  0  0  0  0  0  0  0  0
   -4.4270   10.3870   21.8160 N   0  0  0  0  0  0  0  0  0  0  0  0
   -3.5480    9.8940   21.8850 H   0  0  0  0  0  0  0  0  0  0  0  0
   -5.1590   10.2080   20.7130 C   0  0  0  0  0  0  0  0  0  0  0  0
   -6.4810   10.9930   20.6280 C   0  0  0  0  0  0  0  0  0  0  0  0
   -4.8130    9.4640   19.7940 O   0  0  0  0  0  0  0  0  0  0  0  0
   -2.9830   11.8350   26.1120 C   0  0  0  0  0  0  0  0  0  0  0  0
   -2.9240   11.0340   27.0440 O   0  0  0  0  0  0  0  0  0  0  0  0
   -1.9410   12.2040   25.5680 O   0  0  0  0  0  0  0  0  0  0  0  0
   -4.9390   13.1990   26.6630 O   0  0  0  0  0  0  0  0  0  0  0  0
   -6.2520   12.7770   27.1100 C   0  0  0  0  0  0  0  0  0  0  0  0
   -3.7690   13.1920   21.9620 O   0  0  0  0  0  0  0  0  0  0  0  0
   -4.3020   13.9780   22.1080 H   0  0  0  0  0  0  0  0  0  0  0  0
   -7.2700    9.7740   24.1930 O   0  0  0  0  0  0  0  0  0  0  0  0
   -7.3850   10.3330   24.9650 H   0  0  0  0  0  0  0  0  0  0  0  0
   -4.3240    7.6490   25.2220 C   0  0  0  0  0  0  0  0  0  0  0  0
   -2.3130    7.4060   26.6380 C   0  0  0  0  0  0  0  0  0  0  0  0
   -1.7160    6.6900   25.8310 O   0  0  0  0  0  0  0  0  0  0  0  0
   -3.5380    7.8940   26.4380 N   0  0  0  0  0  0  0  0  0  0  0  0
   -3.9480    8.4640   27.1640 H   0  0  0  0  0  0  0  0  0  0  0  0
   -1.6740    7.7430   27.8720 O   0  0  0  0  0  0  0  0  0  0  0  0
   -2.5210    7.3750   28.9640 C   0  0  0  0  0  0  0  0  0  0  0  0
   -4.4080    8.9710   29.1110 N   0  0  0  0  0  0  0  0  0  0  0  0
   -3.1700    8.5690   29.5360 C   0  0  0  0  0  0  0  0  0  0  0  0
   -2.7260    9.4370   30.5090 C   0  0  0  0  0  0  0  0  0  0  0  0
   -3.7300   10.3540   30.6220 N   0  0  0  0  0  0  0  0  0  0  0  0
   -4.7440   10.0640   29.7830 N   0  0  0  0  0  0  0  0  0  0  0  0
   -3.8390   11.5040   31.5040 C   0  0  2  0  0  0  0  0  0  0  0  0
   -4.2610   12.7350   30.7180 C   0  0  0  0  0  0  0  0  0  0  0  0
   -5.0750   13.5650   31.1150 O   0  0  0  0  0  0  0  0  0  0  0  0
   -3.6270   12.9290   29.5200 N   0  0  0  0  0  0  0  0  0  0  0  0
   -2.8830   12.3360   29.1750 H   0  0  0  0  0  0  0  0  0  0  0  0
   -3.8820   13.7470   28.9790 H   0  0  0  0  0  0  0  0  0  0  0  0
   -2.5230   11.7480   32.2380 C   0  0  0  0  0  0  0  0  0  0  0  0
   -2.1120   13.1080   32.0360 O   0  0  0  0  0  0  0  0  0  0  0  0
   -1.7740   13.7440   33.2620 C   0  0  0  0  0  0  0  0  0  0  0  0
  1 25  1  1  0  0  0
  1  2  1  0  0  0  0
  3  2  1  0  0  0  0
  4 23  1  1  0  0  0
  4  1  1  0  0  0  0
  5  4  1  6  0  0  0
  5  6  1  0  0  0  0
  6  7  1  0  0  0  0
  7 16  1  1  0  0  0
  7 19  1  0  0  0  0
  8  7  1  0  0  0  0
  9 21  1  6  0  0  0
  9  8  1  0  0  0  0
 10 11  1  6  0  0  0
 10  9  1  0  0  0  0
 10  5  1  0  0  0  0
 11 12  1  0  0  0  0
 13 11  1  0  0  0  0
 14 13  1  0  0  0  0
 15 13  2  0  0  0  0
 16 17  1  0  0  0  0
 18 16  2  0  0  0  0
 19 20  1  0  0  0  0
 21 22  1  0  0  0  0
 23 24  1  0  0  0  0
 25 28  1  0  0  0  0
 26 30  1  0  0  0  0
 27 26  2  0  0  0  0
 28 26  1  0  0  0  0
 28 29  1  0  0  0  0
 30 31  1  0  0  0  0
 31 33  1  0  0  0  0
 32 33  1  0  0  0  0
 32 36  2  0  0  0  0
 33 34  2  0  0  0  0
 34 35  1  0  0  0  0
 35 37  1  0  0  0  0
 36 35  1  0  0  0  0
 37 43  1  6  0  0  0
 38 39  2  0  0  0  0
 38 37  1  0  0  0  0
 40 38  1  0  0  0  0
 41 40  1  0  0  0  0
 42 40  1  0  0  0  0
 44 43  1  0  0  0  0
 44 45  1  0  0  0  0
M  END
>  <REMARK>
 VINA RESULT:    -3.946      0.000      0.000
 INTER + INTRA:         -12.232
 INTER:                  -8.213
 INTRA:                  -4.019
 UNBOUND:                -4.711
  Name = lig_assembled_62.pdb
  20 active torsions:
  status: ('A' for Active; 'I' for Inactive)
    1  A    between atoms: _2  and  _10
    2  A    between atoms: _5  and  _19
    3  A    between atoms: _6  and  _10
    4  A    between atoms: _7  and  _8
    5  A    between atoms: _7  and  _19
    6  A    between atoms: _10  and  _11
    7  A    between atoms: _11  and  _14
    8  A    between atoms: _12  and  _14
    9  A    between atoms: _15  and  _35
   10  A    between atoms: _17  and  _23
   11  A    between atoms: _18  and  _22
   12  A    between atoms: _22  and  _23
   13  A    between atoms: _25  and  _26
   14  A    between atoms: _27  and  _28
   15  A    between atoms: _29  and  _31
   16  A    between atoms: _31  and  _32
   17  A    between atoms: _31  and  _33
   18  A    between atoms: _33  and  _34
   19  A    between atoms: _33  and  _35
   20  A    between atoms: _36  and  _38
                            x       y       z     vdW  Elec       q    Type
                         _______ _______ _______ _____ _____    ______ ____

>  <TORSDO>
F 17

$$$$
lig_assembled_63.pdb
 OpenBabel07252309473D

 44 46  0  0  1  0  0  0  0  0999 V2000
   -2.9730   11.2250   23.6730 C   0  0  2  0  0  0  0  0  0  0  0  0
   -2.2830   11.5610   24.8880 O   0  0  0  0  0  0  0  0  0  0  0  0
   -2.8720   11.4360   25.6360 H   0  0  0  0  0  0  0  0  0  0  0  0
   -3.6980   12.4510   23.1290 C   0  0  0  0  0  0  0  0  0  0  0  0
   -5.5460   13.4920   24.3960 C   0  0  0  0  0  0  0  0  0  0  0  0
   -6.4310   13.0100   23.6850 O   0  0  0  0  0  0  0  0  0  0  0  0
   -4.2420   13.2890   24.2050 N   0  0  0  0  0  0  0  0  0  0  0  0
   -3.5920   13.7360   24.8360 H   0  0  0  0  0  0  0  0  0  0  0  0
   -5.9170   14.3270   25.4960 O   0  0  0  0  0  0  0  0  0  0  0  0
   -6.5020   13.5270   26.5270 C   0  0  0  0  0  0  0  0  0  0  0  0
   -4.4220   12.3270   27.1080 N   0  0  0  0  0  0  0  0  0  0  0  0
   -5.4750   13.1040   27.4960 C   0  0  0  0  0  0  0  0  0  0  0  0
   -5.3720   13.3530   28.8440 C   0  0  0  0  0  0  0  0  0  0  0  0
   -4.2440   12.6680   29.2490 N   0  0  0  0  0  0  0  0  0  0  0  0
   -3.6770   12.0740   28.1760 N   0  0  0  0  0  0  0  0  0  0  0  0
   -3.7660   12.5370   30.5870 C   0  0  0  0  0  0  0  0  0  0  0  0
   -4.0410   11.4140   31.3730 C   0  0  0  0  0  0  0  0  0  0  0  0
   -3.6050   11.4330   32.7090 C   0  0  0  0  0  0  0  0  0  0  0  0
   -2.9010   12.5250   33.2090 C   0  0  0  0  0  0  0  0  0  0  0  0
   -2.6400   13.5750   32.3520 C   0  0  0  0  0  0  0  0  0  0  0  0
   -3.0560   13.6060   31.0680 N   0  0  0  0  0  0  0  0  0  0  0  0
   -4.7160   10.2310   30.9280 C   0  0  0  0  0  0  0  0  0  0  0  0
   -5.3500    9.3100   30.6160 N   0  0  0  0  0  0  0  0  0  0  0  0
   -3.9880   10.0930   23.9120 C   0  0  2  0  0  0  0  0  0  0  0  0
   -3.9030    9.5330   25.3400 C   0  0  2  0  0  0  0  0  0  0  0  0
   -2.8660    8.5130   25.3590 O   0  0  0  0  0  0  0  0  0  0  0  0
   -2.5690    7.9370   26.6740 C   0  0  2  0  0  0  0  0  0  0  0  0
   -3.8600    7.3830   27.3260 C   0  0  0  0  0  0  0  0  0  0  0  0
   -5.0010    8.4210   27.3000 C   0  0  1  0  0  0  0  0  0  0  0  0
   -5.2230    8.9570   25.8860 C   0  0  1  0  0  0  0  0  0  0  0  0
   -6.2530   10.0080   25.8880 N   0  0  0  0  0  0  0  0  0  0  0  0
   -6.0550   10.8620   26.3910 H   0  0  0  0  0  0  0  0  0  0  0  0
   -7.4330    9.9080   25.2700 C   0  0  0  0  0  0  0  0  0  0  0  0
   -7.7150    8.5840   24.5340 C   0  0  0  0  0  0  0  0  0  0  0  0
   -8.2710   10.8100   25.2770 O   0  0  0  0  0  0  0  0  0  0  0  0
   -1.9330    8.9910   27.6030 C   0  0  0  0  0  0  0  0  0  0  0  0
   -2.2020    9.0030   28.8040 O   0  0  0  0  0  0  0  0  0  0  0  0
   -1.1520    9.8300   27.1530 O   0  0  0  0  0  0  0  0  0  0  0  0
   -1.6450    6.8350   26.4820 O   0  0  0  0  0  0  0  0  0  0  0  0
   -1.8800    5.6830   27.3310 C   0  0  0  0  0  0  0  0  0  0  0  0
   -6.2090    7.8210   27.7710 O   0  0  0  0  0  0  0  0  0  0  0  0
   -6.7980    7.6620   27.0300 H   0  0  0  0  0  0  0  0  0  0  0  0
   -3.7880    9.0370   22.9520 O   0  0  0  0  0  0  0  0  0  0  0  0
   -3.5880    9.4180   22.0930 H   0  0  0  0  0  0  0  0  0  0  0  0
  1  4  1  1  0  0  0
  1 24  1  0  0  0  0
  1  2  1  0  0  0  0
  2  3  1  0  0  0  0
  4  7  1  0  0  0  0
  5  9  1  0  0  0  0
  6  5  2  0  0  0  0
  7  5  1  0  0  0  0
  7  8  1  0  0  0  0
  9 10  1  0  0  0  0
 10 12  1  0  0  0  0
 11 12  1  0  0  0  0
 11 15  2  0  0  0  0
 12 13  2  0  0  0  0
 13 14  1  0  0  0  0
 14 16  1  0  0  0  0
 15 14  1  0  0  0  0
 16 21  2  0  0  0  0
 16 17  1  0  0  0  0
 17 18  2  0  0  0  0
 18 19  1  0  0  0  0
 20 19  2  0  0  0  0
 21 20  1  0  0  0  0
 22 17  1  0  0  0  0
 23 22  3  0  0  0  0
 24 43  1  6  0  0  0
 25 24  1  6  0  0  0
 25 26  1  0  0  0  0
 25 30  1  0  0  0  0
 26 27  1  0  0  0  0
 27 39  1  6  0  0  0
 27 28  1  0  0  0  0
 27 36  1  0  0  0  0
 29 28  1  0  0  0  0
 29 41  1  6  0  0  0
 30 31  1  1  0  0  0
 30 29  1  0  0  0  0
 31 32  1  0  0  0  0
 33 35  2  0  0  0  0
 33 31  1  0  0  0  0
 34 33  1  0  0  0  0
 36 37  1  0  0  0  0
 38 36  2  0  0  0  0
 39 40  1  0  0  0  0
 42 41  1  0  0  0  0
 44 43  1  0  0  0  0
M  END
>  <REMARK>
 VINA RESULT:    -5.095      0.000      0.000
 INTER + INTRA:         -11.963
 INTER:                  -8.020
 INTRA:                  -3.944
 UNBOUND:                -2.848
  Name = lig_assembled_63.pdb
  17 active torsions:
  status: ('A' for Active; 'I' for Inactive)
    1  A    between atoms: _2  and  _11
    2  A    between atoms: _6  and  _20
    3  A    between atoms: _7  and  _15
    4  A    between atoms: _8  and  _9
    5  A    between atoms: _8  and  _20
    6  A    between atoms: _16  and  _36
    7  A    between atoms: _18  and  _24
    8  A    between atoms: _19  and  _23
    9  A    between atoms: _23  and  _24
   10  A    between atoms: _26  and  _27
   11  A    between atoms: _28  and  _29
   12  A    between atoms: _30  and  _32
   13  A    between atoms: _32  and  _33
   14  A    between atoms: _32  and  _34
   15  A    between atoms: _34  and  _35
   16  A    between atoms: _34  and  _36
   17  A    between atoms: _37  and  _39
                            x       y       z     vdW  Elec       q    Type
                         _______ _______ _______ _____ _____    ______ ____

>  <TORSDO>
F 15

$$$$
lig_assembled_64.pdb
 OpenBabel07252309473D

 52 55  0  0  1  0  0  0  0  0999 V2000
   -3.7950    7.5210   16.4980 C   0  0  0  0  0  0  0  0  0  0  0  0
   -3.2300    6.4510   16.7350 O   0  0  0  0  0  0  0  0  0  0  0  0
   -3.6720    8.1910   15.3510 N   0  0  0  0  0  0  0  0  0  0  0  0
   -4.1840    9.0560   15.2470 H   0  0  0  0  0  0  0  0  0  0  0  0
   -2.8360    7.7420   14.2310 C   0  0  0  0  0  0  0  0  0  0  0  0
   -2.3670    8.9090   13.3680 C   0  0  1  0  0  0  0  0  0  0  0  0
   -2.5480    8.5960   11.9780 O   0  0  0  0  0  0  0  0  0  0  0  0
   -1.9750    7.8640   11.7360 H   0  0  0  0  0  0  0  0  0  0  0  0
   -3.1460   10.1780   13.7530 C   0  0  2  0  0  0  0  0  0  0  0  0
   -3.2740   11.1570   12.5760 C   0  0  2  0  0  0  0  0  0  0  0  0
   -1.9330   11.4640   12.1030 O   0  0  0  0  0  0  0  0  0  0  0  0
   -1.8610   12.3080   10.9060 C   0  0  2  0  0  0  0  0  0  0  0  0
   -2.6530   13.6210   11.1220 C   0  0  0  0  0  0  0  0  0  0  0  0
   -4.0750   13.3470   11.6560 C   0  0  1  0  0  0  0  0  0  0  0  0
   -4.0330   12.4570   12.8990 C   0  0  1  0  0  0  0  0  0  0  0  0
   -5.3960   12.1320   13.3460 N   0  0  0  0  0  0  0  0  0  0  0  0
   -6.0340   11.7390   12.6680 H   0  0  0  0  0  0  0  0  0  0  0  0
   -5.8460   12.3220   14.5900 C   0  0  0  0  0  0  0  0  0  0  0  0
   -4.8570   12.9470   15.5920 C   0  0  0  0  0  0  0  0  0  0  0  0
   -6.9890   12.0270   14.9400 O   0  0  0  0  0  0  0  0  0  0  0  0
   -2.4220   11.5630    9.6770 C   0  0  0  0  0  0  0  0  0  0  0  0
   -2.7940   12.1920    8.6870 O   0  0  0  0  0  0  0  0  0  0  0  0
   -2.5020   10.3340    9.6750 O   0  0  0  0  0  0  0  0  0  0  0  0
   -0.4690   12.6460   10.6790 O   0  0  0  0  0  0  0  0  0  0  0  0
   -0.0210   13.8640   11.3260 C   0  0  0  0  0  0  0  0  0  0  0  0
   -4.7140   14.5820   11.9820 O   0  0  0  0  0  0  0  0  0  0  0  0
   -4.3620   15.2810   11.4260 H   0  0  0  0  0  0  0  0  0  0  0  0
   -2.5150   10.8280   14.8740 O   0  0  0  0  0  0  0  0  0  0  0  0
   -1.6290   11.1040   14.6270 H   0  0  0  0  0  0  0  0  0  0  0  0
   -4.6420    8.0960   17.4960 O   0  0  0  0  0  0  0  0  0  0  0  0
   -5.2340    9.2950   16.9890 C   0  0  0  0  0  0  0  0  0  0  0  0
   -6.4780   11.1080   18.1380 N   0  0  0  0  0  0  0  0  0  0  0  0
   -5.3860   10.2920   18.0650 C   0  0  0  0  0  0  0  0  0  0  0  0
   -4.5440   10.5770   19.1150 C   0  0  0  0  0  0  0  0  0  0  0  0
   -5.1660   11.5910   19.8050 N   0  0  0  0  0  0  0  0  0  0  0  0
   -6.3380   11.8930   19.1990 N   0  0  0  0  0  0  0  0  0  0  0  0
   -4.7240   12.2620   20.9710 C   0  0  0  0  0  0  0  0  0  0  0  0
   -3.9780   11.5850   21.9300 C   0  0  0  0  0  0  0  0  0  0  0  0
   -3.5780   12.2960   23.0440 C   0  0  0  0  0  0  0  0  0  0  0  0
   -3.8650   13.6090   23.2760 N   0  0  0  0  0  0  0  0  0  0  0  0
   -4.6080   14.2600   22.3390 C   0  0  0  0  0  0  0  0  0  0  0  0
   -5.0380   13.6150   21.1750 C   0  0  0  0  0  0  0  0  0  0  0  0
   -4.9420   15.6700   22.6540 C   0  0  0  0  0  0  0  0  0  0  0  0
   -4.2380   16.7490   22.0880 C   0  0  0  0  0  0  0  0  0  0  0  0
   -4.5880   18.0780   22.3630 C   0  0  0  0  0  0  0  0  0  0  0  0
   -5.6530   18.3590   23.2120 C   0  0  0  0  0  0  0  0  0  0  0  0
   -6.3620   17.3130   23.7930 C   0  0  0  0  0  0  0  0  0  0  0  0
   -6.0100   15.9870   23.5170 C   0  0  0  0  0  0  0  0  0  0  0  0
   -2.7760   11.6110   24.0990 C   0  0  0  0  0  0  0  0  0  0  0  0
   -2.7920   10.4110   24.3070 O   0  0  0  0  0  0  0  0  0  0  0  0
   -2.0330   12.5040   24.7910 O   0  0  0  0  0  0  0  0  0  0  0  0
   -2.5770   12.8740   25.5250 H   0  0  0  0  0  0  0  0  0  0  0  0
  1  2  2  0  0  0  0
  1 30  1  0  0  0  0
  3  1  1  0  0  0  0
  4  3  1  0  0  0  0
  5  3  1  0  0  0  0
  6  9  1  0  0  0  0
  6  5  1  1  0  0  0
  7  6  1  0  0  0  0
  8  7  1  0  0  0  0
  9 28  1  1  0  0  0
 10 15  1  0  0  0  0
 10  9  1  1  0  0  0
 11 10  1  0  0  0  0
 12 21  1  6  0  0  0
 12 13  1  0  0  0  0
 12 11  1  0  0  0  0
 13 14  1  0  0  0  0
 14 26  1  1  0  0  0
 14 15  1  0  0  0  0
 15 16  1  6  0  0  0
 16 18  1  0  0  0  0
 17 16  1  0  0  0  0
 18 20  2  0  0  0  0
 18 19  1  0  0  0  0
 22 21  2  0  0  0  0
 23 21  1  0  0  0  0
 24 12  1  0  0  0  0
 24 25  1  0  0  0  0
 27 26  1  0  0  0  0
 29 28  1  0  0  0  0
 31 30  1  0  0  0  0
 31 33  1  0  0  0  0
 32 36  2  0  0  0  0
 33 32  1  0  0  0  0
 33 34  2  0  0  0  0
 34 35  1  0  0  0  0
 35 37  1  0  0  0  0
 36 35  1  0  0  0  0
 37 42  2  0  0  0  0
 37 38  1  0  0  0  0
 38 39  2  0  0  0  0
 39 40  1  0  0  0  0
 39 49  1  0  0  0  0
 41 43  1  0  0  0  0
 41 40  2  0  0  0  0
 42 41  1  0  0  0  0
 43 48  2  0  0  0  0
 44 45  2  0  0  0  0
 44 43  1  0  0  0  0
 45 46  1  0  0  0  0
 46 47  2  0  0  0  0
 48 47  1  0  0  0  0
 49 50  2  0  0  0  0
 49 51  1  0  0  0  0
 51 52  1  0  0  0  0
M  END
>  <REMARK>
 VINA RESULT:    -5.950      0.000      0.000
 INTER + INTRA:         -14.324
 INTER:                 -11.471
 INTRA:                  -2.854
 UNBOUND:                -3.157
  Name = lig_assembled_64.pdb
  19 active torsions:
  status: ('A' for Active; 'I' for Inactive)
    1  A    between atoms: _2  and  _10
    2  A    between atoms: _5  and  _27
    3  A    between atoms: _7  and  _8
    4  A    between atoms: _7  and  _27
    5  A    between atoms: _12  and  _13
    6  A    between atoms: _13  and  _21
    7  A    between atoms: _14  and  _15
    8  A    between atoms: _23  and  _43
    9  A    between atoms: _25  and  _31
   10  A    between atoms: _26  and  _30
   11  A    between atoms: _30  and  _31
   12  A    between atoms: _33  and  _34
   13  A    between atoms: _35  and  _36
   14  A    between atoms: _37  and  _39
   15  A    between atoms: _39  and  _40
   16  A    between atoms: _39  and  _41
   17  A    between atoms: _41  and  _42
   18  A    between atoms: _41  and  _43
   19  A    between atoms: _44  and  _46
                            x       y       z     vdW  Elec       q    Type
                         _______ _______ _______ _____ _____    ______ ____

>  <TORSDO>
F 17

$$$$
lig_assembled_6.pdb
 OpenBabel07252309473D

 45 47  0  0  1  0  0  0  0  0999 V2000
   -3.1600   11.7890   25.0990 C   0  0  2  0  0  0  0  0  0  0  0  0
   -2.0200   10.9150   25.0620 O   0  0  0  0  0  0  0  0  0  0  0  0
   -2.3100   10.0060   25.1670 H   0  0  0  0  0  0  0  0  0  0  0  0
   -2.8450   13.0900   24.3690 C   0  0  0  0  0  0  0  0  0  0  0  0
   -4.8470   13.9170   23.1800 C   0  0  0  0  0  0  0  0  0  0  0  0
   -5.3480   14.4280   24.1840 O   0  0  0  0  0  0  0  0  0  0  0  0
   -3.6830   13.2660   23.1760 N   0  0  0  0  0  0  0  0  0  0  0  0
   -3.3590   12.8720   22.3040 H   0  0  0  0  0  0  0  0  0  0  0  0
   -5.5410   14.0100   21.9330 O   0  0  0  0  0  0  0  0  0  0  0  0
   -6.2370   12.7870   21.6800 C   0  0  0  0  0  0  0  0  0  0  0  0
   -7.1980   12.6450   19.4030 N   0  0  0  0  0  0  0  0  0  0  0  0
   -6.1500   12.4330   20.2510 C   0  0  0  0  0  0  0  0  0  0  0  0
   -5.1040   11.8860   19.5440 C   0  0  0  0  0  0  0  0  0  0  0  0
   -5.5540   11.8100   18.2460 N   0  0  0  0  0  0  0  0  0  0  0  0
   -6.8320   12.2570   18.1890 N   0  0  0  0  0  0  0  0  0  0  0  0
   -4.8510   11.3880   17.0850 C   0  0  0  0  0  0  0  0  0  0  0  0
   -4.1690   12.3170   16.2850 C   0  0  0  0  0  0  0  0  0  0  0  0
   -3.5330   11.8990   15.1110 C   0  0  0  0  0  0  0  0  0  0  0  0
   -3.5770   10.5500   14.7370 C   0  0  0  0  0  0  0  0  0  0  0  0
   -4.2330    9.6110   15.5430 C   0  0  0  0  0  0  0  0  0  0  0  0
   -4.8670   10.0330   16.7160 C   0  0  0  0  0  0  0  0  0  0  0  0
   -2.9440   10.1250   13.4820 N   0  0  0  0  0  0  0  0  0  0  0  0
   -2.0090   10.8130   13.0470 O   0  0  0  0  0  0  0  0  0  0  0  0
   -3.3870    9.1100   12.9280 O   0  0  0  0  0  0  0  0  0  0  0  0
   -3.5690   12.0990   26.5490 C   0  0  2  0  0  0  0  0  0  0  0  0
   -3.3590   10.8950   27.4790 C   0  0  2  0  0  0  0  0  0  0  0  0
   -3.9970    9.7410   26.8670 O   0  0  0  0  0  0  0  0  0  0  0  0
   -3.8080    8.4670   27.5670 C   0  0  2  0  0  0  0  0  0  0  0  0
   -4.2550    8.5900   29.0440 C   0  0  0  0  0  0  0  0  0  0  0  0
   -3.6260    9.8220   29.7290 C   0  0  1  0  0  0  0  0  0  0  0  0
   -3.8800   11.0910   28.9150 C   0  0  1  0  0  0  0  0  0  0  0  0
   -3.2030   12.2430   29.5310 N   0  0  0  0  0  0  0  0  0  0  0  0
   -2.1930   12.2340   29.5640 H   0  0  0  0  0  0  0  0  0  0  0  0
   -3.8360   13.2990   30.0490 C   0  0  0  0  0  0  0  0  0  0  0  0
   -5.3750   13.2710   30.0050 C   0  0  0  0  0  0  0  0  0  0  0  0
   -3.2420   14.2570   30.5450 O   0  0  0  0  0  0  0  0  0  0  0  0
   -2.3310    8.0250   27.5100 C   0  0  0  0  0  0  0  0  0  0  0  0
   -1.6390    8.3020   26.5310 O   0  0  0  0  0  0  0  0  0  0  0  0
   -1.8330    7.3920   28.4410 O   0  0  0  0  0  0  0  0  0  0  0  0
   -4.1800    9.9820   31.0350 O   0  0  0  0  0  0  0  0  0  0  0  0
   -3.9110   10.8310   31.3950 H   0  0  0  0  0  0  0  0  0  0  0  0
   -4.6410    7.4710   26.9190 O   0  0  0  0  0  0  0  0  0  0  0  0
   -5.0490    7.8000   25.5670 C   0  0  0  0  0  0  0  0  0  0  0  0
   -4.9440   12.5300   26.5970 O   0  0  0  0  0  0  0  0  0  0  0  0
   -5.3770   12.3090   25.7690 H   0  0  0  0  0  0  0  0  0  0  0  0
  1  4  1  1  0  0  0
  1 25  1  0  0  0  0
  2  1  1  0  0  0  0
  2  3  1  0  0  0  0
  5  6  2  0  0  0  0
  7  5  1  0  0  0  0
  7  4  1  0  0  0  0
  8  7  1  0  0  0  0
  9  5  1  0  0  0  0
 10  9  1  0  0  0  0
 11 12  1  0  0  0  0
 12 10  1  0  0  0  0
 13 12  2  0  0  0  0
 14 13  1  0  0  0  0
 15 14  1  0  0  0  0
 15 11  2  0  0  0  0
 16 14  1  0  0  0  0
 17 16  2  0  0  0  0
 18 17  1  0  0  0  0
 19 18  2  0  0  0  0
 19 20  1  0  0  0  0
 20 21  2  0  0  0  0
 21 16  1  0  0  0  0
 22 19  1  0  0  0  0
 23 22  2  0  0  0  0
 24 22  2  0  0  0  0
 25 44  1  6  0  0  0
 26 25  1  6  0  0  0
 26 31  1  0  0  0  0
 27 26  1  0  0  0  0
 27 28  1  0  0  0  0
 28 42  1  6  0  0  0
 28 29  1  0  0  0  0
 29 30  1  0  0  0  0
 30 40  1  1  0  0  0
 31 32  1  1  0  0  0
 31 30  1  0  0  0  0
 32 33  1  0  0  0  0
 32 34  1  0  0  0  0
 34 36  2  0  0  0  0
 35 34  1  0  0  0  0
 37 28  1  0  0  0  0
 37 39  1  0  0  0  0
 38 37  2  0  0  0  0
 40 41  1  0  0  0  0
 43 42  1  0  0  0  0
 45 44  1  0  0  0  0
M  END
>  <REMARK>
 VINA RESULT:    -5.912      0.000      0.000
 INTER + INTRA:         -12.582
 INTER:                 -10.269
 INTRA:                  -2.313
 UNBOUND:                -2.004
  Name = lig_assembled_6.pdb
  17 active torsions:
  status: ('A' for Active; 'I' for Inactive)
    1  A    between atoms: _2  and  _10
    2  A    between atoms: _3  and  _13
    3  A    between atoms: _5  and  _21
    4  A    between atoms: _7  and  _8
    5  A    between atoms: _7  and  _21
    6  A    between atoms: _17  and  _37
    7  A    between atoms: _19  and  _25
    8  A    between atoms: _20  and  _24
    9  A    between atoms: _24  and  _25
   10  A    between atoms: _27  and  _28
   11  A    between atoms: _29  and  _30
   12  A    between atoms: _31  and  _33
   13  A    between atoms: _33  and  _34
   14  A    between atoms: _33  and  _35
   15  A    between atoms: _35  and  _36
   16  A    between atoms: _35  and  _37
   17  A    between atoms: _38  and  _40
                            x       y       z     vdW  Elec       q    Type
                         _______ _______ _______ _____ _____    ______ ____

>  <TORSDO>
F 15

$$$$
lig_assembled_70.pdb
 OpenBabel07252309473D

 46 49  0  0  1  0  0  0  0  0999 V2000
   -3.1630   11.7400   25.1410 C   0  0  2  0  0  0  0  0  0  0  0  0
   -2.1330   10.7390   25.1060 O   0  0  0  0  0  0  0  0  0  0  0  0
   -2.0700   10.3750   24.2200 H   0  0  0  0  0  0  0  0  0  0  0  0
   -2.6830   13.0080   24.4430 C   0  0  0  0  0  0  0  0  0  0  0  0
   -4.5130   13.5720   22.8820 C   0  0  0  0  0  0  0  0  0  0  0  0
   -5.3080   13.8750   23.7740 O   0  0  0  0  0  0  0  0  0  0  0  0
   -3.2680   13.1510   23.1040 N   0  0  0  0  0  0  0  0  0  0  0  0
   -2.6940   12.9170   22.3060 H   0  0  0  0  0  0  0  0  0  0  0  0
   -4.9320   13.6660   21.5180 O   0  0  0  0  0  0  0  0  0  0  0  0
   -5.8740   12.6280   21.2340 C   0  0  0  0  0  0  0  0  0  0  0  0
   -6.6940   12.4400   18.9020 N   0  0  0  0  0  0  0  0  0  0  0  0
   -5.7360   12.1740   19.8380 C   0  0  0  0  0  0  0  0  0  0  0  0
   -4.7190   11.4620   19.2460 C   0  0  0  0  0  0  0  0  0  0  0  0
   -5.0960   11.3270   17.9310 N   0  0  0  0  0  0  0  0  0  0  0  0
   -6.3010   11.9160   17.7470 N   0  0  0  0  0  0  0  0  0  0  0  0
   -4.3900   10.7120   16.8760 C   0  0  0  0  0  0  0  0  0  0  0  0
   -3.6780   11.4770   15.9670 C   0  0  0  0  0  0  0  0  0  0  0  0
   -2.9400   10.9490   14.9570 N   0  0  0  0  0  0  0  0  0  0  0  0
   -2.8890    9.6090   14.8350 C   0  0  0  0  0  0  0  0  0  0  0  0
   -3.5950    8.7520   15.7050 C   0  0  0  0  0  0  0  0  0  0  0  0
   -3.5180    7.3560   15.5480 C   0  0  0  0  0  0  0  0  0  0  0  0
   -2.7270    6.8040   14.5440 C   0  0  0  0  0  0  0  0  0  0  0  0
   -2.0220    7.6440   13.6900 C   0  0  0  0  0  0  0  0  0  0  0  0
   -2.1150    9.0320   13.8380 C   0  0  0  0  0  0  0  0  0  0  0  0
   -4.3590    9.3240   16.7290 C   0  0  0  0  0  0  0  0  0  0  0  0
   -3.5600   12.0700   26.5900 C   0  0  2  0  0  0  0  0  0  0  0  0
   -3.3560   10.8750   27.5320 C   0  0  2  0  0  0  0  0  0  0  0  0
   -3.9990    9.7170   26.9320 O   0  0  0  0  0  0  0  0  0  0  0  0
   -3.8160    8.4500   27.6450 C   0  0  2  0  0  0  0  0  0  0  0  0
   -4.2620    8.5900   29.1210 C   0  0  0  0  0  0  0  0  0  0  0  0
   -3.6280    9.8260   29.7930 C   0  0  1  0  0  0  0  0  0  0  0  0
   -3.8770   11.0880   28.9660 C   0  0  1  0  0  0  0  0  0  0  0  0
   -3.1940   12.2420   29.5700 N   0  0  0  0  0  0  0  0  0  0  0  0
   -2.1840   12.2410   29.5810 H   0  0  0  0  0  0  0  0  0  0  0  0
   -3.8220   13.2930   30.1050 C   0  0  0  0  0  0  0  0  0  0  0  0
   -5.3620   13.2530   30.0970 C   0  0  0  0  0  0  0  0  0  0  0  0
   -3.2240   14.2530   30.5920 O   0  0  0  0  0  0  0  0  0  0  0  0
   -2.3410    8.0010   27.5920 C   0  0  0  0  0  0  0  0  0  0  0  0
   -1.6410    8.2830   26.6200 O   0  0  0  0  0  0  0  0  0  0  0  0
   -1.8510    7.3570   28.5210 O   0  0  0  0  0  0  0  0  0  0  0  0
   -4.1810   10.0020   31.0980 O   0  0  0  0  0  0  0  0  0  0  0  0
   -4.0620   10.9130   31.3760 H   0  0  0  0  0  0  0  0  0  0  0  0
   -4.6540    7.4510   27.0070 O   0  0  0  0  0  0  0  0  0  0  0  0
   -4.8490    7.6350   25.5820 C   0  0  0  0  0  0  0  0  0  0  0  0
   -4.9310   12.5140   26.6410 O   0  0  0  0  0  0  0  0  0  0  0  0
   -5.1180   13.0640   25.8770 H   0  0  0  0  0  0  0  0  0  0  0  0
  1  4  1  1  0  0  0
  1 26  1  0  0  0  0
  2  1  1  0  0  0  0
  3  2  1  0  0  0  0
  5  7  1  0  0  0  0
  5  6  2  0  0  0  0
  7  4  1  0  0  0  0
  8  7  1  0  0  0  0
  9  5  1  0  0  0  0
 10  9  1  0  0  0  0
 11 12  1  0  0  0  0
 12 10  1  0  0  0  0
 13 12  2  0  0  0  0
 14 13  1  0  0  0  0
 15 14  1  0  0  0  0
 15 11  2  0  0  0  0
 16 14  1  0  0  0  0
 17 16  2  0  0  0  0
 18 17  1  0  0  0  0
 19 18  2  0  0  0  0
 19 20  1  0  0  0  0
 20 25  2  0  0  0  0
 21 20  1  0  0  0  0
 22 21  2  0  0  0  0
 23 24  2  0  0  0  0
 23 22  1  0  0  0  0
 24 19  1  0  0  0  0
 25 16  1  0  0  0  0
 26 45  1  6  0  0  0
 27 26  1  6  0  0  0
 27 32  1  0  0  0  0
 28 27  1  0  0  0  0
 28 29  1  0  0  0  0
 29 43  1  6  0  0  0
 29 30  1  0  0  0  0
 30 31  1  0  0  0  0
 31 41  1  1  0  0  0
 32 33  1  1  0  0  0
 32 31  1  0  0  0  0
 33 34  1  0  0  0  0
 33 35  1  0  0  0  0
 35 37  2  0  0  0  0
 36 35  1  0  0  0  0
 38 29  1  0  0  0  0
 38 40  1  0  0  0  0
 39 38  2  0  0  0  0
 41 42  1  0  0  0  0
 44 43  1  0  0  0  0
 46 45  1  0  0  0  0
M  END
>  <REMARK>
 VINA RESULT:    -5.495      0.000      0.000
 INTER + INTRA:         -12.377
 INTER:                 -10.281
 INTRA:                  -2.096
 UNBOUND:                -2.867
  Name = lig_assembled_70.pdb
  16 active torsions:
  status: ('A' for Active; 'I' for Inactive)
    1  A    between atoms: _2  and  _10
    2  A    between atoms: _5  and  _22
    3  A    between atoms: _7  and  _8
    4  A    between atoms: _7  and  _22
    5  A    between atoms: _18  and  _38
    6  A    between atoms: _20  and  _26
    7  A    between atoms: _21  and  _25
    8  A    between atoms: _25  and  _26
    9  A    between atoms: _28  and  _29
   10  A    between atoms: _30  and  _31
   11  A    between atoms: _32  and  _34
   12  A    between atoms: _34  and  _35
   13  A    between atoms: _34  and  _36
   14  A    between atoms: _36  and  _37
   15  A    between atoms: _36  and  _38
   16  A    between atoms: _39  and  _41
                            x       y       z     vdW  Elec       q    Type
                         _______ _______ _______ _____ _____    ______ ____

>  <TORSDO>
F 14

$$$$
lig_assembled_71.pdb
 OpenBabel07252309473D

 47 49  0  0  1  0  0  0  0  0999 V2000
   -6.5090    8.2870   23.2720 C   0  0  2  0  0  0  0  0  0  0  0  0
   -6.3780    8.4630   24.6920 O   0  0  0  0  0  0  0  0  0  0  0  0
   -5.9750    9.3160   24.8730 H   0  0  0  0  0  0  0  0  0  0  0  0
   -5.5000    7.2560   22.7780 C   0  0  0  0  0  0  0  0  0  0  0  0
   -3.3240    6.3780   23.5540 C   0  0  0  0  0  0  0  0  0  0  0  0
   -2.9220    6.1080   22.4200 O   0  0  0  0  0  0  0  0  0  0  0  0
   -4.5190    6.9100   23.8140 N   0  0  0  0  0  0  0  0  0  0  0  0
   -4.7630    7.0870   24.7790 H   0  0  0  0  0  0  0  0  0  0  0  0
   -2.4770    6.1070   24.6740 O   0  0  0  0  0  0  0  0  0  0  0  0
   -3.2780    5.7410   25.8010 C   0  0  0  0  0  0  0  0  0  0  0  0
   -1.6440    7.1430   27.0380 N   0  0  0  0  0  0  0  0  0  0  0  0
   -2.8450    6.4820   27.0000 C   0  0  0  0  0  0  0  0  0  0  0  0
   -3.4870    6.6550   28.2040 C   0  0  0  0  0  0  0  0  0  0  0  0
   -2.6230    7.4140   28.9380 N   0  0  0  0  0  0  0  0  0  0  0  0
   -1.5220    7.7170   28.2270 N   0  0  0  0  0  0  0  0  0  0  0  0
   -2.8140    7.9810   30.2580 C   0  0  0  0  0  0  0  0  0  0  0  0
   -3.0880    9.4610   30.1950 C   0  0  0  0  0  0  0  0  0  0  0  0
   -3.6620    9.9400   29.2190 O   0  0  0  0  0  0  0  0  0  0  0  0
   -2.5810   10.1830   31.2550 N   0  0  0  0  0  0  0  0  0  0  0  0
   -1.9460    9.7790   31.9260 H   0  0  0  0  0  0  0  0  0  0  0  0
   -2.7420   11.5560   31.4050 C   0  0  0  0  0  0  0  0  0  0  0  0
   -1.9490   12.1300   32.3220 N   0  0  0  0  0  0  0  0  0  0  0  0
   -2.0380   13.4730   32.4280 C   0  0  0  0  0  0  0  0  0  0  0  0
   -2.8980   14.2440   31.6830 C   0  0  0  0  0  0  0  0  0  0  0  0
   -3.6950   13.5520   30.8110 C   0  0  0  0  0  0  0  0  0  0  0  0
   -3.6310   12.2200   30.6600 N   0  0  0  0  0  0  0  0  0  0  0  0
   -6.2900    9.6170   22.5300 C   0  0  2  0  0  0  0  0  0  0  0  0
   -4.9920   10.3140   22.9650 C   0  0  2  0  0  0  0  0  0  0  0  0
   -5.2410   10.9660   24.2400 O   0  0  0  0  0  0  0  0  0  0  0  0
   -4.0760   11.5990   24.8660 C   0  0  2  0  0  0  0  0  0  0  0  0
   -3.4130   12.5990   23.8870 C   0  0  0  0  0  0  0  0  0  0  0  0
   -3.1580   11.9600   22.5060 C   0  0  1  0  0  0  0  0  0  0  0  0
   -4.4350   11.3290   21.9500 C   0  0  1  0  0  0  0  0  0  0  0  0
   -4.1600   10.6480   20.6740 N   0  0  0  0  0  0  0  0  0  0  0  0
   -3.4530    9.9260   20.6680 H   0  0  0  0  0  0  0  0  0  0  0  0
   -4.7830   10.9220   19.5250 C   0  0  0  0  0  0  0  0  0  0  0  0
   -5.8360   12.0460   19.5630 C   0  0  0  0  0  0  0  0  0  0  0  0
   -4.5420   10.3260   18.4750 O   0  0  0  0  0  0  0  0  0  0  0  0
   -3.0420   10.5380   25.2970 C   0  0  0  0  0  0  0  0  0  0  0  0
   -3.3830    9.3650   25.4470 O   0  0  0  0  0  0  0  0  0  0  0  0
   -1.8680   10.8540   25.4950 O   0  0  0  0  0  0  0  0  0  0  0  0
   -4.5350   12.3340   26.0290 O   0  0  0  0  0  0  0  0  0  0  0  0
   -5.7540   11.8280   26.6310 C   0  0  0  0  0  0  0  0  0  0  0  0
   -2.6890   12.9540   21.5940 O   0  0  0  0  0  0  0  0  0  0  0  0
   -3.3290   13.0690   20.8880 H   0  0  0  0  0  0  0  0  0  0  0  0
   -7.4170   10.4920   22.7360 O   0  0  0  0  0  0  0  0  0  0  0  0
   -7.9640   10.1480   23.4450 H   0  0  0  0  0  0  0  0  0  0  0  0
  1  4  1  6  0  0  0
  1  2  1  0  0  0  0
  2  3  1  0  0  0  0
  4  7  1  0  0  0  0
  5  7  1  0  0  0  0
  5  9  1  0  0  0  0
  6  5  2  0  0  0  0
  7  8  1  0  0  0  0
  9 10  1  0  0  0  0
 10 12  1  0  0  0  0
 11 15  2  0  0  0  0
 12 11  1  0  0  0  0
 12 13  2  0  0  0  0
 13 14  1  0  0  0  0
 14 16  1  0  0  0  0
 15 14  1  0  0  0  0
 17 16  1  0  0  0  0
 17 19  1  0  0  0  0
 18 17  2  0  0  0  0
 19 21  1  0  0  0  0
 19 20  1  0  0  0  0
 21 22  2  0  0  0  0
 22 23  1  0  0  0  0
 24 23  2  0  0  0  0
 25 24  1  0  0  0  0
 26 25  2  0  0  0  0
 26 21  1  0  0  0  0
 27 46  1  1  0  0  0
 27  1  1  0  0  0  0
 28 27  1  6  0  0  0
 28 29  1  0  0  0  0
 29 30  1  0  0  0  0
 30 39  1  1  0  0  0
 30 42  1  0  0  0  0
 31 30  1  0  0  0  0
 32 44  1  6  0  0  0
 32 31  1  0  0  0  0
 33 34  1  6  0  0  0
 33 32  1  0  0  0  0
 33 28  1  0  0  0  0
 35 34  1  0  0  0  0
 36 37  1  0  0  0  0
 36 34  1  0  0  0  0
 38 36  2  0  0  0  0
 39 40  2  0  0  0  0
 39 41  1  0  0  0  0
 42 43  1  0  0  0  0
 45 44  1  0  0  0  0
 46 47  1  0  0  0  0
M  END
>  <REMARK>
 VINA RESULT:    -5.393      0.000      0.000
 INTER + INTRA:         -12.518
 INTER:                  -9.568
 INTRA:                  -2.950
 UNBOUND:                -2.869
  Name = lig_assembled_71.pdb
  17 active torsions:
  status: ('A' for Active; 'I' for Inactive)
    1  A    between atoms: _2  and  _12
    2  A    between atoms: _7  and  _22
    3  A    between atoms: _9  and  _10
    4  A    between atoms: _9  and  _22
    5  A    between atoms: _12  and  _13
    6  A    between atoms: _18  and  _38
    7  A    between atoms: _20  and  _26
    8  A    between atoms: _21  and  _25
    9  A    between atoms: _25  and  _26
   10  A    between atoms: _28  and  _29
   11  A    between atoms: _30  and  _31
   12  A    between atoms: _32  and  _34
   13  A    between atoms: _34  and  _35
   14  A    between atoms: _34  and  _36
   15  A    between atoms: _36  and  _37
   16  A    between atoms: _36  and  _38
   17  A    between atoms: _39  and  _41
                            x       y       z     vdW  Elec       q    Type
                         _______ _______ _______ _____ _____    ______ ____

>  <TORSDO>
F 15

$$$$
lig_assembled_72.pdb
 OpenBabel07252309473D

 42 43  0  0  1  0  0  0  0  0999 V2000
   -4.4330   11.7860   25.5640 C   0  0  1  0  0  0  0  0  0  0  0  0
   -3.4670   10.7650   25.2680 O   0  0  0  0  0  0  0  0  0  0  0  0
   -3.8370   10.1470   24.6330 H   0  0  0  0  0  0  0  0  0  0  0  0
   -4.5310   12.0280   27.0810 C   0  0  2  0  0  0  0  0  0  0  0  0
   -3.7720   10.9630   27.8860 C   0  0  2  0  0  0  0  0  0  0  0  0
   -4.3420    9.6660   27.5600 O   0  0  0  0  0  0  0  0  0  0  0  0
   -3.6690    8.5090   28.1590 C   0  0  2  0  0  0  0  0  0  0  0  0
   -3.5820    8.6710   29.6970 C   0  0  0  0  0  0  0  0  0  0  0  0
   -3.0110   10.0490   30.0930 C   0  0  1  0  0  0  0  0  0  0  0  0
   -3.7830   11.1790   29.4110 C   0  0  1  0  0  0  0  0  0  0  0  0
   -3.1760   12.4820   29.7270 N   0  0  0  0  0  0  0  0  0  0  0  0
   -2.2250   12.6450   29.4250 H   0  0  0  0  0  0  0  0  0  0  0  0
   -3.7980   13.4620   30.3860 C   0  0  0  0  0  0  0  0  0  0  0  0
   -5.2370   13.1730   30.8550 C   0  0  0  0  0  0  0  0  0  0  0  0
   -3.2700   14.5490   30.6240 O   0  0  0  0  0  0  0  0  0  0  0  0
   -2.2500    8.3390   27.5770 C   0  0  0  0  0  0  0  0  0  0  0  0
   -1.2860    8.1910   28.3270 O   0  0  0  0  0  0  0  0  0  0  0  0
   -2.0700    8.3510   26.3590 O   0  0  0  0  0  0  0  0  0  0  0  0
   -3.0890   10.2140   31.5090 O   0  0  0  0  0  0  0  0  0  0  0  0
   -3.9990   10.3870   31.7620 H   0  0  0  0  0  0  0  0  0  0  0  0
   -4.4610    7.3290   27.8680 O   0  0  0  0  0  0  0  0  0  0  0  0
   -3.9530    6.0950   28.4360 C   0  0  0  0  0  0  0  0  0  0  0  0
   -5.9130   12.0680   27.4890 O   0  0  0  0  0  0  0  0  0  0  0  0
   -6.0940   11.3340   28.0810 H   0  0  0  0  0  0  0  0  0  0  0  0
   -4.0500   13.0860   24.8650 C   0  0  0  0  0  0  0  0  0  0  0  0
   -3.9210   13.1530   22.3980 C   0  0  0  0  0  0  0  0  0  0  0  0
   -5.0320   13.6700   22.2600 O   0  0  0  0  0  0  0  0  0  0  0  0
   -3.3850   12.8410   23.5790 N   0  0  0  0  0  0  0  0  0  0  0  0
   -2.4710   12.4110   23.5900 H   0  0  0  0  0  0  0  0  0  0  0  0
   -3.1420   12.8590   21.2360 O   0  0  0  0  0  0  0  0  0  0  0  0
   -3.8110   11.8670   20.4520 C   0  0  0  0  0  0  0  0  0  0  0  0
   -3.0090   10.1230   22.0120 N   0  0  0  0  0  0  0  0  0  0  0  0
   -4.0150   10.6400   21.2430 C   0  0  0  0  0  0  0  0  0  0  0  0
   -5.1310    9.8410   21.3680 C   0  0  0  0  0  0  0  0  0  0  0  0
   -4.7420    8.8510   22.2290 N   0  0  0  0  0  0  0  0  0  0  0  0
   -3.4620    9.0320   22.6080 N   0  0  0  0  0  0  0  0  0  0  0  0
   -5.5340    7.7180   22.7290 C   0  0  0  0  0  0  0  0  0  0  0  0
   -5.4480    6.5560   21.7210 C   0  0  0  0  0  0  0  0  0  0  0  0
   -7.0050    8.1470   22.8940 C   0  0  0  0  0  0  0  0  0  0  0  0
   -4.9980    7.2020   24.0930 C   0  0  0  0  0  0  0  0  0  0  0  0
   -4.8150    8.2490   25.0440 O   0  0  0  0  0  0  0  0  0  0  0  0
   -3.8770    8.1930   25.3290 H   0  0  0  0  0  0  0  0  0  0  0  0
  1 25  1  6  0  0  0
  1  4  1  0  0  0  0
  2  1  1  0  0  0  0
  3  2  1  0  0  0  0
  4 23  1  1  0  0  0
  5  4  1  6  0  0  0
  5 10  1  0  0  0  0
  6  5  1  0  0  0  0
  6  7  1  0  0  0  0
  7 16  1  6  0  0  0
  7  8  1  0  0  0  0
  8  9  1  0  0  0  0
  9 19  1  1  0  0  0
 10 11  1  6  0  0  0
 10  9  1  0  0  0  0
 11 13  1  0  0  0  0
 12 11  1  0  0  0  0
 13 15  2  0  0  0  0
 13 14  1  0  0  0  0
 16 17  1  0  0  0  0
 18 16  2  0  0  0  0
 19 20  1  0  0  0  0
 21  7  1  0  0  0  0
 21 22  1  0  0  0  0
 23 24  1  0  0  0  0
 26 28  1  0  0  0  0
 27 26  2  0  0  0  0
 28 29  1  0  0  0  0
 28 25  1  0  0  0  0
 30 26  1  0  0  0  0
 31 30  1  0  0  0  0
 31 33  1  0  0  0  0
 32 36  2  0  0  0  0
 33 34  2  0  0  0  0
 33 32  1  0  0  0  0
 34 35  1  0  0  0  0
 35 36  1  0  0  0  0
 35 37  1  0  0  0  0
 37 39  1  0  0  0  0
 37 40  1  0  0  0  0
 38 37  1  0  0  0  0
 40 41  1  0  0  0  0
 41 42  1  0  0  0  0
M  END
>  <REMARK>
 VINA RESULT:    -4.995      0.000      0.000
 INTER + INTRA:         -12.018
 INTER:                  -8.260
 INTRA:                  -3.759
 UNBOUND:                -2.934
  Name = lig_assembled_72.pdb
  20 active torsions:
  status: ('A' for Active; 'I' for Inactive)
    1  A    between atoms: _2  and  _9
    2  A    between atoms: _4  and  _17
    3  A    between atoms: _5  and  _9
    4  A    between atoms: _5  and  _12
    5  A    between atoms: _6  and  _7
    6  A    between atoms: _6  and  _17
    7  A    between atoms: _9  and  _10
    8  A    between atoms: _9  and  _11
    9  A    between atoms: _13  and  _33
   10  A    between atoms: _15  and  _21
   11  A    between atoms: _16  and  _20
   12  A    between atoms: _20  and  _21
   13  A    between atoms: _23  and  _24
   14  A    between atoms: _25  and  _26
   15  A    between atoms: _27  and  _29
   16  A    between atoms: _29  and  _30
   17  A    between atoms: _29  and  _31
   18  A    between atoms: _31  and  _32
   19  A    between atoms: _31  and  _33
   20  A    between atoms: _34  and  _36
                            x       y       z     vdW  Elec       q    Type
                         _______ _______ _______ _____ _____    ______ ____

>  <TORSDO>
F 16

$$$$
lig_assembled_73.pdb
 OpenBabel07252309473D

 47 49  0  0  1  0  0  0  0  0999 V2000
   -3.3300   11.5930   22.6750 C   0  0  1  0  0  0  0  0  0  0  0  0
   -2.5150   12.0660   23.7600 O   0  0  0  0  0  0  0  0  0  0  0  0
   -2.7310   11.5780   24.5580 H   0  0  0  0  0  0  0  0  0  0  0  0
   -4.0170   10.2660   23.0400 C   0  0  2  0  0  0  0  0  0  0  0  0
   -4.0190   10.0140   24.5550 C   0  0  2  0  0  0  0  0  0  0  0  0
   -2.9980    9.0190   24.8430 O   0  0  0  0  0  0  0  0  0  0  0  0
   -2.7820    8.7260   26.2630 C   0  0  2  0  0  0  0  0  0  0  0  0
   -4.1130    8.3220   26.9420 C   0  0  0  0  0  0  0  0  0  0  0  0
   -5.2380    9.3340   26.6370 C   0  0  1  0  0  0  0  0  0  0  0  0
   -5.3740    9.5660   25.1320 C   0  0  1  0  0  0  0  0  0  0  0  0
   -6.3890   10.5960   24.8590 N   0  0  0  0  0  0  0  0  0  0  0  0
   -6.2590   11.5070   25.2750 H   0  0  0  0  0  0  0  0  0  0  0  0
   -7.4700   10.4050   24.0980 C   0  0  0  0  0  0  0  0  0  0  0  0
   -7.6520    8.9970   23.4990 C   0  0  0  0  0  0  0  0  0  0  0  0
   -8.2960   11.2910   23.8740 O   0  0  0  0  0  0  0  0  0  0  0  0
   -2.1840    9.9500   26.9890 C   0  0  0  0  0  0  0  0  0  0  0  0
   -2.1510    9.9870   28.2180 O   0  0  0  0  0  0  0  0  0  0  0  0
   -1.7350   10.8990   26.3450 O   0  0  0  0  0  0  0  0  0  0  0  0
   -6.4770    8.8460   27.1520 O   0  0  0  0  0  0  0  0  0  0  0  0
   -6.3630    7.9450   27.4620 H   0  0  0  0  0  0  0  0  0  0  0  0
   -1.8630    7.6070   26.3560 O   0  0  0  0  0  0  0  0  0  0  0  0
   -2.2940    6.5320   27.2280 C   0  0  0  0  0  0  0  0  0  0  0  0
   -3.3770    9.1710   22.3540 O   0  0  0  0  0  0  0  0  0  0  0  0
   -3.6660    9.1530   21.4390 H   0  0  0  0  0  0  0  0  0  0  0  0
   -4.3880   12.6350   22.3250 C   0  0  0  0  0  0  0  0  0  0  0  0
   -5.9450   14.0570   23.6140 C   0  0  0  0  0  0  0  0  0  0  0  0
   -6.8330   14.0220   22.7580 O   0  0  0  0  0  0  0  0  0  0  0  0
   -4.7680   13.4420   23.4910 N   0  0  0  0  0  0  0  0  0  0  0  0
   -4.1000   13.5370   24.2430 H   0  0  0  0  0  0  0  0  0  0  0  0
   -6.1680   14.7980   24.8160 O   0  0  0  0  0  0  0  0  0  0  0  0
   -7.2880   14.2500   25.5150 C   0  0  0  0  0  0  0  0  0  0  0  0
   -7.5160   12.3540   27.0900 N   0  0  0  0  0  0  0  0  0  0  0  0
   -6.8330   13.4600   26.6750 C   0  0  0  0  0  0  0  0  0  0  0  0
   -5.7440   13.6480   27.4930 C   0  0  0  0  0  0  0  0  0  0  0  0
   -5.7980   12.6150   28.4000 N   0  0  0  0  0  0  0  0  0  0  0  0
   -6.8820   11.8470   28.1380 N   0  0  0  0  0  0  0  0  0  0  0  0
   -4.9150   12.3250   29.4730 C   0  0  0  0  0  0  0  0  0  0  0  0
   -4.8390   11.0150   29.9790 C   0  0  0  0  0  0  0  0  0  0  0  0
   -3.9810   10.7070   31.0440 C   0  0  0  0  0  0  0  0  0  0  0  0
   -3.1940   11.7040   31.6150 C   0  0  0  0  0  0  0  0  0  0  0  0
   -3.2730   13.0010   31.1080 C   0  0  0  0  0  0  0  0  0  0  0  0
   -4.1180   13.3280   30.0390 C   0  0  0  0  0  0  0  0  0  0  0  0
   -2.4740   14.0630   31.6870 N   0  0  0  0  0  0  0  0  0  0  0  0
   -3.0140   15.1660   31.8440 O   0  0  0  0  0  0  0  0  0  0  0  0
   -1.2790   13.8080   31.8970 O   0  0  0  0  0  0  0  0  0  0  0  0
   -2.3440   11.4000   32.6360 O   0  0  0  0  0  0  0  0  0  0  0  0
   -1.4230   11.4410   32.3270 H   0  0  0  0  0  0  0  0  0  0  0  0
  1 25  1  1  0  0  0
  1  4  1  0  0  0  0
  1  2  1  0  0  0  0
  2  3  1  0  0  0  0
  4 23  1  6  0  0  0
  5  4  1  6  0  0  0
  5  6  1  0  0  0  0
  5 10  1  0  0  0  0
  6  7  1  0  0  0  0
  7 21  1  1  0  0  0
  7  8  1  0  0  0  0
  7 16  1  0  0  0  0
  9  8  1  0  0  0  0
  9 19  1  6  0  0  0
 10 11  1  1  0  0  0
 10  9  1  0  0  0  0
 11 12  1  0  0  0  0
 13 11  1  0  0  0  0
 14 13  1  0  0  0  0
 15 13  2  0  0  0  0
 16 17  1  0  0  0  0
 18 16  2  0  0  0  0
 19 20  1  0  0  0  0
 21 22  1  0  0  0  0
 24 23  1  0  0  0  0
 25 28  1  0  0  0  0
 26 30  1  0  0  0  0
 27 26  2  0  0  0  0
 28 26  1  0  0  0  0
 28 29  1  0  0  0  0
 30 31  1  0  0  0  0
 31 33  1  0  0  0  0
 32 36  2  0  0  0  0
 33 32  1  0  0  0  0
 33 34  2  0  0  0  0
 34 35  1  0  0  0  0
 35 37  1  0  0  0  0
 36 35  1  0  0  0  0
 37 38  2  0  0  0  0
 37 42  1  0  0  0  0
 38 39  1  0  0  0  0
 39 40  2  0  0  0  0
 40 46  1  0  0  0  0
 41 40  1  0  0  0  0
 41 43  1  0  0  0  0
 42 41  2  0  0  0  0
 43 44  2  0  0  0  0
 43 45  2  0  0  0  0
 47 46  1  0  0  0  0
M  END
>  <REMARK>
 VINA RESULT:    -5.613      0.000      0.000
 INTER + INTRA:         -13.096
 INTER:                  -8.974
 INTRA:                  -4.122
 UNBOUND:                -2.890
  Name = lig_assembled_73.pdb
  18 active torsions:
  status: ('A' for Active; 'I' for Inactive)
    1  A    between atoms: _2  and  _10
    2  A    between atoms: _3  and  _14
    3  A    between atoms: _5  and  _22
    4  A    between atoms: _7  and  _8
    5  A    between atoms: _7  and  _22
    6  A    between atoms: _13  and  _16
    7  A    between atoms: _18  and  _38
    8  A    between atoms: _20  and  _26
    9  A    between atoms: _21  and  _25
   10  A    between atoms: _25  and  _26
   11  A    between atoms: _28  and  _29
   12  A    between atoms: _30  and  _31
   13  A    between atoms: _32  and  _34
   14  A    between atoms: _34  and  _35
   15  A    between atoms: _34  and  _36
   16  A    between atoms: _36  and  _37
   17  A    between atoms: _36  and  _38
   18  A    between atoms: _39  and  _41
                            x       y       z     vdW  Elec       q    Type
                         _______ _______ _______ _____ _____    ______ ____

>  <TORSDO>
F 16

$$$$
lig_assembled_74.pdb
 OpenBabel07252309473D

 47 48  0  0  1  0  0  0  0  0999 V2000
   -3.3750   12.1540   26.5300 C   0  0  1  0  0  0  0  0  0  0  0  0
   -4.0990   12.9330   25.5640 O   0  0  0  0  0  0  0  0  0  0  0  0
   -3.7330   13.8200   25.5280 H   0  0  0  0  0  0  0  0  0  0  0  0
   -4.2780   11.7700   27.7150 C   0  0  2  0  0  0  0  0  0  0  0  0
   -3.5620   10.8460   28.7110 C   0  0  2  0  0  0  0  0  0  0  0  0
   -4.1640    9.5260   28.6100 O   0  0  0  0  0  0  0  0  0  0  0  0
   -3.5340    8.4780   29.4190 C   0  0  2  0  0  0  0  0  0  0  0  0
   -3.4660    8.9090   30.9040 C   0  0  0  0  0  0  0  0  0  0  0  0
   -2.8610   10.3210   31.0600 C   0  0  1  0  0  0  0  0  0  0  0  0
   -3.5900   11.3310   30.1730 C   0  0  1  0  0  0  0  0  0  0  0  0
   -2.9500   12.6530   30.2650 N   0  0  0  0  0  0  0  0  0  0  0  0
   -2.0100   12.7480   29.9060 H   0  0  0  0  0  0  0  0  0  0  0  0
   -3.5300   13.7350   30.7910 C   0  0  0  0  0  0  0  0  0  0  0  0
   -4.9530   13.5510   31.3520 C   0  0  0  0  0  0  0  0  0  0  0  0
   -2.9760   14.8330   30.8410 O   0  0  0  0  0  0  0  0  0  0  0  0
   -2.1120    8.1710   28.9040 C   0  0  0  0  0  0  0  0  0  0  0  0
   -1.5330    7.1450   29.2590 O   0  0  0  0  0  0  0  0  0  0  0  0
   -1.5450    8.9490   28.1360 O   0  0  0  0  0  0  0  0  0  0  0  0
   -2.9560   10.7370   32.4230 O   0  0  0  0  0  0  0  0  0  0  0  0
   -2.1000   10.6450   32.8470 H   0  0  0  0  0  0  0  0  0  0  0  0
   -4.3550    7.2860   29.3260 O   0  0  0  0  0  0  0  0  0  0  0  0
   -5.2210    7.2270   28.1640 C   0  0  0  0  0  0  0  0  0  0  0  0
   -5.4860   11.1440   27.2370 O   0  0  0  0  0  0  0  0  0  0  0  0
   -5.8030   10.5190   27.8920 H   0  0  0  0  0  0  0  0  0  0  0  0
   -2.8280   10.8890   25.8760 C   0  0  0  0  0  0  0  0  0  0  0  0
   -3.9220    8.9110   24.8780 C   0  0  0  0  0  0  0  0  0  0  0  0
   -3.1680    8.1020   25.4240 O   0  0  0  0  0  0  0  0  0  0  0  0
   -3.8310   10.2330   25.0280 N   0  0  0  0  0  0  0  0  0  0  0  0
   -4.4890   10.8160   24.5310 H   0  0  0  0  0  0  0  0  0  0  0  0
   -4.9610    8.4260   24.0240 O   0  0  0  0  0  0  0  0  0  0  0  0
   -6.1900    9.0820   24.3450 C   0  0  0  0  0  0  0  0  0  0  0  0
   -6.1810   11.5430   24.0140 N   0  0  0  0  0  0  0  0  0  0  0  0
   -6.3740   10.2850   23.5090 C   0  0  0  0  0  0  0  0  0  0  0  0
   -6.6590   10.3800   22.1640 C   0  0  0  0  0  0  0  0  0  0  0  0
   -6.4420   11.6990   21.8830 N   0  0  0  0  0  0  0  0  0  0  0  0
   -6.2510   12.4070   23.0110 N   0  0  0  0  0  0  0  0  0  0  0  0
   -6.0870   12.2680   20.5970 C   0  0  0  0  0  0  0  0  0  0  0  0
   -4.8440   11.6550   19.9170 C   0  0  2  0  0  0  0  0  0  0  0  0
   -3.5120   12.1170   20.5420 C   0  0  0  0  0  0  0  0  0  0  0  0
   -3.1350   11.4100   21.8280 C   0  0  0  0  0  0  0  0  0  0  0  0
   -2.8710   10.2220   21.9210 O   0  0  0  0  0  0  0  0  0  0  0  0
   -3.0490   12.2440   22.8800 O   0  0  0  0  0  0  0  0  0  0  0  0
   -2.4580   13.0100   22.7620 H   0  0  0  0  0  0  0  0  0  0  0  0
   -4.9210   11.9170   18.3840 C   0  0  0  0  0  0  0  0  0  0  0  0
   -5.1340   10.6720   17.4970 C   0  0  0  0  0  0  0  0  0  0  0  0
   -4.0870   10.5660   16.3870 C   0  0  0  0  0  0  0  0  0  0  0  0
   -5.0950    9.3940   18.3440 C   0  0  0  0  0  0  0  0  0  0  0  0
  1 25  1  6  0  0  0
  1  4  1  0  0  0  0
  2  1  1  0  0  0  0
  3  2  1  0  0  0  0
  4 23  1  6  0  0  0
  5  4  1  6  0  0  0
  5 10  1  0  0  0  0
  6  5  1  0  0  0  0
  6  7  1  0  0  0  0
  7 16  1  6  0  0  0
  7  8  1  0  0  0  0
  8  9  1  0  0  0  0
  9 19  1  1  0  0  0
 10 11  1  6  0  0  0
 10  9  1  0  0  0  0
 11 13  1  0  0  0  0
 12 11  1  0  0  0  0
 13 15  2  0  0  0  0
 13 14  1  0  0  0  0
 16 17  1  0  0  0  0
 18 16  2  0  0  0  0
 19 20  1  0  0  0  0
 21  7  1  0  0  0  0
 22 21  1  0  0  0  0
 23 24  1  0  0  0  0
 26 28  1  0  0  0  0
 26 27  2  0  0  0  0
 28 25  1  0  0  0  0
 29 28  1  0  0  0  0
 30 31  1  0  0  0  0
 30 26  1  0  0  0  0
 33 32  1  0  0  0  0
 33 31  1  0  0  0  0
 34 33  2  0  0  0  0
 35 34  1  0  0  0  0
 35 36  1  0  0  0  0
 36 32  2  0  0  0  0
 37 35  1  0  0  0  0
 38 44  1  6  0  0  0
 38 39  1  0  0  0  0
 38 37  1  0  0  0  0
 39 40  1  0  0  0  0
 40 41  2  0  0  0  0
 40 42  1  0  0  0  0
 43 42  1  0  0  0  0
 45 47  1  0  0  0  0
 45 44  1  0  0  0  0
 46 45  1  0  0  0  0
M  END
>  <REMARK>
 VINA RESULT:    -5.068      0.000      0.000
 INTER + INTRA:         -13.463
 INTER:                  -9.600
 INTRA:                  -3.863
 UNBOUND:                -3.062
  Name = lig_assembled_74.pdb
  24 active torsions:
  status: ('A' for Active; 'I' for Inactive)
    1  A    between atoms: _2  and  _9
    2  A    between atoms: _4  and  _22
    3  A    between atoms: _5  and  _14
    4  A    between atoms: _6  and  _7
    5  A    between atoms: _6  and  _22
    6  A    between atoms: _9  and  _10
    7  A    between atoms: _10  and  _11
    8  A    between atoms: _10  and  _13
    9  A    between atoms: _11  and  _12
   10  A    between atoms: _12  and  _16
   11  A    between atoms: _13  and  _14
   12  A    between atoms: _14  and  _15
   13  A    between atoms: _18  and  _38
   14  A    between atoms: _20  and  _26
   15  A    between atoms: _21  and  _25
   16  A    between atoms: _25  and  _26
   17  A    between atoms: _28  and  _29
   18  A    between atoms: _30  and  _31
   19  A    between atoms: _32  and  _34
   20  A    between atoms: _34  and  _35
   21  A    between atoms: _34  and  _36
   22  A    between atoms: _36  and  _37
   23  A    between atoms: _36  and  _38
   24  A    between atoms: _39  and  _41
                            x       y       z     vdW  Elec       q    Type
                         _______ _______ _______ _____ _____    ______ ____

>  <TORSDO>
F 20

$$$$
lig_assembled_75.pdb
 OpenBabel07252309473D

 48 50  0  0  1  0  0  0  0  0999 V2000
   -3.7180   13.1020   24.4050 C   0  0  0  0  0  0  0  0  0  0  0  0
   -5.2920   13.5300   22.5490 C   0  0  0  0  0  0  0  0  0  0  0  0
   -4.4650   14.1330   21.8620 O   0  0  0  0  0  0  0  0  0  0  0  0
   -5.0310   13.0200   23.7530 N   0  0  0  0  0  0  0  0  0  0  0  0
   -5.7780   12.5510   24.2450 H   0  0  0  0  0  0  0  0  0  0  0  0
   -6.6200   13.3590   22.0470 O   0  0  0  0  0  0  0  0  0  0  0  0
   -6.8890   11.9660   21.8700 C   0  0  0  0  0  0  0  0  0  0  0  0
   -5.3980   10.2680   20.8640 N   0  0  0  0  0  0  0  0  0  0  0  0
   -6.1030   11.4300   20.7430 C   0  0  0  0  0  0  0  0  0  0  0  0
   -5.9300   11.9320   19.4740 C   0  0  0  0  0  0  0  0  0  0  0  0
   -5.1000   11.0330   18.8450 N   0  0  0  0  0  0  0  0  0  0  0  0
   -4.7900   10.0330   19.7090 N   0  0  0  0  0  0  0  0  0  0  0  0
   -4.5760   11.0740   17.5280 C   0  0  0  0  0  0  0  0  0  0  0  0
   -4.1580    9.8800   16.9160 C   0  0  0  0  0  0  0  0  0  0  0  0
   -3.5730    9.8930   15.6410 C   0  0  0  0  0  0  0  0  0  0  0  0
   -3.4720   11.1120   14.9600 C   0  0  0  0  0  0  0  0  0  0  0  0
   -3.9070   12.2990   15.5540 C   0  0  0  0  0  0  0  0  0  0  0  0
   -4.4490   12.2850   16.8380 C   0  0  0  0  0  0  0  0  0  0  0  0
   -3.0810    8.6710   14.9850 C   0  0  0  0  0  0  0  0  0  0  0  0
   -2.0080    8.6380   14.1790 C   0  0  0  0  0  0  0  0  0  0  0  0
   -1.6250    7.3730   13.5240 C   0  0  0  0  0  0  0  0  0  0  0  0
   -1.1190    7.2880   12.4200 O   0  0  0  0  0  0  0  0  0  0  0  0
   -1.8880    6.3030   14.3020 O   0  0  0  0  0  0  0  0  0  0  0  0
   -2.6400    5.7530   14.0210 H   0  0  0  0  0  0  0  0  0  0  0  0
   -2.9080   11.8240   24.2150 C   0  0  1  0  0  0  0  0  0  0  0  0
   -1.9510   11.6860   25.2780 O   0  0  0  0  0  0  0  0  0  0  0  0
   -1.3010   11.0200   25.0400 H   0  0  0  0  0  0  0  0  0  0  0  0
   -3.8580   10.6150   24.1690 C   0  0  2  0  0  0  0  0  0  0  0  0
   -3.8420    9.8170   25.4820 C   0  0  2  0  0  0  0  0  0  0  0  0
   -2.8270    8.7820   25.3620 O   0  0  0  0  0  0  0  0  0  0  0  0
   -2.5940    7.9820   26.5680 C   0  0  2  0  0  0  0  0  0  0  0  0
   -3.9200    7.3590   27.0690 C   0  0  0  0  0  0  0  0  0  0  0  0
   -5.0390    8.4160   27.1810 C   0  0  1  0  0  0  0  0  0  0  0  0
   -5.1940    9.1920   25.8730 C   0  0  1  0  0  0  0  0  0  0  0  0
   -6.2020   10.2540   26.0200 N   0  0  0  0  0  0  0  0  0  0  0  0
   -6.0470   10.9560   26.7300 H   0  0  0  0  0  0  0  0  0  0  0  0
   -7.3070   10.3510   25.2760 C   0  0  0  0  0  0  0  0  0  0  0  0
   -7.5260    9.2510   24.2200 C   0  0  0  0  0  0  0  0  0  0  0  0
   -8.1270   11.2590   25.4120 O   0  0  0  0  0  0  0  0  0  0  0  0
   -1.9740    8.8450   27.6870 C   0  0  0  0  0  0  0  0  0  0  0  0
   -1.2190    9.7750   27.4060 O   0  0  0  0  0  0  0  0  0  0  0  0
   -2.2300    8.6120   28.8690 O   0  0  0  0  0  0  0  0  0  0  0  0
   -1.6850    6.9050   26.2230 O   0  0  0  0  0  0  0  0  0  0  0  0
   -2.1650    5.5730   26.5380 C   0  0  0  0  0  0  0  0  0  0  0  0
   -6.2760    7.7770   27.4990 O   0  0  0  0  0  0  0  0  0  0  0  0
   -6.3000    7.5740   28.4370 H   0  0  0  0  0  0  0  0  0  0  0  0
   -3.5180    9.7570   23.0620 O   0  0  0  0  0  0  0  0  0  0  0  0
   -2.6550   10.0020   22.7200 H   0  0  0  0  0  0  0  0  0  0  0  0
  2  4  1  0  0  0  0
  3  2  2  0  0  0  0
  4  5  1  0  0  0  0
  4  1  1  0  0  0  0
  6  2  1  0  0  0  0
  7  6  1  0  0  0  0
  9  8  1  0  0  0  0
  9  7  1  0  0  0  0
 10  9  2  0  0  0  0
 11 10  1  0  0  0  0
 11 12  1  0  0  0  0
 12  8  2  0  0  0  0
 13 11  1  0  0  0  0
 14 13  1  0  0  0  0
 15 14  2  0  0  0  0
 16 17  2  0  0  0  0
 16 15  1  0  0  0  0
 17 18  1  0  0  0  0
 18 13  2  0  0  0  0
 19 15  1  0  0  0  0
 20 19  2  0  0  0  0
 21 20  1  0  0  0  0
 21 23  1  0  0  0  0
 22 21  2  0  0  0  0
 24 23  1  0  0  0  0
 25  1  1  1  0  0  0
 25 26  1  0  0  0  0
 27 26  1  0  0  0  0
 28 47  1  6  0  0  0
 28 25  1  0  0  0  0
 29 28  1  6  0  0  0
 29 34  1  0  0  0  0
 30 29  1  0  0  0  0
 30 31  1  0  0  0  0
 31 43  1  6  0  0  0
 31 32  1  0  0  0  0
 31 40  1  0  0  0  0
 32 33  1  0  0  0  0
 33 45  1  6  0  0  0
 34 35  1  1  0  0  0
 34 33  1  0  0  0  0
 35 36  1  0  0  0  0
 37 39  2  0  0  0  0
 37 35  1  0  0  0  0
 38 37  1  0  0  0  0
 40 42  1  0  0  0  0
 41 40  2  0  0  0  0
 43 44  1  0  0  0  0
 45 46  1  0  0  0  0
 48 47  1  0  0  0  0
M  END
>  <REMARK>
 VINA RESULT:    -5.992      0.000      0.000
 INTER + INTRA:         -13.700
 INTER:                 -10.838
 INTRA:                  -2.862
 UNBOUND:                -2.453
  Name = lig_assembled_75.pdb
  19 active torsions:
  status: ('A' for Active; 'I' for Inactive)
    1  A    between atoms: _2  and  _9
    2  A    between atoms: _4  and  _23
    3  A    between atoms: _6  and  _7
    4  A    between atoms: _6  and  _23
    5  A    between atoms: _11  and  _12
    6  A    between atoms: _13  and  _14
    7  A    between atoms: _14  and  _17
    8  A    between atoms: _19  and  _39
    9  A    between atoms: _21  and  _27
   10  A    between atoms: _22  and  _26
   11  A    between atoms: _26  and  _27
   12  A    between atoms: _29  and  _30
   13  A    between atoms: _31  and  _32
   14  A    between atoms: _33  and  _35
   15  A    between atoms: _35  and  _36
   16  A    between atoms: _35  and  _37
   17  A    between atoms: _37  and  _38
   18  A    between atoms: _37  and  _39
   19  A    between atoms: _40  and  _42
                            x       y       z     vdW  Elec       q    Type
                         _______ _______ _______ _____ _____    ______ ____

>  <TORSDO>
F 17

$$$$
lig_assembled_76.pdb
 OpenBabel07252309473D

 48 50  0  0  1  0  0  0  0  0999 V2000
   -6.5430    7.3920   23.3560 C   0  0  0  0  0  0  0  0  0  0  0  0
   -4.1050    6.9890   23.3790 C   0  0  0  0  0  0  0  0  0  0  0  0
   -3.9180    7.4860   22.2660 O   0  0  0  0  0  0  0  0  0  0  0  0
   -5.3010    6.8970   23.9620 N   0  0  0  0  0  0  0  0  0  0  0  0
   -5.3550    6.4630   24.8730 H   0  0  0  0  0  0  0  0  0  0  0  0
   -2.9890    6.4680   24.1040 O   0  0  0  0  0  0  0  0  0  0  0  0
   -3.4520    5.8080   25.2850 C   0  0  0  0  0  0  0  0  0  0  0  0
   -1.7470    6.7810   26.8000 N   0  0  0  0  0  0  0  0  0  0  0  0
   -3.0640    6.5690   26.4850 C   0  0  0  0  0  0  0  0  0  0  0  0
   -3.8580    7.1540   27.4460 C   0  0  0  0  0  0  0  0  0  0  0  0
   -2.9650    7.7070   28.3120 N   0  0  0  0  0  0  0  0  0  0  0  0
   -1.6990    7.4750   27.9300 N   0  0  0  0  0  0  0  0  0  0  0  0
   -3.2420    8.3460   29.5780 C   0  0  0  0  0  0  0  0  0  0  0  0
   -2.7180    9.7850   29.6480 C   0  0  1  0  0  0  0  0  0  0  0  0
   -2.2440   10.2010   28.3590 O   0  0  0  0  0  0  0  0  0  0  0  0
   -2.0340   11.1500   28.3890 H   0  0  0  0  0  0  0  0  0  0  0  0
   -3.8010   10.7840   30.0850 C   0  0  0  0  0  0  0  0  0  0  0  0
   -3.9170   11.9980   29.1630 C   0  0  0  0  0  0  0  0  0  0  0  0
   -4.0160   13.2890   29.9350 C   0  0  0  0  0  0  0  0  0  0  0  0
   -3.0230   13.6350   30.8630 C   0  0  0  0  0  0  0  0  0  0  0  0
   -3.1020   14.8380   31.5660 C   0  0  0  0  0  0  0  0  0  0  0  0
   -4.1750   15.7010   31.3520 C   0  0  0  0  0  0  0  0  0  0  0  0
   -5.1720   15.3590   30.4390 C   0  0  0  0  0  0  0  0  0  0  0  0
   -5.0950   14.1560   29.7360 C   0  0  0  0  0  0  0  0  0  0  0  0
   -7.0340    8.6700   24.0270 C   0  0  1  0  0  0  0  0  0  0  0  0
   -6.3720    8.8480   25.2900 O   0  0  0  0  0  0  0  0  0  0  0  0
   -7.0190    9.0720   25.9630 H   0  0  0  0  0  0  0  0  0  0  0  0
   -6.7780    9.8690   23.0980 C   0  0  2  0  0  0  0  0  0  0  0  0
   -5.3910   10.4890   23.3230 C   0  0  2  0  0  0  0  0  0  0  0  0
   -5.5260   11.5350   24.3240 O   0  0  0  0  0  0  0  0  0  0  0  0
   -4.2750   12.1730   24.7470 C   0  0  2  0  0  0  0  0  0  0  0  0
   -3.5030   12.7180   23.5200 C   0  0  0  0  0  0  0  0  0  0  0  0
   -3.3630   11.6490   22.4150 C   0  0  1  0  0  0  0  0  0  0  0  0
   -4.7230   11.0500   22.0550 C   0  0  1  0  0  0  0  0  0  0  0  0
   -4.5660    9.9730   21.0640 N   0  0  0  0  0  0  0  0  0  0  0  0
   -4.0790    9.1360   21.3520 H   0  0  0  0  0  0  0  0  0  0  0  0
   -5.0240   10.0310   19.8110 C   0  0  0  0  0  0  0  0  0  0  0  0
   -5.7370   11.3310   19.3960 C   0  0  0  0  0  0  0  0  0  0  0  0
   -4.8900    9.1070   19.0070 O   0  0  0  0  0  0  0  0  0  0  0  0
   -3.3840   11.1740   25.5140 C   0  0  0  0  0  0  0  0  0  0  0  0
   -3.8850   10.1960   26.0690 O   0  0  0  0  0  0  0  0  0  0  0  0
   -2.1660   11.3440   25.5770 O   0  0  0  0  0  0  0  0  0  0  0  0
   -2.7830   12.2350   21.2490 O   0  0  0  0  0  0  0  0  0  0  0  0
   -2.3260   13.0440   21.4900 H   0  0  0  0  0  0  0  0  0  0  0  0
   -4.6100   13.2900   25.6090 O   0  0  0  0  0  0  0  0  0  0  0  0
   -5.9290   13.2280   26.2080 C   0  0  0  0  0  0  0  0  0  0  0  0
   -7.8030   10.8660   23.2810 O   0  0  0  0  0  0  0  0  0  0  0  0
   -7.4940   11.7100   22.9420 H   0  0  0  0  0  0  0  0  0  0  0  0
  1  4  1  0  0  0  0
  2  4  1  0  0  0  0
  2  6  1  0  0  0  0
  3  2  2  0  0  0  0
  4  5  1  0  0  0  0
  6  7  1  0  0  0  0
  7  9  1  0  0  0  0
  8 12  2  0  0  0  0
  9  8  1  0  0  0  0
  9 10  2  0  0  0  0
 10 11  1  0  0  0  0
 11 13  1  0  0  0  0
 12 11  1  0  0  0  0
 14 13  1  6  0  0  0
 14 17  1  0  0  0  0
 15 16  1  0  0  0  0
 15 14  1  0  0  0  0
 18 19  1  0  0  0  0
 18 17  1  0  0  0  0
 19 20  1  0  0  0  0
 20 21  2  0  0  0  0
 22 21  1  0  0  0  0
 23 22  2  0  0  0  0
 24 19  2  0  0  0  0
 24 23  1  0  0  0  0
 25  1  1  6  0  0  0
 25 26  1  0  0  0  0
 26 27  1  0  0  0  0
 28 47  1  1  0  0  0
 28 25  1  0  0  0  0
 29 28  1  6  0  0  0
 29 30  1  0  0  0  0
 30 31  1  0  0  0  0
 31 40  1  1  0  0  0
 31 45  1  0  0  0  0
 32 31  1  0  0  0  0
 33 43  1  6  0  0  0
 33 32  1  0  0  0  0
 34 35  1  6  0  0  0
 34 33  1  0  0  0  0
 34 29  1  0  0  0  0
 35 36  1  0  0  0  0
 37 35  1  0  0  0  0
 38 37  1  0  0  0  0
 39 37  2  0  0  0  0
 40 42  2  0  0  0  0
 40 41  1  0  0  0  0
 43 44  1  0  0  0  0
 45 46  1  0  0  0  0
 48 47  1  0  0  0  0
M  END
>  <REMARK>
 VINA RESULT:    -5.424      0.000      0.000
 INTER + INTRA:         -13.996
 INTER:                  -9.692
 INTRA:                  -4.304
 UNBOUND:                -3.181
  Name = lig_assembled_76.pdb
  21 active torsions:
  status: ('A' for Active; 'I' for Inactive)
    1  A    between atoms: _2  and  _9
    2  A    between atoms: _4  and  _23
    3  A    between atoms: _6  and  _7
    4  A    between atoms: _6  and  _23
    5  A    between atoms: _9  and  _10
    6  A    between atoms: _10  and  _11
    7  A    between atoms: _10  and  _18
    8  A    between atoms: _11  and  _12
    9  A    between atoms: _12  and  _13
   10  A    between atoms: _19  and  _39
   11  A    between atoms: _21  and  _27
   12  A    between atoms: _22  and  _26
   13  A    between atoms: _26  and  _27
   14  A    between atoms: _29  and  _30
   15  A    between atoms: _31  and  _32
   16  A    between atoms: _33  and  _35
   17  A    between atoms: _35  and  _36
   18  A    between atoms: _35  and  _37
   19  A    between atoms: _37  and  _38
   20  A    between atoms: _37  and  _39
   21  A    between atoms: _40  and  _42
                            x       y       z     vdW  Elec       q    Type
                         _______ _______ _______ _____ _____    ______ ____

>  <TORSDO>
F 19

$$$$
lig_assembled_77.pdb
 OpenBabel07252309473D

 54 57  0  0  1  0  0  0  0  0999 V2000
   -4.1640   13.0910   22.3670 C   0  0  0  0  0  0  0  0  0  0  0  0
   -3.2230   12.6800   21.6850 O   0  0  0  0  0  0  0  0  0  0  0  0
   -4.1290   13.2050   23.6950 N   0  0  0  0  0  0  0  0  0  0  0  0
   -4.9490   13.5610   24.1650 H   0  0  0  0  0  0  0  0  0  0  0  0
   -2.9660   12.8400   24.5130 C   0  0  0  0  0  0  0  0  0  0  0  0
   -3.1890   11.5350   25.2690 C   0  0  1  0  0  0  0  0  0  0  0  0
   -1.9690   10.7760   25.3100 O   0  0  0  0  0  0  0  0  0  0  0  0
   -2.0520   10.0060   24.7410 H   0  0  0  0  0  0  0  0  0  0  0  0
   -3.6920   11.8440   26.6900 C   0  0  2  0  0  0  0  0  0  0  0  0
   -3.3960   10.6980   27.6690 C   0  0  2  0  0  0  0  0  0  0  0  0
   -4.0160    9.4910   27.1470 O   0  0  0  0  0  0  0  0  0  0  0  0
   -3.7490    8.2630   27.9010 C   0  0  2  0  0  0  0  0  0  0  0  0
   -4.1350    8.4480   29.3890 C   0  0  0  0  0  0  0  0  0  0  0  0
   -3.5250    9.7360   29.9810 C   0  0  1  0  0  0  0  0  0  0  0  0
   -3.8620   10.9510   29.1150 C   0  0  1  0  0  0  0  0  0  0  0  0
   -3.2020   12.1570   29.6410 N   0  0  0  0  0  0  0  0  0  0  0  0
   -2.1920   12.1730   29.6550 H   0  0  0  0  0  0  0  0  0  0  0  0
   -3.8510   13.2300   30.0990 C   0  0  0  0  0  0  0  0  0  0  0  0
   -5.3900   13.1630   30.0880 C   0  0  0  0  0  0  0  0  0  0  0  0
   -3.2730   14.2320   30.5200 O   0  0  0  0  0  0  0  0  0  0  0  0
   -2.2600    7.8720   27.8000 C   0  0  0  0  0  0  0  0  0  0  0  0
   -1.6510    8.0210   26.7410 O   0  0  0  0  0  0  0  0  0  0  0  0
   -1.6690    7.4070   28.7750 O   0  0  0  0  0  0  0  0  0  0  0  0
   -4.0270    9.9450   31.3010 O   0  0  0  0  0  0  0  0  0  0  0  0
   -4.9690   10.1260   31.2610 H   0  0  0  0  0  0  0  0  0  0  0  0
   -4.5710    7.2060   27.3430 O   0  0  0  0  0  0  0  0  0  0  0  0
   -5.0960    7.4730   26.0180 C   0  0  0  0  0  0  0  0  0  0  0  0
   -5.1050   12.1240   26.6660 O   0  0  0  0  0  0  0  0  0  0  0  0
   -5.5660   11.4980   27.2300 H   0  0  0  0  0  0  0  0  0  0  0  0
   -5.3770   13.4790   21.7150 O   0  0  0  0  0  0  0  0  0  0  0  0
   -6.0920   12.3120   21.3010 C   0  0  0  0  0  0  0  0  0  0  0  0
   -7.2710   12.3990   19.1300 N   0  0  0  0  0  0  0  0  0  0  0  0
   -6.1140   12.2150   19.8290 C   0  0  0  0  0  0  0  0  0  0  0  0
   -5.0920   11.9540   18.9460 C   0  0  0  0  0  0  0  0  0  0  0  0
   -5.6770   11.9980   17.7010 N   0  0  0  0  0  0  0  0  0  0  0  0
   -7.0010   12.2560   17.8400 N   0  0  0  0  0  0  0  0  0  0  0  0
   -5.0670   11.8760   16.4240 C   0  0  0  0  0  0  0  0  0  0  0  0
   -3.8970   11.1210   16.2540 C   0  0  0  0  0  0  0  0  0  0  0  0
   -3.2430   11.1110   15.0180 C   0  0  0  0  0  0  0  0  0  0  0  0
   -3.7620   11.8510   13.9540 C   0  0  0  0  0  0  0  0  0  0  0  0
   -4.9760   12.5310   14.0860 C   0  0  0  0  0  0  0  0  0  0  0  0
   -5.6220   12.5540   15.3250 C   0  0  0  0  0  0  0  0  0  0  0  0
   -2.8900   11.8930   12.4010 S   0  0  0  0  0  0  0  0  0  0  0  0
   -1.9320   10.8020   12.4460 O   0  0  0  0  0  0  0  0  0  0  0  0
   -3.8850   11.9610   11.3470 O   0  0  0  0  0  0  0  0  0  0  0  0
   -1.9550   13.4050   12.3060 C   0  0  0  0  0  0  0  0  0  0  0  0
   -0.7610   13.4690   11.5860 C   0  0  0  0  0  0  0  0  0  0  0  0
   -0.0210   14.6560   11.5840 C   0  0  0  0  0  0  0  0  0  0  0  0
   -0.4820   15.7970   12.2540 C   0  0  0  0  0  0  0  0  0  0  0  0
   -1.6650   15.7060   12.9940 C   0  0  0  0  0  0  0  0  0  0  0  0
   -2.4130   14.5260   13.0060 C   0  0  0  0  0  0  0  0  0  0  0  0
    0.3440   16.9170   12.3870 N   0  0  0  0  0  0  0  0  0  0  0  0
   -0.1140   17.7400   12.7670 H   0  0  0  0  0  0  0  0  0  0  0  0
    1.2370   16.7290   12.8310 H   0  0  0  0  0  0  0  0  0  0  0  0
  1  3  1  0  0  0  0
  2  1  2  0  0  0  0
  3  4  1  0  0  0  0
  3  5  1  0  0  0  0
  6  5  1  1  0  0  0
  6  7  1  0  0  0  0
  6  9  1  0  0  0  0
  8  7  1  0  0  0  0
  9 28  1  6  0  0  0
 10  9  1  6  0  0  0
 10 15  1  0  0  0  0
 11 10  1  0  0  0  0
 11 12  1  0  0  0  0
 12 26  1  6  0  0  0
 12 13  1  0  0  0  0
 13 14  1  0  0  0  0
 14 24  1  1  0  0  0
 15 16  1  1  0  0  0
 15 14  1  0  0  0  0
 16 17  1  0  0  0  0
 16 18  1  0  0  0  0
 18 20  2  0  0  0  0
 19 18  1  0  0  0  0
 21 12  1  0  0  0  0
 21 23  1  0  0  0  0
 22 21  2  0  0  0  0
 25 24  1  0  0  0  0
 27 26  1  0  0  0  0
 28 29  1  0  0  0  0
 30  1  1  0  0  0  0
 31 30  1  0  0  0  0
 32 33  1  0  0  0  0
 33 31  1  0  0  0  0
 34 33  2  0  0  0  0
 35 36  1  0  0  0  0
 35 34  1  0  0  0  0
 36 32  2  0  0  0  0
 37 35  1  0  0  0  0
 38 37  1  0  0  0  0
 39 38  2  0  0  0  0
 40 41  2  0  0  0  0
 40 39  1  0  0  0  0
 41 42  1  0  0  0  0
 42 37  2  0  0  0  0
 43 44  2  0  0  0  0
 43 40  1  0  0  0  0
 45 43  2  0  0  0  0
 46 43  1  0  0  0  0
 46 51  2  0  0  0  0
 47 46  1  0  0  0  0
 48 47  2  0  0  0  0
 48 49  1  0  0  0  0
 49 52  1  0  0  0  0
 49 50  2  0  0  0  0
 50 51  1  0  0  0  0
 52 53  1  0  0  0  0
 52 54  1  0  0  0  0
M  END
>  <REMARK>
 VINA RESULT:    -6.226      0.000      0.000
 INTER + INTRA:         -14.526
 INTER:                 -12.263
 INTRA:                  -2.263
 UNBOUND:                -2.840
  Name = lig_assembled_77.pdb
  19 active torsions:
  status: ('A' for Active; 'I' for Inactive)
    1  A    between atoms: _2  and  _10
    2  A    between atoms: _3  and  _17
    3  A    between atoms: _5  and  _27
    4  A    between atoms: _7  and  _8
    5  A    between atoms: _7  and  _27
    6  A    between atoms: _13  and  _47
    7  A    between atoms: _14  and  _47
    8  A    between atoms: _23  and  _43
    9  A    between atoms: _25  and  _31
   10  A    between atoms: _26  and  _30
   11  A    between atoms: _30  and  _31
   12  A    between atoms: _33  and  _34
   13  A    between atoms: _35  and  _36
   14  A    between atoms: _37  and  _39
   15  A    between atoms: _39  and  _40
   16  A    between atoms: _39  and  _41
   17  A    between atoms: _41  and  _42
   18  A    between atoms: _41  and  _43
   19  A    between atoms: _44  and  _46
                            x       y       z     vdW  Elec       q    Type
                         _______ _______ _______ _____ _____    ______ ____

>  <TORSDO>
F 17

$$$$
lig_assembled_78.pdb
 OpenBabel07252309473D

 46 48  0  0  1  0  0  0  0  0999 V2000
   -3.1620   12.2830   23.7350 C   0  0  1  0  0  0  0  0  0  0  0  0
   -2.0730   12.2430   24.6710 O   0  0  0  0  0  0  0  0  0  0  0  0
   -1.5770   13.0640   24.6210 H   0  0  0  0  0  0  0  0  0  0  0  0
   -4.4330   11.6650   24.3430 C   0  0  2  0  0  0  0  0  0  0  0  0
   -4.1270   10.8280   25.5940 C   0  0  2  0  0  0  0  0  0  0  0  0
   -3.6380    9.5310   25.1540 O   0  0  0  0  0  0  0  0  0  0  0  0
   -3.1930    8.6270   26.2190 C   0  0  2  0  0  0  0  0  0  0  0  0
   -4.3140    8.4350   27.2700 C   0  0  0  0  0  0  0  0  0  0  0  0
   -4.8870    9.7870   27.7440 C   0  0  1  0  0  0  0  0  0  0  0  0
   -5.3160   10.6480   26.5560 C   0  0  1  0  0  0  0  0  0  0  0  0
   -5.7800   11.9670   27.0160 N   0  0  0  0  0  0  0  0  0  0  0  0
   -5.1320   12.5380   27.5400 H   0  0  0  0  0  0  0  0  0  0  0  0
   -7.0010   12.4580   26.7860 C   0  0  0  0  0  0  0  0  0  0  0  0
   -7.9730   11.5520   26.0070 C   0  0  0  0  0  0  0  0  0  0  0  0
   -7.3570   13.5720   27.1700 O   0  0  0  0  0  0  0  0  0  0  0  0
   -1.9270    9.1780   26.9100 C   0  0  0  0  0  0  0  0  0  0  0  0
   -1.1890    9.9630   26.3160 O   0  0  0  0  0  0  0  0  0  0  0  0
   -1.6450    8.8360   28.0590 O   0  0  0  0  0  0  0  0  0  0  0  0
   -2.9010    7.3380   25.6210 O   0  0  0  0  0  0  0  0  0  0  0  0
   -3.9290    6.8270   24.7360 C   0  0  0  0  0  0  0  0  0  0  0  0
   -6.0130    9.5620   28.5930 O   0  0  0  0  0  0  0  0  0  0  0  0
   -6.3920    8.7010   28.4010 H   0  0  0  0  0  0  0  0  0  0  0  0
   -5.1140   10.8600   23.3600 O   0  0  0  0  0  0  0  0  0  0  0  0
   -5.9120   10.4910   23.7450 H   0  0  0  0  0  0  0  0  0  0  0  0
   -3.4430   13.7240   23.3230 C   0  0  0  0  0  0  0  0  0  0  0  0
   -5.4080   15.1710   22.9330 C   0  0  0  0  0  0  0  0  0  0  0  0
   -4.7650   16.0480   22.3510 O   0  0  0  0  0  0  0  0  0  0  0  0
   -4.8700   14.0550   23.4250 N   0  0  0  0  0  0  0  0  0  0  0  0
   -5.4790   13.3990   23.8950 H   0  0  0  0  0  0  0  0  0  0  0  0
   -6.8170   15.3430   23.1050 O   0  0  0  0  0  0  0  0  0  0  0  0
   -7.4890   15.0420   21.8790 C   0  0  0  0  0  0  0  0  0  0  0  0
   -7.6540   12.6580   22.5340 N   0  0  0  0  0  0  0  0  0  0  0  0
   -7.3870   13.6020   21.5780 C   0  0  0  0  0  0  0  0  0  0  0  0
   -7.0450   12.9680   20.4040 C   0  0  0  0  0  0  0  0  0  0  0  0
   -7.1800   11.6440   20.6950 N   0  0  0  0  0  0  0  0  0  0  0  0
   -7.5010   11.4590   21.9870 N   0  0  0  0  0  0  0  0  0  0  0  0
   -6.9480   10.5050   19.8400 C   0  0  0  0  0  0  0  0  0  0  0  0
   -5.2350   10.0710   19.6860 S   0  0  0  0  0  0  0  0  0  0  0  0
   -4.4360   10.8890   20.5760 O   0  0  0  0  0  0  0  0  0  0  0  0
   -5.1370    8.6220   19.7150 O   0  0  0  0  0  0  0  0  0  0  0  0
   -4.8040   10.5870   18.0370 C   0  0  0  0  0  0  0  0  0  0  0  0
   -4.6250   11.9490   17.7720 C   0  0  0  0  0  0  0  0  0  0  0  0
   -4.2620   12.3540   16.4880 C   0  0  0  0  0  0  0  0  0  0  0  0
   -4.0630   11.4050   15.4840 C   0  0  0  0  0  0  0  0  0  0  0  0
   -4.2240   10.0460   15.7600 C   0  0  0  0  0  0  0  0  0  0  0  0
   -4.5960    9.6300   17.0390 C   0  0  0  0  0  0  0  0  0  0  0  0
  1 25  1  1  0  0  0
  1  4  1  0  0  0  0
  1  2  1  0  0  0  0
  3  2  1  0  0  0  0
  4 23  1  6  0  0  0
  5  4  1  6  0  0  0
  5 10  1  0  0  0  0
  6  5  1  0  0  0  0
  6  7  1  0  0  0  0
  7 19  1  6  0  0  0
  7 16  1  0  0  0  0
  7  8  1  0  0  0  0
  8  9  1  0  0  0  0
  9 21  1  1  0  0  0
 10 11  1  1  0  0  0
 10  9  1  0  0  0  0
 11 12  1  0  0  0  0
 13 11  1  0  0  0  0
 13 15  2  0  0  0  0
 14 13  1  0  0  0  0
 16 18  1  0  0  0  0
 17 16  2  0  0  0  0
 20 19  1  0  0  0  0
 22 21  1  0  0  0  0
 23 24  1  0  0  0  0
 25 28  1  0  0  0  0
 26 30  1  0  0  0  0
 26 28  1  0  0  0  0
 27 26  2  0  0  0  0
 28 29  1  0  0  0  0
 31 30  1  0  0  0  0
 33 31  1  0  0  0  0
 33 32  1  0  0  0  0
 34 35  1  0  0  0  0
 34 33  2  0  0  0  0
 35 36  1  0  0  0  0
 36 32  2  0  0  0  0
 37 35  1  0  0  0  0
 38 40  2  0  0  0  0
 38 37  1  0  0  0  0
 38 39  2  0  0  0  0
 41 38  1  0  0  0  0
 42 41  1  0  0  0  0
 43 42  2  0  0  0  0
 44 45  2  0  0  0  0
 44 43  1  0  0  0  0
 45 46  1  0  0  0  0
 46 41  2  0  0  0  0
M  END
>  <REMARK>
 VINA RESULT:    -5.062      0.000      0.000
 INTER + INTRA:         -12.595
 INTER:                  -8.925
 INTRA:                  -3.670
 UNBOUND:                -3.243
  Name = lig_assembled_78.pdb
  18 active torsions:
  status: ('A' for Active; 'I' for Inactive)
    1  A    between atoms: _2  and  _9
    2  A    between atoms: _4  and  _21
    3  A    between atoms: _6  and  _7
    4  A    between atoms: _6  and  _21
    5  A    between atoms: _9  and  _41
    6  A    between atoms: _10  and  _41
    7  A    between atoms: _17  and  _37
    8  A    between atoms: _19  and  _25
    9  A    between atoms: _20  and  _24
   10  A    between atoms: _24  and  _25
   11  A    between atoms: _27  and  _28
   12  A    between atoms: _29  and  _30
   13  A    between atoms: _31  and  _33
   14  A    between atoms: _33  and  _34
   15  A    between atoms: _33  and  _35
   16  A    between atoms: _35  and  _36
   17  A    between atoms: _35  and  _37
   18  A    between atoms: _38  and  _40
                            x       y       z     vdW  Elec       q    Type
                         _______ _______ _______ _____ _____    ______ ____

>  <TORSDO>
F 16

$$$$
lig_assembled_79.pdb
 OpenBabel07252309473D

 51 54  0  0  1  0  0  0  0  0999 V2000
   -1.8540    9.2640   27.2740 C   0  0  0  0  0  0  0  0  0  0  0  0
   -1.8720    8.0430   27.1000 O   0  0  0  0  0  0  0  0  0  0  0  0
   -2.1600    9.8570   28.4280 N   0  0  0  0  0  0  0  0  0  0  0  0
   -2.1060   10.8650   28.4760 H   0  0  0  0  0  0  0  0  0  0  0  0
   -2.5700    9.1280   29.6350 C   0  0  0  0  0  0  0  0  0  0  0  0
   -3.1650   10.0590   30.6870 C   0  0  1  0  0  0  0  0  0  0  0  0
   -2.1270   10.8570   31.2800 O   0  0  0  0  0  0  0  0  0  0  0  0
   -1.2740   10.5790   30.9390 H   0  0  0  0  0  0  0  0  0  0  0  0
   -4.2400   10.9470   30.0380 C   0  0  2  0  0  0  0  0  0  0  0  0
   -4.1910   12.3900   30.5620 C   0  0  2  0  0  0  0  0  0  0  0  0
   -4.4550   12.3550   31.9920 O   0  0  0  0  0  0  0  0  0  0  0  0
   -4.3440   13.6410   32.6880 C   0  0  2  0  0  0  0  0  0  0  0  0
   -5.2490   14.7010   32.0140 C   0  0  0  0  0  0  0  0  0  0  0  0
   -5.0270   14.7520   30.4880 C   0  0  1  0  0  0  0  0  0  0  0  0
   -5.1630   13.3610   29.8670 C   0  0  1  0  0  0  0  0  0  0  0  0
   -4.8640   13.4090   28.4270 N   0  0  0  0  0  0  0  0  0  0  0  0
   -3.9300   13.6750   28.1480 H   0  0  0  0  0  0  0  0  0  0  0  0
   -5.7460   13.1230   27.4660 C   0  0  0  0  0  0  0  0  0  0  0  0
   -7.1680   12.7470   27.9230 C   0  0  0  0  0  0  0  0  0  0  0  0
   -5.4630   13.1570   26.2670 O   0  0  0  0  0  0  0  0  0  0  0  0
   -2.8830   14.1370   32.6910 C   0  0  0  0  0  0  0  0  0  0  0  0
   -2.6370   15.3410   32.6250 O   0  0  0  0  0  0  0  0  0  0  0  0
   -1.9510   13.3350   32.7600 O   0  0  0  0  0  0  0  0  0  0  0  0
   -5.9840   15.6290   29.8910 O   0  0  0  0  0  0  0  0  0  0  0  0
   -5.6240   15.9900   29.0780 H   0  0  0  0  0  0  0  0  0  0  0  0
   -4.7980   13.4530   34.0530 O   0  0  0  0  0  0  0  0  0  0  0  0
   -6.1770   13.0250   34.1860 C   0  0  0  0  0  0  0  0  0  0  0  0
   -5.5490   10.3830   30.2580 O   0  0  0  0  0  0  0  0  0  0  0  0
   -6.1630   10.7380   29.6110 H   0  0  0  0  0  0  0  0  0  0  0  0
   -1.4820   10.1150   26.1870 O   0  0  0  0  0  0  0  0  0  0  0  0
   -2.4760   11.1280   26.0110 C   0  0  0  0  0  0  0  0  0  0  0  0
   -3.4260    9.9430   24.0670 N   0  0  0  0  0  0  0  0  0  0  0  0
   -2.9840   11.1050   24.6270 C   0  0  0  0  0  0  0  0  0  0  0  0
   -3.1010   12.1230   23.7070 C   0  0  0  0  0  0  0  0  0  0  0  0
   -3.7090   11.5420   22.6280 N   0  0  0  0  0  0  0  0  0  0  0  0
   -3.8240   10.2060   22.8340 N   0  0  0  0  0  0  0  0  0  0  0  0
   -4.0450   12.0920   21.2820 C   0  0  0  0  0  0  0  0  0  0  0  0
   -4.0030   10.9000   20.2970 C   0  0  0  0  0  0  0  0  0  0  0  0
   -2.9850   13.1810   21.0230 C   0  0  0  0  0  0  0  0  0  0  0  0
   -5.4580   12.7050   21.2040 C   0  0  0  0  0  0  0  0  0  0  0  0
   -6.1770   12.4900   20.2220 O   0  0  0  0  0  0  0  0  0  0  0  0
   -6.0130   13.5870   22.2710 C   0  0  0  0  0  0  0  0  0  0  0  0
   -6.9380   13.0800   23.1770 C   0  0  0  0  0  0  0  0  0  0  0  0
   -7.3260   14.0620   24.0370 N   0  0  0  0  0  0  0  0  0  0  0  0
   -7.9980   13.9540   24.7840 H   0  0  0  0  0  0  0  0  0  0  0  0
   -6.6780   15.2320   23.7350 C   0  0  0  0  0  0  0  0  0  0  0  0
   -6.7890   16.4840   24.3570 C   0  0  0  0  0  0  0  0  0  0  0  0
   -6.0230   17.5380   23.8600 C   0  0  0  0  0  0  0  0  0  0  0  0
   -5.1750   17.3430   22.7820 C   0  0  0  0  0  0  0  0  0  0  0  0
   -5.0770   16.0850   22.1760 C   0  0  0  0  0  0  0  0  0  0  0  0
   -5.8390   14.9820   22.6400 C   0  0  0  0  0  0  0  0  0  0  0  0
  1  3  1  0  0  0  0
  2  1  2  0  0  0  0
  3  4  1  0  0  0  0
  3  5  1  0  0  0  0
  6  5  1  6  0  0  0
  6  7  1  0  0  0  0
  8  7  1  0  0  0  0
  9 28  1  1  0  0  0
  9  6  1  0  0  0  0
 10  9  1  6  0  0  0
 10 11  1  0  0  0  0
 11 12  1  0  0  0  0
 12 21  1  6  0  0  0
 12 26  1  0  0  0  0
 13 12  1  0  0  0  0
 14 24  1  6  0  0  0
 14 13  1  0  0  0  0
 15 16  1  6  0  0  0
 15 14  1  0  0  0  0
 15 10  1  0  0  0  0
 17 16  1  0  0  0  0
 18 19  1  0  0  0  0
 18 16  1  0  0  0  0
 20 18  2  0  0  0  0
 21 23  1  0  0  0  0
 22 21  2  0  0  0  0
 25 24  1  0  0  0  0
 26 27  1  0  0  0  0
 29 28  1  0  0  0  0
 30  1  1  0  0  0  0
 31 30  1  0  0  0  0
 32 33  1  0  0  0  0
 33 31  1  0  0  0  0
 34 33  2  0  0  0  0
 35 36  1  0  0  0  0
 35 34  1  0  0  0  0
 36 32  2  0  0  0  0
 37 35  1  0  0  0  0
 38 37  1  0  0  0  0
 39 37  1  0  0  0  0
 40 37  1  0  0  0  0
 40 42  1  0  0  0  0
 41 40  2  0  0  0  0
 42 51  1  0  0  0  0
 42 43  2  0  0  0  0
 43 44  1  0  0  0  0
 44 45  1  0  0  0  0
 46 44  1  0  0  0  0
 46 47  2  0  0  0  0
 48 47  1  0  0  0  0
 49 48  2  0  0  0  0
 50 51  2  0  0  0  0
 50 49  1  0  0  0  0
 51 46  1  0  0  0  0
M  END
>  <REMARK>
 VINA RESULT:    -5.531      0.000      0.000
 INTER + INTRA:         -14.104
 INTER:                 -10.581
 INTRA:                  -3.523
 UNBOUND:                -3.885
  Name = lig_assembled_79.pdb
  20 active torsions:
  status: ('A' for Active; 'I' for Inactive)
    1  A    between atoms: _2  and  _10
    2  A    between atoms: _5  and  _26
    3  A    between atoms: _7  and  _8
    4  A    between atoms: _7  and  _26
    5  A    between atoms: _10  and  _11
    6  A    between atoms: _10  and  _12
    7  A    between atoms: _10  and  _13
    8  A    between atoms: _13  and  _14
    9  A    between atoms: _22  and  _42
   10  A    between atoms: _24  and  _30
   11  A    between atoms: _25  and  _29
   12  A    between atoms: _29  and  _30
   13  A    between atoms: _32  and  _33
   14  A    between atoms: _34  and  _35
   15  A    between atoms: _36  and  _38
   16  A    between atoms: _38  and  _39
   17  A    between atoms: _38  and  _40
   18  A    between atoms: _40  and  _41
   19  A    between atoms: _40  and  _42
   20  A    between atoms: _43  and  _45
                            x       y       z     vdW  Elec       q    Type
                         _______ _______ _______ _____ _____    ______ ____

>  <TORSDO>
F 16

$$$$
lig_assembled_7.pdb
 OpenBabel07252309473D

 45 47  0  0  1  0  0  0  0  0999 V2000
   -3.1820   11.8330   25.0560 C   0  0  2  0  0  0  0  0  0  0  0  0
   -2.1040   10.8860   24.9780 O   0  0  0  0  0  0  0  0  0  0  0  0
   -2.0970   10.4780   24.1090 H   0  0  0  0  0  0  0  0  0  0  0  0
   -2.7880   13.1310   24.3590 C   0  0  0  0  0  0  0  0  0  0  0  0
   -4.7030   13.8350   22.9650 C   0  0  0  0  0  0  0  0  0  0  0  0
   -5.3730   14.2340   23.9210 O   0  0  0  0  0  0  0  0  0  0  0  0
   -3.4870   13.2990   23.0790 N   0  0  0  0  0  0  0  0  0  0  0  0
   -3.0210   12.9920   22.2370 H   0  0  0  0  0  0  0  0  0  0  0  0
   -5.2460   13.9380   21.6460 O   0  0  0  0  0  0  0  0  0  0  0  0
   -6.1270   12.8390   21.4040 C   0  0  0  0  0  0  0  0  0  0  0  0
   -6.9140   12.5750   19.0830 N   0  0  0  0  0  0  0  0  0  0  0  0
   -5.9610   12.3430   20.0260 C   0  0  0  0  0  0  0  0  0  0  0  0
   -4.9290   11.6310   19.4480 C   0  0  0  0  0  0  0  0  0  0  0  0
   -5.3230   11.4060   18.1460 N   0  0  0  0  0  0  0  0  0  0  0  0
   -6.5100   12.0320   17.9470 N   0  0  0  0  0  0  0  0  0  0  0  0
   -4.6660   10.6690   17.1070 C   0  0  0  0  0  0  0  0  0  0  0  0
   -3.9450   11.3760   16.0970 C   0  0  0  0  0  0  0  0  0  0  0  0
   -3.2940   10.6590   15.0700 C   0  0  0  0  0  0  0  0  0  0  0  0
   -3.3270    9.2680   15.0190 C   0  0  0  0  0  0  0  0  0  0  0  0
   -2.6220    8.5380   13.9150 C   0  0  0  0  0  0  0  0  0  0  0  0
   -4.0290    8.5830   16.0070 C   0  0  0  0  0  0  0  0  0  0  0  0
   -3.7710   12.8790   16.0590 C   0  0  0  0  0  0  0  0  0  0  0  0
   -4.7210    9.2530   17.0430 C   0  0  0  0  0  0  0  0  0  0  0  0
   -5.5190    8.3330   17.9310 C   0  0  0  0  0  0  0  0  0  0  0  0
   -3.5520   12.1280   26.5200 C   0  0  2  0  0  0  0  0  0  0  0  0
   -3.3530   10.9020   27.4240 C   0  0  2  0  0  0  0  0  0  0  0  0
   -3.9770    9.7610   26.7730 O   0  0  0  0  0  0  0  0  0  0  0  0
   -3.7960    8.4710   27.4450 C   0  0  2  0  0  0  0  0  0  0  0  0
   -4.2680    8.5570   28.9170 C   0  0  0  0  0  0  0  0  0  0  0  0
   -3.6560    9.7740   29.6420 C   0  0  1  0  0  0  0  0  0  0  0  0
   -3.9010   11.0620   28.8550 C   0  0  1  0  0  0  0  0  0  0  0  0
   -3.2380   12.2000   29.5100 N   0  0  0  0  0  0  0  0  0  0  0  0
   -2.2290   12.1960   29.5570 H   0  0  0  0  0  0  0  0  0  0  0  0
   -3.8840   13.2390   30.0470 C   0  0  0  0  0  0  0  0  0  0  0  0
   -5.4220   13.2030   29.9830 C   0  0  0  0  0  0  0  0  0  0  0  0
   -3.3020   14.1860   30.5770 O   0  0  0  0  0  0  0  0  0  0  0  0
   -2.3160    8.0350   27.4030 C   0  0  0  0  0  0  0  0  0  0  0  0
   -1.8320    7.3940   28.3350 O   0  0  0  0  0  0  0  0  0  0  0  0
   -1.6070    8.3260   26.4390 O   0  0  0  0  0  0  0  0  0  0  0  0
   -4.2330    9.9010   30.9420 O   0  0  0  0  0  0  0  0  0  0  0  0
   -3.5880    9.6450   31.6060 H   0  0  0  0  0  0  0  0  0  0  0  0
   -4.6130    7.4890   26.7590 O   0  0  0  0  0  0  0  0  0  0  0  0
   -5.9460    7.9390   26.4070 C   0  0  0  0  0  0  0  0  0  0  0  0
   -4.9140   12.5920   26.6050 O   0  0  0  0  0  0  0  0  0  0  0  0
   -5.1330   13.0870   25.8110 H   0  0  0  0  0  0  0  0  0  0  0  0
  1  4  1  1  0  0  0
  1 25  1  0  0  0  0
  2  1  1  0  0  0  0
  3  2  1  0  0  0  0
  5  7  1  0  0  0  0
  5  6  2  0  0  0  0
  7  4  1  0  0  0  0
  8  7  1  0  0  0  0
  9  5  1  0  0  0  0
 10  9  1  0  0  0  0
 11 12  1  0  0  0  0
 12 10  1  0  0  0  0
 13 12  2  0  0  0  0
 14 13  1  0  0  0  0
 15 14  1  0  0  0  0
 15 11  2  0  0  0  0
 16 14  1  0  0  0  0
 17 16  2  0  0  0  0
 18 17  1  0  0  0  0
 19 18  2  0  0  0  0
 19 21  1  0  0  0  0
 20 19  1  0  0  0  0
 21 23  2  0  0  0  0
 22 17  1  0  0  0  0
 23 16  1  0  0  0  0
 23 24  1  0  0  0  0
 25 44  1  6  0  0  0
 26 25  1  6  0  0  0
 26 31  1  0  0  0  0
 27 26  1  0  0  0  0
 27 28  1  0  0  0  0
 28 42  1  6  0  0  0
 28 29  1  0  0  0  0
 29 30  1  0  0  0  0
 30 40  1  1  0  0  0
 31 32  1  1  0  0  0
 31 30  1  0  0  0  0
 32 33  1  0  0  0  0
 32 34  1  0  0  0  0
 34 36  2  0  0  0  0
 35 34  1  0  0  0  0
 37 28  1  0  0  0  0
 37 38  1  0  0  0  0
 39 37  2  0  0  0  0
 40 41  1  0  0  0  0
 43 42  1  0  0  0  0
 45 44  1  0  0  0  0
M  END
>  <REMARK>
 VINA RESULT:    -5.705      0.000      0.000
 INTER + INTRA:         -12.255
 INTER:                  -9.983
 INTRA:                  -2.272
 UNBOUND:                -2.381
  Name = lig_assembled_7.pdb
  19 active torsions:
  status: ('A' for Active; 'I' for Inactive)
    1  A    between atoms: _2  and  _9
    2  A    between atoms: _4  and  _21
    3  A    between atoms: _5  and  _16
    4  A    between atoms: _6  and  _7
    5  A    between atoms: _6  and  _21
    6  A    between atoms: _10  and  _11
    7  A    between atoms: _13  and  _14
    8  A    between atoms: _17  and  _37
    9  A    between atoms: _19  and  _25
   10  A    between atoms: _20  and  _24
   11  A    between atoms: _24  and  _25
   12  A    between atoms: _27  and  _28
   13  A    between atoms: _29  and  _30
   14  A    between atoms: _31  and  _33
   15  A    between atoms: _33  and  _34
   16  A    between atoms: _33  and  _35
   17  A    between atoms: _35  and  _36
   18  A    between atoms: _35  and  _37
   19  A    between atoms: _38  and  _40
                            x       y       z     vdW  Elec       q    Type
                         _______ _______ _______ _____ _____    ______ ____

>  <TORSDO>
F 14

$$$$
lig_assembled_81.pdb
 OpenBabel07252309473D

 56 59  0  0  1  0  0  0  0  0999 V2000
   -3.9590    6.9610   23.3290 C   0  0  0  0  0  0  0  0  0  0  0  0
   -3.6380    7.6370   22.3490 O   0  0  0  0  0  0  0  0  0  0  0  0
   -5.2190    6.7720   23.7240 N   0  0  0  0  0  0  0  0  0  0  0  0
   -5.3820    6.1920   24.5350 H   0  0  0  0  0  0  0  0  0  0  0  0
   -2.9350    6.3270   24.1010 O   0  0  0  0  0  0  0  0  0  0  0  0
   -3.5200    5.6960   25.2440 C   0  0  0  0  0  0  0  0  0  0  0  0
   -1.9230    7.0520   26.5190 N   0  0  0  0  0  0  0  0  0  0  0  0
   -3.1180    6.3990   26.4790 C   0  0  2  0  0  0  0  0  0  0  0  0
   -3.7300    6.5210   27.7120 C   0  0  0  0  0  0  0  0  0  0  0  0
   -2.9140    7.3890   28.4250 N   0  0  0  0  0  0  0  0  0  0  0  0
   -1.7600    7.5240   27.7430 N   0  0  0  0  0  0  0  0  0  0  0  0
   -3.1110    7.9000   29.7520 C   0  0  0  0  0  0  0  0  0  0  0  0
   -3.2590    9.2660   30.0980 C   0  0  0  0  0  0  0  0  0  0  0  0
   -3.3580    9.4820   31.4980 C   0  0  0  0  0  0  0  0  0  0  0  0
   -3.2420    8.4610   32.3890 N   0  0  0  0  0  0  0  0  0  0  0  0
   -3.0780    7.2260   31.9440 C   0  0  0  0  0  0  0  0  0  0  0  0
   -2.8720    6.2230   32.8610 N   0  0  0  0  0  0  0  0  0  0  0  0
   -3.2240    6.4810   33.7710 H   0  0  0  0  0  0  0  0  0  0  0  0
   -3.1060    5.3170   32.4850 H   0  0  0  0  0  0  0  0  0  0  0  0
   -3.1030    6.8930   30.6680 N   0  0  0  0  0  0  0  0  0  0  0  0
   -3.5690   10.7910   32.2250 C   0  0  0  0  0  0  0  0  0  0  0  0
   -4.7660   11.1830   32.8530 C   0  0  0  0  0  0  0  0  0  0  0  0
   -4.8970   12.4100   33.5260 C   0  0  0  0  0  0  0  0  0  0  0  0
   -3.8180   13.2650   33.6480 C   0  0  0  0  0  0  0  0  0  0  0  0
   -2.5960   12.8960   33.0910 C   0  0  0  0  0  0  0  0  0  0  0  0
   -2.4870   11.6890   32.3850 C   0  0  0  0  0  0  0  0  0  0  0  0
   -3.4290   10.4740   29.1710 C   0  0  0  0  0  0  0  0  0  0  0  0
   -4.8030   10.9240   28.7120 C   0  0  0  0  0  0  0  0  0  0  0  0
   -5.3640   12.0500   29.3960 O   0  0  0  0  0  0  0  0  0  0  0  0
   -4.3260   13.0490   29.4480 C   0  0  0  0  0  0  0  0  0  0  0  0
   -4.7540   14.2580   30.2470 C   0  0  0  0  0  0  0  0  0  0  0  0
   -6.3810    7.3590   23.0470 C   0  0  0  0  0  0  0  0  0  0  0  0
   -6.8760    8.6170   23.7540 C   0  0  1  0  0  0  0  0  0  0  0  0
   -6.2600    8.7270   25.0480 O   0  0  0  0  0  0  0  0  0  0  0  0
   -6.5700    9.5250   25.4830 H   0  0  0  0  0  0  0  0  0  0  0  0
   -6.5620    9.8500   22.8890 C   0  0  2  0  0  0  0  0  0  0  0  0
   -5.1680   10.4230   23.1830 C   0  0  2  0  0  0  0  0  0  0  0  0
   -5.2840   11.3180   24.3230 O   0  0  0  0  0  0  0  0  0  0  0  0
   -4.0240   11.8810   24.8180 C   0  0  2  0  0  0  0  0  0  0  0  0
   -3.2620   12.5900   23.6710 C   0  0  0  0  0  0  0  0  0  0  0  0
   -3.1410   11.6880   22.4250 C   0  0  1  0  0  0  0  0  0  0  0  0
   -4.5090   11.1550   21.9990 C   0  0  1  0  0  0  0  0  0  0  0  0
   -4.3710   10.2280   20.8650 N   0  0  0  0  0  0  0  0  0  0  0  0
   -3.9000    9.3490   21.0280 H   0  0  0  0  0  0  0  0  0  0  0  0
   -4.8260   10.4730   19.6330 C   0  0  0  0  0  0  0  0  0  0  0  0
   -5.5150   11.8320   19.4100 C   0  0  0  0  0  0  0  0  0  0  0  0
   -4.7090    9.6720   18.7050 O   0  0  0  0  0  0  0  0  0  0  0  0
   -3.1320   10.7780   25.4250 C   0  0  0  0  0  0  0  0  0  0  0  0
   -3.6120    9.6830   25.7150 O   0  0  0  0  0  0  0  0  0  0  0  0
   -1.9350   10.9830   25.6250 O   0  0  0  0  0  0  0  0  0  0  0  0
   -4.3410   12.8670   25.8340 O   0  0  0  0  0  0  0  0  0  0  0  0
   -5.6440   13.4880   25.6980 C   0  0  0  0  0  0  0  0  0  0  0  0
   -2.5690   12.4300   21.3470 O   0  0  0  0  0  0  0  0  0  0  0  0
   -1.6900   12.7270   21.5930 H   0  0  0  0  0  0  0  0  0  0  0  0
   -7.5680   10.8630   23.0860 O   0  0  0  0  0  0  0  0  0  0  0  0
   -8.3820   10.5950   22.6560 H   0  0  0  0  0  0  0  0  0  0  0  0
  1  3  1  0  0  0  0
  1  5  1  0  0  0  0
  2  1  2  0  0  0  0
  3  4  1  0  0  0  0
  5  6  1  0  0  0  0
  7 11  1  0  0  0  0
  8  6  1  1  0  0  0
  8  7  1  0  0  0  0
  8  9  1  0  0  0  0
  9 10  1  0  0  0  0
 10 12  1  0  0  0  0
 11 10  1  0  0  0  0
 12 13  1  0  0  0  0
 12 20  2  0  0  0  0
 13 14  2  0  0  0  0
 14 21  1  0  0  0  0
 14 15  1  0  0  0  0
 16 15  2  0  0  0  0
 16 17  1  0  0  0  0
 17 18  1  0  0  0  0
 19 17  1  0  0  0  0
 20 16  1  0  0  0  0
 21 26  2  0  0  0  0
 21 22  1  0  0  0  0
 22 23  2  0  0  0  0
 23 24  1  0  0  0  0
 25 24  2  0  0  0  0
 26 25  1  0  0  0  0
 27 13  1  0  0  0  0
 28 27  1  0  0  0  0
 28 29  1  0  0  0  0
 29 30  1  0  0  0  0
 30 31  1  0  0  0  0
 32  3  1  0  0  0  0
 33 32  1  6  0  0  0
 33 34  1  0  0  0  0
 34 35  1  0  0  0  0
 36 55  1  1  0  0  0
 36 33  1  0  0  0  0
 37 36  1  6  0  0  0
 37 38  1  0  0  0  0
 38 39  1  0  0  0  0
 39 48  1  1  0  0  0
 39 51  1  0  0  0  0
 40 39  1  0  0  0  0
 41 53  1  6  0  0  0
 41 40  1  0  0  0  0
 42 43  1  6  0  0  0
 42 41  1  0  0  0  0
 42 37  1  0  0  0  0
 43 44  1  0  0  0  0
 45 43  1  0  0  0  0
 46 45  1  0  0  0  0
 47 45  2  0  0  0  0
 48 50  2  0  0  0  0
 48 49  1  0  0  0  0
 52 51  1  0  0  0  0
 53 54  1  0  0  0  0
 56 55  1  0  0  0  0
M  END
>  <REMARK>
 VINA RESULT:    -5.731      0.000      0.000
 INTER + INTRA:         -15.382
 INTER:                 -10.355
 INTRA:                  -5.027
 UNBOUND:                -3.788
  Name = lig_assembled_81.pdb
  22 active torsions:
  status: ('A' for Active; 'I' for Inactive)
    1  A    between atoms: _2  and  _12
    2  A    between atoms: _7  and  _30
    3  A    between atoms: _8  and  _24
    4  A    between atoms: _9  and  _10
    5  A    between atoms: _9  and  _30
    6  A    between atoms: _14  and  _15
    7  A    between atoms: _21  and  _22
    8  A    between atoms: _22  and  _23
    9  A    between atoms: _23  and  _25
   10  A    between atoms: _24  and  _25
   11  A    between atoms: _26  and  _46
   12  A    between atoms: _28  and  _34
   13  A    between atoms: _29  and  _33
   14  A    between atoms: _33  and  _34
   15  A    between atoms: _36  and  _37
   16  A    between atoms: _38  and  _39
   17  A    between atoms: _40  and  _42
   18  A    between atoms: _42  and  _43
   19  A    between atoms: _42  and  _44
   20  A    between atoms: _44  and  _45
   21  A    between atoms: _44  and  _46
   22  A    between atoms: _47  and  _49
                            x       y       z     vdW  Elec       q    Type
                         _______ _______ _______ _____ _____    ______ ____

>  <TORSDO>
F 19

$$$$
lig_assembled_82.pdb
 OpenBabel07252309473D

 46 49  0  0  1  0  0  0  0  0999 V2000
   -4.4720   11.5330   28.2420 C   0  0  2  0  0  0  0  0  0  0  0  0
   -5.4200   10.5180   27.8720 O   0  0  0  0  0  0  0  0  0  0  0  0
   -5.8710   10.7800   27.0660 H   0  0  0  0  0  0  0  0  0  0  0  0
   -3.0580   11.0750   27.9020 C   0  0  0  0  0  0  0  0  0  0  0  0
   -2.0530    9.1790   26.6760 C   0  0  0  0  0  0  0  0  0  0  0  0
   -1.0760    9.8250   26.2910 O   0  0  0  0  0  0  0  0  0  0  0  0
   -3.0320    9.6860   27.4280 N   0  0  0  0  0  0  0  0  0  0  0  0
   -3.7980    9.0800   27.6850 H   0  0  0  0  0  0  0  0  0  0  0  0
   -2.1690    7.8040   26.3020 O   0  0  0  0  0  0  0  0  0  0  0  0
   -3.5430    7.4870   26.0660 C   0  0  0  0  0  0  0  0  0  0  0  0
   -3.3730    7.2130   23.6130 N   0  0  0  0  0  0  0  0  0  0  0  0
   -3.9350    7.8410   24.6990 C   0  0  0  0  0  0  0  0  0  0  0  0
   -4.8410    8.7800   24.2390 C   0  0  0  0  0  0  0  0  0  0  0  0
   -4.6830    8.7600   22.8820 N   0  0  0  0  0  0  0  0  0  0  0  0
   -3.8670    7.7560   22.5100 N   0  0  0  0  0  0  0  0  0  0  0  0
   -5.1950    9.7100   21.8910 C   0  0  0  0  0  0  0  0  0  0  0  0
   -4.5040   11.0500   21.9600 C   0  0  0  0  0  0  0  0  0  0  0  0
   -5.1850   12.1470   22.7150 C   0  0  1  0  0  0  0  0  0  0  0  0
   -4.2860   13.1710   23.5440 C   0  0  0  0  0  0  0  0  0  0  0  0
   -2.9610   12.9730   24.2910 C   0  0  0  0  0  0  0  0  0  0  0  0
   -3.9870   13.7490   22.0820 C   0  0  1  0  0  0  0  0  0  0  0  0
   -2.9980   12.8910   21.2310 C   0  0  0  0  0  0  0  0  0  0  0  0
   -5.2690   13.7800   24.5730 C   0  0  0  0  0  0  0  0  0  0  0  0
   -5.4500   13.3630   21.7390 C   0  0  0  0  0  0  0  0  0  0  0  0
   -3.4150   11.4290   21.2650 C   0  0  0  0  0  0  0  0  0  0  0  0
   -4.5630   11.8480   29.7460 C   0  0  2  0  0  0  0  0  0  0  0  0
   -4.1620   10.6460   30.6130 C   0  0  2  0  0  0  0  0  0  0  0  0
   -5.3180    9.7710   30.7270 O   0  0  0  0  0  0  0  0  0  0  0  0
   -5.0910    8.5100   31.4380 C   0  0  2  0  0  0  0  0  0  0  0  0
   -4.4990    8.7790   32.8430 C   0  0  0  0  0  0  0  0  0  0  0  0
   -3.2860    9.7310   32.7760 C   0  0  1  0  0  0  0  0  0  0  0  0
   -3.6320   11.0090   32.0130 C   0  0  1  0  0  0  0  0  0  0  0  0
   -2.4450   11.8690   31.8810 N   0  0  0  0  0  0  0  0  0  0  0  0
   -1.6470   11.4980   31.3840 H   0  0  0  0  0  0  0  0  0  0  0  0
   -2.3530   13.1060   32.3750 C   0  0  0  0  0  0  0  0  0  0  0  0
   -3.5770   13.6330   33.1490 C   0  0  0  0  0  0  0  0  0  0  0  0
   -1.3510   13.8090   32.2360 O   0  0  0  0  0  0  0  0  0  0  0  0
   -4.1350    7.5970   30.6420 C   0  0  0  0  0  0  0  0  0  0  0  0
   -3.3040    6.9060   31.2300 O   0  0  0  0  0  0  0  0  0  0  0  0
   -4.1940    7.5520   29.4130 O   0  0  0  0  0  0  0  0  0  0  0  0
   -6.3730    7.8490   31.6010 O   0  0  0  0  0  0  0  0  0  0  0  0
   -7.5130    8.7400   31.6950 C   0  0  0  0  0  0  0  0  0  0  0  0
   -2.8670   10.0710   34.0990 O   0  0  0  0  0  0  0  0  0  0  0  0
   -1.9690   10.4090   34.0740 H   0  0  0  0  0  0  0  0  0  0  0  0
   -5.8960   12.2810   30.0830 O   0  0  0  0  0  0  0  0  0  0  0  0
   -6.3440   12.5870   29.2900 H   0  0  0  0  0  0  0  0  0  0  0  0
  1  4  1  1  0  0  0
  1 26  1  0  0  0  0
  2  1  1  0  0  0  0
  3  2  1  0  0  0  0
  5  7  1  0  0  0  0
  6  5  2  0  0  0  0
  7  8  1  0  0  0  0
  7  4  1  0  0  0  0
  9  5  1  0  0  0  0
 10  9  1  0  0  0  0
 11 12  1  0  0  0  0
 12 10  1  0  0  0  0
 13 12  2  0  0  0  0
 14 13  1  0  0  0  0
 15 14  1  0  0  0  0
 15 11  2  0  0  0  0
 16 17  1  0  0  0  0
 16 14  1  0  0  0  0
 17 18  1  0  0  0  0
 18 24  1  6  0  0  0
 18 19  1  0  0  0  0
 19 20  1  0  0  0  0
 19 23  1  0  0  0  0
 21 22  1  6  0  0  0
 21 19  1  0  0  0  0
 22 25  1  0  0  0  0
 24 21  1  0  0  0  0
 25 17  2  0  0  0  0
 26 45  1  1  0  0  0
 27 26  1  1  0  0  0
 27 28  1  0  0  0  0
 27 32  1  0  0  0  0
 28 29  1  0  0  0  0
 29 38  1  6  0  0  0
 29 41  1  0  0  0  0
 29 30  1  0  0  0  0
 31 30  1  0  0  0  0
 31 43  1  1  0  0  0
 32 33  1  6  0  0  0
 32 31  1  0  0  0  0
 33 35  1  0  0  0  0
 34 33  1  0  0  0  0
 35 36  1  0  0  0  0
 37 35  2  0  0  0  0
 38 39  1  0  0  0  0
 40 38  2  0  0  0  0
 41 42  1  0  0  0  0
 44 43  1  0  0  0  0
 46 45  1  0  0  0  0
M  END
>  <REMARK>
 VINA RESULT:    -5.839      0.000      0.000
 INTER + INTRA:         -13.036
 INTER:                 -10.359
 INTRA:                  -2.677
 UNBOUND:                -2.589
  Name = lig_assembled_82.pdb
  19 active torsions:
  status: ('A' for Active; 'I' for Inactive)
    1  A    between atoms: _2  and  _9
    2  A    between atoms: _4  and  _22
    3  A    between atoms: _5  and  _16
    4  A    between atoms: _6  and  _7
    5  A    between atoms: _6  and  _22
    6  A    between atoms: _9  and  _10
    7  A    between atoms: _16  and  _17
    8  A    between atoms: _18  and  _38
    9  A    between atoms: _20  and  _26
   10  A    between atoms: _21  and  _25
   11  A    between atoms: _25  and  _26
   12  A    between atoms: _28  and  _29
   13  A    between atoms: _30  and  _31
   14  A    between atoms: _32  and  _34
   15  A    between atoms: _34  and  _35
   16  A    between atoms: _34  and  _36
   17  A    between atoms: _36  and  _37
   18  A    between atoms: _36  and  _38
   19  A    between atoms: _39  and  _41
                            x       y       z     vdW  Elec       q    Type
                         _______ _______ _______ _____ _____    ______ ____

>  <TORSDO>
F 15

$$$$
lig_assembled_83.pdb
 OpenBabel07252309473D

 49 51  0  0  1  0  0  0  0  0999 V2000
   -3.4000   13.1820   24.0200 C   0  0  0  0  0  0  0  0  0  0  0  0
   -4.3150   13.1840   21.7250 C   0  0  0  0  0  0  0  0  0  0  0  0
   -3.2120   13.3030   21.1850 O   0  0  0  0  0  0  0  0  0  0  0  0
   -4.4960   13.1260   23.0450 N   0  0  0  0  0  0  0  0  0  0  0  0
   -5.4400   13.0370   23.3930 H   0  0  0  0  0  0  0  0  0  0  0  0
   -5.4840   13.1060   20.9060 O   0  0  0  0  0  0  0  0  0  0  0  0
   -6.1690   11.8780   21.1660 C   0  0  0  0  0  0  0  0  0  0  0  0
   -4.8440    9.9500   20.3330 N   0  0  0  0  0  0  0  0  0  0  0  0
   -5.8390   10.8740   20.1380 C   0  0  0  0  0  0  0  0  0  0  0  0
   -6.3990   10.6730   18.8970 C   0  0  0  0  0  0  0  0  0  0  0  0
   -5.7140    9.6070   18.3980 N   0  0  0  0  0  0  0  0  0  0  0  0
   -4.7720    9.1810   19.2540 N   0  0  0  0  0  0  0  0  0  0  0  0
   -5.8780    8.9750   17.1060 C   0  0  0  0  0  0  0  0  0  0  0  0
   -4.5440    8.8290   16.3690 C   0  0  1  0  0  0  0  0  0  0  0  0
   -3.8490    7.6710   16.8440 O   0  0  0  0  0  0  0  0  0  0  0  0
   -3.2280    7.9260   17.5550 H   0  0  0  0  0  0  0  0  0  0  0  0
   -4.7760    8.7270   14.8530 C   0  0  0  0  0  0  0  0  0  0  0  0
   -3.7950    9.4800   14.0870 N   0  0  0  0  0  0  0  0  0  0  0  0
   -3.8670   10.8410   13.8930 C   0  0  0  0  0  0  0  0  0  0  0  0
   -2.7540   11.1680   13.1550 C   0  0  0  0  0  0  0  0  0  0  0  0
   -2.0180   10.0510   12.8640 N   0  0  0  0  0  0  0  0  0  0  0  0
   -2.6610    9.0520   13.4400 C   0  0  0  0  0  0  0  0  0  0  0  0
   -2.1890    7.6870   13.3760 N   0  0  0  0  0  0  0  0  0  0  0  0
   -2.8630    6.8170   13.9510 O   0  0  0  0  0  0  0  0  0  0  0  0
   -1.1500    7.4710   12.7400 O   0  0  0  0  0  0  0  0  0  0  0  0
   -2.8270   11.8000   24.3130 C   0  0  1  0  0  0  0  0  0  0  0  0
   -2.0410   11.8380   25.5150 O   0  0  0  0  0  0  0  0  0  0  0  0
   -1.3350   12.4810   25.4160 H   0  0  0  0  0  0  0  0  0  0  0  0
   -3.9750   10.7840   24.4390 C   0  0  2  0  0  0  0  0  0  0  0  0
   -3.8780    9.9590   25.7300 C   0  0  2  0  0  0  0  0  0  0  0  0
   -2.9150    8.8930   25.5090 O   0  0  0  0  0  0  0  0  0  0  0  0
   -2.6110    8.0600   26.6770 C   0  0  2  0  0  0  0  0  0  0  0  0
   -3.9130    7.4730   27.2760 C   0  0  0  0  0  0  0  0  0  0  0  0
   -4.9800    8.5650   27.4990 C   0  0  1  0  0  0  0  0  0  0  0  0
   -5.2150    9.3720   26.2220 C   0  0  1  0  0  0  0  0  0  0  0  0
   -6.1690   10.4650   26.4710 N   0  0  0  0  0  0  0  0  0  0  0  0
   -5.9200   11.1600   27.1610 H   0  0  0  0  0  0  0  0  0  0  0  0
   -7.3410   10.5970   25.8460 C   0  0  0  0  0  0  0  0  0  0  0  0
   -7.7020    9.5060   24.8190 C   0  0  0  0  0  0  0  0  0  0  0  0
   -8.1140   11.5300   26.0640 O   0  0  0  0  0  0  0  0  0  0  0  0
   -1.8710    8.8790   27.7550 C   0  0  0  0  0  0  0  0  0  0  0  0
   -1.0540    9.7390   27.4280 O   0  0  0  0  0  0  0  0  0  0  0  0
   -2.0900    8.6790   28.9500 O   0  0  0  0  0  0  0  0  0  0  0  0
   -1.7730    6.9600   26.2380 O   0  0  0  0  0  0  0  0  0  0  0  0
   -2.4790    5.8760   25.5820 C   0  0  0  0  0  0  0  0  0  0  0  0
   -6.2080    7.9620   27.9070 O   0  0  0  0  0  0  0  0  0  0  0  0
   -6.8940    8.6320   27.9550 H   0  0  0  0  0  0  0  0  0  0  0  0
   -3.9930    9.9100   23.2920 O   0  0  0  0  0  0  0  0  0  0  0  0
   -3.0930    9.6830   23.0480 H   0  0  0  0  0  0  0  0  0  0  0  0
  2  4  1  0  0  0  0
  3  2  2  0  0  0  0
  4  5  1  0  0  0  0
  4  1  1  0  0  0  0
  6  7  1  0  0  0  0
  6  2  1  0  0  0  0
  9  8  1  0  0  0  0
  9  7  1  0  0  0  0
 10  9  2  0  0  0  0
 11 10  1  0  0  0  0
 11 12  1  0  0  0  0
 12  8  2  0  0  0  0
 13 11  1  0  0  0  0
 14 17  1  6  0  0  0
 14 15  1  0  0  0  0
 14 13  1  0  0  0  0
 15 16  1  0  0  0  0
 18 17  1  0  0  0  0
 19 18  1  0  0  0  0
 20 19  2  0  0  0  0
 21 20  1  0  0  0  0
 21 22  2  0  0  0  0
 22 18  1  0  0  0  0
 23 22  1  0  0  0  0
 23 24  2  0  0  0  0
 25 23  2  0  0  0  0
 26  1  1  1  0  0  0
 26 29  1  0  0  0  0
 26 27  1  0  0  0  0
 28 27  1  0  0  0  0
 29 48  1  6  0  0  0
 30 29  1  6  0  0  0
 30 35  1  0  0  0  0
 31 30  1  0  0  0  0
 31 32  1  0  0  0  0
 32 44  1  6  0  0  0
 32 33  1  0  0  0  0
 32 41  1  0  0  0  0
 33 34  1  0  0  0  0
 34 46  1  6  0  0  0
 35 36  1  1  0  0  0
 35 34  1  0  0  0  0
 36 37  1  0  0  0  0
 38 40  2  0  0  0  0
 38 36  1  0  0  0  0
 39 38  1  0  0  0  0
 41 43  1  0  0  0  0
 42 41  2  0  0  0  0
 45 44  1  0  0  0  0
 46 47  1  0  0  0  0
 49 48  1  0  0  0  0
M  END
>  <REMARK>
 VINA RESULT:    -4.879      0.000      0.000
 INTER + INTRA:         -13.526
 INTER:                 -10.242
 INTRA:                  -3.283
 UNBOUND:                -4.083
  Name = lig_assembled_83.pdb
  20 active torsions:
  status: ('A' for Active; 'I' for Inactive)
    1  A    between atoms: _2  and  _12
    2  A    between atoms: _3  and  _14
    3  A    between atoms: _7  and  _24
    4  A    between atoms: _9  and  _10
    5  A    between atoms: _9  and  _24
    6  A    between atoms: _12  and  _13
    7  A    between atoms: _13  and  _14
    8  A    between atoms: _13  and  _18
    9  A    between atoms: _20  and  _40
   10  A    between atoms: _22  and  _28
   11  A    between atoms: _23  and  _27
   12  A    between atoms: _27  and  _28
   13  A    between atoms: _30  and  _31
   14  A    between atoms: _32  and  _33
   15  A    between atoms: _34  and  _36
   16  A    between atoms: _36  and  _37
   17  A    between atoms: _36  and  _38
   18  A    between atoms: _38  and  _39
   19  A    between atoms: _38  and  _40
   20  A    between atoms: _41  and  _43
                            x       y       z     vdW  Elec       q    Type
                         _______ _______ _______ _____ _____    ______ ____

>  <TORSDO>
F 18

$$$$
lig_assembled_84.pdb
 OpenBabel07252309473D

 53 56  0  0  1  0  0  0  0  0999 V2000
   -4.1110    7.0580   23.3430 C   0  0  0  0  0  0  0  0  0  0  0  0
   -3.8550    7.7710   22.3700 O   0  0  0  0  0  0  0  0  0  0  0  0
   -5.3340    6.8980   23.8490 N   0  0  0  0  0  0  0  0  0  0  0  0
   -5.4450    6.2840   24.6440 H   0  0  0  0  0  0  0  0  0  0  0  0
   -3.0470    6.3470   23.9820 O   0  0  0  0  0  0  0  0  0  0  0  0
   -3.5180    5.7820   25.2080 C   0  0  0  0  0  0  0  0  0  0  0  0
   -1.9440    7.3760   26.2690 N   0  0  0  0  0  0  0  0  0  0  0  0
   -3.0500    6.5720   26.3620 C   0  0  0  0  0  0  0  0  0  0  0  0
   -3.5440    6.6350   27.6460 C   0  0  0  0  0  0  0  0  0  0  0  0
   -2.6580    7.4380   28.3000 N   0  0  0  0  0  0  0  0  0  0  0  0
   -1.7120    7.9010   27.4650 N   0  0  0  0  0  0  0  0  0  0  0  0
   -2.5760    7.6920   29.7250 C   0  0  0  0  0  0  0  0  0  0  0  0
   -3.8870    7.4440   30.4900 C   0  0  1  0  0  0  0  0  0  0  0  0
   -3.6200    6.8010   31.8590 C   0  0  0  0  0  0  0  0  0  0  0  0
   -4.6700    8.7620   30.7020 C   0  0  0  0  0  0  0  0  0  0  0  0
   -3.8880    9.9980   30.5540 N   0  0  0  0  0  0  0  0  0  0  0  0
   -3.5380   10.5420   31.8930 C   0  0  0  0  0  0  0  0  0  0  0  0
   -2.6430   11.7940   31.7850 C   0  0  0  0  0  0  0  0  0  0  0  0
   -3.3280   12.8240   30.9950 N   0  0  0  0  0  0  0  0  0  0  0  0
   -3.7710   12.3740   29.6680 C   0  0  0  0  0  0  0  0  0  0  0  0
   -4.5970   11.0600   29.7960 C   0  0  0  0  0  0  0  0  0  0  0  0
   -3.4910   14.1150   31.4410 C   0  0  0  0  0  0  0  0  0  0  0  0
   -4.1360   15.0850   30.6530 C   0  0  0  0  0  0  0  0  0  0  0  0
   -4.2880   16.4100   31.0790 C   0  0  0  0  0  0  0  0  0  0  0  0
   -3.7990   16.7910   32.3170 C   0  0  0  0  0  0  0  0  0  0  0  0
   -3.9760   18.4180   32.8460 Cl  0  0  0  0  0  0  0  0  0  0  0  0
   -3.1570   15.8620   33.1290 C   0  0  0  0  0  0  0  0  0  0  0  0
   -3.0060   14.5400   32.6870 C   0  0  0  0  0  0  0  0  0  0  0  0
   -6.5290    7.5630   23.3160 C   0  0  0  0  0  0  0  0  0  0  0  0
   -6.9320    8.7690   24.1590 C   0  0  1  0  0  0  0  0  0  0  0  0
   -6.2060    8.7670   25.3990 O   0  0  0  0  0  0  0  0  0  0  0  0
   -5.9020    7.8760   25.5910 H   0  0  0  0  0  0  0  0  0  0  0  0
   -6.6650   10.0610   23.3670 C   0  0  2  0  0  0  0  0  0  0  0  0
   -5.2860   10.6570   23.6830 C   0  0  2  0  0  0  0  0  0  0  0  0
   -5.4490   11.6100   24.7700 O   0  0  0  0  0  0  0  0  0  0  0  0
   -4.2110   12.2060   25.2810 C   0  0  2  0  0  0  0  0  0  0  0  0
   -3.4090   12.8590   24.1290 C   0  0  0  0  0  0  0  0  0  0  0  0
   -3.2370   11.8950   22.9360 C   0  0  1  0  0  0  0  0  0  0  0  0
   -4.5860   11.3310   22.4880 C   0  0  1  0  0  0  0  0  0  0  0  0
   -4.4010   10.3480   21.4090 N   0  0  0  0  0  0  0  0  0  0  0  0
   -3.8240    9.5410   21.6010 H   0  0  0  0  0  0  0  0  0  0  0  0
   -4.9450   10.4520   20.1940 C   0  0  0  0  0  0  0  0  0  0  0  0
   -5.7980   11.7060   19.9260 C   0  0  0  0  0  0  0  0  0  0  0  0
   -4.7850    9.6050   19.3140 O   0  0  0  0  0  0  0  0  0  0  0  0
   -3.3380   11.1420   25.9780 C   0  0  0  0  0  0  0  0  0  0  0  0
   -2.1120   11.2410   25.9660 O   0  0  0  0  0  0  0  0  0  0  0  0
   -3.8600   10.1850   26.5520 O   0  0  0  0  0  0  0  0  0  0  0  0
   -4.5710   13.2420   26.2320 O   0  0  0  0  0  0  0  0  0  0  0  0
   -5.9540   13.2200   26.6660 C   0  0  0  0  0  0  0  0  0  0  0  0
   -2.6290   12.5830   21.8430 O   0  0  0  0  0  0  0  0  0  0  0  0
   -1.7190   12.7960   22.0650 H   0  0  0  0  0  0  0  0  0  0  0  0
   -7.6990   11.0290   23.6350 O   0  0  0  0  0  0  0  0  0  0  0  0
   -8.4350   10.5990   24.0760 H   0  0  0  0  0  0  0  0  0  0  0  0
  1  3  1  0  0  0  0
  1  5  1  0  0  0  0
  2  1  2  0  0  0  0
  3  4  1  0  0  0  0
  5  6  1  0  0  0  0
  6  8  1  0  0  0  0
  7  8  1  0  0  0  0
  7 11  2  0  0  0  0
  8  9  2  0  0  0  0
  9 10  1  0  0  0  0
 10 12  1  0  0  0  0
 11 10  1  0  0  0  0
 12 13  1  0  0  0  0
 13 15  1  0  0  0  0
 13 14  1  1  0  0  0
 16 15  1  0  0  0  0
 16 17  1  0  0  0  0
 18 17  1  0  0  0  0
 19 22  1  0  0  0  0
 19 18  1  0  0  0  0
 20 21  1  0  0  0  0
 20 19  1  0  0  0  0
 21 16  1  0  0  0  0
 22 28  2  0  0  0  0
 23 24  2  0  0  0  0
 23 22  1  0  0  0  0
 24 25  1  0  0  0  0
 25 26  1  0  0  0  0
 25 27  2  0  0  0  0
 28 27  1  0  0  0  0
 29  3  1  0  0  0  0
 30 29  1  6  0  0  0
 30 31  1  0  0  0  0
 31 32  1  0  0  0  0
 33 52  1  1  0  0  0
 33 30  1  0  0  0  0
 34 33  1  6  0  0  0
 34 35  1  0  0  0  0
 35 36  1  0  0  0  0
 36 45  1  1  0  0  0
 36 48  1  0  0  0  0
 37 36  1  0  0  0  0
 38 50  1  6  0  0  0
 38 37  1  0  0  0  0
 39 40  1  6  0  0  0
 39 38  1  0  0  0  0
 39 34  1  0  0  0  0
 40 41  1  0  0  0  0
 42 40  1  0  0  0  0
 43 42  1  0  0  0  0
 44 42  2  0  0  0  0
 45 47  1  0  0  0  0
 46 45  2  0  0  0  0
 48 49  1  0  0  0  0
 50 51  1  0  0  0  0
 52 53  1  0  0  0  0
M  END
>  <REMARK>
 VINA RESULT:    -5.631      0.000      0.000
 INTER + INTRA:         -14.364
 INTER:                 -10.133
 INTRA:                  -4.231
 UNBOUND:                -3.302
  Name = lig_assembled_84.pdb
  21 active torsions:
  status: ('A' for Active; 'I' for Inactive)
    1  A    between atoms: _2  and  _11
    2  A    between atoms: _3  and  _14
    3  A    between atoms: _4  and  _17
    4  A    between atoms: _6  and  _28
    5  A    between atoms: _8  and  _9
    6  A    between atoms: _8  and  _28
    7  A    between atoms: _11  and  _12
    8  A    between atoms: _12  and  _13
    9  A    between atoms: _12  and  _14
   10  A    between atoms: _24  and  _44
   11  A    between atoms: _26  and  _32
   12  A    between atoms: _27  and  _31
   13  A    between atoms: _31  and  _32
   14  A    between atoms: _34  and  _35
   15  A    between atoms: _36  and  _37
   16  A    between atoms: _38  and  _40
   17  A    between atoms: _40  and  _41
   18  A    between atoms: _40  and  _42
   19  A    between atoms: _42  and  _43
   20  A    between atoms: _42  and  _44
   21  A    between atoms: _45  and  _47
                            x       y       z     vdW  Elec       q    Type
                         _______ _______ _______ _____ _____    ______ ____

>  <TORSDO>
F 18

$$$$
lig_assembled_85.pdb
 OpenBabel07252309473D

 48 50  0  0  1  0  0  0  0  0999 V2000
   -4.1610   12.5590   21.0500 C   0  0  0  0  0  0  0  0  0  0  0  0
   -6.0750   12.4180   19.4940 C   0  0  0  0  0  0  0  0  0  0  0  0
   -6.8090   13.1310   20.1830 O   0  0  0  0  0  0  0  0  0  0  0  0
   -4.8250   12.0940   19.8260 N   0  0  0  0  0  0  0  0  0  0  0  0
   -4.3050   11.4950   19.2010 H   0  0  0  0  0  0  0  0  0  0  0  0
   -6.5750   11.8910   18.2620 O   0  0  0  0  0  0  0  0  0  0  0  0
   -5.5270   11.2000   17.5770 C   0  0  0  0  0  0  0  0  0  0  0  0
   -6.1200   12.6630   15.6790 N   0  0  0  0  0  0  0  0  0  0  0  0
   -5.1910   11.8980   16.3240 C   0  0  0  0  0  0  0  0  0  0  0  0
   -3.9930   11.9700   15.6500 C   0  0  0  0  0  0  0  0  0  0  0  0
   -4.2420   12.8040   14.5880 N   0  0  0  0  0  0  0  0  0  0  0  0
   -5.5260   13.2320   14.6390 N   0  0  0  0  0  0  0  0  0  0  0  0
   -3.3580   13.2950   13.6020 C   0  0  0  0  0  0  0  0  0  0  0  0
   -2.6360   12.4810   12.7150 C   0  0  0  0  0  0  0  0  0  0  0  0
   -1.6070   13.0880   11.9570 C   0  0  0  0  0  0  0  0  0  0  0  0
   -1.3220   14.4540   12.0560 C   0  0  0  0  0  0  0  0  0  0  0  0
   -2.0950   15.2530   12.8840 C   0  0  0  0  0  0  0  0  0  0  0  0
   -1.7370   16.9270   13.0460 Cl  0  0  0  0  0  0  0  0  0  0  0  0
   -3.1240   14.6890   13.6330 C   0  0  0  0  0  0  0  0  0  0  0  0
   -2.7470   11.0070   12.5030 C   0  0  0  0  0  0  0  0  0  0  0  0
   -1.8270   10.3410   12.9840 O   0  0  0  0  0  0  0  0  0  0  0  0
   -3.7670   10.4000   11.7620 N   0  0  0  0  0  0  0  0  0  0  0  0
   -4.9810   11.0140   11.2420 C   0  0  0  0  0  0  0  0  0  0  0  0
   -3.7090    8.9460   11.6510 C   0  0  0  0  0  0  0  0  0  0  0  0
   -3.9870   11.4340   22.0650 C   0  0  1  0  0  0  0  0  0  0  0  0
   -3.6050   10.2220   21.3950 O   0  0  0  0  0  0  0  0  0  0  0  0
   -3.0150    9.7160   21.9590 H   0  0  0  0  0  0  0  0  0  0  0  0
   -2.9310   11.8420   23.1080 C   0  0  2  0  0  0  0  0  0  0  0  0
   -3.2720   11.3170   24.5110 C   0  0  2  0  0  0  0  0  0  0  0  0
   -3.0970    9.8730   24.5020 O   0  0  0  0  0  0  0  0  0  0  0  0
   -3.2770    9.2050   25.7950 C   0  0  2  0  0  0  0  0  0  0  0  0
   -4.6570    9.5620   26.4000 C   0  0  0  0  0  0  0  0  0  0  0  0
   -4.9010   11.0860   26.4020 C   0  0  1  0  0  0  0  0  0  0  0  0
   -4.6840   11.6780   25.0090 C   0  0  1  0  0  0  0  0  0  0  0  0
   -4.8350   13.1410   25.0410 N   0  0  0  0  0  0  0  0  0  0  0  0
   -4.1370   13.6760   25.5380 H   0  0  0  0  0  0  0  0  0  0  0  0
   -5.8330   13.8080   24.4560 C   0  0  0  0  0  0  0  0  0  0  0  0
   -6.8950   12.9610   23.7280 C   0  0  0  0  0  0  0  0  0  0  0  0
   -5.9260   15.0350   24.4870 O   0  0  0  0  0  0  0  0  0  0  0  0
   -2.1610    9.6110   26.7800 C   0  0  0  0  0  0  0  0  0  0  0  0
   -2.4070    9.7330   27.9790 O   0  0  0  0  0  0  0  0  0  0  0  0
   -1.0160    9.8140   26.3760 O   0  0  0  0  0  0  0  0  0  0  0  0
   -6.2380   11.3590   26.8250 O   0  0  0  0  0  0  0  0  0  0  0  0
   -6.6210   10.5660   27.2080 H   0  0  0  0  0  0  0  0  0  0  0  0
   -3.2330    7.7730   25.5690 O   0  0  0  0  0  0  0  0  0  0  0  0
   -3.9240    6.9750   26.5640 C   0  0  0  0  0  0  0  0  0  0  0  0
   -2.7890   13.2760   23.1360 O   0  0  0  0  0  0  0  0  0  0  0  0
   -1.9800   13.5270   22.6840 H   0  0  0  0  0  0  0  0  0  0  0  0
  2  4  1  0  0  0  0
  2  3  2  0  0  0  0
  4  1  1  0  0  0  0
  5  4  1  0  0  0  0
  6  2  1  0  0  0  0
  7  6  1  0  0  0  0
  8  9  1  0  0  0  0
  9  7  1  0  0  0  0
 10  9  2  0  0  0  0
 11 12  1  0  0  0  0
 11 10  1  0  0  0  0
 12  8  2  0  0  0  0
 13 19  1  0  0  0  0
 13 11  1  0  0  0  0
 14 13  2  0  0  0  0
 15 16  2  0  0  0  0
 15 14  1  0  0  0  0
 16 17  1  0  0  0  0
 17 18  1  0  0  0  0
 17 19  2  0  0  0  0
 20 14  1  0  0  0  0
 20 21  2  0  0  0  0
 22 20  1  0  0  0  0
 23 22  1  0  0  0  0
 24 22  1  0  0  0  0
 25  1  1  6  0  0  0
 25 28  1  0  0  0  0
 26 27  1  0  0  0  0
 26 25  1  0  0  0  0
 28 47  1  1  0  0  0
 29 28  1  6  0  0  0
 29 34  1  0  0  0  0
 30 29  1  0  0  0  0
 30 31  1  0  0  0  0
 31 45  1  6  0  0  0
 31 32  1  0  0  0  0
 31 40  1  0  0  0  0
 32 33  1  0  0  0  0
 33 43  1  6  0  0  0
 34 35  1  1  0  0  0
 34 33  1  0  0  0  0
 35 36  1  0  0  0  0
 37 39  2  0  0  0  0
 37 35  1  0  0  0  0
 38 37  1  0  0  0  0
 40 41  1  0  0  0  0
 42 40  2  0  0  0  0
 43 44  1  0  0  0  0
 45 46  1  0  0  0  0
 48 47  1  0  0  0  0
M  END
>  <REMARK>
 VINA RESULT:    -5.766      0.000      0.000
 INTER + INTRA:         -12.764
 INTER:                 -10.588
 INTRA:                  -2.175
 UNBOUND:                -2.447
  Name = lig_assembled_85.pdb
  19 active torsions:
  status: ('A' for Active; 'I' for Inactive)
    1  A    between atoms: _2  and  _10
    2  A    between atoms: _3  and  _6
    3  A    between atoms: _3  and  _17
    4  A    between atoms: _5  and  _23
    5  A    between atoms: _7  and  _8
    6  A    between atoms: _7  and  _23
    7  A    between atoms: _15  and  _16
    8  A    between atoms: _19  and  _39
    9  A    between atoms: _21  and  _27
   10  A    between atoms: _22  and  _26
   11  A    between atoms: _26  and  _27
   12  A    between atoms: _29  and  _30
   13  A    between atoms: _31  and  _32
   14  A    between atoms: _33  and  _35
   15  A    between atoms: _35  and  _36
   16  A    between atoms: _35  and  _37
   17  A    between atoms: _37  and  _38
   18  A    between atoms: _37  and  _39
   19  A    between atoms: _40  and  _42
                            x       y       z     vdW  Elec       q    Type
                         _______ _______ _______ _____ _____    ______ ____

>  <TORSDO>
F 15

$$$$
lig_assembled_86.pdb
 OpenBabel07252309473D

 45 48  0  0  1  0  0  0  0  0999 V2000
   -1.9970    8.5880   13.3480 C   0  0  2  0  0  0  0  0  0  0  0  0
   -2.4050    8.4000   11.9830 O   0  0  0  0  0  0  0  0  0  0  0  0
   -3.3160    8.6840   11.8790 H   0  0  0  0  0  0  0  0  0  0  0  0
   -2.1480    7.2820   14.1220 C   0  0  0  0  0  0  0  0  0  0  0  0
   -3.0770    6.8840   16.3770 C   0  0  0  0  0  0  0  0  0  0  0  0
   -2.0710    6.3040   16.7910 O   0  0  0  0  0  0  0  0  0  0  0  0
   -3.2020    7.3690   15.1410 N   0  0  0  0  0  0  0  0  0  0  0  0
   -4.0700    7.8210   14.8910 H   0  0  0  0  0  0  0  0  0  0  0  0
   -4.1910    7.0560   17.2560 O   0  0  0  0  0  0  0  0  0  0  0  0
   -5.0940    8.0160   16.7010 C   0  0  0  0  0  0  0  0  0  0  0  0
   -7.0800    8.8700   17.9170 N   0  0  0  0  0  0  0  0  0  0  0  0
   -5.7180    8.8100   17.7760 C   0  0  0  0  0  0  0  0  0  0  0  0
   -5.1340    9.5640   18.7670 C   0  0  0  0  0  0  0  0  0  0  0  0
   -6.1870   10.0250   19.4970 N   0  0  0  0  0  0  0  0  0  0  0  0
   -7.3580    9.6330   18.9660 N   0  0  0  0  0  0  0  0  0  0  0  0
   -6.1360   10.8310   20.7070 C   0  0  1  0  0  0  0  0  0  0  0  0
   -5.2440   10.1870   21.7890 C   0  0  0  0  0  0  0  0  0  0  0  0
   -4.2670   11.1510   22.4680 C   0  0  1  0  0  0  0  0  0  0  0  0
   -3.0720   11.4590   21.5600 C   0  0  0  0  0  0  0  0  0  0  0  0
   -3.4640   12.7410   20.8290 C   0  0  0  0  0  0  0  0  0  0  0  0
   -4.8890   13.0330   21.3060 C   0  0  2  0  0  0  0  0  0  0  0  0
   -4.8330   12.4860   22.6610 N   0  0  0  0  0  0  0  0  0  0  0  0
   -6.0510   12.5740   23.4440 C   0  0  0  0  0  0  0  0  0  0  0  0
   -5.9290   12.3350   20.4180 C   0  0  0  0  0  0  0  0  0  0  0  0
   -2.8330    9.6870   14.0260 C   0  0  2  0  0  0  0  0  0  0  0  0
   -3.0810   10.8820   13.0940 C   0  0  2  0  0  0  0  0  0  0  0  0
   -1.8150   11.2320   12.4690 O   0  0  0  0  0  0  0  0  0  0  0  0
   -1.8780   12.2930   11.4600 C   0  0  2  0  0  0  0  0  0  0  0  0
   -2.5390   13.5630   12.0490 C   0  0  0  0  0  0  0  0  0  0  0  0
   -3.8730   13.2360   12.7520 C   0  0  1  0  0  0  0  0  0  0  0  0
   -3.6930   12.1180   13.7790 C   0  0  1  0  0  0  0  0  0  0  0  0
   -4.9870   11.7560   14.3790 N   0  0  0  0  0  0  0  0  0  0  0  0
   -5.6920   11.3570   13.7750 H   0  0  0  0  0  0  0  0  0  0  0  0
   -5.2910   11.9200   15.6700 C   0  0  0  0  0  0  0  0  0  0  0  0
   -4.2040   12.5540   16.5580 C   0  0  0  0  0  0  0  0  0  0  0  0
   -6.3780   11.5940   16.1470 O   0  0  0  0  0  0  0  0  0  0  0  0
   -2.6730   11.8250   10.2230 C   0  0  0  0  0  0  0  0  0  0  0  0
   -2.5570   10.6710    9.8120 O   0  0  0  0  0  0  0  0  0  0  0  0
   -3.4300   12.6000    9.6370 O   0  0  0  0  0  0  0  0  0  0  0  0
   -4.3710   14.4030   13.4090 O   0  0  0  0  0  0  0  0  0  0  0  0
   -3.6380   14.8930   13.7890 H   0  0  0  0  0  0  0  0  0  0  0  0
   -0.5200   12.6230   11.0700 O   0  0  0  0  0  0  0  0  0  0  0  0
   -0.3720   13.8870   10.3740 C   0  0  0  0  0  0  0  0  0  0  0  0
   -2.1870   10.1270   15.2370 O   0  0  0  0  0  0  0  0  0  0  0  0
   -1.5770    9.4490   15.5390 H   0  0  0  0  0  0  0  0  0  0  0  0
  1 25  1  0  0  0  0
  1  4  1  1  0  0  0
  2  1  1  0  0  0  0
  3  2  1  0  0  0  0
  4  7  1  0  0  0  0
  5  6  2  0  0  0  0
  5  9  1  0  0  0  0
  7  5  1  0  0  0  0
  8  7  1  0  0  0  0
 10  9  1  0  0  0  0
 10 12  1  0  0  0  0
 11 15  2  0  0  0  0
 12 11  1  0  0  0  0
 12 13  2  0  0  0  0
 13 14  1  0  0  0  0
 15 14  1  0  0  0  0
 16 14  1  6  0  0  0
 16 17  1  0  0  0  0
 17 18  1  0  0  0  0
 18 19  1  6  0  0  0
 18 22  1  0  0  0  0
 20 21  1  0  0  0  0
 20 19  1  0  0  0  0
 21 24  1  6  0  0  0
 21 22  1  0  0  0  0
 22 23  1  0  0  0  0
 24 16  1  0  0  0  0
 25 44  1  1  0  0  0
 26 31  1  0  0  0  0
 26 25  1  1  0  0  0
 27 26  1  0  0  0  0
 28 37  1  6  0  0  0
 28 29  1  0  0  0  0
 28 27  1  0  0  0  0
 29 30  1  0  0  0  0
 30 40  1  1  0  0  0
 30 31  1  0  0  0  0
 31 32  1  6  0  0  0
 32 34  1  0  0  0  0
 33 32  1  0  0  0  0
 34 36  2  0  0  0  0
 34 35  1  0  0  0  0
 38 37  1  0  0  0  0
 39 37  2  0  0  0  0
 40 41  1  0  0  0  0
 42 28  1  0  0  0  0
 43 42  1  0  0  0  0
 44 45  1  0  0  0  0
M  END
>  <REMARK>
 VINA RESULT:    -5.463      0.000      0.000
 INTER + INTRA:         -12.296
 INTER:                  -9.223
 INTRA:                  -3.073
 UNBOUND:                -2.841
  Name = lig_assembled_86.pdb
  17 active torsions:
  status: ('A' for Active; 'I' for Inactive)
    1  A    between atoms: _2  and  _10
    2  A    between atoms: _3  and  _13
    3  A    between atoms: _5  and  _21
    4  A    between atoms: _7  and  _8
    5  A    between atoms: _7  and  _21
    6  A    between atoms: _17  and  _37
    7  A    between atoms: _19  and  _25
    8  A    between atoms: _20  and  _24
    9  A    between atoms: _24  and  _25
   10  A    between atoms: _27  and  _28
   11  A    between atoms: _29  and  _30
   12  A    between atoms: _31  and  _33
   13  A    between atoms: _33  and  _34
   14  A    between atoms: _33  and  _35
   15  A    between atoms: _35  and  _36
   16  A    between atoms: _35  and  _37
   17  A    between atoms: _38  and  _40
                            x       y       z     vdW  Elec       q    Type
                         _______ _______ _______ _____ _____    ______ ____

>  <TORSDO>
F 14

$$$$
lig_assembled_87.pdb
 OpenBabel07252309473D

 45 48  0  0  1  0  0  0  0  0999 V2000
   -6.9420    8.6720   23.9010 C   0  0  2  0  0  0  0  0  0  0  0  0
   -6.3110    8.6700   25.1920 O   0  0  0  0  0  0  0  0  0  0  0  0
   -6.1300    9.5740   25.4620 H   0  0  0  0  0  0  0  0  0  0  0  0
   -6.5100    7.4430   23.1080 C   0  0  0  0  0  0  0  0  0  0  0  0
   -4.1370    6.7990   23.3450 C   0  0  0  0  0  0  0  0  0  0  0  0
   -3.7640    7.4540   22.3680 O   0  0  0  0  0  0  0  0  0  0  0  0
   -5.4030    6.7330   23.7590 N   0  0  0  0  0  0  0  0  0  0  0  0
   -5.6110    6.1610   24.5650 H   0  0  0  0  0  0  0  0  0  0  0  0
   -3.1700    6.0560   24.0920 O   0  0  0  0  0  0  0  0  0  0  0  0
   -3.7660    5.5790   25.3020 C   0  0  0  0  0  0  0  0  0  0  0  0
   -1.8930    6.7930   26.3630 N   0  0  0  0  0  0  0  0  0  0  0  0
   -3.1320    6.2230   26.4660 C   0  0  0  0  0  0  0  0  0  0  0  0
   -3.5970    6.3880   27.7510 C   0  0  0  0  0  0  0  0  0  0  0  0
   -2.6530    7.1760   28.3550 N   0  0  0  0  0  0  0  0  0  0  0  0
   -1.5860    7.3080   27.5400 N   0  0  0  0  0  0  0  0  0  0  0  0
   -2.6410    7.8340   29.6740 C   0  0  2  0  0  0  0  0  0  0  0  0
   -3.8240    7.4500   30.6060 C   0  0  0  0  0  0  0  0  0  0  0  0
   -4.7230    8.6140   31.0560 C   0  0  1  0  0  0  0  0  0  0  0  0
   -4.0840    9.4300   32.1880 C   0  0  0  0  0  0  0  0  0  0  0  0
   -3.4080   10.6050   31.4840 C   0  0  0  0  0  0  0  0  0  0  0  0
   -3.5550   10.2770   29.9970 C   0  0  2  0  0  0  0  0  0  0  0  0
   -4.8680    9.6400   30.0320 N   0  0  0  0  0  0  0  0  0  0  0  0
   -5.4570    9.2470   28.7700 C   0  0  0  0  0  0  0  0  0  0  0  0
   -2.4150    9.3700   29.5320 C   0  0  0  0  0  0  0  0  0  0  0  0
   -6.5810    9.9440   23.1140 C   0  0  2  0  0  0  0  0  0  0  0  0
   -5.1400   10.4020   23.3840 C   0  0  2  0  0  0  0  0  0  0  0  0
   -5.1610   11.2890   24.5360 O   0  0  0  0  0  0  0  0  0  0  0  0
   -3.8500   11.7450   25.0090 C   0  0  2  0  0  0  0  0  0  0  0  0
   -3.0580   12.4050   23.8540 C   0  0  0  0  0  0  0  0  0  0  0  0
   -3.0350   11.5120   22.5960 C   0  0  1  0  0  0  0  0  0  0  0  0
   -4.4500   11.0930   22.1940 C   0  0  1  0  0  0  0  0  0  0  0  0
   -4.4090   10.1720   21.0470 N   0  0  0  0  0  0  0  0  0  0  0  0
   -4.0050    9.2580   21.1910 H   0  0  0  0  0  0  0  0  0  0  0  0
   -4.8700   10.4670   19.8290 C   0  0  0  0  0  0  0  0  0  0  0  0
   -5.4560   11.8780   19.6350 C   0  0  0  0  0  0  0  0  0  0  0  0
   -4.8360    9.6700   18.8900 O   0  0  0  0  0  0  0  0  0  0  0  0
   -3.0370   10.5680   25.5850 C   0  0  0  0  0  0  0  0  0  0  0  0
   -3.6100    9.5540   25.9820 O   0  0  0  0  0  0  0  0  0  0  0  0
   -1.8090   10.6320   25.6540 O   0  0  0  0  0  0  0  0  0  0  0  0
   -2.4290   12.2190   21.5130 O   0  0  0  0  0  0  0  0  0  0  0  0
   -2.0890   13.0590   21.8300 H   0  0  0  0  0  0  0  0  0  0  0  0
   -4.0680   12.7410   26.0420 O   0  0  0  0  0  0  0  0  0  0  0  0
   -5.1880   12.4750   26.9220 C   0  0  0  0  0  0  0  0  0  0  0  0
   -7.5060   11.0030   23.4320 O   0  0  0  0  0  0  0  0  0  0  0  0
   -7.5530   11.1130   24.3840 H   0  0  0  0  0  0  0  0  0  0  0  0
  1  4  1  6  0  0  0
  1  2  1  0  0  0  0
  2  3  1  0  0  0  0
  4  7  1  0  0  0  0
  5  7  1  0  0  0  0
  5  9  1  0  0  0  0
  6  5  2  0  0  0  0
  7  8  1  0  0  0  0
  9 10  1  0  0  0  0
 10 12  1  0  0  0  0
 11 12  1  0  0  0  0
 11 15  2  0  0  0  0
 12 13  2  0  0  0  0
 13 14  1  0  0  0  0
 15 14  1  0  0  0  0
 16 14  1  6  0  0  0
 16 17  1  0  0  0  0
 18 17  1  6  0  0  0
 18 19  1  0  0  0  0
 20 19  1  0  0  0  0
 21 24  1  1  0  0  0
 21 22  1  0  0  0  0
 21 20  1  0  0  0  0
 22 18  1  0  0  0  0
 23 22  1  0  0  0  0
 24 16  1  0  0  0  0
 25 44  1  1  0  0  0
 25  1  1  0  0  0  0
 26 25  1  6  0  0  0
 26 27  1  0  0  0  0
 27 28  1  0  0  0  0
 28 37  1  1  0  0  0
 28 42  1  0  0  0  0
 29 28  1  0  0  0  0
 30 40  1  6  0  0  0
 30 29  1  0  0  0  0
 31 32  1  6  0  0  0
 31 30  1  0  0  0  0
 31 26  1  0  0  0  0
 32 33  1  0  0  0  0
 34 32  1  0  0  0  0
 35 34  1  0  0  0  0
 36 34  2  0  0  0  0
 37 39  2  0  0  0  0
 37 38  1  0  0  0  0
 40 41  1  0  0  0  0
 42 43  1  0  0  0  0
 44 45  1  0  0  0  0
M  END
>  <REMARK>
 VINA RESULT:    -5.683      0.000      0.000
 INTER + INTRA:         -12.006
 INTER:                  -8.459
 INTRA:                  -3.547
 UNBOUND:                -2.170
  Name = lig_assembled_87.pdb
  17 active torsions:
  status: ('A' for Active; 'I' for Inactive)
    1  A    between atoms: _2  and  _10
    2  A    between atoms: _3  and  _13
    3  A    between atoms: _5  and  _21
    4  A    between atoms: _7  and  _8
    5  A    between atoms: _7  and  _21
    6  A    between atoms: _17  and  _37
    7  A    between atoms: _19  and  _25
    8  A    between atoms: _20  and  _24
    9  A    between atoms: _24  and  _25
   10  A    between atoms: _27  and  _28
   11  A    between atoms: _29  and  _30
   12  A    between atoms: _31  and  _33
   13  A    between atoms: _33  and  _34
   14  A    between atoms: _33  and  _35
   15  A    between atoms: _35  and  _36
   16  A    between atoms: _35  and  _37
   17  A    between atoms: _38  and  _40
                            x       y       z     vdW  Elec       q    Type
                         _______ _______ _______ _____ _____    ______ ____

>  <TORSDO>
F 14

$$$$
lig_assembled_88.pdb
 OpenBabel07252309473D

 47 49  0  0  1  0  0  0  0  0999 V2000
   -3.2380   11.7840   25.1470 C   0  0  1  0  0  0  0  0  0  0  0  0
   -2.0610   10.9620   25.0940 O   0  0  0  0  0  0  0  0  0  0  0  0
   -1.3870   11.3290   25.6720 H   0  0  0  0  0  0  0  0  0  0  0  0
   -3.6000   12.1340   26.6010 C   0  0  2  0  0  0  0  0  0  0  0  0
   -3.3660   10.9530   27.5550 C   0  0  2  0  0  0  0  0  0  0  0  0
   -3.9960    9.7780   26.9750 O   0  0  0  0  0  0  0  0  0  0  0  0
   -3.7850    8.5220   27.7000 C   0  0  2  0  0  0  0  0  0  0  0  0
   -4.2180    8.6710   29.1790 C   0  0  0  0  0  0  0  0  0  0  0  0
   -3.5980    9.9260   29.8300 C   0  0  1  0  0  0  0  0  0  0  0  0
   -3.8760   11.1740   28.9910 C   0  0  1  0  0  0  0  0  0  0  0  0
   -3.2070   12.3470   29.5750 N   0  0  0  0  0  0  0  0  0  0  0  0
   -2.1970   12.3590   29.5820 H   0  0  0  0  0  0  0  0  0  0  0  0
   -3.8480   13.3960   30.0980 C   0  0  0  0  0  0  0  0  0  0  0  0
   -5.3870   13.3350   30.0970 C   0  0  0  0  0  0  0  0  0  0  0  0
   -3.2610   14.3710   30.5680 O   0  0  0  0  0  0  0  0  0  0  0  0
   -2.3030    8.0970   27.6380 C   0  0  0  0  0  0  0  0  0  0  0  0
   -1.6440    8.2930   26.6180 O   0  0  0  0  0  0  0  0  0  0  0  0
   -1.7670    7.5580   28.6070 O   0  0  0  0  0  0  0  0  0  0  0  0
   -4.6110    7.5020   27.0820 O   0  0  0  0  0  0  0  0  0  0  0  0
   -5.2320    7.8920   25.8310 C   0  0  0  0  0  0  0  0  0  0  0  0
   -4.1410   10.1080   31.1380 O   0  0  0  0  0  0  0  0  0  0  0  0
   -4.9250    9.5620   31.2390 H   0  0  0  0  0  0  0  0  0  0  0  0
   -4.9710   12.5720   26.6810 O   0  0  0  0  0  0  0  0  0  0  0  0
   -5.3300   12.6620   25.7950 H   0  0  0  0  0  0  0  0  0  0  0  0
   -3.0150   13.0680   24.3550 C   0  0  0  0  0  0  0  0  0  0  0  0
   -5.0560   13.5450   23.0470 C   0  0  0  0  0  0  0  0  0  0  0  0
   -5.6870   13.9810   24.0130 O   0  0  0  0  0  0  0  0  0  0  0  0
   -3.8040   13.0920   23.1170 N   0  0  0  0  0  0  0  0  0  0  0  0
   -3.3740   12.7450   22.2710 H   0  0  0  0  0  0  0  0  0  0  0  0
   -5.6870   13.5100   21.7640 O   0  0  0  0  0  0  0  0  0  0  0  0
   -6.5880   12.4010   21.7050 C   0  0  0  0  0  0  0  0  0  0  0  0
   -4.7360   10.9450   20.9440 N   0  0  0  0  0  0  0  0  0  0  0  0
   -6.0440   11.3390   20.8390 C   0  0  0  0  0  0  0  0  0  0  0  0
   -6.6550   10.6120   19.8400 C   0  0  0  0  0  0  0  0  0  0  0  0
   -5.6450    9.8500   19.3280 N   0  0  0  0  0  0  0  0  0  0  0  0
   -4.5070   10.0150   20.0270 N   0  0  0  0  0  0  0  0  0  0  0  0
   -5.6710    9.0040   18.1450 C   0  0  0  0  0  0  0  0  0  0  0  0
   -4.7870    9.5170   17.0250 C   0  0  0  0  0  0  0  0  0  0  0  0
   -4.8280   10.8530   16.5820 C   0  0  0  0  0  0  0  0  0  0  0  0
   -3.9990   11.2910   15.5460 C   0  0  0  0  0  0  0  0  0  0  0  0
   -4.1180   13.0800   14.9450 Br  0  0  0  0  0  0  0  0  0  0  0  0
   -3.0880   10.4260   14.9480 C   0  0  0  0  0  0  0  0  0  0  0  0
   -3.0030    9.1140   15.4070 C   0  0  0  0  0  0  0  0  0  0  0  0
   -1.7350    7.9480   14.6150 Br  0  0  0  0  0  0  0  0  0  0  0  0
   -3.8410    8.6660   16.4380 C   0  0  0  0  0  0  0  0  0  0  0  0
   -3.7540    7.3820   16.9080 O   0  0  0  0  0  0  0  0  0  0  0  0
   -4.1570    7.3650   17.7970 H   0  0  0  0  0  0  0  0  0  0  0  0
  1 25  1  6  0  0  0
  1  4  1  0  0  0  0
  2  1  1  0  0  0  0
  2  3  1  0  0  0  0
  4 23  1  6  0  0  0
  5  4  1  6  0  0  0
  5 10  1  0  0  0  0
  6  5  1  0  0  0  0
  6  7  1  0  0  0  0
  7 19  1  6  0  0  0
  7  8  1  0  0  0  0
  8  9  1  0  0  0  0
  9 21  1  1  0  0  0
 10 11  1  1  0  0  0
 10  9  1  0  0  0  0
 11 12  1  0  0  0  0
 11 13  1  0  0  0  0
 13 15  2  0  0  0  0
 14 13  1  0  0  0  0
 16  7  1  0  0  0  0
 16 18  1  0  0  0  0
 17 16  2  0  0  0  0
 20 19  1  0  0  0  0
 21 22  1  0  0  0  0
 24 23  1  0  0  0  0
 26 28  1  0  0  0  0
 26 27  2  0  0  0  0
 28 25  1  0  0  0  0
 29 28  1  0  0  0  0
 30 26  1  0  0  0  0
 31 30  1  0  0  0  0
 33 32  1  0  0  0  0
 33 31  1  0  0  0  0
 34 33  2  0  0  0  0
 35 34  1  0  0  0  0
 35 36  1  0  0  0  0
 36 32  2  0  0  0  0
 37 35  1  0  0  0  0
 38 37  1  0  0  0  0
 39 38  1  0  0  0  0
 40 39  2  0  0  0  0
 41 40  1  0  0  0  0
 42 43  2  0  0  0  0
 42 40  1  0  0  0  0
 43 45  1  0  0  0  0
 44 43  1  0  0  0  0
 45 46  1  0  0  0  0
 45 38  2  0  0  0  0
 46 47  1  0  0  0  0
M  END
>  <REMARK>
 VINA RESULT:    -4.836      0.000      0.000
 INTER + INTRA:         -12.451
 INTER:                  -9.786
 INTRA:                  -2.665
 UNBOUND:                -3.657
  Name = lig_assembled_88.pdb
  18 active torsions:
  status: ('A' for Active; 'I' for Inactive)
    1  A    between atoms: _2  and  _9
    2  A    between atoms: _4  and  _20
    3  A    between atoms: _5  and  _15
    4  A    between atoms: _6  and  _7
    5  A    between atoms: _6  and  _20
    6  A    between atoms: _9  and  _10
    7  A    between atoms: _16  and  _36
    8  A    between atoms: _18  and  _24
    9  A    between atoms: _19  and  _23
   10  A    between atoms: _23  and  _24
   11  A    between atoms: _26  and  _27
   12  A    between atoms: _28  and  _29
   13  A    between atoms: _30  and  _32
   14  A    between atoms: _32  and  _33
   15  A    between atoms: _32  and  _34
   16  A    between atoms: _34  and  _35
   17  A    between atoms: _34  and  _36
   18  A    between atoms: _37  and  _39
                            x       y       z     vdW  Elec       q    Type
                         _______ _______ _______ _____ _____    ______ ____

>  <TORSDO>
F 16

$$$$
lig_assembled_89.pdb
 OpenBabel07252309473D

 53 57  0  0  1  0  0  0  0  0999 V2000
   -4.6750    6.9120   15.2400 C   0  0  0  0  0  0  0  0  0  0  0  0
   -3.9290    6.1830   15.8990 O   0  0  0  0  0  0  0  0  0  0  0  0
   -4.3250    7.4910   14.0910 N   0  0  0  0  0  0  0  0  0  0  0  0
   -5.0100    8.0640   13.6180 H   0  0  0  0  0  0  0  0  0  0  0  0
   -3.0010    7.3430   13.4740 C   0  0  0  0  0  0  0  0  0  0  0  0
   -2.4660    8.6720   12.9500 C   0  0  1  0  0  0  0  0  0  0  0  0
   -2.6970    8.7720   11.5350 O   0  0  0  0  0  0  0  0  0  0  0  0
   -3.5430    9.1970   11.3780 H   0  0  0  0  0  0  0  0  0  0  0  0
   -3.1440    9.8310   13.7010 C   0  0  2  0  0  0  0  0  0  0  0  0
   -3.1950   11.1140   12.8590 C   0  0  2  0  0  0  0  0  0  0  0  0
   -1.8740   11.3270   12.2890 O   0  0  0  0  0  0  0  0  0  0  0  0
   -1.7580   12.4580   11.3630 C   0  0  2  0  0  0  0  0  0  0  0  0
   -2.2540   13.7610   12.0360 C   0  0  0  0  0  0  0  0  0  0  0  0
   -3.6420   13.5750   12.6840 C   0  0  1  0  0  0  0  0  0  0  0  0
   -3.6510   12.3700   13.6260 C   0  0  1  0  0  0  0  0  0  0  0  0
   -5.0000   12.1510   14.1700 N   0  0  0  0  0  0  0  0  0  0  0  0
   -5.7270   11.8680   13.5280 H   0  0  0  0  0  0  0  0  0  0  0  0
   -5.3260   12.3010   15.4560 C   0  0  0  0  0  0  0  0  0  0  0  0
   -4.2020   12.7580   16.4040 C   0  0  0  0  0  0  0  0  0  0  0  0
   -6.4620   12.0960   15.8860 O   0  0  0  0  0  0  0  0  0  0  0  0
   -2.5720   12.1980   10.0790 C   0  0  0  0  0  0  0  0  0  0  0  0
   -3.0830   13.1360    9.4680 O   0  0  0  0  0  0  0  0  0  0  0  0
   -2.7170   11.0520    9.6530 O   0  0  0  0  0  0  0  0  0  0  0  0
   -3.9920   14.7490   13.4190 O   0  0  0  0  0  0  0  0  0  0  0  0
   -4.7670   14.5710   13.9570 H   0  0  0  0  0  0  0  0  0  0  0  0
   -0.3560   12.6210   11.0280 O   0  0  0  0  0  0  0  0  0  0  0  0
    0.1540   13.9710   11.1710 C   0  0  0  0  0  0  0  0  0  0  0  0
   -2.4640   10.0810   14.9480 O   0  0  0  0  0  0  0  0  0  0  0  0
   -1.9300   10.8750   14.8680 H   0  0  0  0  0  0  0  0  0  0  0  0
   -6.0000    7.1610   15.7150 O   0  0  0  0  0  0  0  0  0  0  0  0
   -6.2120    8.5720   15.8210 C   0  0  0  0  0  0  0  0  0  0  0  0
   -7.2700    9.5140   17.8380 N   0  0  0  0  0  0  0  0  0  0  0  0
   -6.1680    8.9890   17.2330 C   0  0  0  0  0  0  0  0  0  0  0  0
   -5.1430    8.9260   18.1460 C   0  0  0  0  0  0  0  0  0  0  0  0
   -5.6780    9.4080   19.3260 N   0  0  0  0  0  0  0  0  0  0  0  0
   -6.9670    9.7570   19.1060 N   0  0  0  0  0  0  0  0  0  0  0  0
   -5.0170    9.4380   20.5890 C   0  0  0  0  0  0  0  0  0  0  0  0
   -4.4850   10.5060   21.2800 C   0  0  0  0  0  0  0  0  0  0  0  0
   -4.2870   11.8850   20.9530 C   0  0  0  0  0  0  0  0  0  0  0  0
   -4.2710   12.2890   19.7980 O   0  0  0  0  0  0  0  0  0  0  0  0
   -4.0800   12.7410   22.0540 N   0  0  0  0  0  0  0  0  0  0  0  0
   -3.6390   12.2000   23.3210 C   0  0  0  0  0  0  0  0  0  0  0  0
   -3.1530   13.0060   24.3610 C   0  0  0  0  0  0  0  0  0  0  0  0
   -2.6860   12.4440   25.5570 C   0  0  0  0  0  0  0  0  0  0  0  0
   -2.7030   11.0660   25.7450 C   0  0  0  0  0  0  0  0  0  0  0  0
   -3.1920   10.2380   24.7400 C   0  0  0  0  0  0  0  0  0  0  0  0
   -3.6440   10.8050   23.5390 C   0  0  0  0  0  0  0  0  0  0  0  0
   -4.1350    9.9960   22.5020 N   0  0  0  0  0  0  0  0  0  0  0  0
   -4.3600    8.6440   22.4600 C   0  0  0  0  0  0  0  0  0  0  0  0
   -4.9050    8.2710   21.3210 N   0  0  0  0  0  0  0  0  0  0  0  0
   -4.1240   14.2020   21.8150 C   0  0  0  0  0  0  0  0  0  0  0  0
   -2.7520   14.8930   21.9480 C   0  0  0  0  0  0  0  0  0  0  0  0
   -5.1590   14.8930   22.7010 C   0  0  0  0  0  0  0  0  0  0  0  0
  1 30  1  0  0  0  0
  1  2  2  0  0  0  0
  3  1  1  0  0  0  0
  4  3  1  0  0  0  0
  5  3  1  0  0  0  0
  6  5  1  1  0  0  0
  6  9  1  0  0  0  0
  7  6  1  0  0  0  0
  8  7  1  0  0  0  0
  9 28  1  1  0  0  0
 10 15  1  0  0  0  0
 10  9  1  1  0  0  0
 11 10  1  0  0  0  0
 12 21  1  6  0  0  0
 12 13  1  0  0  0  0
 12 11  1  0  0  0  0
 13 14  1  0  0  0  0
 14 24  1  1  0  0  0
 14 15  1  0  0  0  0
 15 16  1  6  0  0  0
 16 18  1  0  0  0  0
 17 16  1  0  0  0  0
 18 20  2  0  0  0  0
 18 19  1  0  0  0  0
 22 21  2  0  0  0  0
 23 21  1  0  0  0  0
 24 25  1  0  0  0  0
 26 27  1  0  0  0  0
 26 12  1  0  0  0  0
 29 28  1  0  0  0  0
 30 31  1  0  0  0  0
 31 33  1  0  0  0  0
 32 36  2  0  0  0  0
 33 32  1  0  0  0  0
 33 34  2  0  0  0  0
 34 35  1  0  0  0  0
 35 37  1  0  0  0  0
 36 35  1  0  0  0  0
 37 38  2  0  0  0  0
 37 50  1  0  0  0  0
 38 48  1  0  0  0  0
 39 38  1  0  0  0  0
 39 41  1  0  0  0  0
 40 39  2  0  0  0  0
 41 42  1  0  0  0  0
 42 47  2  0  0  0  0
 42 43  1  0  0  0  0
 43 44  2  0  0  0  0
 44 45  1  0  0  0  0
 46 45  2  0  0  0  0
 47 46  1  0  0  0  0
 48 47  1  0  0  0  0
 49 48  1  0  0  0  0
 50 49  2  0  0  0  0
 51 52  1  0  0  0  0
 51 41  1  0  0  0  0
 51 53  1  0  0  0  0
M  END
>  <REMARK>
 VINA RESULT:    -5.711      0.000      0.000
 INTER + INTRA:         -13.183
 INTER:                 -10.530
 INTRA:                  -2.653
 UNBOUND:                -2.966
  Name = lig_assembled_89.pdb
  19 active torsions:
  status: ('A' for Active; 'I' for Inactive)
    1  A    between atoms: _2  and  _12
    2  A    between atoms: _5  and  _20
    3  A    between atoms: _7  and  _29
    4  A    between atoms: _9  and  _10
    5  A    between atoms: _9  and  _29
    6  A    between atoms: _20  and  _21
    7  A    between atoms: _20  and  _22
    8  A    between atoms: _25  and  _45
    9  A    between atoms: _27  and  _33
   10  A    between atoms: _28  and  _32
   11  A    between atoms: _32  and  _33
   12  A    between atoms: _35  and  _36
   13  A    between atoms: _37  and  _38
   14  A    between atoms: _39  and  _41
   15  A    between atoms: _41  and  _42
   16  A    between atoms: _41  and  _43
   17  A    between atoms: _43  and  _44
   18  A    between atoms: _43  and  _45
   19  A    between atoms: _46  and  _48
                            x       y       z     vdW  Elec       q    Type
                         _______ _______ _______ _____ _____    ______ ____

>  <TORSDO>
F 15

$$$$
lig_assembled_8.pdb
 OpenBabel07252309473D

 43 45  0  0  1  0  0  0  0  0999 V2000
   -3.1200   11.2700   23.3030 C   0  0  2  0  0  0  0  0  0  0  0  0
   -2.4020   11.6530   24.4870 O   0  0  0  0  0  0  0  0  0  0  0  0
   -2.4510   12.6060   24.5970 H   0  0  0  0  0  0  0  0  0  0  0  0
   -4.0340   12.4050   22.8560 C   0  0  0  0  0  0  0  0  0  0  0  0
   -5.7000   13.7230   24.1200 C   0  0  0  0  0  0  0  0  0  0  0  0
   -6.6060   13.5330   23.3050 O   0  0  0  0  0  0  0  0  0  0  0  0
   -4.4640   13.2380   23.9860 N   0  0  0  0  0  0  0  0  0  0  0  0
   -3.7860   13.4560   24.7030 H   0  0  0  0  0  0  0  0  0  0  0  0
   -5.9650   14.5100   25.2830 O   0  0  0  0  0  0  0  0  0  0  0  0
   -6.5940   13.6980   26.2770 C   0  0  0  0  0  0  0  0  0  0  0  0
   -4.5690   12.4200   26.8750 N   0  0  0  0  0  0  0  0  0  0  0  0
   -5.5980   13.2230   27.2550 C   0  0  0  0  0  0  0  0  0  0  0  0
   -5.4980   13.4650   28.6050 C   0  0  0  0  0  0  0  0  0  0  0  0
   -4.3570   12.7970   29.0170 N   0  0  0  0  0  0  0  0  0  0  0  0
   -3.8310   12.1650   27.9450 N   0  0  0  0  0  0  0  0  0  0  0  0
   -3.7810   12.7600   30.3250 C   0  0  0  0  0  0  0  0  0  0  0  0
   -3.1130   13.9160   30.7900 C   0  0  0  0  0  0  0  0  0  0  0  0
   -2.5040   13.9530   32.0470 C   0  0  0  0  0  0  0  0  0  0  0  0
   -2.5480   12.8400   32.8720 C   0  0  0  0  0  0  0  0  0  0  0  0
   -3.2070   11.6930   32.4400 C   0  0  0  0  0  0  0  0  0  0  0  0
   -3.8280   11.6380   31.1770 C   0  0  0  0  0  0  0  0  0  0  0  0
   -4.6680    9.9670   30.8150 Br  0  0  0  0  0  0  0  0  0  0  0  0
   -3.9570   10.0040   23.5530 C   0  0  2  0  0  0  0  0  0  0  0  0
   -3.9030    9.5560   25.0210 C   0  0  2  0  0  0  0  0  0  0  0  0
   -2.9070    8.5020   25.1310 O   0  0  0  0  0  0  0  0  0  0  0  0
   -2.6410    8.0200   26.4900 C   0  0  2  0  0  0  0  0  0  0  0  0
   -3.9560    7.5710   27.1720 C   0  0  0  0  0  0  0  0  0  0  0  0
   -5.0560    8.6470   27.0540 C   0  0  1  0  0  0  0  0  0  0  0  0
   -5.2480    9.0780   25.5990 C   0  0  1  0  0  0  0  0  0  0  0  0
   -6.2360   10.1650   25.5100 N   0  0  0  0  0  0  0  0  0  0  0  0
   -6.0220   11.0350   25.9760 H   0  0  0  0  0  0  0  0  0  0  0  0
   -7.3950   10.0760   24.8530 C   0  0  0  0  0  0  0  0  0  0  0  0
   -7.7030    8.7270   24.1750 C   0  0  0  0  0  0  0  0  0  0  0  0
   -8.1970   11.0080   24.7820 O   0  0  0  0  0  0  0  0  0  0  0  0
   -1.9690    9.1200   27.3380 C   0  0  0  0  0  0  0  0  0  0  0  0
   -1.3070   10.0040   26.7960 O   0  0  0  0  0  0  0  0  0  0  0  0
   -2.0900    9.1240   28.5640 O   0  0  0  0  0  0  0  0  0  0  0  0
   -6.2890    8.1340   27.5600 O   0  0  0  0  0  0  0  0  0  0  0  0
   -6.1670    7.2230   27.8370 H   0  0  0  0  0  0  0  0  0  0  0  0
   -1.7600    6.8710   26.3940 O   0  0  0  0  0  0  0  0  0  0  0  0
   -2.2700    5.7730   25.5970 C   0  0  0  0  0  0  0  0  0  0  0  0
   -3.5130    8.9360   22.6920 O   0  0  0  0  0  0  0  0  0  0  0  0
   -3.5650    9.2210   21.7760 H   0  0  0  0  0  0  0  0  0  0  0  0
  1  4  1  1  0  0  0
  1 23  1  0  0  0  0
  1  2  1  0  0  0  0
  2  3  1  0  0  0  0
  4  7  1  0  0  0  0
  5  9  1  0  0  0  0
  6  5  2  0  0  0  0
  7  5  1  0  0  0  0
  7  8  1  0  0  0  0
  9 10  1  0  0  0  0
 10 12  1  0  0  0  0
 11 12  1  0  0  0  0
 11 15  2  0  0  0  0
 12 13  2  0  0  0  0
 13 14  1  0  0  0  0
 14 16  1  0  0  0  0
 15 14  1  0  0  0  0
 16 17  2  0  0  0  0
 16 21  1  0  0  0  0
 17 18  1  0  0  0  0
 18 19  2  0  0  0  0
 20 19  1  0  0  0  0
 21 20  2  0  0  0  0
 22 21  1  0  0  0  0
 23 42  1  6  0  0  0
 24 23  1  6  0  0  0
 24 25  1  0  0  0  0
 24 29  1  0  0  0  0
 25 26  1  0  0  0  0
 26 40  1  6  0  0  0
 26 27  1  0  0  0  0
 26 35  1  0  0  0  0
 28 27  1  0  0  0  0
 28 38  1  6  0  0  0
 29 30  1  1  0  0  0
 29 28  1  0  0  0  0
 30 31  1  0  0  0  0
 32 30  1  0  0  0  0
 33 32  1  0  0  0  0
 34 32  2  0  0  0  0
 35 37  1  0  0  0  0
 36 35  2  0  0  0  0
 38 39  1  0  0  0  0
 41 40  1  0  0  0  0
 43 42  1  0  0  0  0
M  END
>  <REMARK>
 VINA RESULT:    -5.047      0.000      0.000
 INTER + INTRA:         -11.803
 INTER:                  -8.206
 INTRA:                  -3.597
 UNBOUND:                -3.067
  Name = lig_assembled_8.pdb
  16 active torsions:
  status: ('A' for Active; 'I' for Inactive)
    1  A    between atoms: _2  and  _9
    2  A    between atoms: _4  and  _18
    3  A    between atoms: _6  and  _7
    4  A    between atoms: _6  and  _18
    5  A    between atoms: _14  and  _34
    6  A    between atoms: _16  and  _22
    7  A    between atoms: _17  and  _21
    8  A    between atoms: _21  and  _22
    9  A    between atoms: _24  and  _25
   10  A    between atoms: _26  and  _27
   11  A    between atoms: _28  and  _30
   12  A    between atoms: _30  and  _31
   13  A    between atoms: _30  and  _32
   14  A    between atoms: _32  and  _33
   15  A    between atoms: _32  and  _34
   16  A    between atoms: _35  and  _37
                            x       y       z     vdW  Elec       q    Type
                         _______ _______ _______ _____ _____    ______ ____

>  <TORSDO>
F 14

$$$$
lig_assembled_90.pdb
 OpenBabel07252309473D

 54 56  0  0  1  0  0  0  0  0999 V2000
   -4.0310    7.1260   23.3900 C   0  0  0  0  0  0  0  0  0  0  0  0
   -3.8330    7.8110   22.3840 O   0  0  0  0  0  0  0  0  0  0  0  0
   -5.2300    6.9460   23.9460 N   0  0  0  0  0  0  0  0  0  0  0  0
   -5.2930    6.3580   24.7650 H   0  0  0  0  0  0  0  0  0  0  0  0
   -6.4640    7.5560   23.4350 C   0  0  0  0  0  0  0  0  0  0  0  0
   -6.9290    8.7170   24.3070 C   0  0  1  0  0  0  0  0  0  0  0  0
   -6.2260    8.7020   25.5600 O   0  0  0  0  0  0  0  0  0  0  0  0
   -6.7940    9.0520   26.2510 H   0  0  0  0  0  0  0  0  0  0  0  0
   -6.7000   10.0430   23.5630 C   0  0  2  0  0  0  0  0  0  0  0  0
   -5.3530   10.6850   23.9270 C   0  0  2  0  0  0  0  0  0  0  0  0
   -5.5700   11.5660   25.0630 O   0  0  0  0  0  0  0  0  0  0  0  0
   -4.3670   12.1900   25.6210 C   0  0  2  0  0  0  0  0  0  0  0  0
   -3.5870   12.9440   24.5160 C   0  0  0  0  0  0  0  0  0  0  0  0
   -3.3590   12.0570   23.2730 C   0  0  1  0  0  0  0  0  0  0  0  0
   -4.6760   11.4570   22.7790 C   0  0  1  0  0  0  0  0  0  0  0  0
   -4.4350   10.5460   21.6490 N   0  0  0  0  0  0  0  0  0  0  0  0
   -3.8830    9.7180   21.8210 H   0  0  0  0  0  0  0  0  0  0  0  0
   -4.8980   10.7420   20.4120 C   0  0  0  0  0  0  0  0  0  0  0  0
   -5.7140   12.0280   20.1770 C   0  0  0  0  0  0  0  0  0  0  0  0
   -4.6930    9.9550   19.4880 O   0  0  0  0  0  0  0  0  0  0  0  0
   -3.4500   11.1300   26.2670 C   0  0  0  0  0  0  0  0  0  0  0  0
   -3.9370   10.1670   26.8580 O   0  0  0  0  0  0  0  0  0  0  0  0
   -2.2250   11.2380   26.1970 O   0  0  0  0  0  0  0  0  0  0  0  0
   -2.7750   12.8350   22.2270 O   0  0  0  0  0  0  0  0  0  0  0  0
   -2.5160   12.2570   21.5050 H   0  0  0  0  0  0  0  0  0  0  0  0
   -4.7830   13.1520   26.6240 O   0  0  0  0  0  0  0  0  0  0  0  0
   -6.1490   13.0020   27.0860 C   0  0  0  0  0  0  0  0  0  0  0  0
   -7.7780   10.9600   23.8380 O   0  0  0  0  0  0  0  0  0  0  0  0
   -8.2320   10.6890   24.6390 H   0  0  0  0  0  0  0  0  0  0  0  0
   -2.9230    6.4710   24.0130 O   0  0  0  0  0  0  0  0  0  0  0  0
   -3.3700    5.7910   25.1890 C   0  0  0  0  0  0  0  0  0  0  0  0
   -1.9020    7.4430   26.3150 N   0  0  0  0  0  0  0  0  0  0  0  0
   -2.8560    6.4620   26.3990 C   0  0  0  0  0  0  0  0  0  0  0  0
   -3.1840    6.2680   27.7220 C   0  0  0  0  0  0  0  0  0  0  0  0
   -2.4150    7.1730   28.3900 N   0  0  0  0  0  0  0  0  0  0  0  0
   -1.6310    7.8650   27.5440 N   0  0  0  0  0  0  0  0  0  0  0  0
   -2.2910    7.3620   29.8140 C   0  0  0  0  0  0  0  0  0  0  0  0
   -3.4990    8.0700   30.3830 C   0  0  0  0  0  0  0  0  0  0  0  0
   -4.0490    7.7110   31.4230 O   0  0  0  0  0  0  0  0  0  0  0  0
   -3.9120    9.1870   29.6820 N   0  0  0  0  0  0  0  0  0  0  0  0
   -3.6220    9.2880   28.7120 H   0  0  0  0  0  0  0  0  0  0  0  0
   -5.1140    9.9060   30.0790 C   0  0  0  0  0  0  0  0  0  0  0  0
   -4.7690   11.1400   30.9270 C   0  0  1  0  0  0  0  0  0  0  0  0
   -4.2850   10.6980   32.2020 O   0  0  0  0  0  0  0  0  0  0  0  0
   -4.2790    9.7200   32.2170 H   0  0  0  0  0  0  0  0  0  0  0  0
   -3.7470   12.0430   30.2260 C   0  0  0  0  0  0  0  0  0  0  0  0
   -3.8300   13.4270   30.6710 N   0  0  0  0  0  0  0  0  0  0  0  0
   -4.7440   14.3250   30.1640 C   0  0  0  0  0  0  0  0  0  0  0  0
   -4.4820   15.5190   30.7920 C   0  0  0  0  0  0  0  0  0  0  0  0
   -3.4350   15.3850   31.6660 N   0  0  0  0  0  0  0  0  0  0  0  0
   -3.0690   14.1160   31.5830 C   0  0  0  0  0  0  0  0  0  0  0  0
   -1.9890   13.5710   32.3690 N   0  0  0  0  0  0  0  0  0  0  0  0
   -1.7890   12.3500   32.3040 O   0  0  0  0  0  0  0  0  0  0  0  0
   -1.3250   14.3650   33.0480 O   0  0  0  0  0  0  0  0  0  0  0  0
  1  3  1  0  0  0  0
  1 30  1  0  0  0  0
  2  1  2  0  0  0  0
  3  4  1  0  0  0  0
  5  3  1  0  0  0  0
  6  5  1  6  0  0  0
  6  7  1  0  0  0  0
  7  8  1  0  0  0  0
  9 28  1  1  0  0  0
  9  6  1  0  0  0  0
 10  9  1  6  0  0  0
 10 11  1  0  0  0  0
 11 12  1  0  0  0  0
 12 21  1  1  0  0  0
 12 26  1  0  0  0  0
 13 12  1  0  0  0  0
 14 24  1  6  0  0  0
 14 13  1  0  0  0  0
 15 16  1  6  0  0  0
 15 14  1  0  0  0  0
 15 10  1  0  0  0  0
 16 17  1  0  0  0  0
 18 16  1  0  0  0  0
 19 18  1  0  0  0  0
 20 18  2  0  0  0  0
 21 22  1  0  0  0  0
 23 21  2  0  0  0  0
 25 24  1  0  0  0  0
 26 27  1  0  0  0  0
 28 29  1  0  0  0  0
 30 31  1  0  0  0  0
 31 33  1  0  0  0  0
 32 33  1  0  0  0  0
 32 36  2  0  0  0  0
 33 34  2  0  0  0  0
 34 35  1  0  0  0  0
 35 37  1  0  0  0  0
 36 35  1  0  0  0  0
 37 38  1  0  0  0  0
 38 39  2  0  0  0  0
 40 42  1  0  0  0  0
 40 38  1  0  0  0  0
 41 40  1  0  0  0  0
 43 42  1  6  0  0  0
 43 44  1  0  0  0  0
 44 45  1  0  0  0  0
 46 47  1  0  0  0  0
 46 43  1  0  0  0  0
 47 51  1  0  0  0  0
 48 47  1  0  0  0  0
 48 49  2  0  0  0  0
 49 50  1  0  0  0  0
 51 50  2  0  0  0  0
 51 52  1  0  0  0  0
 52 54  2  0  0  0  0
 53 52  2  0  0  0  0
M  END
>  <REMARK>
 VINA RESULT:    -5.827      0.000      0.000
 INTER + INTRA:         -15.446
 INTER:                 -10.348
 INTRA:                  -5.098
 UNBOUND:                -3.487
  Name = lig_assembled_90.pdb
  22 active torsions:
  status: ('A' for Active; 'I' for Inactive)
    1  A    between atoms: _2  and  _13
    2  A    between atoms: _3  and  _15
    3  A    between atoms: _4  and  _17
    4  A    between atoms: _8  and  _28
    5  A    between atoms: _10  and  _11
    6  A    between atoms: _10  and  _28
    7  A    between atoms: _13  and  _14
    8  A    between atoms: _15  and  _16
    9  A    between atoms: _16  and  _17
   10  A    between atoms: _16  and  _22
   11  A    between atoms: _24  and  _44
   12  A    between atoms: _26  and  _32
   13  A    between atoms: _27  and  _31
   14  A    between atoms: _31  and  _32
   15  A    between atoms: _34  and  _35
   16  A    between atoms: _36  and  _37
   17  A    between atoms: _38  and  _40
   18  A    between atoms: _40  and  _41
   19  A    between atoms: _40  and  _42
   20  A    between atoms: _42  and  _43
   21  A    between atoms: _42  and  _44
   22  A    between atoms: _45  and  _47
                            x       y       z     vdW  Elec       q    Type
                         _______ _______ _______ _____ _____    ______ ____

>  <TORSDO>
F 20

$$$$
lig_assembled_91.pdb
 OpenBabel07252309473D

 50 54  0  0  1  0  0  0  0  0999 V2000
   -5.1950    8.8470   22.1840 C   0  0  0  0  0  0  0  0  0  0  0  0
   -4.1660    8.1790   22.0650 O   0  0  0  0  0  0  0  0  0  0  0  0
   -6.2750    8.4400   22.8520 N   0  0  0  0  0  0  0  0  0  0  0  0
   -7.0690    9.0630   22.9020 H   0  0  0  0  0  0  0  0  0  0  0  0
   -6.3760    7.1350   23.5190 C   0  0  0  0  0  0  0  0  0  0  0  0
   -5.8280    7.1800   24.9410 C   0  0  1  0  0  0  0  0  0  0  0  0
   -4.4030    6.9980   24.9250 O   0  0  0  0  0  0  0  0  0  0  0  0
   -3.9860    7.7660   24.5260 H   0  0  0  0  0  0  0  0  0  0  0  0
   -6.2040    8.5210   25.5950 C   0  0  2  0  0  0  0  0  0  0  0  0
   -4.9690    9.3760   25.9100 C   0  0  2  0  0  0  0  0  0  0  0  0
   -4.4660    8.9730   27.2140 O   0  0  0  0  0  0  0  0  0  0  0  0
   -3.2170    9.6140   27.6380 C   0  0  2  0  0  0  0  0  0  0  0  0
   -3.3550   11.1550   27.5840 C   0  0  0  0  0  0  0  0  0  0  0  0
   -3.9170   11.6300   26.2280 C   0  0  1  0  0  0  0  0  0  0  0  0
   -5.2140   10.8970   25.8840 C   0  0  1  0  0  0  0  0  0  0  0  0
   -5.6930   11.2940   24.5500 N   0  0  0  0  0  0  0  0  0  0  0  0
   -5.1230   11.0500   23.7530 H   0  0  0  0  0  0  0  0  0  0  0  0
   -6.8310   11.9560   24.3260 C   0  0  0  0  0  0  0  0  0  0  0  0
   -7.6640   12.3360   25.5650 C   0  0  0  0  0  0  0  0  0  0  0  0
   -7.2140   12.2630   23.1960 O   0  0  0  0  0  0  0  0  0  0  0  0
   -2.0430    9.1700   26.7410 C   0  0  0  0  0  0  0  0  0  0  0  0
   -1.1670    9.9740   26.4230 O   0  0  0  0  0  0  0  0  0  0  0  0
   -1.9700    8.0090   26.3370 O   0  0  0  0  0  0  0  0  0  0  0  0
   -4.1700   13.0350   26.2760 O   0  0  0  0  0  0  0  0  0  0  0  0
   -3.5320   13.4560   26.8570 H   0  0  0  0  0  0  0  0  0  0  0  0
   -2.9570    9.2260   29.0110 O   0  0  0  0  0  0  0  0  0  0  0  0
   -4.0080    8.4450   29.6360 C   0  0  0  0  0  0  0  0  0  0  0  0
   -6.9680    8.2900   26.7960 O   0  0  0  0  0  0  0  0  0  0  0  0
   -7.8660    8.0440   26.5620 H   0  0  0  0  0  0  0  0  0  0  0  0
   -5.2560   10.1420   21.5810 O   0  0  0  0  0  0  0  0  0  0  0  0
   -3.9300   10.6290   21.3590 C   0  0  0  0  0  0  0  0  0  0  0  0
   -3.3220   12.2060   23.1580 N   0  0  0  0  0  0  0  0  0  0  0  0
   -3.7820   11.9960   21.8950 C   0  0  0  0  0  0  0  0  0  0  0  0
   -4.0280   13.2140   21.3020 C   0  0  0  0  0  0  0  0  0  0  0  0
   -3.7440   14.1590   22.2680 N   0  0  0  0  0  0  0  0  0  0  0  0
   -3.2980   13.5130   23.3750 N   0  0  0  0  0  0  0  0  0  0  0  0
   -3.8700   15.5810   22.2150 C   0  0  0  0  0  0  0  0  0  0  0  0
   -2.7850   16.3880   21.7150 C   0  0  0  0  0  0  0  0  0  0  0  0
   -3.0040   17.7790   21.7300 C   0  0  0  0  0  0  0  0  0  0  0  0
   -2.0310   18.6570   21.2750 C   0  0  0  0  0  0  0  0  0  0  0  0
   -0.8080   18.2180   20.7800 C   0  0  0  0  0  0  0  0  0  0  0  0
   -0.5640   16.8610   20.7140 C   0  0  0  0  0  0  0  0  0  0  0  0
   -4.1330   18.3480   22.1460 N   0  0  0  0  0  0  0  0  0  0  0  0
   -5.1440   17.5980   22.5810 C   0  0  0  0  0  0  0  0  0  0  0  0
   -6.2750   18.2960   22.9940 C   0  0  0  0  0  0  0  0  0  0  0  0
   -7.3980   17.6550   23.5070 C   0  0  0  0  0  0  0  0  0  0  0  0
   -7.3880   16.2790   23.6230 C   0  0  0  0  0  0  0  0  0  0  0  0
   -6.2570   15.5630   23.2170 C   0  0  0  0  0  0  0  0  0  0  0  0
   -1.5410   15.9610   21.1520 C   0  0  0  0  0  0  0  0  0  0  0  0
   -5.0990   16.1970   22.6610 C   0  0  0  0  0  0  0  0  0  0  0  0
  1  3  1  0  0  0  0
  2  1  2  0  0  0  0
  3  4  1  0  0  0  0
  3  5  1  0  0  0  0
  6  5  1  6  0  0  0
  6  9  1  0  0  0  0
  7  6  1  0  0  0  0
  8  7  1  0  0  0  0
  9 28  1  1  0  0  0
 10  9  1  1  0  0  0
 10 11  1  0  0  0  0
 11 12  1  0  0  0  0
 12 21  1  6  0  0  0
 12 26  1  0  0  0  0
 13 12  1  0  0  0  0
 14 24  1  1  0  0  0
 14 13  1  0  0  0  0
 15 16  1  6  0  0  0
 15 10  1  0  0  0  0
 15 14  1  0  0  0  0
 17 16  1  0  0  0  0
 18 16  1  0  0  0  0
 18 19  1  0  0  0  0
 20 18  2  0  0  0  0
 22 21  1  0  0  0  0
 23 21  2  0  0  0  0
 24 25  1  0  0  0  0
 26 27  1  0  0  0  0
 29 28  1  0  0  0  0
 30  1  1  0  0  0  0
 31 30  1  0  0  0  0
 31 33  1  0  0  0  0
 32 36  2  0  0  0  0
 33 32  1  0  0  0  0
 34 33  2  0  0  0  0
 34 35  1  0  0  0  0
 35 36  1  0  0  0  0
 37 35  1  0  0  0  0
 37 50  2  0  0  0  0
 38 39  1  0  0  0  0
 38 37  1  0  0  0  0
 39 43  1  0  0  0  0
 40 39  2  0  0  0  0
 41 40  1  0  0  0  0
 42 41  2  0  0  0  0
 42 49  1  0  0  0  0
 43 44  2  0  0  0  0
 44 50  1  0  0  0  0
 44 45  1  0  0  0  0
 45 46  2  0  0  0  0
 46 47  1  0  0  0  0
 48 47  2  0  0  0  0
 49 38  2  0  0  0  0
 50 48  1  0  0  0  0
M  END
>  <REMARK>
 VINA RESULT:    -6.345      0.000      0.000
 INTER + INTRA:         -14.123
 INTER:                 -10.031
 INTRA:                  -4.092
 UNBOUND:                -3.141
  Name = lig_assembled_91.pdb
  16 active torsions:
  status: ('A' for Active; 'I' for Inactive)
    1  A    between atoms: _2  and  _10
    2  A    between atoms: _5  and  _26
    3  A    between atoms: _7  and  _8
    4  A    between atoms: _7  and  _26
    5  A    between atoms: _22  and  _42
    6  A    between atoms: _24  and  _30
    7  A    between atoms: _25  and  _29
    8  A    between atoms: _29  and  _30
    9  A    between atoms: _32  and  _33
   10  A    between atoms: _34  and  _35
   11  A    between atoms: _36  and  _38
   12  A    between atoms: _38  and  _39
   13  A    between atoms: _38  and  _40
   14  A    between atoms: _40  and  _41
   15  A    between atoms: _40  and  _42
   16  A    between atoms: _43  and  _45
                            x       y       z     vdW  Elec       q    Type
                         _______ _______ _______ _____ _____    ______ ____

>  <TORSDO>
F 14

$$$$
lig_assembled_92.pdb
 OpenBabel07252309473D

 52 55  0  0  1  0  0  0  0  0999 V2000
   -3.9510    6.7830   23.3830 C   0  0  0  0  0  0  0  0  0  0  0  0
   -3.4480    7.3430   22.4060 O   0  0  0  0  0  0  0  0  0  0  0  0
   -5.2520    6.8120   23.6710 N   0  0  0  0  0  0  0  0  0  0  0  0
   -5.5710    6.3140   24.4900 H   0  0  0  0  0  0  0  0  0  0  0  0
   -6.2490    7.5270   22.8640 C   0  0  0  0  0  0  0  0  0  0  0  0
   -6.6390    8.8610   23.4940 C   0  0  1  0  0  0  0  0  0  0  0  0
   -5.9040    9.0630   24.7120 O   0  0  0  0  0  0  0  0  0  0  0  0
   -6.4610    9.5130   25.3510 H   0  0  0  0  0  0  0  0  0  0  0  0
   -6.3710    9.9990   22.4940 C   0  0  2  0  0  0  0  0  0  0  0  0
   -5.0320   10.7010   22.7630 C   0  0  2  0  0  0  0  0  0  0  0  0
   -5.2120   11.5860   23.9020 O   0  0  0  0  0  0  0  0  0  0  0  0
   -4.0020   12.2670   24.3730 C   0  0  2  0  0  0  0  0  0  0  0  0
   -3.3280   13.0380   23.2120 C   0  0  0  0  0  0  0  0  0  0  0  0
   -3.1450   12.1460   21.9660 C   0  0  1  0  0  0  0  0  0  0  0  0
   -4.4640   11.4860   21.5650 C   0  0  1  0  0  0  0  0  0  0  0  0
   -4.2590   10.5710   20.4310 N   0  0  0  0  0  0  0  0  0  0  0  0
   -3.6280    9.7930   20.5610 H   0  0  0  0  0  0  0  0  0  0  0  0
   -4.8510   10.7030   19.2410 C   0  0  0  0  0  0  0  0  0  0  0  0
   -5.7870   11.9140   19.0670 C   0  0  0  0  0  0  0  0  0  0  0  0
   -4.6720    9.9130   18.3140 O   0  0  0  0  0  0  0  0  0  0  0  0
   -3.0010   11.2540   24.9680 C   0  0  0  0  0  0  0  0  0  0  0  0
   -1.9910   11.6490   25.5490 O   0  0  0  0  0  0  0  0  0  0  0  0
   -3.2040   10.0430   24.8680 O   0  0  0  0  0  0  0  0  0  0  0  0
   -2.6630   12.9340   20.8770 O   0  0  0  0  0  0  0  0  0  0  0  0
   -2.5150   12.3700   20.1140 H   0  0  0  0  0  0  0  0  0  0  0  0
   -4.3920   13.2230   25.3920 O   0  0  0  0  0  0  0  0  0  0  0  0
   -5.8210   13.3310   25.6150 C   0  0  0  0  0  0  0  0  0  0  0  0
   -7.4490   10.9550   22.5300 O   0  0  0  0  0  0  0  0  0  0  0  0
   -7.1310   11.7830   22.8970 H   0  0  0  0  0  0  0  0  0  0  0  0
   -3.1060    6.0490   24.2740 O   0  0  0  0  0  0  0  0  0  0  0  0
   -3.7480    5.9220   25.5450 C   0  0  0  0  0  0  0  0  0  0  0  0
   -1.9550    7.3520   26.4870 N   0  0  0  0  0  0  0  0  0  0  0  0
   -3.2630    6.9620   26.4720 C   0  0  0  0  0  0  0  0  0  0  0  0
   -3.9580    7.6890   27.4100 C   0  0  0  0  0  0  0  0  0  0  0  0
   -3.0290    8.5420   27.9600 N   0  0  0  0  0  0  0  0  0  0  0  0
   -1.8190    8.3080   27.3980 N   0  0  0  0  0  0  0  0  0  0  0  0
   -3.2310    9.5550   28.9310 C   0  0  0  0  0  0  0  0  0  0  0  0
   -3.7370   10.8090   28.5550 C   0  0  0  0  0  0  0  0  0  0  0  0
   -3.8780   11.8220   29.5020 C   0  0  0  0  0  0  0  0  0  0  0  0
   -3.5270   11.5830   30.8320 C   0  0  0  0  0  0  0  0  0  0  0  0
   -3.0310   10.3370   31.2250 C   0  0  0  0  0  0  0  0  0  0  0  0
   -2.8930    9.3180   30.2750 C   0  0  0  0  0  0  0  0  0  0  0  0
   -3.5750   12.9370   31.9760 S   0  0  0  0  0  0  0  0  0  0  0  0
   -4.9600   13.1370   32.3570 O   0  0  0  0  0  0  0  0  0  0  0  0
   -2.5690   12.7230   32.9880 O   0  0  0  0  0  0  0  0  0  0  0  0
   -3.1880   14.2740   31.0200 N   0  0  0  0  0  0  0  0  0  0  0  0
   -3.5130   14.0560   30.0820 H   0  0  0  0  0  0  0  0  0  0  0  0
   -3.7240   15.4710   31.5380 C   0  0  0  0  0  0  0  0  0  0  0  0
   -5.1840   16.1510   30.9670 S   0  0  0  0  0  0  0  0  0  0  0  0
   -4.9310   17.5000   31.9960 C   0  0  0  0  0  0  0  0  0  0  0  0
   -3.7170   17.3680   32.6370 C   0  0  0  0  0  0  0  0  0  0  0  0
   -3.0410   16.1860   32.3970 N   0  0  0  0  0  0  0  0  0  0  0  0
  1  3  1  0  0  0  0
  1 30  1  0  0  0  0
  2  1  2  0  0  0  0
  3  4  1  0  0  0  0
  5  3  1  0  0  0  0
  6  5  1  6  0  0  0
  6  7  1  0  0  0  0
  7  8  1  0  0  0  0
  9 28  1  1  0  0  0
  9  6  1  0  0  0  0
 10  9  1  6  0  0  0
 10 11  1  0  0  0  0
 11 12  1  0  0  0  0
 12 21  1  1  0  0  0
 12 26  1  0  0  0  0
 13 12  1  0  0  0  0
 14 24  1  6  0  0  0
 14 13  1  0  0  0  0
 15 16  1  6  0  0  0
 15 14  1  0  0  0  0
 15 10  1  0  0  0  0
 16 17  1  0  0  0  0
 18 16  1  0  0  0  0
 19 18  1  0  0  0  0
 20 18  2  0  0  0  0
 21 22  1  0  0  0  0
 23 21  2  0  0  0  0
 25 24  1  0  0  0  0
 26 27  1  0  0  0  0
 28 29  1  0  0  0  0
 30 31  1  0  0  0  0
 31 33  1  0  0  0  0
 32 36  2  0  0  0  0
 33 32  1  0  0  0  0
 33 34  2  0  0  0  0
 34 35  1  0  0  0  0
 35 37  1  0  0  0  0
 36 35  1  0  0  0  0
 37 42  1  0  0  0  0
 38 37  2  0  0  0  0
 38 39  1  0  0  0  0
 39 40  2  0  0  0  0
 40 41  1  0  0  0  0
 40 43  1  0  0  0  0
 42 41  2  0  0  0  0
 43 44  2  0  0  0  0
 43 45  2  0  0  0  0
 46 48  1  0  0  0  0
 46 43  1  0  0  0  0
 47 46  1  0  0  0  0
 48 52  2  0  0  0  0
 49 48  1  0  0  0  0
 49 50  1  0  0  0  0
 50 51  2  0  0  0  0
 52 51  1  0  0  0  0
M  END
>  <REMARK>
 VINA RESULT:    -6.169      0.000      0.000
 INTER + INTRA:         -13.788
 INTER:                 -10.630
 INTRA:                  -3.158
 UNBOUND:                -2.389
  Name = lig_assembled_92.pdb
  18 active torsions:
  status: ('A' for Active; 'I' for Inactive)
    1  A    between atoms: _2  and  _11
    2  A    between atoms: _3  and  _46
    3  A    between atoms: _6  and  _25
    4  A    between atoms: _8  and  _9
    5  A    between atoms: _8  and  _25
    6  A    between atoms: _14  and  _46
    7  A    between atoms: _21  and  _41
    8  A    between atoms: _23  and  _29
    9  A    between atoms: _24  and  _28
   10  A    between atoms: _28  and  _29
   11  A    between atoms: _31  and  _32
   12  A    between atoms: _33  and  _34
   13  A    between atoms: _35  and  _37
   14  A    between atoms: _37  and  _38
   15  A    between atoms: _37  and  _39
   16  A    between atoms: _39  and  _40
   17  A    between atoms: _39  and  _41
   18  A    between atoms: _42  and  _44
                            x       y       z     vdW  Elec       q    Type
                         _______ _______ _______ _____ _____    ______ ____

>  <TORSDO>
F 16

$$$$
lig_assembled_93.pdb
 OpenBabel07252309473D

 43 45  0  0  1  0  0  0  0  0999 V2000
   -6.9320    8.7310   23.8320 C   0  0  2  0  0  0  0  0  0  0  0  0
   -6.3660    8.7750   25.1520 O   0  0  0  0  0  0  0  0  0  0  0  0
   -5.4830    8.4000   25.1360 H   0  0  0  0  0  0  0  0  0  0  0  0
   -6.3690    7.5390   23.0640 C   0  0  0  0  0  0  0  0  0  0  0  0
   -3.9760    7.0180   23.3930 C   0  0  0  0  0  0  0  0  0  0  0  0
   -3.6050    7.6490   22.4000 O   0  0  0  0  0  0  0  0  0  0  0  0
   -5.2490    6.9090   23.7740 N   0  0  0  0  0  0  0  0  0  0  0  0
   -5.4560    6.3620   24.5980 H   0  0  0  0  0  0  0  0  0  0  0  0
   -2.9990    6.3520   24.1980 O   0  0  0  0  0  0  0  0  0  0  0  0
   -3.6140    5.8750   25.3980 C   0  0  0  0  0  0  0  0  0  0  0  0
   -1.8420    7.1160   26.5860 N   0  0  0  0  0  0  0  0  0  0  0  0
   -3.1090    6.6230   26.5640 C   0  0  0  0  0  0  0  0  0  0  0  0
   -3.7350    6.9560   27.7420 C   0  0  0  0  0  0  0  0  0  0  0  0
   -2.8050    7.6820   28.4670 N   0  0  0  0  0  0  0  0  0  0  0  0
   -1.6690    7.7460   27.7380 N   0  0  0  0  0  0  0  0  0  0  0  0
   -2.9650    8.2920   29.7510 C   0  0  0  0  0  0  0  0  0  0  0  0
   -2.8510    9.7010   29.8260 C   0  0  0  0  0  0  0  0  0  0  0  0
   -2.9740   10.3850   31.0380 C   0  0  0  0  0  0  0  0  0  0  0  0
   -3.2160    9.6850   32.2070 C   0  0  0  0  0  0  0  0  0  0  0  0
   -3.3400    8.2990   32.1630 C   0  0  0  0  0  0  0  0  0  0  0  0
   -3.2200    7.5900   30.9480 C   0  0  0  0  0  0  0  0  0  0  0  0
   -3.4620    5.5040   31.2060 I   0  0  0  0  0  0  0  0  0  0  0  0
   -6.6320   10.0270   23.0610 C   0  0  2  0  0  0  0  0  0  0  0  0
   -5.2110   10.5450   23.3300 C   0  0  2  0  0  0  0  0  0  0  0  0
   -5.2850   11.5120   24.4140 O   0  0  0  0  0  0  0  0  0  0  0  0
   -4.0000   12.0380   24.8820 C   0  0  2  0  0  0  0  0  0  0  0  0
   -3.1970   12.6360   23.7010 C   0  0  0  0  0  0  0  0  0  0  0  0
   -3.1180   11.6560   22.5120 C   0  0  1  0  0  0  0  0  0  0  0  0
   -4.5100   11.1690   22.1090 C   0  0  1  0  0  0  0  0  0  0  0  0
   -4.4150   10.1700   21.0330 N   0  0  0  0  0  0  0  0  0  0  0  0
   -3.9830    9.2830   21.2500 H   0  0  0  0  0  0  0  0  0  0  0  0
   -4.8630   10.3590   19.7890 C   0  0  0  0  0  0  0  0  0  0  0  0
   -5.4930   11.7310   19.4830 C   0  0  0  0  0  0  0  0  0  0  0  0
   -4.7830    9.4980   18.9110 O   0  0  0  0  0  0  0  0  0  0  0  0
   -3.1690   10.9290   25.5610 C   0  0  0  0  0  0  0  0  0  0  0  0
   -3.7280   10.0420   26.2050 O   0  0  0  0  0  0  0  0  0  0  0  0
   -1.9410   10.9220   25.4650 O   0  0  0  0  0  0  0  0  0  0  0  0
   -2.5040   12.3020   21.3960 O   0  0  0  0  0  0  0  0  0  0  0  0
   -2.0030   13.0620   21.7000 H   0  0  0  0  0  0  0  0  0  0  0  0
   -4.2700   13.0990   25.8350 O   0  0  0  0  0  0  0  0  0  0  0  0
   -5.6640   13.2500   26.2040 C   0  0  0  0  0  0  0  0  0  0  0  0
   -7.6010   11.0400   23.3960 O   0  0  0  0  0  0  0  0  0  0  0  0
   -7.1780   11.7290   23.9150 H   0  0  0  0  0  0  0  0  0  0  0  0
  1  4  1  6  0  0  0
  1  2  1  0  0  0  0
  3  2  1  0  0  0  0
  4  7  1  0  0  0  0
  5  7  1  0  0  0  0
  5  9  1  0  0  0  0
  6  5  2  0  0  0  0
  7  8  1  0  0  0  0
  9 10  1  0  0  0  0
 10 12  1  0  0  0  0
 11 15  2  0  0  0  0
 12 11  1  0  0  0  0
 12 13  2  0  0  0  0
 13 14  1  0  0  0  0
 14 16  1  0  0  0  0
 15 14  1  0  0  0  0
 16 17  2  0  0  0  0
 16 21  1  0  0  0  0
 17 18  1  0  0  0  0
 18 19  2  0  0  0  0
 20 19  1  0  0  0  0
 21 22  1  0  0  0  0
 21 20  2  0  0  0  0
 23 42  1  1  0  0  0
 23  1  1  0  0  0  0
 24 23  1  6  0  0  0
 24 25  1  0  0  0  0
 25 26  1  0  0  0  0
 26 35  1  1  0  0  0
 26 40  1  0  0  0  0
 27 26  1  0  0  0  0
 28 38  1  6  0  0  0
 28 27  1  0  0  0  0
 29 30  1  6  0  0  0
 29 28  1  0  0  0  0
 29 24  1  0  0  0  0
 30 31  1  0  0  0  0
 32 30  1  0  0  0  0
 33 32  1  0  0  0  0
 34 32  2  0  0  0  0
 35 36  1  0  0  0  0
 37 35  2  0  0  0  0
 38 39  1  0  0  0  0
 40 41  1  0  0  0  0
 42 43  1  0  0  0  0
M  END
>  <REMARK>
 VINA RESULT:    -5.211      0.000      0.000
 INTER + INTRA:         -11.932
 INTER:                  -8.838
 INTRA:                  -3.094
 UNBOUND:                -2.913
  Name = lig_assembled_93.pdb
  16 active torsions:
  status: ('A' for Active; 'I' for Inactive)
    1  A    between atoms: _2  and  _9
    2  A    between atoms: _4  and  _18
    3  A    between atoms: _6  and  _7
    4  A    between atoms: _6  and  _18
    5  A    between atoms: _14  and  _34
    6  A    between atoms: _16  and  _22
    7  A    between atoms: _17  and  _21
    8  A    between atoms: _21  and  _22
    9  A    between atoms: _24  and  _25
   10  A    between atoms: _26  and  _27
   11  A    between atoms: _28  and  _30
   12  A    between atoms: _30  and  _31
   13  A    between atoms: _30  and  _32
   14  A    between atoms: _32  and  _33
   15  A    between atoms: _32  and  _34
   16  A    between atoms: _35  and  _37
                            x       y       z     vdW  Elec       q    Type
                         _______ _______ _______ _____ _____    ______ ____

>  <TORSDO>
F 14

$$$$
lig_assembled_9.pdb
 OpenBabel07252309473D

 47 49  0  0  1  0  0  0  0  0999 V2000
   -7.1480    8.5980   24.1270 C   0  0  1  0  0  0  0  0  0  0  0  0
   -6.6120    8.7920   25.4460 O   0  0  0  0  0  0  0  0  0  0  0  0
   -7.3190    9.0400   26.0460 H   0  0  0  0  0  0  0  0  0  0  0  0
   -6.8750    9.8230   23.2370 C   0  0  2  0  0  0  0  0  0  0  0  0
   -5.4990   10.4450   23.5150 C   0  0  2  0  0  0  0  0  0  0  0  0
   -5.6690   11.4700   24.5330 O   0  0  0  0  0  0  0  0  0  0  0  0
   -4.4350   12.1050   25.0050 C   0  0  2  0  0  0  0  0  0  0  0  0
   -3.6310   12.6790   23.8130 C   0  0  0  0  0  0  0  0  0  0  0  0
   -3.4520   11.6350   22.6910 C   0  0  1  0  0  0  0  0  0  0  0  0
   -4.7970   11.0360   22.2780 C   0  0  1  0  0  0  0  0  0  0  0  0
   -4.6050    9.9810   21.2710 N   0  0  0  0  0  0  0  0  0  0  0  0
   -4.1020    9.1500   21.5490 H   0  0  0  0  0  0  0  0  0  0  0  0
   -5.0500   10.0510   20.0140 C   0  0  0  0  0  0  0  0  0  0  0  0
   -5.7890   11.3420   19.6140 C   0  0  0  0  0  0  0  0  0  0  0  0
   -4.8870    9.1450   19.1950 O   0  0  0  0  0  0  0  0  0  0  0  0
   -3.5610   11.0940   25.7770 C   0  0  0  0  0  0  0  0  0  0  0  0
   -4.0850   10.2070   26.4500 O   0  0  0  0  0  0  0  0  0  0  0  0
   -2.3320   11.1660   25.7270 O   0  0  0  0  0  0  0  0  0  0  0  0
   -4.8020   13.2020   25.8810 O   0  0  0  0  0  0  0  0  0  0  0  0
   -5.8380   14.0750   25.3660 C   0  0  0  0  0  0  0  0  0  0  0  0
   -2.8420   12.2480   21.5550 O   0  0  0  0  0  0  0  0  0  0  0  0
   -2.9730   11.6940   20.7820 H   0  0  0  0  0  0  0  0  0  0  0  0
   -7.9110   10.8080   23.4180 O   0  0  0  0  0  0  0  0  0  0  0  0
   -7.7250   11.5740   22.8680 H   0  0  0  0  0  0  0  0  0  0  0  0
   -6.5290    7.3580   23.4900 C   0  0  0  0  0  0  0  0  0  0  0  0
   -4.0750    7.0760   23.5070 C   0  0  0  0  0  0  0  0  0  0  0  0
   -3.9290    7.4520   22.3420 O   0  0  0  0  0  0  0  0  0  0  0  0
   -5.2550    6.9950   24.1220 N   0  0  0  0  0  0  0  0  0  0  0  0
   -5.2730    6.6660   25.0780 H   0  0  0  0  0  0  0  0  0  0  0  0
   -2.9220    6.6950   24.2630 O   0  0  0  0  0  0  0  0  0  0  0  0
   -3.3350    6.0520   25.4720 C   0  0  0  0  0  0  0  0  0  0  0  0
   -1.8250    7.6650   26.5890 N   0  0  0  0  0  0  0  0  0  0  0  0
   -2.9170    6.8480   26.6410 C   0  0  0  0  0  0  0  0  0  0  0  0
   -3.4840    6.9330   27.8910 C   0  0  0  0  0  0  0  0  0  0  0  0
   -2.7160    7.8570   28.5660 N   0  0  0  0  0  0  0  0  0  0  0  0
   -1.7050    8.2680   27.7640 N   0  0  0  0  0  0  0  0  0  0  0  0
   -2.9000    8.3760   29.8730 C   0  0  0  0  0  0  0  0  0  0  0  0
   -2.7160    9.7410   30.1300 C   0  0  0  0  0  0  0  0  0  0  0  0
   -2.8670   10.2450   31.4310 C   0  0  0  0  0  0  0  0  0  0  0  0
   -3.2080    9.3770   32.4750 C   0  0  0  0  0  0  0  0  0  0  0  0
   -3.4040    8.0180   32.2200 C   0  0  0  0  0  0  0  0  0  0  0  0
   -3.2530    7.5170   30.9260 C   0  0  0  0  0  0  0  0  0  0  0  0
   -2.7400   11.6940   31.7340 C   0  0  0  0  0  0  0  0  0  0  0  0
   -1.7350   12.2040   32.2010 O   0  0  0  0  0  0  0  0  0  0  0  0
   -3.9240   12.3150   31.5070 O   0  0  0  0  0  0  0  0  0  0  0  0
   -3.9090   13.3230   30.4870 C   0  0  0  0  0  0  0  0  0  0  0  0
   -4.6900   12.7970   29.2970 C   0  0  0  0  0  0  0  0  0  0  0  0
  1 25  1  6  0  0  0
  1  2  1  0  0  0  0
  2  3  1  0  0  0  0
  4 23  1  1  0  0  0
  4  1  1  0  0  0  0
  5  4  1  6  0  0  0
  5  6  1  0  0  0  0
  6  7  1  0  0  0  0
  7 16  1  1  0  0  0
  7 19  1  0  0  0  0
  8  7  1  0  0  0  0
  9 21  1  6  0  0  0
  9  8  1  0  0  0  0
 10 11  1  6  0  0  0
 10  9  1  0  0  0  0
 10  5  1  0  0  0  0
 11 12  1  0  0  0  0
 13 11  1  0  0  0  0
 14 13  1  0  0  0  0
 15 13  2  0  0  0  0
 16 17  1  0  0  0  0
 18 16  2  0  0  0  0
 20 19  1  0  0  0  0
 22 21  1  0  0  0  0
 24 23  1  0  0  0  0
 25 28  1  0  0  0  0
 26 28  1  0  0  0  0
 26 30  1  0  0  0  0
 27 26  2  0  0  0  0
 28 29  1  0  0  0  0
 30 31  1  0  0  0  0
 31 33  1  0  0  0  0
 32 33  1  0  0  0  0
 32 36  2  0  0  0  0
 33 34  2  0  0  0  0
 34 35  1  0  0  0  0
 35 37  1  0  0  0  0
 36 35  1  0  0  0  0
 37 38  2  0  0  0  0
 37 42  1  0  0  0  0
 38 39  1  0  0  0  0
 39 43  1  0  0  0  0
 39 40  2  0  0  0  0
 41 40  1  0  0  0  0
 42 41  2  0  0  0  0
 43 44  2  0  0  0  0
 45 43  1  0  0  0  0
 46 45  1  0  0  0  0
 47 46  1  0  0  0  0
M  END
>  <REMARK>
 VINA RESULT:    -5.588      0.000      0.000
 INTER + INTRA:         -13.206
 INTER:                  -9.483
 INTRA:                  -3.723
 UNBOUND:                -2.554
  Name = lig_assembled_9.pdb
  20 active torsions:
  status: ('A' for Active; 'I' for Inactive)
    1  A    between atoms: _2  and  _9
    2  A    between atoms: _4  and  _23
    3  A    between atoms: _6  and  _7
    4  A    between atoms: _6  and  _23
    5  A    between atoms: _11  and  _12
    6  A    between atoms: _12  and  _17
    7  A    between atoms: _13  and  _14
    8  A    between atoms: _13  and  _17
    9  A    between atoms: _19  and  _39
   10  A    between atoms: _21  and  _27
   11  A    between atoms: _22  and  _26
   12  A    between atoms: _26  and  _27
   13  A    between atoms: _29  and  _30
   14  A    between atoms: _31  and  _32
   15  A    between atoms: _33  and  _35
   16  A    between atoms: _35  and  _36
   17  A    between atoms: _35  and  _37
   18  A    between atoms: _37  and  _38
   19  A    between atoms: _37  and  _39
   20  A    between atoms: _40  and  _42
                            x       y       z     vdW  Elec       q    Type
                         _______ _______ _______ _____ _____    ______ ____

>  <TORSDO>
F 17

$$$$
