REMARK VINA RESULT:    -5.912      0.000      0.000
REMARK INTER + INTRA:         -12.582
REMARK INTER:                 -10.269
REMARK INTRA:                  -2.313
REMARK UNBOUND:                -2.004
REMARK  Name = lig_assembled_6.pdb
REMARK  17 active torsions:
REMARK  status: ('A' for Active; 'I' for Inactive)
REMARK    1  A    between atoms: _2  and  _10
REMARK    2  A    between atoms: _3  and  _13
REMARK    3  A    between atoms: _5  and  _21
REMARK    4  A    between atoms: _7  and  _8
REMARK    5  A    between atoms: _7  and  _21
REMARK    6  A    between atoms: _17  and  _37
REMARK    7  A    between atoms: _19  and  _25
REMARK    8  A    between atoms: _20  and  _24
REMARK    9  A    between atoms: _24  and  _25
REMARK   10  A    between atoms: _27  and  _28
REMARK   11  A    between atoms: _29  and  _30
REMARK   12  A    between atoms: _31  and  _33
REMARK   13  A    between atoms: _33  and  _34
REMARK   14  A    between atoms: _33  and  _35
REMARK   15  A    between atoms: _35  and  _36
REMARK   16  A    between atoms: _35  and  _37
REMARK   17  A    between atoms: _38  and  _40
REMARK                            x       y       z     vdW  Elec       q    Type
REMARK                         _______ _______ _______ _____ _____    ______ ____
ROOT
ATOM      1  C   UNL     1      -3.160  11.789  25.099  0.00  0.00    +0.163 C 
ENDROOT
BRANCH   1   2
ATOM      2  O   UNL     1      -2.020  10.915  25.062  0.00  0.00    -0.388 OA
ATOM      3  H   UNL     1      -2.310  10.006  25.167  0.00  0.00    +0.210 HD
ENDBRANCH   1   2
BRANCH   1   4
ATOM      4  C   UNL     1      -2.845  13.090  24.369  0.00  0.00    +0.141 C 
BRANCH   4   7
ATOM      5  C   UNL     1      -4.847  13.917  23.180  0.00  0.00    +0.401 C 
ATOM      6  O   UNL     1      -5.348  14.428  24.184  0.00  0.00    -0.226 OA
ATOM      7  N   UNL     1      -3.683  13.266  23.176  0.00  0.00    -0.279 N 
ATOM      8  H   UNL     1      -3.359  12.872  22.304  0.00  0.00    +0.152 HD
BRANCH   5   9
ATOM      9  O   UNL     1      -5.541  14.010  21.933  0.00  0.00    -0.444 OA
BRANCH   9  10
ATOM     10  C   UNL     1      -6.237  12.787  21.680  0.00  0.00    +0.292 C 
BRANCH  10  12
ATOM     11  N   UNL     1      -7.198  12.645  19.403  0.00  0.00    -0.131 NA
ATOM     12  C   UNL     1      -6.150  12.433  20.251  0.00  0.00    +0.121 A 
ATOM     13  C   UNL     1      -5.104  11.886  19.544  0.00  0.00    +0.143 A 
ATOM     14  N   UNL     1      -5.554  11.810  18.246  0.00  0.00    -0.220 N 
ATOM     15  N   UNL     1      -6.832  12.257  18.189  0.00  0.00    -0.060 NA
BRANCH  14  16
ATOM     16  C   UNL     1      -4.851  11.388  17.085  0.00  0.00    +0.067 A 
ATOM     17  C   UNL     1      -4.169  12.317  16.285  0.00  0.00    +0.034 A 
ATOM     18  C   UNL     1      -3.533  11.899  15.111  0.00  0.00    +0.086 A 
ATOM     19  C   UNL     1      -3.577  10.550  14.737  0.00  0.00    +0.273 A 
ATOM     20  C   UNL     1      -4.233   9.611  15.543  0.00  0.00    +0.086 A 
ATOM     21  C   UNL     1      -4.867  10.033  16.716  0.00  0.00    +0.034 A 
BRANCH  19  22
ATOM     22  N   UNL     1      -2.944  10.125  13.482  0.00  0.00    +0.080 N 
ATOM     23  O   UNL     1      -2.009  10.813  13.047  0.00  0.00    +0.041 OA
ATOM     24  O   UNL     1      -3.387   9.110  12.928  0.00  0.00    -0.576 OA
ENDBRANCH  19  22
ENDBRANCH  14  16
ENDBRANCH  10  12
ENDBRANCH   9  10
ENDBRANCH   5   9
ENDBRANCH   4   7
ENDBRANCH   1   4
BRANCH   1  25
ATOM     25  C   UNL     1      -3.569  12.099  26.549  0.00  0.00    +0.175 C 
BRANCH  25  26
ATOM     26  C   UNL     1      -3.359  10.895  27.479  0.00  0.00    +0.176 C 
ATOM     27  O   UNL     1      -3.997   9.741  26.867  0.00  0.00    -0.332 OA
ATOM     28  C   UNL     1      -3.808   8.467  27.567  0.00  0.00    +0.277 C 
ATOM     29  C   UNL     1      -4.255   8.590  29.044  0.00  0.00    +0.110 C 
ATOM     30  C   UNL     1      -3.626   9.822  29.729  0.00  0.00    +0.143 C 
ATOM     31  C   UNL     1      -3.880  11.091  28.915  0.00  0.00    +0.133 C 
BRANCH  31  32
ATOM     32  N   UNL     1      -3.203  12.243  29.531  0.00  0.00    -0.308 N 
ATOM     33  H   UNL     1      -2.193  12.234  29.564  0.00  0.00    +0.149 HD
ATOM     34  C   UNL     1      -3.836  13.299  30.049  0.00  0.00    +0.210 C 
ATOM     35  C   UNL     1      -5.375  13.271  30.005  0.00  0.00    +0.109 C 
ATOM     36  O   UNL     1      -3.242  14.257  30.545  0.00  0.00    -0.276 OA
ENDBRANCH  31  32
BRANCH  28  37
ATOM     37  C   UNL     1      -2.331   8.025  27.510  0.00  0.00    +0.414 C 
ATOM     38  O   UNL     1      -1.639   8.302  26.531  0.00  0.00    -0.240 OA
ATOM     39  O   UNL     1      -1.833   7.392  28.441  0.00  0.00    -0.240 OA
ENDBRANCH  28  37
BRANCH  30  40
ATOM     40  O   UNL     1      -4.180   9.982  31.035  0.00  0.00    -0.390 OA
ATOM     41  H   UNL     1      -3.911  10.831  31.395  0.00  0.00    +0.210 HD
ENDBRANCH  30  40
BRANCH  28  42
ATOM     42  O   UNL     1      -4.641   7.471  26.919  0.00  0.00    -0.343 OA
ATOM     43  C   UNL     1      -5.049   7.800  25.567  0.00  0.00    +0.198 C 
ENDBRANCH  28  42
ENDBRANCH  25  26
BRANCH  25  44
ATOM     44  O   UNL     1      -4.944  12.530  26.597  0.00  0.00    -0.387 OA
ATOM     45  H   UNL     1      -5.377  12.309  25.769  0.00  0.00    +0.210 HD
ENDBRANCH  25  44
ENDBRANCH   1  25
TORSDOF 15
