REMARK VINA RESULT:    -5.419      0.000      0.000
REMARK INTER + INTRA:         -12.218
REMARK INTER:                  -8.124
REMARK INTRA:                  -4.093
REMARK UNBOUND:                -2.363
REMARK  Name = lig_assembled_59.pdb
REMARK  18 active torsions:
REMARK  status: ('A' for Active; 'I' for Inactive)
REMARK    1  A    between atoms: _2  and  _10
REMARK    2  A    between atoms: _5  and  _20
REMARK    3  A    between atoms: _7  and  _8
REMARK    4  A    between atoms: _7  and  _20
REMARK    5  A    between atoms: _13  and  _14
REMARK    6  A    between atoms: _14  and  _15
REMARK    7  A    between atoms: _16  and  _36
REMARK    8  A    between atoms: _18  and  _24
REMARK    9  A    between atoms: _19  and  _23
REMARK   10  A    between atoms: _23  and  _24
REMARK   11  A    between atoms: _26  and  _27
REMARK   12  A    between atoms: _28  and  _29
REMARK   13  A    between atoms: _30  and  _32
REMARK   14  A    between atoms: _32  and  _33
REMARK   15  A    between atoms: _32  and  _34
REMARK   16  A    between atoms: _34  and  _35
REMARK   17  A    between atoms: _34  and  _36
REMARK   18  A    between atoms: _37  and  _39
REMARK                            x       y       z     vdW  Elec       q    Type
REMARK                         _______ _______ _______ _____ _____    ______ ____
ROOT
ATOM      1  C   UNL     1      -3.183  11.628  22.636  0.00  0.00    +0.163 C 
ENDROOT
BRANCH   1   2
ATOM      2  O   UNL     1      -2.430  12.127  23.754  0.00  0.00    -0.388 OA
ATOM      3  H   UNL     1      -3.033  12.420  24.441  0.00  0.00    +0.210 HD
ENDBRANCH   1   2
BRANCH   1   4
ATOM      4  C   UNL     1      -3.912  10.324  23.003  0.00  0.00    +0.175 C 
BRANCH   4   5
ATOM      5  C   UNL     1      -4.016  10.127  24.522  0.00  0.00    +0.176 C 
ATOM      6  O   UNL     1      -3.021   9.142  24.914  0.00  0.00    -0.332 OA
ATOM      7  C   UNL     1      -2.901   8.901  26.355  0.00  0.00    +0.277 C 
ATOM      8  C   UNL     1      -4.276   8.524  26.958  0.00  0.00    +0.110 C 
ATOM      9  C   UNL     1      -5.374   9.526  26.542  0.00  0.00    +0.143 C 
ATOM     10  C   UNL     1      -5.409   9.703  25.023  0.00  0.00    +0.133 C 
BRANCH  10  11
ATOM     11  N   UNL     1      -6.399  10.724  24.646  0.00  0.00    -0.308 N 
ATOM     12  H   UNL     1      -6.320  11.637  25.072  0.00  0.00    +0.149 HD
ATOM     13  C   UNL     1      -7.394  10.523  23.779  0.00  0.00    +0.210 C 
ATOM     14  C   UNL     1      -7.502   9.113  23.167  0.00  0.00    +0.109 C 
ATOM     15  O   UNL     1      -8.200  11.401  23.470  0.00  0.00    -0.276 OA
ENDBRANCH  10  11
BRANCH   7  16
ATOM     16  C   UNL     1      -2.348  10.150  27.074  0.00  0.00    +0.414 C 
ATOM     17  O   UNL     1      -1.962  11.120  26.423  0.00  0.00    -0.240 OA
ATOM     18  O   UNL     1      -2.288  10.187  28.304  0.00  0.00    -0.240 OA
ENDBRANCH   7  16
BRANCH   7  19
ATOM     19  O   UNL     1      -1.995   7.785  26.550  0.00  0.00    -0.343 OA
ATOM     20  C   UNL     1      -2.618   6.567  27.031  0.00  0.00    +0.198 C 
ENDBRANCH   7  19
BRANCH   9  21
ATOM     21  O   UNL     1      -6.647   9.059  26.991  0.00  0.00    -0.390 OA
ATOM     22  H   UNL     1      -6.931   9.580  27.745  0.00  0.00    +0.210 HD
ENDBRANCH   9  21
ENDBRANCH   4   5
BRANCH   4  23
ATOM     23  O   UNL     1      -3.246   9.197  22.400  0.00  0.00    -0.387 OA
ATOM     24  H   UNL     1      -3.070   8.532  23.070  0.00  0.00    +0.210 HD
ENDBRANCH   4  23
ENDBRANCH   1   4
BRANCH   1  25
ATOM     25  C   UNL     1      -4.200  12.671  22.185  0.00  0.00    +0.141 C 
BRANCH  25  28
ATOM     26  C   UNL     1      -5.756  14.224  23.313  0.00  0.00    +0.401 C 
ATOM     27  O   UNL     1      -6.601  14.179  22.416  0.00  0.00    -0.226 OA
ATOM     28  N   UNL     1      -4.602  13.556  23.285  0.00  0.00    -0.279 N 
ATOM     29  H   UNL     1      -3.968  13.665  24.064  0.00  0.00    +0.152 HD
BRANCH  26  30
ATOM     30  O   UNL     1      -6.005  15.040  24.461  0.00  0.00    -0.444 OA
BRANCH  30  31
ATOM     31  C   UNL     1      -7.240  14.649  25.066  0.00  0.00    +0.292 C 
BRANCH  31  33
ATOM     32  N   UNL     1      -7.871  12.754  26.524  0.00  0.00    -0.131 NA
ATOM     33  C   UNL     1      -6.988  13.750  26.209  0.00  0.00    +0.121 A 
ATOM     34  C   UNL     1      -5.942  13.723  27.101  0.00  0.00    +0.145 A 
ATOM     35  N   UNL     1      -6.231  12.680  27.952  0.00  0.00    -0.202 N 
ATOM     36  N   UNL     1      -7.403  12.105  27.581  0.00  0.00    -0.059 NA
BRANCH  35  37
ATOM     37  C   UNL     1      -5.469  12.240  29.067  0.00  0.00    +0.156 A 
ATOM     38  C   UNL     1      -4.489  13.080  29.593  0.00  0.00    +0.048 A 
ATOM     39  C   UNL     1      -3.717  12.625  30.660  0.00  0.00    +0.011 A 
ATOM     40  C   UNL     1      -3.938  11.351  31.188  0.00  0.00    -0.004 A 
ATOM     41  C   UNL     1      -4.939  10.583  30.600  0.00  0.00    +0.119 A 
ATOM     42  N   UNL     1      -5.711  10.997  29.566  0.00  0.00    -0.236 NA
BRANCH  40  43
ATOM     43  C   UNL     1      -3.058  10.807  32.275  0.00  0.00    +0.192 C 
BRANCH  43  44
ATOM     44  O   UNL     1      -1.771  11.406  32.247  0.00  0.00    -0.390 OA
ATOM     45  H   UNL     1      -1.139  10.708  31.998  0.00  0.00    +0.210 HD
ENDBRANCH  43  44
ENDBRANCH  40  43
ENDBRANCH  35  37
ENDBRANCH  31  33
ENDBRANCH  30  31
ENDBRANCH  26  30
ENDBRANCH  25  28
ENDBRANCH   1  25
TORSDOF 16
