ligand_38_pose_16_2HRL.pdbqt
 OpenBabel07062320523D

 51 52  0  0  1  0  0  0  0  0999 V2000
   29.3140   34.8600    9.7890 N   0  0  0  0  0  0  0  0  0  0  0  0
   28.0170   34.4350   10.1620 C   0  0  0  0  0  0  0  0  0  0  0  0
   27.3010   33.7530    9.3590 O   0  0  0  0  0  0  0  0  0  0  0  0
   29.8650   35.4150   10.4770 H   0  0  0  0  0  0  0  0  0  0  0  0
   29.7770   34.4900    8.4790 C   0  0  0  0  0  0  0  0  0  0  0  0
   29.4910   35.5980    7.4540 C   0  0  2  0  0  0  0  0  0  0  0  0
   29.4710   36.8670    8.2300 C   0  0  2  0  0  0  0  0  0  0  0  0
   28.6880   37.9980    7.6310 C   0  0  2  0  0  0  0  0  0  0  0  0
   26.4290   38.5580    7.4230 C   0  0  2  0  0  0  0  0  0  0  0  0
   26.7930   39.2630    6.1300 C   0  0  0  0  0  0  0  0  0  0  0  0
   27.3540   37.5790    7.6930 O   0  0  0  0  0  0  0  0  0  0  0  0
   27.8740   38.5000    5.3820 C   0  0  1  0  0  0  0  0  0  0  0  0
   29.1160   38.4630    6.2930 C   0  0  1  0  0  0  0  0  0  0  0  0
   25.2280   37.8710    7.1440 O   0  0  0  0  0  0  0  0  0  0  0  0
   24.7280   38.2880    6.4170 H   0  0  0  0  0  0  0  0  0  0  0  0
   26.1600   39.4910    8.5190 C   0  0  0  0  0  0  0  0  0  0  0  0
   25.8380   40.6770    8.2740 O   0  0  0  0  0  0  0  0  0  0  0  0
   26.2430   39.1300    9.8560 O   0  0  0  0  0  0  0  0  0  0  0  0
   25.9780   39.7900   10.5600 H   0  0  0  0  0  0  0  0  0  0  0  0
   27.4540   37.2450    5.0260 O   0  0  0  0  0  0  0  0  0  0  0  0
   28.2040   36.5930    5.2000 H   0  0  0  0  0  0  0  0  0  0  0  0
   29.5700   39.8590    6.3240 N   0  0  0  0  0  0  0  0  0  0  0  0
   30.9460   40.1890    6.4440 C   0  0  0  0  0  0  0  0  0  0  0  0
   28.9100   40.6650    6.2630 H   0  0  0  0  0  0  0  0  0  0  0  0
   31.3890   41.6300    6.4760 C   0  0  0  0  0  0  0  0  0  0  0  0
   31.8250   39.3160    6.5250 O   0  0  0  0  0  0  0  0  0  0  0  0
   30.8150   37.3280    8.2480 O   0  0  0  0  0  0  0  0  0  0  0  0
   30.8030   38.1510    7.6810 H   0  0  0  0  0  0  0  0  0  0  0  0
   28.2740   35.2610    6.8670 O   0  0  0  0  0  0  0  0  0  0  0  0
   28.4480   34.9340    5.9590 H   0  0  0  0  0  0  0  0  0  0  0  0
   27.4490   34.7220   11.3940 O   0  0  0  0  0  0  0  0  0  0  0  0
   28.1090   35.4540   12.4100 C   0  0  0  0  0  0  0  0  0  0  0  0
   28.5630   34.5640   13.5120 C   0  0  0  0  0  0  0  0  0  0  0  0
   29.8490   34.0370   13.6710 C   0  0  0  0  0  0  0  0  0  0  0  0
   27.8650   34.0890   14.5590 N   0  0  0  0  0  0  0  0  0  0  0  0
   29.8660   33.2870   14.7780 N   0  0  0  0  0  0  0  0  0  0  0  0
   28.6540   33.3340   15.2970 N   0  0  0  0  0  0  0  0  0  0  0  0
   30.9670   32.5430   15.3470 C   0  0  0  0  0  0  0  0  0  0  0  0
   30.9770   32.6940   16.8260 C   0  0  0  0  0  0  0  0  0  0  0  0
   31.4660   33.8360   17.4220 C   0  0  0  0  0  0  0  0  0  0  0  0
   30.4950   31.6920   17.6210 C   0  0  0  0  0  0  0  0  0  0  0  0
   31.4770   33.9800   18.8120 C   0  0  0  0  0  0  0  0  0  0  0  0
   30.5000   31.8240   19.0080 C   0  0  0  0  0  0  0  0  0  0  0  0
   30.9930   32.9740   19.6030 C   0  0  0  0  0  0  0  0  0  0  0  0
   29.8230   30.4100   20.0800 Br  0  0  0  0  0  0  0  0  0  0  0  0
   29.8670   25.5550   16.9770 C   0  0  0  0  0  0  0  0  0  0  0  0
   28.3450   25.7220   17.0260 C   0  0  0  0  0  0  0  0  0  0  0  0
   27.6010   24.4020   16.8950 C   0  0  0  0  0  0  0  0  0  0  0  0
   26.1500   24.5300   17.2670 C   0  0  0  0  0  0  0  0  0  0  0  0
   25.6880   23.2530   17.9610 C   0  0  0  0  0  0  0  0  0  0  0  0
   24.4620   22.7260   17.3160 N   0  0  0  0  0  0  0  0  0  0  0  0
  1  2  1  0  0  0  0
  1  4  1  0  0  0  0
  2 31  1  0  0  0  0
  3  2  2  0  0  0  0
  5  1  1  0  0  0  0
  6  7  1  0  0  0  0
  6  5  1  1  0  0  0
  7 27  1  6  0  0  0
  8 11  1  0  0  0  0
  8  7  1  6  0  0  0
  9 14  1  6  0  0  0
  9 11  1  0  0  0  0
  9 16  1  0  0  0  0
 10  9  1  0  0  0  0
 12 20  1  1  0  0  0
 12 10  1  0  0  0  0
 12 13  1  0  0  0  0
 13 22  1  1  0  0  0
 13  8  1  0  0  0  0
 15 14  1  0  0  0  0
 16 18  1  0  0  0  0
 17 16  2  0  0  0  0
 18 19  1  0  0  0  0
 20 21  1  0  0  0  0
 22 23  1  0  0  0  0
 23 25  1  0  0  0  0
 23 26  2  0  0  0  0
 24 22  1  0  0  0  0
 28 27  1  0  0  0  0
 29  6  1  0  0  0  0
 30 29  1  0  0  0  0
 31 32  1  0  0  0  0
 32 33  1  0  0  0  0
 33 34  2  0  0  0  0
 33 35  1  0  0  0  0
 34 36  1  0  0  0  0
 35 37  2  0  0  0  0
 36 37  1  0  0  0  0
 36 38  1  0  0  0  0
 38 39  1  0  0  0  0
 39 40  2  0  0  0  0
 39 41  1  0  0  0  0
 40 42  1  0  0  0  0
 41 43  2  0  0  0  0
 42 44  2  0  0  0  0
 43 44  1  0  0  0  0
 43 45  1  0  0  0  0
 46 47  1  0  0  0  0
 48 47  1  0  0  0  0
 48 49  1  0  0  0  0
 49 50  1  0  0  0  0
 51 50  1  0  0  0  0
M  END
>  <REMARK>
 VINA RESULT:    -4.484      5.398      9.168
 INTER + INTRA:         -14.318
 INTER:                 -10.654
 INTRA:                  -3.664
 UNBOUND:                -6.295
 SMILES CC(=O)N[C@@H]1[C@@H](O)C[C@](O)(C(=O)O)O[C@H]1C(O)[C@H](O)CNC(=O)OCc1cn(Cc2cccc(Br)c2)nn1
 SMILES IDX 21 1 22 2 23 3 20 5 18 6 16 7 15 8 9 9 8 10 14 11 6 12 5 13
 SMILES IDX 10 14 11 16 12 17 13 18 7 20 4 22 2 23 1 25 3 26 17 27 19 29
 SMILES IDX 24 31 25 32 26 33 27 34 38 35 28 36 37 37 29 38 30 39 31 40
 SMILES IDX 36 41 32 42 34 43 33 44 35 45
 H PARENT 21 4 10 15 13 19 7 21 4 24 17 28 19 30
 Flexibility Score: inf
  4 active torsions:
  status: ('A' for Active; 'I' for Inactive)
    1  A    between atoms: CA   and  CB  
    2  A    between atoms: CB   and  CG  
    3  A    between atoms: CG   and  CD  
    4  A    between atoms: CD   and  CE  

>  <TORSDO>
F 16

>  <BEGIN_>
RES LYS A 131

$$$$
ligand_38_pose_16_2HRL.pdbqt
 OpenBabel07062320523D

  6  5  0  0  0  0  0  0  0  0999 V2000
   33.1930   34.6630    9.2900 C   0  0  0  0  0  0  0  0  0  0  0  0
   32.0600   35.3600   10.0340 C   0  0  0  0  0  0  0  0  0  0  0  0
   32.5310   36.2310   11.1700 C   0  0  0  0  0  0  0  0  0  0  0  0
   31.3750   37.0360   11.7440 C   0  0  0  0  0  0  0  0  0  0  0  0
   31.5280   37.1900   13.2450 C   0  0  0  0  0  0  0  0  0  0  0  0
   30.5100   38.1270   13.7950 N   0  0  0  0  0  0  0  0  0  0  0  0
  1  2  1  0  0  0  0
  2  3  1  0  0  0  0
  3  4  1  0  0  0  0
  4  5  1  0  0  0  0
  5  6  1  0  0  0  0
M  END
>  <EGIN_R>
ES LYS A 135

>  <REMARK>
  4 active torsions:
  status: ('A' for Active; 'I' for Inactive)
    5  A    between atoms: CA   and  CB  
    6  A    between atoms: CB   and  CG  
    7  A    between atoms: CG   and  CD  
    8  A    between atoms: CD   and  CE  

$$$$
