ligand_47_pose_5_2HRL.pdbqt
 OpenBabel07062320523D

 62 64  0  0  1  0  0  0  0  0999 V2000
   31.2390   33.5150   17.3740 N   0  0  0  0  0  0  0  0  0  0  0  0
   31.1880   32.9530   16.0720 C   0  0  0  0  0  0  0  0  0  0  0  0
   30.2920   32.1050   15.7900 O   0  0  0  0  0  0  0  0  0  0  0  0
   32.0210   34.2170   17.5300 H   0  0  0  0  0  0  0  0  0  0  0  0
   30.3110   33.1740   18.4250 C   0  0  0  0  0  0  0  0  0  0  0  0
   30.7790   31.9780   19.2560 C   0  0  2  0  0  0  0  0  0  0  0  0
   29.6880   30.9550   19.1690 C   0  0  2  0  0  0  0  0  0  0  0  0
   29.7130   29.9570   20.2920 C   0  0  2  0  0  0  0  0  0  0  0  0
   31.0770   28.2910   21.1510 C   0  0  2  0  0  0  0  0  0  0  0  0
   29.9360   27.9970   22.0910 C   0  0  0  0  0  0  0  0  0  0  0  0
   30.9800   29.4780   20.4790 O   0  0  0  0  0  0  0  0  0  0  0  0
   28.5950   28.1440   21.4570 C   0  0  1  0  0  0  0  0  0  0  0  0
   28.7560   28.8060   20.0890 C   0  0  1  0  0  0  0  0  0  0  0  0
   31.1800   27.2160   20.2630 O   0  0  0  0  0  0  0  0  0  0  0  0
   30.6760   26.4260   20.5980 H   0  0  0  0  0  0  0  0  0  0  0  0
   32.3140   28.3230   21.9690 C   0  0  0  0  0  0  0  0  0  0  0  0
   32.6960   29.4120   22.4600 O   0  0  0  0  0  0  0  0  0  0  0  0
   33.0590   27.1880   22.2060 O   0  0  0  0  0  0  0  0  0  0  0  0
   33.6070   27.1110   23.0740 H   0  0  0  0  0  0  0  0  0  0  0  0
   27.8470   26.9950   21.3990 O   0  0  0  0  0  0  0  0  0  0  0  0
   27.1380   26.9980   22.0930 H   0  0  0  0  0  0  0  0  0  0  0  0
   27.4620   29.2760   19.6140 N   0  0  0  0  0  0  0  0  0  0  0  0
   26.8070   28.5400   18.5980 C   0  0  0  0  0  0  0  0  0  0  0  0
   27.0560   30.1300   20.0270 H   0  0  0  0  0  0  0  0  0  0  0  0
   25.4920   28.9700   18.0780 C   0  0  0  0  0  0  0  0  0  0  0  0
   27.3350   27.5050   18.1200 O   0  0  0  0  0  0  0  0  0  0  0  0
   29.6630   30.3780   17.9170 O   0  0  0  0  0  0  0  0  0  0  0  0
   30.5720   30.2850   17.5120 H   0  0  0  0  0  0  0  0  0  0  0  0
   30.9170   32.4570   20.5710 O   0  0  0  0  0  0  0  0  0  0  0  0
   31.9090   32.5110   20.7110 H   0  0  0  0  0  0  0  0  0  0  0  0
   32.0990   33.3120   15.0980 O   0  0  0  0  0  0  0  0  0  0  0  0
   32.5500   34.6650   14.9570 C   0  0  0  0  0  0  0  0  0  0  0  0
   31.5470   35.4790   14.2350 C   0  0  0  0  0  0  0  0  0  0  0  0
   30.4930   34.9660   13.4630 C   0  0  0  0  0  0  0  0  0  0  0  0
   31.4060   36.8060   14.1440 N   0  0  0  0  0  0  0  0  0  0  0  0
   29.7730   35.9630   12.9510 N   0  0  0  0  0  0  0  0  0  0  0  0
   30.3610   37.0990   13.3900 N   0  0  0  0  0  0  0  0  0  0  0  0
   28.6010   36.0100   12.1240 C   0  0  0  0  0  0  0  0  0  0  0  0
   27.3100   35.6360   12.7710 C   0  0  1  0  0  0  0  0  0  0  0  0
   27.0630   36.4320   13.9730 C   0  0  0  0  0  0  0  0  0  0  0  0
   26.7350   35.9910   15.0890 O   0  0  0  0  0  0  0  0  0  0  0  0
   27.1960   37.8360   13.9120 O   0  0  0  0  0  0  0  0  0  0  0  0
   27.1750   38.3690   14.7860 H   0  0  0  0  0  0  0  0  0  0  0  0
   26.1480   35.6920   11.7950 C   0  0  0  0  0  0  0  0  0  0  0  0
   25.0800   34.7340   12.1650 C   0  0  0  0  0  0  0  0  0  0  0  0
   25.3540   33.6010   12.9400 C   0  0  0  0  0  0  0  0  0  0  0  0
   23.7680   34.9100   11.7680 C   0  0  0  0  0  0  0  0  0  0  0  0
   24.3610   32.7100   13.2850 C   0  0  0  0  0  0  0  0  0  0  0  0
   22.7680   34.0340   12.1030 C   0  0  0  0  0  0  0  0  0  0  0  0
   23.0480   32.9260   12.8630 C   0  0  0  0  0  0  0  0  0  0  0  0
   26.5330   35.4510   10.4000 C   0  0  0  0  0  0  0  0  0  0  0  0
   26.3360   36.4930    9.4850 C   0  0  0  0  0  0  0  0  0  0  0  0
   27.0740   34.2680    9.9460 C   0  0  0  0  0  0  0  0  0  0  0  0
   26.6860   36.3060    8.1680 C   0  0  0  0  0  0  0  0  0  0  0  0
   27.4250   34.0790    8.6280 C   0  0  0  0  0  0  0  0  0  0  0  0
   27.2330   35.1070    7.7110 C   0  0  0  0  0  0  0  0  0  0  0  0
   29.8670   25.5550   16.9770 C   0  0  0  0  0  0  0  0  0  0  0  0
   28.3450   25.7220   17.0260 C   0  0  0  0  0  0  0  0  0  0  0  0
   27.6010   24.4010   16.9000 C   0  0  0  0  0  0  0  0  0  0  0  0
   26.1410   24.5400   17.2300 C   0  0  0  0  0  0  0  0  0  0  0  0
   25.8540   23.8640   18.5670 C   0  0  0  0  0  0  0  0  0  0  0  0
   25.6180   24.8780   19.6210 N   0  0  0  0  0  0  0  0  0  0  0  0
  1  4  1  0  0  0  0
  1  5  1  0  0  0  0
  2  1  1  0  0  0  0
  3  2  2  0  0  0  0
  6  5  1  6  0  0  0
  6 29  1  0  0  0  0
  7 27  1  6  0  0  0
  7  6  1  0  0  0  0
  8  7  1  6  0  0  0
  8 11  1  0  0  0  0
  9 14  1  6  0  0  0
  9 16  1  0  0  0  0
  9 10  1  0  0  0  0
 11  9  1  0  0  0  0
 12 20  1  6  0  0  0
 12 10  1  0  0  0  0
 13 22  1  1  0  0  0
 13  8  1  0  0  0  0
 13 12  1  0  0  0  0
 14 15  1  0  0  0  0
 16 18  1  0  0  0  0
 16 17  2  0  0  0  0
 18 19  1  0  0  0  0
 20 21  1  0  0  0  0
 22 24  1  0  0  0  0
 23 22  1  0  0  0  0
 25 23  1  0  0  0  0
 26 23  2  0  0  0  0
 28 27  1  0  0  0  0
 29 30  1  0  0  0  0
 31  2  1  0  0  0  0
 32 31  1  0  0  0  0
 33 32  1  0  0  0  0
 34 33  2  0  0  0  0
 35 33  1  0  0  0  0
 36 37  1  0  0  0  0
 36 34  1  0  0  0  0
 37 35  2  0  0  0  0
 38 36  1  0  0  0  0
 39 38  1  6  0  0  0
 39 40  1  0  0  0  0
 40 41  2  0  0  0  0
 42 40  1  0  0  0  0
 42 43  1  0  0  0  0
 44 45  1  0  0  0  0
 44 39  1  0  0  0  0
 45 46  2  0  0  0  0
 46 48  1  0  0  0  0
 47 49  2  0  0  0  0
 47 45  1  0  0  0  0
 49 50  1  0  0  0  0
 50 48  2  0  0  0  0
 51 44  1  0  0  0  0
 52 51  2  0  0  0  0
 53 51  1  0  0  0  0
 54 52  1  0  0  0  0
 55 53  2  0  0  0  0
 56 54  2  0  0  0  0
 56 55  1  0  0  0  0
 57 58  1  0  0  0  0
 59 58  1  0  0  0  0
 59 60  1  0  0  0  0
 60 61  1  0  0  0  0
 61 62  1  0  0  0  0
M  END
>  <REMARK>
 VINA RESULT:    -5.517      2.049      3.932
 INTER + INTRA:         -17.620
 INTER:                 -12.327
 INTRA:                  -5.293
 UNBOUND:                -6.299
 SMILES CC(=O)N[C@@H]1[C@@H](O)C[C@](O)(C(=O)O)O[C@H]1C(O)[C@H](O)CNC(=O)OCc1cn(C[C@@H](C(=O)O)C(c2ccccc2)c2ccccc2)nn1
 SMILES IDX 21 1 22 2 23 3 20 5 18 6 16 7 15 8 9 9 8 10 14 11 6 12 5 13
 SMILES IDX 10 14 11 16 12 17 13 18 7 20 4 22 2 23 1 25 3 26 17 27 19 29
 SMILES IDX 24 31 25 32 26 33 27 34 48 35 28 36 47 37 29 38 30 39 31 40
 SMILES IDX 32 41 33 42 34 44 35 45 36 46 40 47 37 48 39 49 38 50 41 51
 SMILES IDX 42 52 46 53 43 54 45 55 44 56
 H PARENT 21 4 10 15 13 19 7 21 4 24 17 28 19 30 33 43
 Flexibility Score: inf
  4 active torsions:
  status: ('A' for Active; 'I' for Inactive)
    1  A    between atoms: CA   and  CB  
    2  A    between atoms: CB   and  CG  
    3  A    between atoms: CG   and  CD  
    4  A    between atoms: CD   and  CE  

>  <TORSDO>
F 21

>  <BEGIN_>
RES LYS A 131

$$$$
ligand_47_pose_5_2HRL.pdbqt
 OpenBabel07062320523D

  6  5  0  0  0  0  0  0  0  0999 V2000
   33.1930   34.6630    9.2900 C   0  0  0  0  0  0  0  0  0  0  0  0
   32.0600   35.3600   10.0340 C   0  0  0  0  0  0  0  0  0  0  0  0
   30.7580   35.3700    9.2760 C   0  0  0  0  0  0  0  0  0  0  0  0
   30.3520   36.7930    8.9250 C   0  0  0  0  0  0  0  0  0  0  0  0
   31.1310   37.7900    9.7610 C   0  0  0  0  0  0  0  0  0  0  0  0
   31.6100   38.9290    8.9290 N   0  0  0  0  0  0  0  0  0  0  0  0
  1  2  1  0  0  0  0
  3  2  1  0  0  0  0
  4  3  1  0  0  0  0
  4  5  1  0  0  0  0
  6  5  1  0  0  0  0
M  END
>  <EGIN_R>
ES LYS A 135

>  <REMARK>
  4 active torsions:
  status: ('A' for Active; 'I' for Inactive)
    5  A    between atoms: CA   and  CB  
    6  A    between atoms: CB   and  CG  
    7  A    between atoms: CG   and  CD  
    8  A    between atoms: CD   and  CE  

$$$$
