ligand_7_pose_11_2HRL.pdbqt
 OpenBabel07062320523D

 52 53  0  0  1  0  0  0  0  0999 V2000
   30.6320   31.7990   17.0860 C   0  0  0  0  0  0  0  0  0  0  0  0
   30.4180   32.7410   15.9570 C   0  0  2  0  0  0  0  0  0  0  0  0
   29.6160   33.9610   16.2790 C   0  0  1  0  0  0  0  0  0  0  0  0
   29.6290   35.0400   15.2620 C   0  0  2  0  0  0  0  0  0  0  0  0
   29.2290   35.2110   12.9640 C   0  0  2  0  0  0  0  0  0  0  0  0
   29.8770   36.5660   12.9300 C   0  0  0  0  0  0  0  0  0  0  0  0
   28.8130   34.8010   14.1950 O   0  0  0  0  0  0  0  0  0  0  0  0
   30.7390   36.8520   14.1120 C   0  0  1  0  0  0  0  0  0  0  0  0
   30.9870   35.5300   14.8610 C   0  0  1  0  0  0  0  0  0  0  0  0
   30.1240   34.2970   12.4140 O   0  0  0  0  0  0  0  0  0  0  0  0
   29.9600   34.2710   11.4280 H   0  0  0  0  0  0  0  0  0  0  0  0
   28.0340   35.2860   12.0820 C   0  0  0  0  0  0  0  0  0  0  0  0
   27.1880   34.3690   12.0810 O   0  0  0  0  0  0  0  0  0  0  0  0
   27.8350   36.3840   11.2350 O   0  0  0  0  0  0  0  0  0  0  0  0
   28.1920   37.3030   11.5350 H   0  0  0  0  0  0  0  0  0  0  0  0
   31.9190   37.5040   13.8190 O   0  0  0  0  0  0  0  0  0  0  0  0
   31.7470   38.4880   13.9200 H   0  0  0  0  0  0  0  0  0  0  0  0
   31.7920   35.8940   15.9980 N   0  0  0  0  0  0  0  0  0  0  0  0
   33.1860   35.6280   15.9500 C   0  0  0  0  0  0  0  0  0  0  0  0
   31.3880   36.3460   16.8550 H   0  0  0  0  0  0  0  0  0  0  0  0
   34.1020   35.9630   17.0720 C   0  0  0  0  0  0  0  0  0  0  0  0
   33.6970   35.0890   14.9370 O   0  0  0  0  0  0  0  0  0  0  0  0
   28.3040   33.5600   16.5170 O   0  0  0  0  0  0  0  0  0  0  0  0
   28.2550   33.2200   17.4450 H   0  0  0  0  0  0  0  0  0  0  0  0
   29.9510   32.0770   14.8210 O   0  0  0  0  0  0  0  0  0  0  0  0
   30.4470   31.2380   14.6520 H   0  0  0  0  0  0  0  0  0  0  0  0
   29.6390   30.7450   17.1430 N   0  0  0  0  0  0  0  0  0  0  0  0
   28.5880   30.7200   18.1020 C   0  0  0  0  0  0  0  0  0  0  0  0
   29.6410   29.9260   16.4660 H   0  0  0  0  0  0  0  0  0  0  0  0
   28.4860   31.6300   18.9470 O   0  0  0  0  0  0  0  0  0  0  0  0
   27.6510   29.6830   18.1190 O   0  0  0  0  0  0  0  0  0  0  0  0
   27.2730   29.0670   16.8780 C   0  0  0  0  0  0  0  0  0  0  0  0
   26.5550   30.0760   16.0590 C   0  0  0  0  0  0  0  0  0  0  0  0
   25.2280   29.9970   15.6690 C   0  0  0  0  0  0  0  0  0  0  0  0
   27.0140   31.2120   15.5540 N   0  0  0  0  0  0  0  0  0  0  0  0
   24.9160   31.0750   14.9450 N   0  0  0  0  0  0  0  0  0  0  0  0
   26.0490   31.7960   14.9020 N   0  0  0  0  0  0  0  0  0  0  0  0
   23.6870   31.4410   14.3310 C   0  0  0  0  0  0  0  0  0  0  0  0
   22.9370   32.4760   14.8420 C   0  0  0  0  0  0  0  0  0  0  0  0
   23.2030   30.7820   13.2120 C   0  0  0  0  0  0  0  0  0  0  0  0
   23.4320   33.1980   16.0350 C   0  0  0  0  0  0  0  0  0  0  0  0
   21.7260   32.8340   14.2340 C   0  0  0  0  0  0  0  0  0  0  0  0
   22.0090   31.1420   12.6200 C   0  0  0  0  0  0  0  0  0  0  0  0
   24.0380   29.6530   12.6670 C   0  0  0  0  0  0  0  0  0  0  0  0
   21.2480   32.1760   13.1210 C   0  0  0  0  0  0  0  0  0  0  0  0
   19.9540   32.5770   12.4910 C   0  0  0  0  0  0  0  0  0  0  0  0
   29.8670   25.5550   16.9770 C   0  0  0  0  0  0  0  0  0  0  0  0
   28.3450   25.7220   17.0260 C   0  0  0  0  0  0  0  0  0  0  0  0
   27.6010   24.4010   16.9040 C   0  0  0  0  0  0  0  0  0  0  0  0
   26.1620   24.5200   17.3230 C   0  0  0  0  0  0  0  0  0  0  0  0
   25.8230   23.4000   18.3010 C   0  0  0  0  0  0  0  0  0  0  0  0
   25.4760   23.9580   19.6290 N   0  0  0  0  0  0  0  0  0  0  0  0
  1 27  1  0  0  0  0
  2  3  1  0  0  0  0
  2  1  1  1  0  0  0
  3 23  1  6  0  0  0
  4  3  1  6  0  0  0
  5 12  1  6  0  0  0
  5  7  1  0  0  0  0
  6  5  1  0  0  0  0
  6  8  1  0  0  0  0
  7  4  1  0  0  0  0
  8 16  1  6  0  0  0
  8  9  1  0  0  0  0
  9  4  1  0  0  0  0
  9 18  1  1  0  0  0
 10  5  1  0  0  0  0
 11 10  1  0  0  0  0
 13 12  2  0  0  0  0
 14 15  1  0  0  0  0
 14 12  1  0  0  0  0
 16 17  1  0  0  0  0
 18 20  1  0  0  0  0
 19 18  1  0  0  0  0
 19 21  1  0  0  0  0
 22 19  2  0  0  0  0
 23 24  1  0  0  0  0
 25  2  1  0  0  0  0
 26 25  1  0  0  0  0
 27 28  1  0  0  0  0
 28 31  1  0  0  0  0
 28 30  2  0  0  0  0
 29 27  1  0  0  0  0
 32 31  1  0  0  0  0
 33 32  1  0  0  0  0
 34 33  2  0  0  0  0
 35 33  1  0  0  0  0
 36 34  1  0  0  0  0
 37 36  1  0  0  0  0
 37 35  2  0  0  0  0
 38 39  1  0  0  0  0
 38 36  1  0  0  0  0
 39 41  1  0  0  0  0
 40 38  2  0  0  0  0
 42 39  2  0  0  0  0
 43 45  2  0  0  0  0
 43 40  1  0  0  0  0
 44 40  1  0  0  0  0
 45 42  1  0  0  0  0
 46 45  1  0  0  0  0
 47 48  1  0  0  0  0
 49 48  1  0  0  0  0
 49 50  1  0  0  0  0
 50 51  1  0  0  0  0
 51 52  1  0  0  0  0
M  END
>  <REMARK>
 VINA RESULT:    -4.691      4.616      9.024
 INTER + INTRA:         -14.035
 INTER:                  -8.416
 INTRA:                  -5.619
 UNBOUND:                -5.917
 SMILES CC(=O)N[C@@H]1[C@@H](O)C[C@](O)(C(=O)O)O[C@H]1C(O)[C@H](O)CNC(=O)OCc1cn(-c2c(C)cc(C)cc2C)nn1
 SMILES IDX 20 1 18 2 16 3 15 4 9 5 8 6 14 7 6 8 5 9 10 10 11 12 12 13
 SMILES IDX 13 14 7 16 4 18 2 19 1 21 3 22 17 23 19 25 21 27 22 28 23 30
 SMILES IDX 24 31 25 32 26 33 27 34 39 35 28 36 38 37 29 38 30 39 36 40
 SMILES IDX 31 41 32 42 35 43 37 44 33 45 34 46
 H PARENT 10 11 13 15 7 17 4 20 17 24 19 26 21 29
 Flexibility Score: inf
  4 active torsions:
  status: ('A' for Active; 'I' for Inactive)
    1  A    between atoms: CA   and  CB  
    2  A    between atoms: CB   and  CG  
    3  A    between atoms: CG   and  CD  
    4  A    between atoms: CD   and  CE  

>  <TORSDO>
F 15

>  <BEGIN_>
RES LYS A 131

$$$$
ligand_7_pose_11_2HRL.pdbqt
 OpenBabel07062320523D

  6  5  0  0  0  0  0  0  0  0999 V2000
   33.1930   34.6630    9.2900 C   0  0  0  0  0  0  0  0  0  0  0  0
   32.0600   35.3600   10.0340 C   0  0  0  0  0  0  0  0  0  0  0  0
   30.8190   35.5500    9.2000 C   0  0  0  0  0  0  0  0  0  0  0  0
   30.0810   34.2320    9.0290 C   0  0  0  0  0  0  0  0  0  0  0  0
   28.7230   34.4600    8.3920 C   0  0  0  0  0  0  0  0  0  0  0  0
   28.8390   35.3100    7.1740 N   0  0  0  0  0  0  0  0  0  0  0  0
  1  2  1  0  0  0  0
  3  2  1  0  0  0  0
  4  3  1  0  0  0  0
  5  4  1  0  0  0  0
  6  5  1  0  0  0  0
M  END
>  <EGIN_R>
ES LYS A 135

>  <REMARK>
  4 active torsions:
  status: ('A' for Active; 'I' for Inactive)
    5  A    between atoms: CA   and  CB  
    6  A    between atoms: CB   and  CG  
    7  A    between atoms: CG   and  CD  
    8  A    between atoms: CD   and  CE  

$$$$
