ligand_51_pose_19_2HRL.pdbqt
 OpenBabel07062320523D

 53 56  0  0  1  0  0  0  0  0999 V2000
   27.5350   39.5120    7.7620 C   0  0  0  0  0  0  0  0  0  0  0  0
   26.2050   38.8570    8.0300 C   0  0  2  0  0  0  0  0  0  0  0  0
   26.3450   37.4940    8.6770 C   0  0  1  0  0  0  0  0  0  0  0  0
   25.7190   37.5070   10.0750 C   0  0  2  0  0  0  0  0  0  0  0  0
   27.1490   38.3870   11.7120 C   0  0  2  0  0  0  0  0  0  0  0  0
   27.8490   37.0520   11.6830 C   0  0  0  0  0  0  0  0  0  0  0  0
   26.1330   38.5530   10.8360 O   0  0  0  0  0  0  0  0  0  0  0  0
   26.8410   35.9580   11.7250 C   0  0  1  0  0  0  0  0  0  0  0  0
   25.7360   36.1730   10.7260 C   0  0  1  0  0  0  0  0  0  0  0  0
   28.1500   39.3280   11.3740 O   0  0  0  0  0  0  0  0  0  0  0  0
   28.6990   38.9140   10.6580 H   0  0  0  0  0  0  0  0  0  0  0  0
   26.7750   38.6510   13.1240 C   0  0  0  0  0  0  0  0  0  0  0  0
   27.6300   38.6950   14.0500 O   0  0  0  0  0  0  0  0  0  0  0  0
   25.4540   38.8580   13.4560 O   0  0  0  0  0  0  0  0  0  0  0  0
   24.9190   39.6600   13.1200 H   0  0  0  0  0  0  0  0  0  0  0  0
   27.5250   34.7410   11.5000 O   0  0  0  0  0  0  0  0  0  0  0  0
   27.0100   33.9950   11.8740 H   0  0  0  0  0  0  0  0  0  0  0  0
   24.4470   35.9550   11.3690 N   0  0  0  0  0  0  0  0  0  0  0  0
   23.3180   35.4640   10.6630 C   0  0  0  0  0  0  0  0  0  0  0  0
   24.3360   36.1670   12.4040 H   0  0  0  0  0  0  0  0  0  0  0  0
   22.0560   35.2730   11.3910 C   0  0  0  0  0  0  0  0  0  0  0  0
   23.4480   35.2110    9.4270 O   0  0  0  0  0  0  0  0  0  0  0  0
   25.8810   36.4740    7.9030 O   0  0  0  0  0  0  0  0  0  0  0  0
   24.9430   36.4940    7.6610 H   0  0  0  0  0  0  0  0  0  0  0  0
   25.5150   38.7920    6.8220 O   0  0  0  0  0  0  0  0  0  0  0  0
   24.5630   39.0880    6.9850 H   0  0  0  0  0  0  0  0  0  0  0  0
   28.5400   38.7430    8.4750 N   0  0  0  0  0  0  0  0  0  0  0  0
   29.9280   38.7810    8.1060 C   0  0  0  0  0  0  0  0  0  0  0  0
   28.3170   38.1230    9.2880 H   0  0  0  0  0  0  0  0  0  0  0  0
   30.2480   39.5110    7.1360 O   0  0  0  0  0  0  0  0  0  0  0  0
   30.8900   38.0590    8.7700 O   0  0  0  0  0  0  0  0  0  0  0  0
   31.8850   38.7440    9.4980 C   0  0  0  0  0  0  0  0  0  0  0  0
   31.5770   38.5600   10.9520 C   0  0  0  0  0  0  0  0  0  0  0  0
   31.9450   37.4490   11.6870 C   0  0  0  0  0  0  0  0  0  0  0  0
   30.9310   39.3530   11.8030 N   0  0  0  0  0  0  0  0  0  0  0  0
   31.5110   37.6170   12.9280 N   0  0  0  0  0  0  0  0  0  0  0  0
   30.8960   38.7790   12.9860 N   0  0  0  0  0  0  0  0  0  0  0  0
   31.7060   36.6510   14.0130 C   0  0  2  0  0  0  0  0  0  0  0  0
   30.3650   35.9570   14.2120 C   0  0  0  0  0  0  0  0  0  0  0  0
   32.1290   37.3400   15.2730 C   0  0  0  0  0  0  0  0  0  0  0  0
   32.7700   35.6590   13.6130 C   0  0  0  0  0  0  0  0  0  0  0  0
   30.5010   34.9190   15.3090 C   0  0  1  0  0  0  0  0  0  0  0  0
   32.2070   36.3080   16.3750 C   0  0  1  0  0  0  0  0  0  0  0  0
   32.8950   34.6140   14.7000 C   0  0  2  0  0  0  0  0  0  0  0  0
   31.5540   33.9310   14.8980 C   0  0  0  0  0  0  0  0  0  0  0  0
   30.8790   35.6420   16.5780 C   0  0  0  0  0  0  0  0  0  0  0  0
   33.2750   35.3120   15.9840 C   0  0  0  0  0  0  0  0  0  0  0  0
   29.8670   25.5550   16.9770 C   0  0  0  0  0  0  0  0  0  0  0  0
   28.3450   25.7220   17.0260 C   0  0  0  0  0  0  0  0  0  0  0  0
   27.6010   24.4010   16.9040 C   0  0  0  0  0  0  0  0  0  0  0  0
   26.1620   24.5200   17.3210 C   0  0  0  0  0  0  0  0  0  0  0  0
   25.8290   23.4170   18.3200 C   0  0  0  0  0  0  0  0  0  0  0  0
   25.1160   22.3060   17.6480 N   0  0  0  0  0  0  0  0  0  0  0  0
  1 27  1  0  0  0  0
  2  1  1  6  0  0  0
  2  3  1  0  0  0  0
  3 23  1  6  0  0  0
  4  3  1  6  0  0  0
  4  9  1  0  0  0  0
  4  7  1  0  0  0  0
  5 10  1  6  0  0  0
  5 12  1  0  0  0  0
  6  5  1  0  0  0  0
  6  8  1  0  0  0  0
  7  5  1  0  0  0  0
  8 16  1  6  0  0  0
  9 18  1  1  0  0  0
  9  8  1  0  0  0  0
 11 10  1  0  0  0  0
 12 14  1  0  0  0  0
 12 13  2  0  0  0  0
 15 14  1  0  0  0  0
 16 17  1  0  0  0  0
 18 20  1  0  0  0  0
 19 18  1  0  0  0  0
 19 21  1  0  0  0  0
 22 19  2  0  0  0  0
 24 23  1  0  0  0  0
 25 26  1  0  0  0  0
 25  2  1  0  0  0  0
 27 29  1  0  0  0  0
 28 27  1  0  0  0  0
 28 31  1  0  0  0  0
 30 28  2  0  0  0  0
 31 32  1  0  0  0  0
 32 33  1  0  0  0  0
 33 34  2  0  0  0  0
 33 35  1  0  0  0  0
 34 36  1  0  0  0  0
 35 37  2  0  0  0  0
 36 37  1  0  0  0  0
 38 36  1  6  0  0  0
 38 39  1  0  0  0  0
 38 40  1  0  0  0  0
 41 38  1  0  0  0  0
 42 39  1  6  0  0  0
 42 46  1  0  0  0  0
 43 40  1  6  0  0  0
 43 46  1  0  0  0  0
 44 41  1  6  0  0  0
 44 45  1  0  0  0  0
 44 47  1  0  0  0  0
 45 42  1  0  0  0  0
 47 43  1  0  0  0  0
 48 49  1  0  0  0  0
 50 49  1  0  0  0  0
 50 51  1  0  0  0  0
 51 52  1  0  0  0  0
 53 52  1  0  0  0  0
M  END
>  <REMARK>
 VINA RESULT:    -4.494      7.221     11.295
 INTER + INTRA:         -14.332
 INTER:                  -7.777
 INTRA:                  -6.554
 UNBOUND:                -6.554
 SMILES CC(=O)N[C@@H]1[C@@H](O)C[C@](O)(C(=O)O)O[C@H]1C(O)[C@H](O)CNC(=O)OCc1cn(C23CC4CC(CC(C4)C2)C3)nn1
 SMILES IDX 20 1 18 2 16 3 15 4 9 5 8 6 14 7 6 8 5 9 10 10 11 12 12 13
 SMILES IDX 13 14 7 16 4 18 2 19 1 21 3 22 17 23 19 25 21 27 22 28 23 30
 SMILES IDX 24 31 25 32 26 33 27 34 40 35 28 36 39 37 29 38 38 39 37 40
 SMILES IDX 30 41 33 42 35 43 31 44 32 45 34 46 36 47
 H PARENT 10 11 13 15 7 17 4 20 17 24 19 26 21 29
 Flexibility Score: inf
  4 active torsions:
  status: ('A' for Active; 'I' for Inactive)
    1  A    between atoms: CA   and  CB  
    2  A    between atoms: CB   and  CG  
    3  A    between atoms: CG   and  CD  
    4  A    between atoms: CD   and  CE  

>  <TORSDO>
F 15

>  <BEGIN_>
RES LYS A 131

$$$$
ligand_51_pose_19_2HRL.pdbqt
 OpenBabel07062320523D

  6  5  0  0  0  0  0  0  0  0999 V2000
   33.1930   34.6630    9.2900 C   0  0  0  0  0  0  0  0  0  0  0  0
   32.0600   35.3600   10.0340 C   0  0  0  0  0  0  0  0  0  0  0  0
   30.7000   34.7790    9.7420 C   0  0  0  0  0  0  0  0  0  0  0  0
   30.5380   34.5160    8.2530 C   0  0  0  0  0  0  0  0  0  0  0  0
   29.1580   34.9360    7.7860 C   0  0  0  0  0  0  0  0  0  0  0  0
   28.0950   34.1810    8.5050 N   0  0  0  0  0  0  0  0  0  0  0  0
  1  2  1  0  0  0  0
  3  2  1  0  0  0  0
  4  3  1  0  0  0  0
  5  4  1  0  0  0  0
  5  6  1  0  0  0  0
M  END
>  <EGIN_R>
ES LYS A 135

>  <REMARK>
  4 active torsions:
  status: ('A' for Active; 'I' for Inactive)
    5  A    between atoms: CA   and  CB  
    6  A    between atoms: CB   and  CG  
    7  A    between atoms: CG   and  CD  
    8  A    between atoms: CD   and  CE  

$$$$
