ligand_44_pose_3_2HRL.pdbqt
 OpenBabel07062320523D

 51 52  0  0  1  0  0  0  0  0999 V2000
   25.7680   36.3620   12.3060 N   0  0  0  0  0  0  0  0  0  0  0  0
   25.2140   35.2050   11.7050 C   0  0  0  0  0  0  0  0  0  0  0  0
   24.9430   34.1380   12.2870 O   0  0  0  0  0  0  0  0  0  0  0  0
   25.9560   37.2270   11.7090 H   0  0  0  0  0  0  0  0  0  0  0  0
   26.0720   36.3700   13.7030 C   0  0  0  0  0  0  0  0  0  0  0  0
   27.5420   36.3390   14.0350 C   0  0  2  0  0  0  0  0  0  0  0  0
   28.0960   34.9650   14.1490 C   0  0  1  0  0  0  0  0  0  0  0  0
   29.2670   34.7380   15.0210 C   0  0  2  0  0  0  0  0  0  0  0  0
   31.2370   35.0840   13.8720 C   0  0  2  0  0  0  0  0  0  0  0  0
   32.1030   34.3980   14.9030 C   0  0  0  0  0  0  0  0  0  0  0  0
   30.2200   35.6800   14.6010 O   0  0  0  0  0  0  0  0  0  0  0  0
   31.2750   33.3110   15.4990 C   0  0  1  0  0  0  0  0  0  0  0  0
   29.7920   33.3850   15.1950 C   0  0  1  0  0  0  0  0  0  0  0  0
   30.8200   34.1270   12.9740 O   0  0  0  0  0  0  0  0  0  0  0  0
   30.0000   33.6610   13.2230 H   0  0  0  0  0  0  0  0  0  0  0  0
   32.0520   36.1470   13.2380 C   0  0  0  0  0  0  0  0  0  0  0  0
   32.8260   35.9360   12.2780 O   0  0  0  0  0  0  0  0  0  0  0  0
   31.9320   37.4320   13.7590 O   0  0  0  0  0  0  0  0  0  0  0  0
   32.1910   38.2610   13.2480 H   0  0  0  0  0  0  0  0  0  0  0  0
   31.7350   32.0950   14.9430 O   0  0  0  0  0  0  0  0  0  0  0  0
   32.6200   31.8520   15.2790 H   0  0  0  0  0  0  0  0  0  0  0  0
   29.2030   32.7220   16.3800 N   0  0  0  0  0  0  0  0  0  0  0  0
   28.8380   31.3710   16.4030 C   0  0  0  0  0  0  0  0  0  0  0  0
   29.0800   33.3550   17.2070 H   0  0  0  0  0  0  0  0  0  0  0  0
   28.2430   30.7990   17.6470 C   0  0  0  0  0  0  0  0  0  0  0  0
   29.0050   30.6530   15.4060 O   0  0  0  0  0  0  0  0  0  0  0  0
   27.0550   34.0560   14.2570 O   0  0  0  0  0  0  0  0  0  0  0  0
   26.9240   33.5930   13.3800 H   0  0  0  0  0  0  0  0  0  0  0  0
   27.9240   37.1980   15.0510 O   0  0  0  0  0  0  0  0  0  0  0  0
   27.2310   37.8400   15.3040 H   0  0  0  0  0  0  0  0  0  0  0  0
   24.9400   35.2470   10.3380 O   0  0  0  0  0  0  0  0  0  0  0  0
   24.8530   36.4680    9.6450 C   0  0  0  0  0  0  0  0  0  0  0  0
   26.1210   36.8170    8.9810 C   0  0  0  0  0  0  0  0  0  0  0  0
   26.6100   36.4870    7.7380 C   0  0  0  0  0  0  0  0  0  0  0  0
   27.0590   37.5820    9.5850 N   0  0  0  0  0  0  0  0  0  0  0  0
   27.8280   37.0630    7.6260 N   0  0  0  0  0  0  0  0  0  0  0  0
   28.0590   37.7100    8.7530 N   0  0  0  0  0  0  0  0  0  0  0  0
   28.6870   36.9630    6.4640 C   0  0  0  0  0  0  0  0  0  0  0  0
   28.6750   38.2990    5.7810 C   0  0  0  0  0  0  0  0  0  0  0  0
   27.6340   38.6050    4.9160 C   0  0  0  0  0  0  0  0  0  0  0  0
   29.6900   39.1990    6.0230 C   0  0  0  0  0  0  0  0  0  0  0  0
   27.6430   39.8310    4.3030 C   0  0  0  0  0  0  0  0  0  0  0  0
   29.7000   40.4460    5.4000 C   0  0  0  0  0  0  0  0  0  0  0  0
   28.6600   40.7250    4.5490 C   0  0  0  0  0  0  0  0  0  0  0  0
   28.6440   42.4280    3.6800 Br  0  0  0  0  0  0  0  0  0  0  0  0
   29.8670   25.5550   16.9770 C   0  0  0  0  0  0  0  0  0  0  0  0
   28.3450   25.7220   17.0260 C   0  0  0  0  0  0  0  0  0  0  0  0
   27.6000   24.4080   16.8480 C   0  0  0  0  0  0  0  0  0  0  0  0
   26.5930   24.1750   17.9400 C   0  0  0  0  0  0  0  0  0  0  0  0
   25.1850   24.2940   17.3660 C   0  0  0  0  0  0  0  0  0  0  0  0
   24.6660   25.6710   17.5420 N   0  0  0  0  0  0  0  0  0  0  0  0
  1  5  1  0  0  0  0
  2  3  2  0  0  0  0
  2  1  1  0  0  0  0
  4  1  1  0  0  0  0
  6  5  1  1  0  0  0
  6  7  1  0  0  0  0
  6 29  1  0  0  0  0
  7 27  1  1  0  0  0
  8  7  1  6  0  0  0
  8 13  1  0  0  0  0
  9 14  1  6  0  0  0
  9 11  1  0  0  0  0
  9 10  1  0  0  0  0
 10 12  1  0  0  0  0
 11  8  1  0  0  0  0
 12 20  1  6  0  0  0
 13 12  1  0  0  0  0
 13 22  1  1  0  0  0
 14 15  1  0  0  0  0
 16 18  1  0  0  0  0
 16  9  1  0  0  0  0
 17 16  2  0  0  0  0
 19 18  1  0  0  0  0
 20 21  1  0  0  0  0
 22 23  1  0  0  0  0
 22 24  1  0  0  0  0
 23 25  1  0  0  0  0
 26 23  2  0  0  0  0
 28 27  1  0  0  0  0
 29 30  1  0  0  0  0
 31  2  1  0  0  0  0
 32 31  1  0  0  0  0
 33 35  1  0  0  0  0
 33 32  1  0  0  0  0
 34 33  2  0  0  0  0
 36 34  1  0  0  0  0
 36 37  1  0  0  0  0
 37 35  2  0  0  0  0
 38 36  1  0  0  0  0
 39 41  1  0  0  0  0
 39 38  1  0  0  0  0
 40 39  2  0  0  0  0
 42 44  2  0  0  0  0
 42 40  1  0  0  0  0
 43 41  2  0  0  0  0
 44 43  1  0  0  0  0
 45 44  1  0  0  0  0
 46 47  1  0  0  0  0
 48 47  1  0  0  0  0
 48 49  1  0  0  0  0
 50 51  1  0  0  0  0
 50 49  1  0  0  0  0
M  END
>  <REMARK>
 VINA RESULT:    -4.724      4.102      7.900
 INTER + INTRA:         -14.850
 INTER:                  -9.413
 INTRA:                  -5.437
 UNBOUND:                -6.398
 SMILES CC(=O)N[C@@H]1[C@@H](O)C[C@](O)(C(=O)O)O[C@H]1C(O)[C@H](O)CNC(=O)OCc1cn(Cc2ccc(Br)cc2)nn1
 SMILES IDX 21 1 22 2 23 3 20 5 18 6 16 7 15 8 9 9 8 10 14 11 6 12 5 13
 SMILES IDX 10 14 11 16 12 17 13 18 7 20 4 22 2 23 1 25 3 26 17 27 19 29
 SMILES IDX 24 31 25 32 26 33 27 34 38 35 28 36 37 37 29 38 30 39 31 40
 SMILES IDX 36 41 32 42 35 43 33 44 34 45
 H PARENT 21 4 10 15 13 19 7 21 4 24 17 28 19 30
 Flexibility Score: inf
  4 active torsions:
  status: ('A' for Active; 'I' for Inactive)
    1  A    between atoms: CA   and  CB  
    2  A    between atoms: CB   and  CG  
    3  A    between atoms: CG   and  CD  
    4  A    between atoms: CD   and  CE  

>  <TORSDO>
F 16

>  <BEGIN_>
RES LYS A 131

$$$$
ligand_44_pose_3_2HRL.pdbqt
 OpenBabel07062320523D

  6  5  0  0  0  0  0  0  0  0999 V2000
   33.1930   34.6630    9.2900 C   0  0  0  0  0  0  0  0  0  0  0  0
   32.0600   35.3600   10.0340 C   0  0  0  0  0  0  0  0  0  0  0  0
   30.7830   35.4510    9.2390 C   0  0  0  0  0  0  0  0  0  0  0  0
   30.2510   34.0630    8.9170 C   0  0  0  0  0  0  0  0  0  0  0  0
   28.7690   33.9750    9.2300 C   0  0  0  0  0  0  0  0  0  0  0  0
   28.4780   34.4910   10.5970 N   0  0  0  0  0  0  0  0  0  0  0  0
  1  2  1  0  0  0  0
  3  2  1  0  0  0  0
  4  5  1  0  0  0  0
  4  3  1  0  0  0  0
  5  6  1  0  0  0  0
M  END
>  <EGIN_R>
ES LYS A 135

>  <REMARK>
  4 active torsions:
  status: ('A' for Active; 'I' for Inactive)
    5  A    between atoms: CA   and  CB  
    6  A    between atoms: CB   and  CG  
    7  A    between atoms: CG   and  CD  
    8  A    between atoms: CD   and  CE  

$$$$
