ligand_9_pose_12_2HRL.pdbqt
 OpenBabel07062320523D

 54 55  0  0  1  0  0  0  0  0999 V2000
   25.4620   36.1900   11.3020 N   0  0  0  0  0  0  0  0  0  0  0  0
   26.1820   37.3360   10.8680 C   0  0  0  0  0  0  0  0  0  0  0  0
   25.5340   38.3550   10.5250 O   0  0  0  0  0  0  0  0  0  0  0  0
   26.0180   35.3580   11.5810 H   0  0  0  0  0  0  0  0  0  0  0  0
   24.0140   36.1810   11.3520 C   0  0  0  0  0  0  0  0  0  0  0  0
   23.4040   35.2540   10.3550 C   0  0  2  0  0  0  0  0  0  0  0  0
   22.9490   35.9310    9.1020 C   0  0  1  0  0  0  0  0  0  0  0  0
   21.4010   36.0280    9.0710 C   0  0  2  0  0  0  0  0  0  0  0  0
   19.5910   35.3520    7.8940 C   0  0  2  0  0  0  0  0  0  0  0  0
   19.1930   36.7560    7.4990 C   0  0  0  0  0  0  0  0  0  0  0  0
   20.9440   35.2870    8.0140 O   0  0  0  0  0  0  0  0  0  0  0  0
   19.6760   37.7880    8.4720 C   0  0  1  0  0  0  0  0  0  0  0  0
   20.9980   37.4560    9.1020 C   0  0  1  0  0  0  0  0  0  0  0  0
   19.2460   34.5470    6.7720 O   0  0  0  0  0  0  0  0  0  0  0  0
   18.5370   34.9480    6.2380 H   0  0  0  0  0  0  0  0  0  0  0  0
   18.8000   34.8820    9.0400 C   0  0  0  0  0  0  0  0  0  0  0  0
   17.5580   35.1400    9.1850 O   0  0  0  0  0  0  0  0  0  0  0  0
   19.4480   34.1100   10.0230 O   0  0  0  0  0  0  0  0  0  0  0  0
   19.4930   34.5020   10.9720 H   0  0  0  0  0  0  0  0  0  0  0  0
   19.7090   39.0250    7.8310 O   0  0  0  0  0  0  0  0  0  0  0  0
   19.1090   39.6900    8.2530 H   0  0  0  0  0  0  0  0  0  0  0  0
   21.0820   37.9550   10.4620 N   0  0  0  0  0  0  0  0  0  0  0  0
   21.6680   39.2130   10.7660 C   0  0  0  0  0  0  0  0  0  0  0  0
   20.6880   37.3480   11.2400 H   0  0  0  0  0  0  0  0  0  0  0  0
   21.7190   39.6560   12.1830 C   0  0  0  0  0  0  0  0  0  0  0  0
   22.1440   39.9590    9.8440 O   0  0  0  0  0  0  0  0  0  0  0  0
   23.4500   37.1930    8.9050 O   0  0  0  0  0  0  0  0  0  0  0  0
   22.8180   37.8470    8.5570 H   0  0  0  0  0  0  0  0  0  0  0  0
   22.4190   34.4650   10.9440 O   0  0  0  0  0  0  0  0  0  0  0  0
   21.7100   35.0800   11.2760 H   0  0  0  0  0  0  0  0  0  0  0  0
   27.5630   37.3950   10.8010 O   0  0  0  0  0  0  0  0  0  0  0  0
   28.3330   38.0760   11.7740 C   0  0  0  0  0  0  0  0  0  0  0  0
   29.2900   37.1550   12.4160 C   0  0  0  0  0  0  0  0  0  0  0  0
   29.0310   36.0520   13.2110 C   0  0  0  0  0  0  0  0  0  0  0  0
   30.6380   37.2150   12.3500 N   0  0  0  0  0  0  0  0  0  0  0  0
   30.1990   35.4930   13.5910 N   0  0  0  0  0  0  0  0  0  0  0  0
   31.1610   36.2390   13.0400 N   0  0  0  0  0  0  0  0  0  0  0  0
   30.4200   34.3580   14.4010 C   0  0  0  0  0  0  0  0  0  0  0  0
   29.4080   33.4560   14.6720 C   0  0  0  0  0  0  0  0  0  0  0  0
   31.6560   34.1050   14.9530 C   0  0  0  0  0  0  0  0  0  0  0  0
   29.5820   32.3340   15.4590 C   0  0  0  0  0  0  0  0  0  0  0  0
   31.8640   32.9820   15.7490 C   0  0  0  0  0  0  0  0  0  0  0  0
   30.8310   32.1120   15.9930 C   0  0  0  0  0  0  0  0  0  0  0  0
   28.4970   31.3980   15.7280 C   0  0  0  0  0  0  0  0  0  0  0  0
   28.6390   30.1880   15.4270 O   0  0  0  0  0  0  0  0  0  0  0  0
   27.3010   31.7890   16.3080 O   0  0  0  0  0  0  0  0  0  0  0  0
   26.0490   31.5910   15.6830 C   0  0  0  0  0  0  0  0  0  0  0  0
   25.7260   32.8020   14.8580 C   0  0  0  0  0  0  0  0  0  0  0  0
   29.8670   25.5550   16.9770 C   0  0  0  0  0  0  0  0  0  0  0  0
   28.3450   25.7220   17.0260 C   0  0  0  0  0  0  0  0  0  0  0  0
   27.6020   24.3970   16.9430 C   0  0  0  0  0  0  0  0  0  0  0  0
   26.4480   24.3340   17.9050 C   0  0  0  0  0  0  0  0  0  0  0  0
   25.1370   24.3030   17.1260 C   0  0  0  0  0  0  0  0  0  0  0  0
   24.4800   22.9820   17.2670 N   0  0  0  0  0  0  0  0  0  0  0  0
  1  5  1  0  0  0  0
  1  4  1  0  0  0  0
  2  1  1  0  0  0  0
  3  2  2  0  0  0  0
  6 29  1  0  0  0  0
  6  5  1  1  0  0  0
  7 27  1  1  0  0  0
  7  6  1  0  0  0  0
  8 13  1  0  0  0  0
  8  7  1  6  0  0  0
  9 14  1  6  0  0  0
  9 11  1  0  0  0  0
  9 16  1  0  0  0  0
 10  9  1  0  0  0  0
 10 12  1  0  0  0  0
 11  8  1  0  0  0  0
 12 20  1  6  0  0  0
 12 13  1  0  0  0  0
 13 22  1  1  0  0  0
 15 14  1  0  0  0  0
 16 17  2  0  0  0  0
 16 18  1  0  0  0  0
 18 19  1  0  0  0  0
 20 21  1  0  0  0  0
 22 23  1  0  0  0  0
 22 24  1  0  0  0  0
 23 25  1  0  0  0  0
 26 23  2  0  0  0  0
 28 27  1  0  0  0  0
 29 30  1  0  0  0  0
 31  2  1  0  0  0  0
 31 32  1  0  0  0  0
 32 33  1  0  0  0  0
 33 34  2  0  0  0  0
 34 36  1  0  0  0  0
 35 33  1  0  0  0  0
 35 37  2  0  0  0  0
 36 38  1  0  0  0  0
 37 36  1  0  0  0  0
 38 39  2  0  0  0  0
 38 40  1  0  0  0  0
 39 41  1  0  0  0  0
 40 42  2  0  0  0  0
 41 44  1  0  0  0  0
 41 43  2  0  0  0  0
 42 43  1  0  0  0  0
 44 46  1  0  0  0  0
 45 44  2  0  0  0  0
 47 46  1  0  0  0  0
 48 47  1  0  0  0  0
 49 50  1  0  0  0  0
 51 50  1  0  0  0  0
 51 52  1  0  0  0  0
 53 54  1  0  0  0  0
 53 52  1  0  0  0  0
M  END
>  <REMARK>
 VINA RESULT:    -4.890      6.194     11.622
 INTER + INTRA:         -14.991
 INTER:                  -9.424
 INTRA:                  -5.567
 UNBOUND:                -5.671
 SMILES CCOC(=O)c1cccc(-n2cc(COC(=O)NC[C@@H](O)C(O)[C@@H]3O[C@@](O)(C(=O)O)C[C@H](O)[C@H]3NC(C)=O)nn2)c1
 SMILES IDX 18 1 16 2 17 3 19 5 20 6 22 7 24 8 26 9 31 10 25 11 32 12
 SMILES IDX 34 13 27 14 28 16 29 17 30 18 33 20 35 22 36 23 37 25 38 26
 SMILES IDX 23 27 21 29 15 31 14 32 13 33 12 34 39 35 11 36 40 37 10 38
 SMILES IDX 41 39 9 40 6 41 8 42 7 43 4 44 5 45 3 46 2 47 1 48
 H PARENT 18 4 27 15 30 19 33 21 35 24 23 28 21 30
 Flexibility Score: inf
  4 active torsions:
  status: ('A' for Active; 'I' for Inactive)
    1  A    between atoms: CA   and  CB  
    2  A    between atoms: CB   and  CG  
    3  A    between atoms: CG   and  CD  
    4  A    between atoms: CD   and  CE  

>  <TORSDO>
F 18

>  <BEGIN_>
RES LYS A 131

$$$$
ligand_9_pose_12_2HRL.pdbqt
 OpenBabel07062320523D

  6  5  0  0  0  0  0  0  0  0999 V2000
   33.1930   34.6630    9.2900 C   0  0  0  0  0  0  0  0  0  0  0  0
   32.0600   35.3600   10.0340 C   0  0  0  0  0  0  0  0  0  0  0  0
   30.7130   34.7220    9.8140 C   0  0  0  0  0  0  0  0  0  0  0  0
   30.4070   34.6120    8.3280 C   0  0  0  0  0  0  0  0  0  0  0  0
   28.9100   34.6520    8.0880 C   0  0  0  0  0  0  0  0  0  0  0  0
   28.1610   34.1860    9.2880 N   0  0  0  0  0  0  0  0  0  0  0  0
  1  2  1  0  0  0  0
  3  2  1  0  0  0  0
  4  3  1  0  0  0  0
  5  4  1  0  0  0  0
  5  6  1  0  0  0  0
M  END
>  <EGIN_R>
ES LYS A 135

>  <REMARK>
  4 active torsions:
  status: ('A' for Active; 'I' for Inactive)
    5  A    between atoms: CA   and  CB  
    6  A    between atoms: CB   and  CG  
    7  A    between atoms: CG   and  CD  
    8  A    between atoms: CD   and  CE  

$$$$
