ligand_19_pose_13_2HRL.pdbqt
 OpenBabel07062320523D

 49 49  0  0  1  0  0  0  0  0999 V2000
   31.9300   34.4430   14.1580 N   0  0  0  0  0  0  0  0  0  0  0  0
   32.0590   35.8350   13.9520 C   0  0  0  0  0  0  0  0  0  0  0  0
   32.4360   36.5760   14.8710 O   0  0  0  0  0  0  0  0  0  0  0  0
   31.5970   33.8860   13.3230 H   0  0  0  0  0  0  0  0  0  0  0  0
   32.2180   33.7590   15.4000 C   0  0  0  0  0  0  0  0  0  0  0  0
   31.0220   33.6570   16.2680 C   0  0  2  0  0  0  0  0  0  0  0  0
   30.0500   32.5460   15.9390 C   0  0  2  0  0  0  0  0  0  0  0  0
   30.1470   31.3350   16.8180 C   0  0  2  0  0  0  0  0  0  0  0  0
   27.8930   30.8330   16.5390 C   0  0  2  0  0  0  0  0  0  0  0  0
   27.5560   31.7560   17.6450 C   0  0  0  0  0  0  0  0  0  0  0  0
   29.1860   30.3810   16.4920 O   0  0  0  0  0  0  0  0  0  0  0  0
   28.6330   32.0550   18.6230 C   0  0  1  0  0  0  0  0  0  0  0  0
   29.9970   31.5600   18.2890 C   0  0  1  0  0  0  0  0  0  0  0  0
   27.6330   31.4120   15.2720 O   0  0  0  0  0  0  0  0  0  0  0  0
   27.0870   30.8160   14.7090 H   0  0  0  0  0  0  0  0  0  0  0  0
   27.0220   29.6250   16.5820 C   0  0  0  0  0  0  0  0  0  0  0  0
   27.4270   28.5390   17.1210 O   0  0  0  0  0  0  0  0  0  0  0  0
   25.7390   29.5810   16.0580 O   0  0  0  0  0  0  0  0  0  0  0  0
   25.4830   30.3110   15.3840 H   0  0  0  0  0  0  0  0  0  0  0  0
   28.7030   33.4430   18.7790 O   0  0  0  0  0  0  0  0  0  0  0  0
   27.8300   33.8740   18.5240 H   0  0  0  0  0  0  0  0  0  0  0  0
   30.3540   30.3210   18.9390 N   0  0  0  0  0  0  0  0  0  0  0  0
   31.0260   30.2630   20.1640 C   0  0  0  0  0  0  0  0  0  0  0  0
   30.0890   29.4430   18.4530 H   0  0  0  0  0  0  0  0  0  0  0  0
   31.4030   29.0040   20.8550 C   0  0  0  0  0  0  0  0  0  0  0  0
   31.3230   31.3470   20.7010 O   0  0  0  0  0  0  0  0  0  0  0  0
   30.5550   32.0630   14.6720 O   0  0  0  0  0  0  0  0  0  0  0  0
   31.5440   32.2190   14.7670 H   0  0  0  0  0  0  0  0  0  0  0  0
   30.4180   34.8080   16.6750 O   0  0  0  0  0  0  0  0  0  0  0  0
   29.8280   35.1950   16.0100 H   0  0  0  0  0  0  0  0  0  0  0  0
   31.7580   36.3990   12.6910 O   0  0  0  0  0  0  0  0  0  0  0  0
   31.4280   37.7850   12.5950 C   0  0  0  0  0  0  0  0  0  0  0  0
   31.1170   38.0780   11.1820 C   0  0  0  0  0  0  0  0  0  0  0  0
   29.8570   38.3270   10.6630 C   0  0  0  0  0  0  0  0  0  0  0  0
   31.9670   38.1530   10.1490 N   0  0  0  0  0  0  0  0  0  0  0  0
   29.9950   38.5400    9.3460 N   0  0  0  0  0  0  0  0  0  0  0  0
   31.2730   38.4300    9.0630 N   0  0  0  0  0  0  0  0  0  0  0  0
   28.9080   38.8360    8.4410 C   0  0  0  0  0  0  0  0  0  0  0  0
   29.4930   39.2350    7.1060 C   0  0  0  0  0  0  0  0  0  0  0  0
   29.3040   38.2050    6.1800 O   0  0  0  0  0  0  0  0  0  0  0  0
   28.1520   38.0920    5.4590 C   0  0  0  0  0  0  0  0  0  0  0  0
   27.5320   37.0150    5.3910 O   0  0  0  0  0  0  0  0  0  0  0  0
   27.5950   39.2790    4.7210 C   0  0  0  0  0  0  0  0  0  0  0  0
   29.8670   25.5550   16.9770 C   0  0  0  0  0  0  0  0  0  0  0  0
   28.3450   25.7220   17.0260 C   0  0  0  0  0  0  0  0  0  0  0  0
   27.5990   24.4340   16.7140 C   0  0  0  0  0  0  0  0  0  0  0  0
   26.9930   23.8180   17.9450 C   0  0  0  0  0  0  0  0  0  0  0  0
   25.6120   24.4190   18.1870 C   0  0  0  0  0  0  0  0  0  0  0  0
   24.8090   24.3920   16.9420 N   0  0  0  0  0  0  0  0  0  0  0  0
  1  5  1  0  0  0  0
  2  1  1  0  0  0  0
  2  3  2  0  0  0  0
  4  1  1  0  0  0  0
  6  5  1  6  0  0  0
  6 29  1  0  0  0  0
  7 27  1  6  0  0  0
  7  6  1  0  0  0  0
  8  7  1  6  0  0  0
  8 13  1  0  0  0  0
  9 14  1  6  0  0  0
  9 16  1  0  0  0  0
  9 10  1  0  0  0  0
 10 12  1  0  0  0  0
 11  9  1  0  0  0  0
 11  8  1  0  0  0  0
 12 20  1  6  0  0  0
 13 12  1  0  0  0  0
 13 22  1  1  0  0  0
 15 14  1  0  0  0  0
 16 17  2  0  0  0  0
 18 16  1  0  0  0  0
 19 18  1  0  0  0  0
 21 20  1  0  0  0  0
 22 23  1  0  0  0  0
 23 26  2  0  0  0  0
 23 25  1  0  0  0  0
 24 22  1  0  0  0  0
 27 28  1  0  0  0  0
 30 29  1  0  0  0  0
 31  2  1  0  0  0  0
 32 31  1  0  0  0  0
 33 32  1  0  0  0  0
 34 33  2  0  0  0  0
 35 33  1  0  0  0  0
 36 34  1  0  0  0  0
 37 36  1  0  0  0  0
 37 35  2  0  0  0  0
 38 36  1  0  0  0  0
 39 38  1  0  0  0  0
 40 39  1  0  0  0  0
 41 40  1  0  0  0  0
 42 41  2  0  0  0  0
 43 41  1  0  0  0  0
 44 45  1  0  0  0  0
 46 45  1  0  0  0  0
 46 47  1  0  0  0  0
 47 48  1  0  0  0  0
 49 48  1  0  0  0  0
M  END
>  <REMARK>
 VINA RESULT:    -4.040      2.884      3.841
 INTER + INTRA:         -13.760
 INTER:                  -8.742
 INTRA:                  -5.018
 UNBOUND:                -6.059
 SMILES CC(=O)N[C@@H]1[C@@H](O)C[C@](O)(C(=O)O)O[C@H]1C(O)[C@H](O)CNC(=O)OCc1cn(CCOC(C)=O)nn1
 SMILES IDX 21 1 22 2 23 3 20 5 18 6 16 7 15 8 9 9 8 10 14 11 6 12 5 13
 SMILES IDX 10 14 11 16 12 17 13 18 7 20 4 22 2 23 1 25 3 26 17 27 19 29
 SMILES IDX 24 31 25 32 26 33 27 34 36 35 28 36 35 37 29 38 30 39 31 40
 SMILES IDX 32 41 34 42 33 43
 H PARENT 21 4 10 15 13 19 7 21 4 24 17 28 19 30
 Flexibility Score: inf
  4 active torsions:
  status: ('A' for Active; 'I' for Inactive)
    1  A    between atoms: CA   and  CB  
    2  A    between atoms: CB   and  CG  
    3  A    between atoms: CG   and  CD  
    4  A    between atoms: CD   and  CE  

>  <TORSDO>
F 18

>  <BEGIN_>
RES LYS A 131

$$$$
ligand_19_pose_13_2HRL.pdbqt
 OpenBabel07062320523D

  6  5  0  0  0  0  0  0  0  0999 V2000
   33.1930   34.6630    9.2900 C   0  0  0  0  0  0  0  0  0  0  0  0
   32.0600   35.3600   10.0340 C   0  0  0  0  0  0  0  0  0  0  0  0
   30.7080   34.7420    9.7880 C   0  0  0  0  0  0  0  0  0  0  0  0
   30.5210   34.4320    8.3110 C   0  0  0  0  0  0  0  0  0  0  0  0
   29.3010   35.1500    7.7650 C   0  0  0  0  0  0  0  0  0  0  0  0
   28.0490   34.6130    8.3670 N   0  0  0  0  0  0  0  0  0  0  0  0
  1  2  1  0  0  0  0
  3  2  1  0  0  0  0
  4  3  1  0  0  0  0
  5  4  1  0  0  0  0
  5  6  1  0  0  0  0
M  END
>  <EGIN_R>
ES LYS A 135

>  <REMARK>
  4 active torsions:
  status: ('A' for Active; 'I' for Inactive)
    5  A    between atoms: CA   and  CB  
    6  A    between atoms: CB   and  CG  
    7  A    between atoms: CG   and  CD  
    8  A    between atoms: CD   and  CE  

$$$$
