ligand_38_pose_5_2HRL.pdbqt
 OpenBabel07062320523D

 51 52  0  0  1  0  0  0  0  0999 V2000
   30.9310   31.8460   15.4140 N   0  0  0  0  0  0  0  0  0  0  0  0
   31.6180   32.9860   15.8950 C   0  0  0  0  0  0  0  0  0  0  0  0
   31.5070   33.3460   17.1120 O   0  0  0  0  0  0  0  0  0  0  0  0
   31.0510   31.5880   14.4120 H   0  0  0  0  0  0  0  0  0  0  0  0
   30.1140   31.1250   16.3520 C   0  0  0  0  0  0  0  0  0  0  0  0
   28.7460   30.7790   15.7470 C   0  0  2  0  0  0  0  0  0  0  0  0
   27.7970   31.7870   16.2940 C   0  0  2  0  0  0  0  0  0  0  0  0
   27.3600   32.8680   15.3510 C   0  0  2  0  0  0  0  0  0  0  0  0
   28.2530   34.8790   14.5640 C   0  0  2  0  0  0  0  0  0  0  0  0
   26.8280   35.3840   14.4390 C   0  0  0  0  0  0  0  0  0  0  0  0
   28.3110   33.8840   15.5080 O   0  0  0  0  0  0  0  0  0  0  0  0
   25.9670   34.8630   15.5780 C   0  0  1  0  0  0  0  0  0  0  0  0
   25.9590   33.3260   15.4740 C   0  0  1  0  0  0  0  0  0  0  0  0
   28.9820   35.9570   15.1110 O   0  0  0  0  0  0  0  0  0  0  0  0
   29.6350   36.3150   14.4800 H   0  0  0  0  0  0  0  0  0  0  0  0
   28.8530   34.5540   13.2680 C   0  0  0  0  0  0  0  0  0  0  0  0
   28.1580   34.5870   12.2250 O   0  0  0  0  0  0  0  0  0  0  0  0
   30.1860   34.2000   13.1200 O   0  0  0  0  0  0  0  0  0  0  0  0
   30.5500   33.4290   13.6450 H   0  0  0  0  0  0  0  0  0  0  0  0
   26.4200   35.2980   16.7960 O   0  0  0  0  0  0  0  0  0  0  0  0
   27.2500   35.8530   16.6510 H   0  0  0  0  0  0  0  0  0  0  0  0
   25.1930   33.0620   14.2490 N   0  0  0  0  0  0  0  0  0  0  0  0
   23.8390   32.6340   14.2980 C   0  0  0  0  0  0  0  0  0  0  0  0
   25.6040   33.1730   13.2960 H   0  0  0  0  0  0  0  0  0  0  0  0
   23.0740   32.3660   13.0270 C   0  0  0  0  0  0  0  0  0  0  0  0
   23.2440   32.4660   15.3740 O   0  0  0  0  0  0  0  0  0  0  0  0
   28.5080   32.4670   17.3190 O   0  0  0  0  0  0  0  0  0  0  0  0
   28.1340   32.0980   18.1680 H   0  0  0  0  0  0  0  0  0  0  0  0
   28.4830   29.4690   16.1360 O   0  0  0  0  0  0  0  0  0  0  0  0
   27.8490   29.0760   15.4980 H   0  0  0  0  0  0  0  0  0  0  0  0
   32.4390   33.7700   15.0980 O   0  0  0  0  0  0  0  0  0  0  0  0
   32.7010   35.1390   15.3510 C   0  0  0  0  0  0  0  0  0  0  0  0
   32.4140   35.9760   14.1550 C   0  0  0  0  0  0  0  0  0  0  0  0
   31.7890   37.2280   14.1550 C   0  0  0  0  0  0  0  0  0  0  0  0
   32.6820   35.7250   12.8610 N   0  0  0  0  0  0  0  0  0  0  0  0
   31.7110   37.6610   12.8920 N   0  0  0  0  0  0  0  0  0  0  0  0
   32.2590   36.7350   12.1290 N   0  0  0  0  0  0  0  0  0  0  0  0
   31.1470   38.8970   12.3960 C   0  0  0  0  0  0  0  0  0  0  0  0
   30.1120   38.6110   11.3690 C   0  0  0  0  0  0  0  0  0  0  0  0
   28.9600   37.9270   11.6910 C   0  0  0  0  0  0  0  0  0  0  0  0
   30.2900   39.0290   10.0800 C   0  0  0  0  0  0  0  0  0  0  0  0
   27.9840   37.6570   10.7270 C   0  0  0  0  0  0  0  0  0  0  0  0
   29.3240   38.7650    9.1100 C   0  0  0  0  0  0  0  0  0  0  0  0
   28.1680   38.0760    9.4380 C   0  0  0  0  0  0  0  0  0  0  0  0
   29.6080   39.3600    7.3290 Br  0  0  0  0  0  0  0  0  0  0  0  0
   29.8670   25.5550   16.9770 C   0  0  0  0  0  0  0  0  0  0  0  0
   28.3450   25.7220   17.0260 C   0  0  0  0  0  0  0  0  0  0  0  0
   27.6020   24.4000   16.9100 C   0  0  0  0  0  0  0  0  0  0  0  0
   26.6220   24.2010   18.0330 C   0  0  0  0  0  0  0  0  0  0  0  0
   26.4090   25.5230   18.7630 C   0  0  0  0  0  0  0  0  0  0  0  0
   25.0040   25.9730   18.6230 N   0  0  0  0  0  0  0  0  0  0  0  0
  1  2  1  0  0  0  0
  1  5  1  0  0  0  0
  2  3  2  0  0  0  0
  4  1  1  0  0  0  0
  6 29  1  0  0  0  0
  6  7  1  0  0  0  0
  6  5  1  1  0  0  0
  7 27  1  1  0  0  0
  8 13  1  0  0  0  0
  8 11  1  0  0  0  0
  8  7  1  1  0  0  0
  9 16  1  6  0  0  0
  9 14  1  0  0  0  0
  9 11  1  0  0  0  0
 10  9  1  0  0  0  0
 10 12  1  0  0  0  0
 12 20  1  1  0  0  0
 13 22  1  6  0  0  0
 13 12  1  0  0  0  0
 15 14  1  0  0  0  0
 17 16  2  0  0  0  0
 18 16  1  0  0  0  0
 18 19  1  0  0  0  0
 21 20  1  0  0  0  0
 22 23  1  0  0  0  0
 23 26  2  0  0  0  0
 24 22  1  0  0  0  0
 25 23  1  0  0  0  0
 27 28  1  0  0  0  0
 30 29  1  0  0  0  0
 31 32  1  0  0  0  0
 31  2  1  0  0  0  0
 33 32  1  0  0  0  0
 34 33  2  0  0  0  0
 35 33  1  0  0  0  0
 36 34  1  0  0  0  0
 37 35  2  0  0  0  0
 37 36  1  0  0  0  0
 38 36  1  0  0  0  0
 39 40  1  0  0  0  0
 39 38  1  0  0  0  0
 41 39  2  0  0  0  0
 42 40  2  0  0  0  0
 43 44  2  0  0  0  0
 43 41  1  0  0  0  0
 44 42  1  0  0  0  0
 45 43  1  0  0  0  0
 46 47  1  0  0  0  0
 48 47  1  0  0  0  0
 48 49  1  0  0  0  0
 49 50  1  0  0  0  0
 51 50  1  0  0  0  0
M  END
>  <REMARK>
 VINA RESULT:    -4.813      3.112      7.082
 INTER + INTRA:         -14.906
 INTER:                  -8.631
 INTRA:                  -6.274
 UNBOUND:                -6.295
 SMILES CC(=O)N[C@@H]1[C@@H](O)C[C@](O)(C(=O)O)O[C@H]1C(O)[C@H](O)CNC(=O)OCc1cn(Cc2cccc(Br)c2)nn1
 SMILES IDX 21 1 22 2 23 3 20 5 18 6 16 7 15 8 9 9 8 10 14 11 6 12 5 13
 SMILES IDX 10 14 11 16 12 17 13 18 7 20 4 22 2 23 1 25 3 26 17 27 19 29
 SMILES IDX 24 31 25 32 26 33 27 34 38 35 28 36 37 37 29 38 30 39 31 40
 SMILES IDX 36 41 32 42 34 43 33 44 35 45
 H PARENT 21 4 10 15 13 19 7 21 4 24 17 28 19 30
 Flexibility Score: inf
  4 active torsions:
  status: ('A' for Active; 'I' for Inactive)
    1  A    between atoms: CA   and  CB  
    2  A    between atoms: CB   and  CG  
    3  A    between atoms: CG   and  CD  
    4  A    between atoms: CD   and  CE  

>  <TORSDO>
F 16

>  <BEGIN_>
RES LYS A 131

$$$$
ligand_38_pose_5_2HRL.pdbqt
 OpenBabel07062320523D

  6  5  0  0  0  0  0  0  0  0999 V2000
   33.1930   34.6630    9.2900 C   0  0  0  0  0  0  0  0  0  0  0  0
   32.0600   35.3600   10.0340 C   0  0  0  0  0  0  0  0  0  0  0  0
   30.7860   35.4590    9.2360 C   0  0  0  0  0  0  0  0  0  0  0  0
   30.1740   34.0820    9.0300 C   0  0  0  0  0  0  0  0  0  0  0  0
   28.6660   34.1830    8.9000 C   0  0  0  0  0  0  0  0  0  0  0  0
   28.2830   34.9610    7.6890 N   0  0  0  0  0  0  0  0  0  0  0  0
  1  2  1  0  0  0  0
  3  2  1  0  0  0  0
  4  3  1  0  0  0  0
  5  4  1  0  0  0  0
  6  5  1  0  0  0  0
M  END
>  <EGIN_R>
ES LYS A 135

>  <REMARK>
  4 active torsions:
  status: ('A' for Active; 'I' for Inactive)
    5  A    between atoms: CA   and  CB  
    6  A    between atoms: CB   and  CG  
    7  A    between atoms: CG   and  CD  
    8  A    between atoms: CD   and  CE  

$$$$
