ligand_79_pose_5_2HRL.pdbqt
 OpenBabel07062320523D

 58 60  0  0  1  0  0  0  0  0999 V2000
   32.0370   28.4870   20.7590 N   0  0  0  0  0  0  0  0  0  0  0  0
   32.0990   29.5600   21.6800 C   0  0  0  0  0  0  0  0  0  0  0  0
   31.8230   29.3960   22.8710 O   0  0  0  0  0  0  0  0  0  0  0  0
   32.3050   28.7400   19.7490 H   0  0  0  0  0  0  0  0  0  0  0  0
   31.6560   27.1340   21.0610 C   0  0  0  0  0  0  0  0  0  0  0  0
   30.2120   26.9060   21.3090 C   0  0  2  0  0  0  0  0  0  0  0  0
   29.3140   27.9780   20.7110 C   0  0  1  0  0  0  0  0  0  0  0  0
   28.1400   27.3780   19.9820 C   0  0  2  0  0  0  0  0  0  0  0  0
   27.0380   28.7920   18.5120 C   0  0  2  0  0  0  0  0  0  0  0  0
   25.6570   28.2990   18.8850 C   0  0  0  0  0  0  0  0  0  0  0  0
   28.0060   27.8110   18.6940 O   0  0  0  0  0  0  0  0  0  0  0  0
   25.7250   27.1300   19.8460 C   0  0  1  0  0  0  0  0  0  0  0  0
   26.8720   27.4540   20.8050 C   0  0  1  0  0  0  0  0  0  0  0  0
   27.3870   29.9640   19.1810 O   0  0  0  0  0  0  0  0  0  0  0  0
   27.6630   29.7680   20.1210 H   0  0  0  0  0  0  0  0  0  0  0  0
   27.0090   29.1130   17.0600 C   0  0  0  0  0  0  0  0  0  0  0  0
   25.8880   29.2780   16.4810 O   0  0  0  0  0  0  0  0  0  0  0  0
   28.1400   29.2460   16.2900 O   0  0  0  0  0  0  0  0  0  0  0  0
   28.5800   30.1370   16.0980 H   0  0  0  0  0  0  0  0  0  0  0  0
   24.5430   26.9310   20.5200 O   0  0  0  0  0  0  0  0  0  0  0  0
   24.4460   27.6740   21.1970 H   0  0  0  0  0  0  0  0  0  0  0  0
   26.9370   26.5100   21.8880 N   0  0  0  0  0  0  0  0  0  0  0  0
   26.6200   26.8800   23.2420 C   0  0  0  0  0  0  0  0  0  0  0  0
   27.2170   25.5060   21.7630 H   0  0  0  0  0  0  0  0  0  0  0  0
   26.6740   25.9520   24.3720 C   0  0  0  0  0  0  0  0  0  0  0  0
   26.2770   28.0930   23.4230 O   0  0  0  0  0  0  0  0  0  0  0  0
   28.8570   28.7290   21.7980 O   0  0  0  0  0  0  0  0  0  0  0  0
   28.0370   28.3720   22.1890 H   0  0  0  0  0  0  0  0  0  0  0  0
   29.9410   26.8790   22.6630 O   0  0  0  0  0  0  0  0  0  0  0  0
   30.8030   26.7620   23.1400 H   0  0  0  0  0  0  0  0  0  0  0  0
   32.4730   30.8480   21.2890 O   0  0  0  0  0  0  0  0  0  0  0  0
   31.5210   31.8610   21.1510 C   0  0  0  0  0  0  0  0  0  0  0  0
   30.8820   31.7950   19.8120 C   0  0  0  0  0  0  0  0  0  0  0  0
   30.7430   32.8470   18.9200 C   0  0  0  0  0  0  0  0  0  0  0  0
   30.3190   30.7410   19.1850 N   0  0  0  0  0  0  0  0  0  0  0  0
   30.1150   32.4100   17.8100 N   0  0  0  0  0  0  0  0  0  0  0  0
   29.8710   31.1250   18.0030 N   0  0  0  0  0  0  0  0  0  0  0  0
   29.7780   33.2230   16.6250 C   0  0  0  0  0  0  0  0  0  0  0  0
   28.5100   32.7170   16.0300 C   0  0  0  0  0  0  0  0  0  0  0  0
   29.5840   34.6370   17.2040 C   0  0  0  0  0  0  0  0  0  0  0  0
   30.9530   33.2350   15.7560 C   0  0  0  0  0  0  0  0  0  0  0  0
   31.5280   32.1430   15.4120 O   0  0  0  0  0  0  0  0  0  0  0  0
   31.5810   34.4330   15.2110 C   0  0  0  0  0  0  0  0  0  0  0  0
   32.8100   34.9460   15.6210 C   0  0  0  0  0  0  0  0  0  0  0  0
   31.0450   35.2390   14.2410 C   0  0  0  0  0  0  0  0  0  0  0  0
   33.0110   36.0500   14.9050 N   0  0  0  0  0  0  0  0  0  0  0  0
   31.9780   36.2660   14.0630 C   0  0  0  0  0  0  0  0  0  0  0  0
   29.8800   35.2210   13.4790 C   0  0  0  0  0  0  0  0  0  0  0  0
   33.8350   36.6660   14.9710 H   0  0  0  0  0  0  0  0  0  0  0  0
   31.7020   37.2410   13.1250 C   0  0  0  0  0  0  0  0  0  0  0  0
   29.6400   36.2010   12.5610 C   0  0  0  0  0  0  0  0  0  0  0  0
   30.5450   37.2060   12.3840 C   0  0  0  0  0  0  0  0  0  0  0  0
   29.8670   25.5550   16.9770 C   0  0  0  0  0  0  0  0  0  0  0  0
   28.3450   25.7220   17.0260 C   0  0  0  0  0  0  0  0  0  0  0  0
   27.6020   24.3990   16.9190 C   0  0  0  0  0  0  0  0  0  0  0  0
   26.1520   24.5320   17.2960 C   0  0  0  0  0  0  0  0  0  0  0  0
   25.7860   23.4440   18.3010 C   0  0  0  0  0  0  0  0  0  0  0  0
   24.9810   22.3850   17.6480 N   0  0  0  0  0  0  0  0  0  0  0  0
  1  5  1  0  0  0  0
  1  2  1  0  0  0  0
  2  3  2  0  0  0  0
  4  1  1  0  0  0  0
  6  5  1  1  0  0  0
  6 29  1  0  0  0  0
  7  6  1  0  0  0  0
  7 27  1  1  0  0  0
  8  7  1  1  0  0  0
  8 13  1  0  0  0  0
  9 16  1  6  0  0  0
  9 11  1  0  0  0  0
  9 10  1  0  0  0  0
  9 14  1  0  0  0  0
 10 12  1  0  0  0  0
 11  8  1  0  0  0  0
 12 20  1  1  0  0  0
 12 13  1  0  0  0  0
 13 22  1  1  0  0  0
 14 15  1  0  0  0  0
 17 16  2  0  0  0  0
 18 16  1  0  0  0  0
 19 18  1  0  0  0  0
 20 21  1  0  0  0  0
 22 23  1  0  0  0  0
 23 26  2  0  0  0  0
 23 25  1  0  0  0  0
 24 22  1  0  0  0  0
 27 28  1  0  0  0  0
 29 30  1  0  0  0  0
 31  2  1  0  0  0  0
 32 31  1  0  0  0  0
 33 32  1  0  0  0  0
 34 33  2  0  0  0  0
 35 33  1  0  0  0  0
 36 37  1  0  0  0  0
 36 34  1  0  0  0  0
 37 35  2  0  0  0  0
 38 40  1  0  0  0  0
 38 36  1  0  0  0  0
 39 38  1  0  0  0  0
 41 38  1  0  0  0  0
 42 41  2  0  0  0  0
 43 44  2  0  0  0  0
 43 41  1  0  0  0  0
 45 43  1  0  0  0  0
 46 49  1  0  0  0  0
 46 44  1  0  0  0  0
 47 45  1  0  0  0  0
 47 46  1  0  0  0  0
 48 45  2  0  0  0  0
 50 47  2  0  0  0  0
 51 48  1  0  0  0  0
 52 51  2  0  0  0  0
 52 50  1  0  0  0  0
 53 54  1  0  0  0  0
 55 54  1  0  0  0  0
 55 56  1  0  0  0  0
 56 57  1  0  0  0  0
 58 57  1  0  0  0  0
M  END
>  <REMARK>
 VINA RESULT:    -6.333      5.307     11.458
 INTER + INTRA:         -16.478
 INTER:                  -9.224
 INTRA:                  -7.253
 UNBOUND:                -4.777
 SMILES CC(=O)N[C@@H]1[C@@H](O)C[C@](O)(C(=O)O)O[C@H]1C(O)[C@H](O)CNC(=O)OCc1cn(C(C)(C)C(=O)c2c[nH]c3ccccc23)nn1
 SMILES IDX 21 1 22 2 23 3 20 5 18 6 16 7 15 8 9 9 8 10 14 11 6 12 5 13
 SMILES IDX 10 14 11 16 12 17 13 18 7 20 4 22 2 23 1 25 3 26 17 27 19 29
 SMILES IDX 24 31 25 32 26 33 27 34 44 35 28 36 43 37 29 38 30 39 31 40
 SMILES IDX 32 41 33 42 34 43 35 44 42 45 36 46 37 47 41 48 38 50 40 51
 SMILES IDX 39 52
 H PARENT 21 4 10 15 13 19 7 21 4 24 17 28 19 30 36 49
 Flexibility Score: inf
  4 active torsions:
  status: ('A' for Active; 'I' for Inactive)
    1  A    between atoms: CA   and  CB  
    2  A    between atoms: CB   and  CG  
    3  A    between atoms: CG   and  CD  
    4  A    between atoms: CD   and  CE  

>  <TORSDO>
F 17

>  <BEGIN_>
RES LYS A 131

$$$$
ligand_79_pose_5_2HRL.pdbqt
 OpenBabel07062320523D

  6  5  0  0  0  0  0  0  0  0999 V2000
   33.1930   34.6630    9.2900 C   0  0  0  0  0  0  0  0  0  0  0  0
   32.0600   35.3600   10.0340 C   0  0  0  0  0  0  0  0  0  0  0  0
   30.8650   35.6610    9.1670 C   0  0  0  0  0  0  0  0  0  0  0  0
   30.3680   34.3970    8.4820 C   0  0  0  0  0  0  0  0  0  0  0  0
   28.8560   34.4170    8.3600 C   0  0  0  0  0  0  0  0  0  0  0  0
   28.2120   33.8700    9.5850 N   0  0  0  0  0  0  0  0  0  0  0  0
  1  2  1  0  0  0  0
  3  2  1  0  0  0  0
  4  3  1  0  0  0  0
  5  4  1  0  0  0  0
  5  6  1  0  0  0  0
M  END
>  <EGIN_R>
ES LYS A 135

>  <REMARK>
  4 active torsions:
  status: ('A' for Active; 'I' for Inactive)
    5  A    between atoms: CA   and  CB  
    6  A    between atoms: CB   and  CG  
    7  A    between atoms: CG   and  CD  
    8  A    between atoms: CD   and  CE  

$$$$
