ligand_62_pose_19_2HRL.pdbqt
 OpenBabel07062320523D

 52 52  0  0  1  0  0  0  0  0999 V2000
   29.8350   35.6690   16.1080 N   0  0  0  0  0  0  0  0  0  0  0  0
   30.6080   36.8100   15.8100 C   0  0  0  0  0  0  0  0  0  0  0  0
   30.4590   37.8930   16.4190 O   0  0  0  0  0  0  0  0  0  0  0  0
   30.0390   34.8050   15.5440 H   0  0  0  0  0  0  0  0  0  0  0  0
   28.8130   35.5810   17.0920 C   0  0  0  0  0  0  0  0  0  0  0  0
   27.4970   35.0390   16.6720 C   0  0  2  0  0  0  0  0  0  0  0  0
   27.1010   33.7870   17.4250 C   0  0  2  0  0  0  0  0  0  0  0  0
   28.2300   32.8570   17.7370 C   0  0  2  0  0  0  0  0  0  0  0  0
   29.9490   31.7440   16.6590 C   0  0  2  0  0  0  0  0  0  0  0  0
   30.2980   31.5160   18.1060 C   0  0  0  0  0  0  0  0  0  0  0  0
   28.8320   32.5460   16.4990 O   0  0  0  0  0  0  0  0  0  0  0  0
   29.1780   30.9680   18.9160 C   0  0  1  0  0  0  0  0  0  0  0  0
   27.8660   31.5640   18.3830 C   0  0  1  0  0  0  0  0  0  0  0  0
   29.8320   30.5190   16.0280 O   0  0  0  0  0  0  0  0  0  0  0  0
   29.0440   30.4550   15.4340 H   0  0  0  0  0  0  0  0  0  0  0  0
   31.0970   32.4590   16.0380 C   0  0  0  0  0  0  0  0  0  0  0  0
   31.7210   33.3730   16.6460 O   0  0  0  0  0  0  0  0  0  0  0  0
   31.5460   32.1590   14.7470 O   0  0  0  0  0  0  0  0  0  0  0  0
   31.7260   31.2070   14.4560 H   0  0  0  0  0  0  0  0  0  0  0  0
   29.1190   29.5760   18.9070 O   0  0  0  0  0  0  0  0  0  0  0  0
   28.2920   29.3320   18.4080 H   0  0  0  0  0  0  0  0  0  0  0  0
   26.9780   31.6110   19.4930 N   0  0  0  0  0  0  0  0  0  0  0  0
   25.5870   31.2260   19.3980 C   0  0  0  0  0  0  0  0  0  0  0  0
   27.2740   31.9120   20.4450 H   0  0  0  0  0  0  0  0  0  0  0  0
   24.7010   31.2900   20.5820 C   0  0  0  0  0  0  0  0  0  0  0  0
   25.1320   30.8370   18.3160 O   0  0  0  0  0  0  0  0  0  0  0  0
   26.2910   33.0730   16.4880 O   0  0  0  0  0  0  0  0  0  0  0  0
   26.8380   32.5470   15.8830 H   0  0  0  0  0  0  0  0  0  0  0  0
   27.5320   34.6820   15.3260 O   0  0  0  0  0  0  0  0  0  0  0  0
   27.0790   35.3690   14.7840 H   0  0  0  0  0  0  0  0  0  0  0  0
   31.5800   36.7770   14.8140 O   0  0  0  0  0  0  0  0  0  0  0  0
   31.6730   35.7100   13.9070 C   0  0  0  0  0  0  0  0  0  0  0  0
   30.3740   35.4560   13.2580 C   0  0  0  0  0  0  0  0  0  0  0  0
   29.6100   36.3430   12.5240 C   0  0  0  0  0  0  0  0  0  0  0  0
   29.7130   34.2790   13.2880 N   0  0  0  0  0  0  0  0  0  0  0  0
   28.5260   35.6810   12.1370 N   0  0  0  0  0  0  0  0  0  0  0  0
   28.5890   34.4620   12.5900 N   0  0  0  0  0  0  0  0  0  0  0  0
   27.4310   36.2190   11.3330 C   0  0  1  0  0  0  0  0  0  0  0  0
   26.5950   35.0730   10.8380 C   0  0  0  0  0  0  0  0  0  0  0  0
   25.3800   35.5180   10.3700 O   0  0  0  0  0  0  0  0  0  0  0  0
   25.3350   35.7520    9.0120 C   0  0  0  0  0  0  0  0  0  0  0  0
   26.5770   37.0890   12.2060 C   0  0  0  0  0  0  0  0  0  0  0  0
   26.3960   38.2830   11.9280 O   0  0  0  0  0  0  0  0  0  0  0  0
   25.9890   36.4950   13.3540 N   0  0  0  0  0  0  0  0  0  0  0  0
   25.1210   36.9240   13.7490 H   0  0  0  0  0  0  0  0  0  0  0  0
   26.4020   35.6620   13.7900 H   0  0  0  0  0  0  0  0  0  0  0  0
   29.8670   25.5550   16.9770 C   0  0  0  0  0  0  0  0  0  0  0  0
   28.3450   25.7220   17.0260 C   0  0  0  0  0  0  0  0  0  0  0  0
   27.6010   24.4010   16.8980 C   0  0  0  0  0  0  0  0  0  0  0  0
   26.5600   24.2310   17.9690 C   0  0  0  0  0  0  0  0  0  0  0  0
   25.9770   25.5930   18.3330 C   0  0  0  0  0  0  0  0  0  0  0  0
   25.9110   25.7520   19.8050 N   0  0  0  0  0  0  0  0  0  0  0  0
  1  5  1  0  0  0  0
  2  1  1  0  0  0  0
  2  3  2  0  0  0  0
  4  1  1  0  0  0  0
  6  5  1  1  0  0  0
  6  7  1  0  0  0  0
  7 27  1  6  0  0  0
  8  7  1  6  0  0  0
  8 13  1  0  0  0  0
  9 14  1  6  0  0  0
  9 10  1  0  0  0  0
 10 12  1  0  0  0  0
 11  9  1  0  0  0  0
 11  8  1  0  0  0  0
 12 20  1  6  0  0  0
 13 12  1  0  0  0  0
 13 22  1  1  0  0  0
 15 14  1  0  0  0  0
 16 17  2  0  0  0  0
 16  9  1  0  0  0  0
 18 16  1  0  0  0  0
 19 18  1  0  0  0  0
 21 20  1  0  0  0  0
 22 24  1  0  0  0  0
 23 22  1  0  0  0  0
 23 25  1  0  0  0  0
 26 23  2  0  0  0  0
 28 27  1  0  0  0  0
 29  6  1  0  0  0  0
 30 29  1  0  0  0  0
 31  2  1  0  0  0  0
 32 31  1  0  0  0  0
 33 35  1  0  0  0  0
 33 32  1  0  0  0  0
 34 33  2  0  0  0  0
 36 34  1  0  0  0  0
 36 37  1  0  0  0  0
 37 35  2  0  0  0  0
 38 39  1  1  0  0  0
 38 36  1  0  0  0  0
 38 42  1  0  0  0  0
 40 39  1  0  0  0  0
 41 40  1  0  0  0  0
 42 44  1  0  0  0  0
 43 42  2  0  0  0  0
 44 45  1  0  0  0  0
 44 46  1  0  0  0  0
 47 48  1  0  0  0  0
 49 48  1  0  0  0  0
 49 50  1  0  0  0  0
 50 51  1  0  0  0  0
 51 52  1  0  0  0  0
M  END
>  <REMARK>
 VINA RESULT:    -3.752      2.655      5.107
 INTER + INTRA:         -13.905
 INTER:                  -7.174
 INTRA:                  -6.731
 UNBOUND:                -6.753
 SMILES COCC(C(N)=O)n1cc(COC(=O)NC[C@@H](O)C(O)[C@@H]2O[C@@](O)(C(=O)O)C[C@H](O)[C@H]2NC(C)=O)nn1
 SMILES IDX 15 1 13 2 14 3 16 5 17 6 19 7 21 8 23 9 28 10 22 11 29 12
 SMILES IDX 31 13 24 14 25 16 26 17 27 18 30 20 32 22 33 23 34 25 35 26
 SMILES IDX 20 27 18 29 12 31 11 32 10 33 9 34 36 35 8 36 37 37 4 38
 SMILES IDX 3 39 2 40 1 41 5 42 7 43 6 44
 H PARENT 15 4 24 15 27 19 30 21 32 24 20 28 18 30 6 45 6 46
 Flexibility Score: inf
  4 active torsions:
  status: ('A' for Active; 'I' for Inactive)
    1  A    between atoms: CA   and  CB  
    2  A    between atoms: CB   and  CG  
    3  A    between atoms: CG   and  CD  
    4  A    between atoms: CD   and  CE  

>  <TORSDO>
F 18

>  <BEGIN_>
RES LYS A 131

$$$$
ligand_62_pose_19_2HRL.pdbqt
 OpenBabel07062320523D

  6  5  0  0  0  0  0  0  0  0999 V2000
   33.1930   34.6630    9.2900 C   0  0  0  0  0  0  0  0  0  0  0  0
   32.0600   35.3600   10.0340 C   0  0  0  0  0  0  0  0  0  0  0  0
   30.8180   35.5480    9.2010 C   0  0  0  0  0  0  0  0  0  0  0  0
   30.0670   34.2330    9.0540 C   0  0  0  0  0  0  0  0  0  0  0  0
   28.7850   34.4370    8.2700 C   0  0  0  0  0  0  0  0  0  0  0  0
   28.7600   35.7780    7.6220 N   0  0  0  0  0  0  0  0  0  0  0  0
  1  2  1  0  0  0  0
  3  2  1  0  0  0  0
  4  3  1  0  0  0  0
  5  4  1  0  0  0  0
  6  5  1  0  0  0  0
M  END
>  <EGIN_R>
ES LYS A 135

>  <REMARK>
  4 active torsions:
  status: ('A' for Active; 'I' for Inactive)
    5  A    between atoms: CA   and  CB  
    6  A    between atoms: CB   and  CG  
    7  A    between atoms: CG   and  CD  
    8  A    between atoms: CD   and  CE  

$$$$
