ligand_33_pose_8_2HRL.pdbqt
 OpenBabel07062320523D

 52 52  0  0  1  0  0  0  0  0999 V2000
   29.3100   37.2370   14.7970 C   0  0  0  0  0  0  0  0  0  0  0  0
   30.7210   37.2580   14.6170 O   0  0  0  0  0  0  0  0  0  0  0  0
   31.4830   36.3410   15.3520 C   0  0  0  0  0  0  0  0  0  0  0  0
   31.5800   35.0070   14.8650 N   0  0  0  0  0  0  0  0  0  0  0  0
   31.0750   34.7750   13.9690 H   0  0  0  0  0  0  0  0  0  0  0  0
   32.0400   36.7420   16.4040 O   0  0  0  0  0  0  0  0  0  0  0  0
   32.3470   34.0520   15.6000 C   0  0  0  0  0  0  0  0  0  0  0  0
   31.5570   33.2480   16.6050 C   0  0  2  0  0  0  0  0  0  0  0  0
   30.3240   32.7040   15.9110 C   0  0  2  0  0  0  0  0  0  0  0  0
   29.7730   31.4520   16.5080 C   0  0  2  0  0  0  0  0  0  0  0  0
   27.5610   31.9960   15.9640 C   0  0  2  0  0  0  0  0  0  0  0  0
   27.4040   32.4480   17.4250 C   0  0  0  0  0  0  0  0  0  0  0  0
   28.6070   31.1260   15.8480 O   0  0  0  0  0  0  0  0  0  0  0  0
   28.0460   31.3570   18.2450 C   0  0  1  0  0  0  0  0  0  0  0  0
   29.5610   31.4420   17.9790 C   0  0  1  0  0  0  0  0  0  0  0  0
   27.6160   33.1080   15.1260 O   0  0  0  0  0  0  0  0  0  0  0  0
   27.1650   32.9240   14.2420 H   0  0  0  0  0  0  0  0  0  0  0  0
   26.3200   31.2500   15.6360 C   0  0  0  0  0  0  0  0  0  0  0  0
   25.3080   31.8710   15.1910 O   0  0  0  0  0  0  0  0  0  0  0  0
   26.2940   29.8800   15.8230 O   0  0  0  0  0  0  0  0  0  0  0  0
   26.8290   29.5270   16.6290 H   0  0  0  0  0  0  0  0  0  0  0  0
   27.7860   31.5040   19.6080 O   0  0  0  0  0  0  0  0  0  0  0  0
   27.2920   32.3580   19.7120 H   0  0  0  0  0  0  0  0  0  0  0  0
   30.2190   30.3140   18.6240 N   0  0  0  0  0  0  0  0  0  0  0  0
   30.8480   30.4090   19.8810 C   0  0  0  0  0  0  0  0  0  0  0  0
   30.2190   29.3810   18.1210 H   0  0  0  0  0  0  0  0  0  0  0  0
   31.5240   29.2220   20.5210 C   0  0  0  0  0  0  0  0  0  0  0  0
   30.8390   31.5280   20.4790 O   0  0  0  0  0  0  0  0  0  0  0  0
   30.8020   32.3230   14.6240 O   0  0  0  0  0  0  0  0  0  0  0  0
   31.0530   33.1660   14.1780 H   0  0  0  0  0  0  0  0  0  0  0  0
   31.2690   34.0630   17.6770 O   0  0  0  0  0  0  0  0  0  0  0  0
   32.0090   34.6930   17.8630 H   0  0  0  0  0  0  0  0  0  0  0  0
   28.7680   36.3950   13.7060 C   0  0  0  0  0  0  0  0  0  0  0  0
   27.9860   36.8830   12.6790 C   0  0  0  0  0  0  0  0  0  0  0  0
   28.9190   35.0860   13.5100 N   0  0  0  0  0  0  0  0  0  0  0  0
   27.7010   35.8150   11.9030 N   0  0  0  0  0  0  0  0  0  0  0  0
   28.2650   34.7400   12.4090 N   0  0  0  0  0  0  0  0  0  0  0  0
   26.8750   35.9370   10.7000 C   0  0  0  0  0  0  0  0  0  0  0  0
   26.7600   34.5690   10.0810 C   0  0  0  0  0  0  0  0  0  0  0  0
   27.0480   34.5680    8.5950 C   0  0  0  0  0  0  0  0  0  0  0  0
   28.1050   35.5450    8.2120 C   0  0  0  0  0  0  0  0  0  0  0  0
   29.2660   34.9340    7.4770 C   0  0  0  0  0  0  0  0  0  0  0  0
   30.3950   34.5670    8.3440 C   0  0  0  0  0  0  0  0  0  0  0  0
   30.2310   34.3380    9.5530 O   0  0  0  0  0  0  0  0  0  0  0  0
   31.6970   34.4670    7.8230 O   0  0  0  0  0  0  0  0  0  0  0  0
   32.0410   35.1710    7.1610 H   0  0  0  0  0  0  0  0  0  0  0  0
   29.8670   25.5550   16.9770 C   0  0  0  0  0  0  0  0  0  0  0  0
   28.3450   25.7220   17.0260 C   0  0  0  0  0  0  0  0  0  0  0  0
   27.6060   24.3930   17.0640 C   0  0  0  0  0  0  0  0  0  0  0  0
   26.1140   24.5740   17.0130 C   0  0  0  0  0  0  0  0  0  0  0  0
   25.5540   24.5810   18.4320 C   0  0  0  0  0  0  0  0  0  0  0  0
   25.9000   23.3220   19.1330 N   0  0  0  0  0  0  0  0  0  0  0  0
  2  1  1  0  0  0  0
  2  3  1  0  0  0  0
  3  6  2  0  0  0  0
  4  3  1  0  0  0  0
  4  7  1  0  0  0  0
  5  4  1  0  0  0  0
  8  7  1  6  0  0  0
  8 31  1  0  0  0  0
  9 29  1  6  0  0  0
  9  8  1  0  0  0  0
 10  9  1  6  0  0  0
 10 15  1  0  0  0  0
 11 16  1  6  0  0  0
 11 12  1  0  0  0  0
 12 14  1  0  0  0  0
 13 11  1  0  0  0  0
 13 10  1  0  0  0  0
 14 22  1  1  0  0  0
 15 14  1  0  0  0  0
 15 24  1  1  0  0  0
 17 16  1  0  0  0  0
 18 20  1  0  0  0  0
 18 11  1  0  0  0  0
 19 18  2  0  0  0  0
 20 21  1  0  0  0  0
 22 23  1  0  0  0  0
 24 25  1  0  0  0  0
 25 28  2  0  0  0  0
 25 27  1  0  0  0  0
 26 24  1  0  0  0  0
 30 29  1  0  0  0  0
 31 32  1  0  0  0  0
 33  1  1  0  0  0  0
 34 33  2  0  0  0  0
 35 33  1  0  0  0  0
 36 37  1  0  0  0  0
 36 34  1  0  0  0  0
 37 35  2  0  0  0  0
 38 36  1  0  0  0  0
 39 38  1  0  0  0  0
 40 39  1  0  0  0  0
 41 40  1  0  0  0  0
 42 41  1  0  0  0  0
 42 43  1  0  0  0  0
 43 44  2  0  0  0  0
 45 43  1  0  0  0  0
 46 45  1  0  0  0  0
 47 48  1  0  0  0  0
 48 49  1  0  0  0  0
 50 49  1  0  0  0  0
 50 51  1  0  0  0  0
 51 52  1  0  0  0  0
M  END
>  <REMARK>
 VINA RESULT:    -4.392      5.795      9.091
 INTER + INTRA:         -14.931
 INTER:                 -10.701
 INTRA:                  -4.230
 UNBOUND:                -5.918
 SMILES CC(=O)N[C@@H]1[C@@H](O)C[C@](O)(C(=O)O)O[C@H]1C(O)[C@H](O)CNC(=O)OCc1cn(CCCCCC(=O)O)nn1
 SMILES IDX 25 1 24 2 22 3 21 4 23 6 20 7 18 8 16 9 15 10 9 11 8 12
 SMILES IDX 14 13 6 14 5 15 10 16 11 18 12 19 13 20 7 22 4 24 2 25 1 27
 SMILES IDX 3 28 17 29 19 31 26 33 27 34 38 35 28 36 37 37 29 38 30 39
 SMILES IDX 31 40 32 41 33 42 34 43 35 44 36 45
 H PARENT 21 5 10 17 13 21 7 23 4 26 17 30 19 32 36 46
 Flexibility Score: inf
  4 active torsions:
  status: ('A' for Active; 'I' for Inactive)
    1  A    between atoms: CA   and  CB  
    2  A    between atoms: CB   and  CG  
    3  A    between atoms: CG   and  CD  
    4  A    between atoms: CD   and  CE  

>  <TORSDO>
F 21

>  <BEGIN_>
RES LYS A 131

$$$$
ligand_33_pose_8_2HRL.pdbqt
 OpenBabel07062320523D

  6  5  0  0  0  0  0  0  0  0999 V2000
   33.1930   34.6630    9.2900 C   0  0  0  0  0  0  0  0  0  0  0  0
   32.0600   35.3600   10.0340 C   0  0  0  0  0  0  0  0  0  0  0  0
   32.5300   36.2160   11.1820 C   0  0  0  0  0  0  0  0  0  0  0  0
   31.6740   37.4670   11.3040 C   0  0  0  0  0  0  0  0  0  0  0  0
   31.3580   38.0320    9.9320 C   0  0  0  0  0  0  0  0  0  0  0  0
   29.8910   38.2130    9.7510 N   0  0  0  0  0  0  0  0  0  0  0  0
  1  2  1  0  0  0  0
  2  3  1  0  0  0  0
  3  4  1  0  0  0  0
  5  4  1  0  0  0  0
  6  5  1  0  0  0  0
M  END
>  <EGIN_R>
ES LYS A 135

>  <REMARK>
  4 active torsions:
  status: ('A' for Active; 'I' for Inactive)
    5  A    between atoms: CA   and  CB  
    6  A    between atoms: CB   and  CG  
    7  A    between atoms: CG   and  CD  
    8  A    between atoms: CD   and  CE  

$$$$
