ligand_8_pose_9_2HRL.pdbqt
 OpenBabel07062320523D

 50 51  0  0  1  0  0  0  0  0999 V2000
   27.9830   27.8600   19.5910 C   0  0  0  0  0  0  0  0  0  0  0  0
   29.0620   27.8540   20.6430 C   0  0  2  0  0  0  0  0  0  0  0  0
   29.6960   29.2100   20.6620 C   0  0  1  0  0  0  0  0  0  0  0  0
   30.0640   29.7430   22.0270 C   0  0  2  0  0  0  0  0  0  0  0  0
   32.2440   29.0620   22.5550 C   0  0  2  0  0  0  0  0  0  0  0  0
   31.9360   29.1380   24.0510 C   0  0  0  0  0  0  0  0  0  0  0  0
   31.4320   29.9760   21.9710 O   0  0  0  0  0  0  0  0  0  0  0  0
   30.5680   28.5390   24.2080 C   0  0  1  0  0  0  0  0  0  0  0  0
   29.5650   28.9790   23.1750 C   0  0  1  0  0  0  0  0  0  0  0  0
   32.0870   27.7520   22.1810 O   0  0  0  0  0  0  0  0  0  0  0  0
   31.4150   27.3450   22.7830 H   0  0  0  0  0  0  0  0  0  0  0  0
   33.6650   29.4480   22.3340 C   0  0  0  0  0  0  0  0  0  0  0  0
   33.9190   30.5540   21.7960 O   0  0  0  0  0  0  0  0  0  0  0  0
   34.7120   28.6130   22.7080 O   0  0  0  0  0  0  0  0  0  0  0  0
   35.6670   28.9400   22.8320 H   0  0  0  0  0  0  0  0  0  0  0  0
   30.7330   27.1550   24.1390 O   0  0  0  0  0  0  0  0  0  0  0  0
   31.6020   26.9140   23.7740 H   0  0  0  0  0  0  0  0  0  0  0  0
   28.5310   29.7880   23.8550 N   0  0  0  0  0  0  0  0  0  0  0  0
   27.1850   29.3630   23.9120 C   0  0  0  0  0  0  0  0  0  0  0  0
   28.7900   30.7080   24.3150 H   0  0  0  0  0  0  0  0  0  0  0  0
   26.1270   30.1850   24.5920 C   0  0  0  0  0  0  0  0  0  0  0  0
   26.8860   28.2690   23.3720 O   0  0  0  0  0  0  0  0  0  0  0  0
   30.6840   29.2980   19.7150 O   0  0  0  0  0  0  0  0  0  0  0  0
   30.7020   28.5070   19.0970 H   0  0  0  0  0  0  0  0  0  0  0  0
   29.9880   26.8820   20.3680 O   0  0  0  0  0  0  0  0  0  0  0  0
   30.7280   27.2060   19.7840 H   0  0  0  0  0  0  0  0  0  0  0  0
   28.0860   28.8460   18.5700 N   0  0  0  0  0  0  0  0  0  0  0  0
   27.1860   28.9720   17.4900 C   0  0  0  0  0  0  0  0  0  0  0  0
   28.8900   29.5590   18.5900 H   0  0  0  0  0  0  0  0  0  0  0  0
   26.2050   28.2110   17.3170 O   0  0  0  0  0  0  0  0  0  0  0  0
   27.3970   30.0010   16.5600 O   0  0  0  0  0  0  0  0  0  0  0  0
   28.5740   29.9440   15.7870 C   0  0  0  0  0  0  0  0  0  0  0  0
   29.4770   31.0270   16.2500 C   0  0  0  0  0  0  0  0  0  0  0  0
   29.8900   32.1070   15.4590 C   0  0  0  0  0  0  0  0  0  0  0  0
   30.0820   31.2390   17.4250 N   0  0  0  0  0  0  0  0  0  0  0  0
   30.7060   32.9060   16.1670 N   0  0  0  0  0  0  0  0  0  0  0  0
   30.8060   32.3520   17.3630 N   0  0  0  0  0  0  0  0  0  0  0  0
   31.3260   34.1050   15.7010 C   0  0  0  0  0  0  0  0  0  0  0  0
   32.5310   34.0850   15.0350 C   0  0  0  0  0  0  0  0  0  0  0  0
   30.7370   35.3350   15.9020 C   0  0  0  0  0  0  0  0  0  0  0  0
   33.1240   35.2670   14.5860 C   0  0  0  0  0  0  0  0  0  0  0  0
   31.3220   36.5100   15.4570 C   0  0  0  0  0  0  0  0  0  0  0  0
   29.0570   35.3730   16.8300 Br  0  0  0  0  0  0  0  0  0  0  0  0
   32.5280   36.4940   14.7900 C   0  0  0  0  0  0  0  0  0  0  0  0
   29.8670   25.5550   16.9770 C   0  0  0  0  0  0  0  0  0  0  0  0
   28.3450   25.7220   17.0260 C   0  0  0  0  0  0  0  0  0  0  0  0
   27.6010   24.4020   16.8920 C   0  0  0  0  0  0  0  0  0  0  0  0
   26.1540   24.5250   17.2820 C   0  0  0  0  0  0  0  0  0  0  0  0
   26.0520   24.7810   18.7820 C   0  0  0  0  0  0  0  0  0  0  0  0
   25.5360   23.5800   19.4800 N   0  0  0  0  0  0  0  0  0  0  0  0
  2  1  1  6  0  0  0
  2  3  1  0  0  0  0
  3 23  1  6  0  0  0
  4  3  1  6  0  0  0
  4  9  1  0  0  0  0
  5 10  1  6  0  0  0
  5  6  1  0  0  0  0
  6  8  1  0  0  0  0
  7  4  1  0  0  0  0
  7  5  1  0  0  0  0
  8 16  1  6  0  0  0
  9 18  1  1  0  0  0
  9  8  1  0  0  0  0
 10 11  1  0  0  0  0
 12  5  1  0  0  0  0
 12 14  1  0  0  0  0
 13 12  2  0  0  0  0
 14 15  1  0  0  0  0
 17 16  1  0  0  0  0
 18 19  1  0  0  0  0
 18 20  1  0  0  0  0
 19 21  1  0  0  0  0
 22 19  2  0  0  0  0
 24 23  1  0  0  0  0
 25  2  1  0  0  0  0
 26 25  1  0  0  0  0
 27 29  1  0  0  0  0
 27  1  1  0  0  0  0
 28 27  1  0  0  0  0
 30 28  2  0  0  0  0
 31 28  1  0  0  0  0
 32 33  1  0  0  0  0
 32 31  1  0  0  0  0
 33 35  1  0  0  0  0
 34 36  1  0  0  0  0
 34 33  2  0  0  0  0
 36 37  1  0  0  0  0
 37 35  2  0  0  0  0
 38 40  1  0  0  0  0
 38 36  1  0  0  0  0
 39 38  2  0  0  0  0
 40 43  1  0  0  0  0
 41 44  2  0  0  0  0
 41 39  1  0  0  0  0
 42 40  2  0  0  0  0
 44 42  1  0  0  0  0
 45 46  1  0  0  0  0
 47 46  1  0  0  0  0
 47 48  1  0  0  0  0
 48 49  1  0  0  0  0
 49 50  1  0  0  0  0
M  END
>  <REMARK>
 VINA RESULT:    -5.629      1.868      2.835
 INTER + INTRA:         -14.139
 INTER:                  -8.497
 INTRA:                  -5.642
 UNBOUND:                -4.396
 SMILES CC(=O)N[C@@H]1[C@@H](O)C[C@](O)(C(=O)O)O[C@H]1C(O)[C@H](O)CNC(=O)OCc1cn(-c2ccccc2Br)nn1
 SMILES IDX 20 1 18 2 16 3 15 4 9 5 8 6 14 7 6 8 5 9 10 10 11 12 12 13
 SMILES IDX 13 14 7 16 4 18 2 19 1 21 3 22 17 23 19 25 21 27 22 28 23 30
 SMILES IDX 24 31 25 32 26 33 27 34 37 35 28 36 36 37 29 38 30 39 34 40
 SMILES IDX 31 41 33 42 35 43 32 44
 H PARENT 10 11 13 15 7 17 4 20 17 24 19 26 21 29
 Flexibility Score: inf
  4 active torsions:
  status: ('A' for Active; 'I' for Inactive)
    1  A    between atoms: CA   and  CB  
    2  A    between atoms: CB   and  CG  
    3  A    between atoms: CG   and  CD  
    4  A    between atoms: CD   and  CE  

>  <TORSDO>
F 15

>  <BEGIN_>
RES LYS A 131

$$$$
ligand_8_pose_9_2HRL.pdbqt
 OpenBabel07062320523D

  6  5  0  0  0  0  0  0  0  0999 V2000
   33.1930   34.6630    9.2900 C   0  0  0  0  0  0  0  0  0  0  0  0
   32.0600   35.3600   10.0340 C   0  0  0  0  0  0  0  0  0  0  0  0
   30.8460   35.6170    9.1790 C   0  0  0  0  0  0  0  0  0  0  0  0
   30.2760   34.3100    8.6500 C   0  0  0  0  0  0  0  0  0  0  0  0
   28.7700   34.4080    8.5000 C   0  0  0  0  0  0  0  0  0  0  0  0
   28.0730   33.7120    9.6170 N   0  0  0  0  0  0  0  0  0  0  0  0
  1  2  1  0  0  0  0
  3  2  1  0  0  0  0
  4  3  1  0  0  0  0
  5  4  1  0  0  0  0
  5  6  1  0  0  0  0
M  END
>  <EGIN_R>
ES LYS A 135

>  <REMARK>
  4 active torsions:
  status: ('A' for Active; 'I' for Inactive)
    5  A    between atoms: CA   and  CB  
    6  A    between atoms: CB   and  CG  
    7  A    between atoms: CG   and  CD  
    8  A    between atoms: CD   and  CE  

$$$$
