ligand_72_pose_4_2HRL.pdbqt
 OpenBabel07062320523D

 49 49  0  0  1  0  0  0  0  0999 V2000
   24.8070   38.0530    9.7480 N   0  0  0  0  0  0  0  0  0  0  0  0
   25.9220   37.3170    9.2350 C   0  0  0  0  0  0  0  0  0  0  0  0
   26.1770   37.2840    7.9830 O   0  0  0  0  0  0  0  0  0  0  0  0
   24.6520   38.0570   10.7740 H   0  0  0  0  0  0  0  0  0  0  0  0
   23.9480   38.7770    8.8350 C   0  0  0  0  0  0  0  0  0  0  0  0
   22.6660   38.0910    8.5730 C   0  0  2  0  0  0  0  0  0  0  0  0
   22.6790   36.8750    7.7260 C   0  0  1  0  0  0  0  0  0  0  0  0
   22.0530   35.6980    8.4330 C   0  0  2  0  0  0  0  0  0  0  0  0
   19.7360   36.0390    8.1020 C   0  0  2  0  0  0  0  0  0  0  0  0
   19.5820   36.3310    9.6060 C   0  0  0  0  0  0  0  0  0  0  0  0
   20.8700   35.3490    7.8170 O   0  0  0  0  0  0  0  0  0  0  0  0
   20.5070   35.3830   10.2900 C   0  0  1  0  0  0  0  0  0  0  0  0
   21.9470   35.8420    9.9210 C   0  0  1  0  0  0  0  0  0  0  0  0
   19.5430   37.2130    7.4040 O   0  0  0  0  0  0  0  0  0  0  0  0
   18.7880   37.7170    7.7930 H   0  0  0  0  0  0  0  0  0  0  0  0
   18.5930   35.1170    7.7280 C   0  0  0  0  0  0  0  0  0  0  0  0
   17.5200   35.1290    8.3750 O   0  0  0  0  0  0  0  0  0  0  0  0
   18.7720   34.2670    6.6570 O   0  0  0  0  0  0  0  0  0  0  0  0
   19.5910   33.6740    6.5820 H   0  0  0  0  0  0  0  0  0  0  0  0
   20.3620   35.3520   11.6630 O   0  0  0  0  0  0  0  0  0  0  0  0
   20.1230   36.2740   11.9480 H   0  0  0  0  0  0  0  0  0  0  0  0
   22.7700   34.8660   10.6530 N   0  0  0  0  0  0  0  0  0  0  0  0
   23.6870   35.2240   11.6460 C   0  0  0  0  0  0  0  0  0  0  0  0
   22.6420   33.8650   10.4000 H   0  0  0  0  0  0  0  0  0  0  0  0
   24.5310   34.2570   12.3940 C   0  0  0  0  0  0  0  0  0  0  0  0
   23.8170   36.4460   11.9340 O   0  0  0  0  0  0  0  0  0  0  0  0
   22.4200   36.9990    6.4010 O   0  0  0  0  0  0  0  0  0  0  0  0
   22.1630   37.9110    6.1070 H   0  0  0  0  0  0  0  0  0  0  0  0
   21.7510   39.0100    8.0110 O   0  0  0  0  0  0  0  0  0  0  0  0
   21.6030   39.7230    8.6700 H   0  0  0  0  0  0  0  0  0  0  0  0
   26.7180   36.6420   10.1230 O   0  0  0  0  0  0  0  0  0  0  0  0
   27.2280   37.2140   11.2910 C   0  0  0  0  0  0  0  0  0  0  0  0
   28.2570   36.3430   11.9160 C   0  0  0  0  0  0  0  0  0  0  0  0
   29.4510   36.7910   12.4230 C   0  0  0  0  0  0  0  0  0  0  0  0
   28.2360   35.0240   12.1040 N   0  0  0  0  0  0  0  0  0  0  0  0
   30.1260   35.7410   12.9050 N   0  0  0  0  0  0  0  0  0  0  0  0
   29.3560   34.6720   12.6960 N   0  0  0  0  0  0  0  0  0  0  0  0
   31.4260   35.7920   13.5210 C   0  0  0  0  0  0  0  0  0  0  0  0
   31.6320   34.6080   14.4420 C   0  0  0  0  0  0  0  0  0  0  0  0
   31.5420   37.0940   14.3050 C   0  0  0  0  0  0  0  0  0  0  0  0
   32.4920   35.8290   12.4560 C   0  0  0  0  0  0  0  0  0  0  0  0
   33.4590   34.8520   12.7140 O   0  0  0  0  0  0  0  0  0  0  0  0
   34.2000   35.2700   13.2220 H   0  0  0  0  0  0  0  0  0  0  0  0
   29.8670   25.5550   16.9770 C   0  0  0  0  0  0  0  0  0  0  0  0
   28.3450   25.7220   17.0260 C   0  0  0  0  0  0  0  0  0  0  0  0
   27.6030   24.3950   16.9810 C   0  0  0  0  0  0  0  0  0  0  0  0
   26.4370   24.3660   17.9290 C   0  0  0  0  0  0  0  0  0  0  0  0
   25.4040   23.3580   17.4350 C   0  0  0  0  0  0  0  0  0  0  0  0
   24.1790   24.0550   16.9760 N   0  0  0  0  0  0  0  0  0  0  0  0
  1  4  1  0  0  0  0
  2  1  1  0  0  0  0
  2 31  1  0  0  0  0
  3  2  2  0  0  0  0
  5  1  1  0  0  0  0
  6  5  1  6  0  0  0
  7 27  1  6  0  0  0
  7  6  1  0  0  0  0
  8  7  1  6  0  0  0
  8 13  1  0  0  0  0
  9 14  1  6  0  0  0
  9 10  1  0  0  0  0
 10 12  1  0  0  0  0
 11  9  1  0  0  0  0
 11  8  1  0  0  0  0
 12 20  1  1  0  0  0
 13 12  1  0  0  0  0
 13 22  1  1  0  0  0
 14 15  1  0  0  0  0
 16  9  1  0  0  0  0
 16 17  2  0  0  0  0
 18 16  1  0  0  0  0
 19 18  1  0  0  0  0
 20 21  1  0  0  0  0
 22 23  1  0  0  0  0
 23 26  2  0  0  0  0
 23 25  1  0  0  0  0
 24 22  1  0  0  0  0
 28 27  1  0  0  0  0
 29  6  1  0  0  0  0
 29 30  1  0  0  0  0
 31 32  1  0  0  0  0
 32 33  1  0  0  0  0
 33 35  1  0  0  0  0
 33 34  2  0  0  0  0
 34 36  1  0  0  0  0
 35 37  2  0  0  0  0
 36 38  1  0  0  0  0
 37 36  1  0  0  0  0
 38 40  1  0  0  0  0
 38 39  1  0  0  0  0
 41 42  1  0  0  0  0
 41 38  1  0  0  0  0
 42 43  1  0  0  0  0
 44 45  1  0  0  0  0
 46 45  1  0  0  0  0
 46 47  1  0  0  0  0
 48 47  1  0  0  0  0
 49 48  1  0  0  0  0
M  END
>  <REMARK>
 VINA RESULT:    -4.618      4.666      7.318
 INTER + INTRA:         -14.541
 INTER:                  -9.226
 INTRA:                  -5.315
 UNBOUND:                -6.145
 SMILES CC(=O)N[C@@H]1[C@@H](O)C[C@](O)(C(=O)O)O[C@H]1C(O)[C@H](O)CNC(=O)OCc1cn(C(C)(C)CO)nn1
 SMILES IDX 21 1 22 2 23 3 20 5 18 6 16 7 15 8 9 9 8 10 14 11 6 12 5 13
 SMILES IDX 10 14 11 16 12 17 13 18 7 20 4 22 2 23 1 25 3 26 17 27 19 29
 SMILES IDX 24 31 25 32 26 33 27 34 35 35 28 36 34 37 29 38 30 39 31 40
 SMILES IDX 32 41 33 42
 H PARENT 21 4 10 15 13 19 7 21 4 24 17 28 19 30 33 43
 Flexibility Score: inf
  4 active torsions:
  status: ('A' for Active; 'I' for Inactive)
    1  A    between atoms: CA   and  CB  
    2  A    between atoms: CB   and  CG  
    3  A    between atoms: CG   and  CD  
    4  A    between atoms: CD   and  CE  

>  <TORSDO>
F 17

>  <BEGIN_>
RES LYS A 131

$$$$
ligand_72_pose_4_2HRL.pdbqt
 OpenBabel07062320523D

  6  5  0  0  0  0  0  0  0  0999 V2000
   33.1930   34.6630    9.2900 C   0  0  0  0  0  0  0  0  0  0  0  0
   32.0600   35.3600   10.0340 C   0  0  0  0  0  0  0  0  0  0  0  0
   30.8070   35.5180    9.2120 C   0  0  0  0  0  0  0  0  0  0  0  0
   30.0750   34.1900    9.0900 C   0  0  0  0  0  0  0  0  0  0  0  0
   28.7020   34.3930    8.4770 C   0  0  0  0  0  0  0  0  0  0  0  0
   27.6590   33.6530    9.2390 N   0  0  0  0  0  0  0  0  0  0  0  0
  1  2  1  0  0  0  0
  3  2  1  0  0  0  0
  4  3  1  0  0  0  0
  5  4  1  0  0  0  0
  5  6  1  0  0  0  0
M  END
>  <EGIN_R>
ES LYS A 135

>  <REMARK>
  4 active torsions:
  status: ('A' for Active; 'I' for Inactive)
    5  A    between atoms: CA   and  CB  
    6  A    between atoms: CB   and  CG  
    7  A    between atoms: CG   and  CD  
    8  A    between atoms: CD   and  CE  

$$$$
