ligand_2_pose_17_2HRL.pdbqt
 OpenBabel07062320523D

 50 51  0  0  1  0  0  0  0  0999 V2000
   29.2540   34.5740   14.8450 C   0  0  0  0  0  0  0  0  0  0  0  0
   29.8150   33.2430   15.2310 C   0  0  2  0  0  0  0  0  0  0  0  0
   30.3310   33.3500   16.6760 C   0  0  2  0  0  0  0  0  0  0  0  0
   30.3850   31.9760   17.3410 C   0  0  2  0  0  0  0  0  0  0  0  0
   28.3030   30.8920   17.3730 C   0  0  2  0  0  0  0  0  0  0  0  0
   28.5010   30.2170   18.7130 C   0  0  0  0  0  0  0  0  0  0  0  0
   29.4360   31.2020   16.7040 O   0  0  0  0  0  0  0  0  0  0  0  0
   29.8160   30.6260   19.2710 C   0  0  1  0  0  0  0  0  0  0  0  0
   30.1300   32.0300   18.7910 C   0  0  1  0  0  0  0  0  0  0  0  0
   27.4490   31.9690   17.6010 O   0  0  0  0  0  0  0  0  0  0  0  0
   27.2090   31.9310   18.5620 H   0  0  0  0  0  0  0  0  0  0  0  0
   27.5520   29.9160   16.5410 C   0  0  0  0  0  0  0  0  0  0  0  0
   26.8190   30.3620   15.6290 O   0  0  0  0  0  0  0  0  0  0  0  0
   27.6400   28.5670   16.7450 O   0  0  0  0  0  0  0  0  0  0  0  0
   27.2140   27.9250   16.0710 H   0  0  0  0  0  0  0  0  0  0  0  0
   29.8900   30.5190   20.6550 O   0  0  0  0  0  0  0  0  0  0  0  0
   30.4620   29.7690   20.9160 H   0  0  0  0  0  0  0  0  0  0  0  0
   31.1560   32.5500   19.6280 N   0  0  0  0  0  0  0  0  0  0  0  0
   31.0040   33.7190   20.4110 C   0  0  0  0  0  0  0  0  0  0  0  0
   32.0590   32.0060   19.6350 H   0  0  0  0  0  0  0  0  0  0  0  0
   32.0920   34.2290   21.2700 C   0  0  0  0  0  0  0  0  0  0  0  0
   29.8760   34.2750   20.3120 O   0  0  0  0  0  0  0  0  0  0  0  0
   29.4980   34.2010   17.4100 O   0  0  0  0  0  0  0  0  0  0  0  0
   29.2610   35.0190   16.8900 H   0  0  0  0  0  0  0  0  0  0  0  0
   30.8050   32.8020   14.3830 O   0  0  0  0  0  0  0  0  0  0  0  0
   30.5830   32.0530   13.8030 H   0  0  0  0  0  0  0  0  0  0  0  0
   27.8980   34.5880   14.4080 N   0  0  0  0  0  0  0  0  0  0  0  0
   26.7670   34.5190   15.2590 C   0  0  0  0  0  0  0  0  0  0  0  0
   27.6960   34.6540   13.3720 H   0  0  0  0  0  0  0  0  0  0  0  0
   26.8810   34.4470   16.4940 O   0  0  0  0  0  0  0  0  0  0  0  0
   25.4700   34.5310   14.7110 O   0  0  0  0  0  0  0  0  0  0  0  0
   25.0560   33.5140   13.8020 C   0  0  0  0  0  0  0  0  0  0  0  0
   24.8360   34.1750   12.4930 C   0  0  0  0  0  0  0  0  0  0  0  0
   25.7940   34.4480   11.5600 C   0  0  0  0  0  0  0  0  0  0  0  0
   23.6820   34.6100   12.0080 N   0  0  0  0  0  0  0  0  0  0  0  0
   25.1760   35.0500   10.5230 N   0  0  0  0  0  0  0  0  0  0  0  0
   23.8900   35.1420   10.8110 N   0  0  0  0  0  0  0  0  0  0  0  0
   25.8650   35.4870    9.3480 C   0  0  0  0  0  0  0  0  0  0  0  0
   25.6620   36.7620    8.8800 C   0  0  0  0  0  0  0  0  0  0  0  0
   26.7110   34.5980    8.7350 C   0  0  0  0  0  0  0  0  0  0  0  0
   26.3480   37.1420    7.7420 C   0  0  0  0  0  0  0  0  0  0  0  0
   27.3820   35.0090    7.6000 C   0  0  0  0  0  0  0  0  0  0  0  0
   27.2120   36.2730    7.0930 C   0  0  0  0  0  0  0  0  0  0  0  0
   28.0870   36.7310    5.6570 Cl  0  0  0  0  0  0  0  0  0  0  0  0
   29.8670   25.5550   16.9770 C   0  0  0  0  0  0  0  0  0  0  0  0
   28.3450   25.7220   17.0260 C   0  0  0  0  0  0  0  0  0  0  0  0
   27.6010   24.4010   16.9040 C   0  0  0  0  0  0  0  0  0  0  0  0
   26.5760   24.2260   17.9900 C   0  0  0  0  0  0  0  0  0  0  0  0
   25.2470   23.8040   17.3710 C   0  0  0  0  0  0  0  0  0  0  0  0
   25.0180   22.3530   17.5730 N   0  0  0  0  0  0  0  0  0  0  0  0
  2  1  1  6  0  0  0
  2  3  1  0  0  0  0
  3 23  1  1  0  0  0
  4  3  1  6  0  0  0
  4  9  1  0  0  0  0
  5 12  1  6  0  0  0
  5 10  1  0  0  0  0
  5  6  1  0  0  0  0
  6  8  1  0  0  0  0
  7  4  1  0  0  0  0
  7  5  1  0  0  0  0
  8 16  1  1  0  0  0
  9  8  1  0  0  0  0
  9 18  1  1  0  0  0
 10 11  1  0  0  0  0
 12 14  1  0  0  0  0
 13 12  2  0  0  0  0
 15 14  1  0  0  0  0
 16 17  1  0  0  0  0
 18 20  1  0  0  0  0
 18 19  1  0  0  0  0
 19 21  1  0  0  0  0
 22 19  2  0  0  0  0
 24 23  1  0  0  0  0
 25  2  1  0  0  0  0
 26 25  1  0  0  0  0
 27  1  1  0  0  0  0
 27 28  1  0  0  0  0
 28 30  2  0  0  0  0
 29 27  1  0  0  0  0
 31 28  1  0  0  0  0
 32 31  1  0  0  0  0
 33 32  1  0  0  0  0
 34 33  2  0  0  0  0
 35 33  1  0  0  0  0
 36 37  1  0  0  0  0
 36 34  1  0  0  0  0
 37 35  2  0  0  0  0
 38 36  1  0  0  0  0
 39 38  1  0  0  0  0
 40 38  2  0  0  0  0
 41 39  2  0  0  0  0
 42 40  1  0  0  0  0
 43 42  2  0  0  0  0
 43 41  1  0  0  0  0
 44 43  1  0  0  0  0
 45 46  1  0  0  0  0
 47 46  1  0  0  0  0
 47 48  1  0  0  0  0
 49 50  1  0  0  0  0
 49 48  1  0  0  0  0
M  END
>  <REMARK>
 VINA RESULT:    -3.997      3.908      7.625
 INTER + INTRA:         -13.925
 INTER:                  -8.986
 INTRA:                  -4.939
 UNBOUND:                -7.007
 SMILES CC(=O)N[C@@H]1[C@@H](O)C[C@](O)(C(=O)O)O[C@H]1C(O)[C@H](O)CNC(=O)OCc1cn(-c2ccc(Cl)cc2)nn1
 SMILES IDX 20 1 18 2 16 3 15 4 9 5 8 6 14 7 6 8 5 9 10 10 11 12 12 13
 SMILES IDX 13 14 7 16 4 18 2 19 1 21 3 22 17 23 19 25 21 27 22 28 23 30
 SMILES IDX 24 31 25 32 26 33 27 34 37 35 28 36 36 37 29 38 30 39 35 40
 SMILES IDX 31 41 34 42 32 43 33 44
 H PARENT 10 11 13 15 7 17 4 20 17 24 19 26 21 29
 Flexibility Score: inf
  4 active torsions:
  status: ('A' for Active; 'I' for Inactive)
    1  A    between atoms: CA   and  CB  
    2  A    between atoms: CB   and  CG  
    3  A    between atoms: CG   and  CD  
    4  A    between atoms: CD   and  CE  

>  <TORSDO>
F 15

>  <BEGIN_>
RES LYS A 131

$$$$
ligand_2_pose_17_2HRL.pdbqt
 OpenBabel07062320523D

  6  5  0  0  0  0  0  0  0  0999 V2000
   33.1930   34.6630    9.2900 C   0  0  0  0  0  0  0  0  0  0  0  0
   32.0600   35.3600   10.0340 C   0  0  0  0  0  0  0  0  0  0  0  0
   30.7470   35.3330    9.2940 C   0  0  0  0  0  0  0  0  0  0  0  0
   30.2600   36.7460    9.0140 C   0  0  0  0  0  0  0  0  0  0  0  0
   29.5130   37.2990   10.2130 C   0  0  0  0  0  0  0  0  0  0  0  0
   28.9270   36.2030   11.0330 N   0  0  0  0  0  0  0  0  0  0  0  0
  1  2  1  0  0  0  0
  3  2  1  0  0  0  0
  4  3  1  0  0  0  0
  4  5  1  0  0  0  0
  5  6  1  0  0  0  0
M  END
>  <EGIN_R>
ES LYS A 135

>  <REMARK>
  4 active torsions:
  status: ('A' for Active; 'I' for Inactive)
    5  A    between atoms: CA   and  CB  
    6  A    between atoms: CB   and  CG  
    7  A    between atoms: CG   and  CD  
    8  A    between atoms: CD   and  CE  

$$$$
