ligand_63_pose_18_2HRL.pdbqt
 OpenBabel07062320523D

 51 52  0  0  1  0  0  0  0  0999 V2000
   29.5360   31.6370   18.4630 N   0  0  0  0  0  0  0  0  0  0  0  0
   28.3410   32.2760   18.9370 C   0  0  0  0  0  0  0  0  0  0  0  0
   28.1190   33.4730   18.7230 O   0  0  0  0  0  0  0  0  0  0  0  0
   29.5710   30.5920   18.7080 H   0  0  0  0  0  0  0  0  0  0  0  0
   30.5320   32.2520   17.7260 C   0  0  0  0  0  0  0  0  0  0  0  0
   30.5870   31.9760   16.2020 C   0  0  2  0  0  0  0  0  0  0  0  0
   29.7470   33.0440   15.6140 C   0  0  1  0  0  0  0  0  0  0  0  0
   30.2280   33.7890   14.4210 C   0  0  2  0  0  0  0  0  0  0  0  0
   32.1590   35.1160   14.6240 C   0  0  2  0  0  0  0  0  0  0  0  0
   31.8310   35.9780   13.4300 C   0  0  0  0  0  0  0  0  0  0  0  0
   31.6480   33.8230   14.4940 O   0  0  0  0  0  0  0  0  0  0  0  0
   30.4420   35.6080   12.8740 C   0  0  1  0  0  0  0  0  0  0  0  0
   29.6820   35.1120   14.1280 C   0  0  1  0  0  0  0  0  0  0  0  0
   31.7920   35.7530   15.7990 O   0  0  0  0  0  0  0  0  0  0  0  0
   30.8390   35.7780   15.9700 H   0  0  0  0  0  0  0  0  0  0  0  0
   33.6240   34.9250   14.5920 C   0  0  0  0  0  0  0  0  0  0  0  0
   34.4790   35.2860   15.3050 O   0  0  0  0  0  0  0  0  0  0  0  0
   34.0470   34.1180   13.4270 O   0  0  0  0  0  0  0  0  0  0  0  0
   34.1660   34.6380   12.5550 H   0  0  0  0  0  0  0  0  0  0  0  0
   29.8280   36.6960   12.3080 O   0  0  0  0  0  0  0  0  0  0  0  0
   29.0110   36.9380   12.7780 H   0  0  0  0  0  0  0  0  0  0  0  0
   28.2540   35.1060   13.7780 N   0  0  0  0  0  0  0  0  0  0  0  0
   27.3770   35.8990   14.5330 C   0  0  0  0  0  0  0  0  0  0  0  0
   27.9340   34.5570   13.0030 H   0  0  0  0  0  0  0  0  0  0  0  0
   25.9910   36.1880   14.5010 C   0  0  0  0  0  0  0  0  0  0  0  0
   28.0900   36.5310   15.5090 O   0  0  0  0  0  0  0  0  0  0  0  0
   28.4200   32.7290   15.6670 O   0  0  0  0  0  0  0  0  0  0  0  0
   27.8470   33.4060   15.2190 H   0  0  0  0  0  0  0  0  0  0  0  0
   30.1890   30.6770   16.0580 O   0  0  0  0  0  0  0  0  0  0  0  0
   30.7760   30.2200   15.4050 H   0  0  0  0  0  0  0  0  0  0  0  0
   27.4120   31.5160   19.6500 O   0  0  0  0  0  0  0  0  0  0  0  0
   27.1540   30.1390   19.3000 C   0  0  0  0  0  0  0  0  0  0  0  0
   26.8430   30.2240   17.8260 C   0  0  0  0  0  0  0  0  0  0  0  0
   25.7830   30.8620   17.2550 C   0  0  0  0  0  0  0  0  0  0  0  0
   27.6250   29.7510   16.8560 N   0  0  0  0  0  0  0  0  0  0  0  0
   25.9730   30.7540   15.9040 N   0  0  0  0  0  0  0  0  0  0  0  0
   27.1090   30.0700   15.7050 N   0  0  0  0  0  0  0  0  0  0  0  0
   25.1660   31.2730   14.8970 C   0  0  0  0  0  0  0  0  0  0  0  0
   25.4360   32.5320   14.3530 N   0  0  0  0  0  0  0  0  0  0  0  0
   24.0110   30.6970   14.4100 C   0  0  0  0  0  0  0  0  0  0  0  0
   24.6490   33.0420   13.5010 C   0  0  0  0  0  0  0  0  0  0  0  0
   23.1980   31.2430   13.5220 C   0  0  0  0  0  0  0  0  0  0  0  0
   23.4480   32.5250   12.9520 C   0  0  0  0  0  0  0  0  0  0  0  0
   23.5970   29.3630   14.9940 C   0  0  0  0  0  0  0  0  0  0  0  0
   23.3070   28.4810   15.3920 N   0  0  0  0  0  0  0  0  0  0  0  0
   29.8670   25.5550   16.9770 C   0  0  0  0  0  0  0  0  0  0  0  0
   28.3450   25.7220   17.0260 C   0  0  0  0  0  0  0  0  0  0  0  0
   27.6010   24.4030   16.8870 C   0  0  0  0  0  0  0  0  0  0  0  0
   26.4790   24.2780   17.8800 C   0  0  0  0  0  0  0  0  0  0  0  0
   25.1430   24.3150   17.1450 C   0  0  0  0  0  0  0  0  0  0  0  0
   24.3330   23.1200   17.4790 N   0  0  0  0  0  0  0  0  0  0  0  0
  1  4  1  0  0  0  0
  1  2  1  0  0  0  0
  2 31  1  0  0  0  0
  3  2  2  0  0  0  0
  5  1  1  0  0  0  0
  6  5  1  1  0  0  0
  7 27  1  6  0  0  0
  7  6  1  0  0  0  0
  8 11  1  0  0  0  0
  8  7  1  1  0  0  0
  9 16  1  1  0  0  0
  9 14  1  0  0  0  0
 10  9  1  0  0  0  0
 11  9  1  0  0  0  0
 12 20  1  1  0  0  0
 12 10  1  0  0  0  0
 12 13  1  0  0  0  0
 13 22  1  6  0  0  0
 13  8  1  0  0  0  0
 14 15  1  0  0  0  0
 16 17  2  0  0  0  0
 18 16  1  0  0  0  0
 19 18  1  0  0  0  0
 20 21  1  0  0  0  0
 22 23  1  0  0  0  0
 23 26  2  0  0  0  0
 24 22  1  0  0  0  0
 25 23  1  0  0  0  0
 28 27  1  0  0  0  0
 29  6  1  0  0  0  0
 30 29  1  0  0  0  0
 32 31  1  0  0  0  0
 33 32  1  0  0  0  0
 34 33  2  0  0  0  0
 35 33  1  0  0  0  0
 36 34  1  0  0  0  0
 37 36  1  0  0  0  0
 37 35  2  0  0  0  0
 38 36  1  0  0  0  0
 39 38  2  0  0  0  0
 40 38  1  0  0  0  0
 40 44  1  0  0  0  0
 41 39  1  0  0  0  0
 42 40  2  0  0  0  0
 43 41  2  0  0  0  0
 43 42  1  0  0  0  0
 44 45  3  0  0  0  0
 46 47  1  0  0  0  0
 48 47  1  0  0  0  0
 48 49  1  0  0  0  0
 50 51  1  0  0  0  0
 50 49  1  0  0  0  0
M  END
>  <REMARK>
 VINA RESULT:    -3.981      4.349      7.923
 INTER + INTRA:         -14.164
 INTER:                  -7.590
 INTRA:                  -6.574
 UNBOUND:                -7.042
 SMILES CC(=O)N[C@@H]1[C@@H](O)C[C@](O)(C(=O)O)O[C@H]1C(O)[C@H](O)CNC(=O)OCc1cn(-c2ncccc2C#N)nn1
 SMILES IDX 21 1 22 2 23 3 20 5 18 6 16 7 15 8 9 9 8 10 14 11 6 12 5 13
 SMILES IDX 10 14 11 16 12 17 13 18 7 20 4 22 2 23 1 25 3 26 17 27 19 29
 SMILES IDX 24 31 25 32 26 33 27 34 38 35 28 36 37 37 29 38 30 39 34 40
 SMILES IDX 31 41 33 42 32 43 35 44 36 45
 H PARENT 21 4 10 15 13 19 7 21 4 24 17 28 19 30
 Flexibility Score: inf
  4 active torsions:
  status: ('A' for Active; 'I' for Inactive)
    1  A    between atoms: CA   and  CB  
    2  A    between atoms: CB   and  CG  
    3  A    between atoms: CG   and  CD  
    4  A    between atoms: CD   and  CE  

>  <TORSDO>
F 16

>  <BEGIN_>
RES LYS A 131

$$$$
ligand_63_pose_18_2HRL.pdbqt
 OpenBabel07062320523D

  6  5  0  0  0  0  0  0  0  0999 V2000
   33.1930   34.6630    9.2900 C   0  0  0  0  0  0  0  0  0  0  0  0
   32.0600   35.3600   10.0340 C   0  0  0  0  0  0  0  0  0  0  0  0
   30.8050   35.5130    9.2140 C   0  0  0  0  0  0  0  0  0  0  0  0
   30.0930   34.1770    9.0690 C   0  0  0  0  0  0  0  0  0  0  0  0
   28.7910   34.1800    9.8470 C   0  0  0  0  0  0  0  0  0  0  0  0
   27.6180   34.1280    8.9310 N   0  0  0  0  0  0  0  0  0  0  0  0
  1  2  1  0  0  0  0
  3  2  1  0  0  0  0
  4  3  1  0  0  0  0
  4  5  1  0  0  0  0
  6  5  1  0  0  0  0
M  END
>  <EGIN_R>
ES LYS A 135

>  <REMARK>
  4 active torsions:
  status: ('A' for Active; 'I' for Inactive)
    5  A    between atoms: CA   and  CB  
    6  A    between atoms: CB   and  CG  
    7  A    between atoms: CG   and  CD  
    8  A    between atoms: CD   and  CE  

$$$$
