ligand_39_pose_18_2HRL.pdbqt
 OpenBabel07062320523D

 51 52  0  0  1  0  0  0  0  0999 V2000
   27.4360   32.1110   16.2000 N   0  0  0  0  0  0  0  0  0  0  0  0
   26.9850   30.8270   15.8770 C   0  0  0  0  0  0  0  0  0  0  0  0
   25.8450   30.6880   15.3530 O   0  0  0  0  0  0  0  0  0  0  0  0
   28.3970   32.1850   16.6360 H   0  0  0  0  0  0  0  0  0  0  0  0
   26.6890   33.3310   15.9840 C   0  0  0  0  0  0  0  0  0  0  0  0
   27.6330   34.4290   15.5450 C   0  0  2  0  0  0  0  0  0  0  0  0
   28.5360   34.8650   16.6790 C   0  0  2  0  0  0  0  0  0  0  0  0
   29.9980   34.6060   16.3760 C   0  0  2  0  0  0  0  0  0  0  0  0
   31.4290   34.4260   14.5430 C   0  0  2  0  0  0  0  0  0  0  0  0
   31.9300   33.1030   14.9820 C   0  0  0  0  0  0  0  0  0  0  0  0
   30.1450   34.6340   15.0220 O   0  0  0  0  0  0  0  0  0  0  0  0
   31.2150   32.4310   16.0900 C   0  0  1  0  0  0  0  0  0  0  0  0
   30.4760   33.3400   17.0290 C   0  0  1  0  0  0  0  0  0  0  0  0
   31.2920   34.4110   13.1310 O   0  0  0  0  0  0  0  0  0  0  0  0
   31.9220   33.7630   12.7180 H   0  0  0  0  0  0  0  0  0  0  0  0
   32.3620   35.5030   14.8820 C   0  0  0  0  0  0  0  0  0  0  0  0
   32.2500   36.6800   14.4420 O   0  0  0  0  0  0  0  0  0  0  0  0
   33.4300   35.2350   15.7260 O   0  0  0  0  0  0  0  0  0  0  0  0
   34.0500   35.9550   16.0770 H   0  0  0  0  0  0  0  0  0  0  0  0
   30.3600   31.4330   15.5850 O   0  0  0  0  0  0  0  0  0  0  0  0
   29.5020   31.5560   16.1030 H   0  0  0  0  0  0  0  0  0  0  0  0
   31.2390   33.5930   18.2310 N   0  0  0  0  0  0  0  0  0  0  0  0
   30.8560   33.0900   19.5000 C   0  0  0  0  0  0  0  0  0  0  0  0
   32.1040   34.1650   18.1770 H   0  0  0  0  0  0  0  0  0  0  0  0
   31.6310   33.3420   20.7490 C   0  0  0  0  0  0  0  0  0  0  0  0
   29.7890   32.3900   19.5410 O   0  0  0  0  0  0  0  0  0  0  0  0
   28.1310   34.2590   17.8640 O   0  0  0  0  0  0  0  0  0  0  0  0
   27.6030   34.9290   18.4000 H   0  0  0  0  0  0  0  0  0  0  0  0
   26.7980   35.5000   15.1470 O   0  0  0  0  0  0  0  0  0  0  0  0
   27.2000   36.0360   14.4450 H   0  0  0  0  0  0  0  0  0  0  0  0
   27.7100   29.6630   16.0890 O   0  0  0  0  0  0  0  0  0  0  0  0
   27.1770   28.6300   16.9000 C   0  0  0  0  0  0  0  0  0  0  0  0
   27.1730   29.0080   18.3280 C   0  0  0  0  0  0  0  0  0  0  0  0
   28.2920   29.1930   19.1540 C   0  0  0  0  0  0  0  0  0  0  0  0
   26.1370   29.2520   19.1380 N   0  0  0  0  0  0  0  0  0  0  0  0
   27.9260   29.5250   20.3800 N   0  0  0  0  0  0  0  0  0  0  0  0
   26.5730   29.5550   20.3420 N   0  0  0  0  0  0  0  0  0  0  0  0
   28.6360   29.8130   21.6030 C   0  0  0  0  0  0  0  0  0  0  0  0
   29.8910   29.0980   21.7940 C   0  0  0  0  0  0  0  0  0  0  0  0
   31.0970   29.6240   21.3230 C   0  0  0  0  0  0  0  0  0  0  0  0
   29.9580   27.9090   22.4600 C   0  0  0  0  0  0  0  0  0  0  0  0
   32.2700   28.9550   21.5390 C   0  0  0  0  0  0  0  0  0  0  0  0
   31.1460   27.2350   22.6760 C   0  0  0  0  0  0  0  0  0  0  0  0
   28.3620   27.0460   23.1190 Br  0  0  0  0  0  0  0  0  0  0  0  0
   32.3260   27.7600   22.2120 C   0  0  0  0  0  0  0  0  0  0  0  0
   29.8670   25.5550   16.9770 C   0  0  0  0  0  0  0  0  0  0  0  0
   28.3450   25.7220   17.0260 C   0  0  0  0  0  0  0  0  0  0  0  0
   27.6020   24.3980   16.9310 C   0  0  0  0  0  0  0  0  0  0  0  0
   26.6700   24.1870   18.0920 C   0  0  0  0  0  0  0  0  0  0  0  0
   25.9030   25.4760   18.3700 C   0  0  0  0  0  0  0  0  0  0  0  0
   25.9240   25.7910   19.8180 N   0  0  0  0  0  0  0  0  0  0  0  0
  1  4  1  0  0  0  0
  2 31  1  0  0  0  0
  2  1  1  0  0  0  0
  3  2  2  0  0  0  0
  5  1  1  0  0  0  0
  6  5  1  1  0  0  0
  6  7  1  0  0  0  0
  7 27  1  1  0  0  0
  8  7  1  6  0  0  0
  8 13  1  0  0  0  0
  9 14  1  6  0  0  0
  9 16  1  0  0  0  0
  9 10  1  0  0  0  0
  9 11  1  0  0  0  0
 10 12  1  0  0  0  0
 11  8  1  0  0  0  0
 12 20  1  6  0  0  0
 12 13  1  0  0  0  0
 13 22  1  1  0  0  0
 15 14  1  0  0  0  0
 16 18  1  0  0  0  0
 17 16  2  0  0  0  0
 18 19  1  0  0  0  0
 20 21  1  0  0  0  0
 22 23  1  0  0  0  0
 23 26  2  0  0  0  0
 23 25  1  0  0  0  0
 24 22  1  0  0  0  0
 27 28  1  0  0  0  0
 29  6  1  0  0  0  0
 30 29  1  0  0  0  0
 31 32  1  0  0  0  0
 32 33  1  0  0  0  0
 33 35  1  0  0  0  0
 33 34  2  0  0  0  0
 34 36  1  0  0  0  0
 35 37  2  0  0  0  0
 36 38  1  0  0  0  0
 37 36  1  0  0  0  0
 38 39  1  0  0  0  0
 39 41  2  0  0  0  0
 40 42  2  0  0  0  0
 40 39  1  0  0  0  0
 41 43  1  0  0  0  0
 41 44  1  0  0  0  0
 42 45  1  0  0  0  0
 45 43  2  0  0  0  0
 46 47  1  0  0  0  0
 48 47  1  0  0  0  0
 48 49  1  0  0  0  0
 49 50  1  0  0  0  0
 50 51  1  0  0  0  0
M  END
>  <REMARK>
 VINA RESULT:    -3.770      3.234      6.204
 INTER + INTRA:         -14.170
 INTER:                  -7.811
 INTRA:                  -6.360
 UNBOUND:                -7.426
 SMILES CC(=O)N[C@@H]1[C@@H](O)C[C@](O)(C(=O)O)O[C@H]1C(O)[C@H](O)CNC(=O)OCc1cn(Cc2ccccc2Br)nn1
 SMILES IDX 21 1 22 2 23 3 20 5 18 6 16 7 15 8 9 9 8 10 14 11 6 12 5 13
 SMILES IDX 10 14 11 16 12 17 13 18 7 20 4 22 2 23 1 25 3 26 17 27 19 29
 SMILES IDX 24 31 25 32 26 33 27 34 38 35 28 36 37 37 29 38 30 39 31 40
 SMILES IDX 35 41 32 42 34 43 36 44 33 45
 H PARENT 21 4 10 15 13 19 7 21 4 24 17 28 19 30
 Flexibility Score: inf
  4 active torsions:
  status: ('A' for Active; 'I' for Inactive)
    1  A    between atoms: CA   and  CB  
    2  A    between atoms: CB   and  CG  
    3  A    between atoms: CG   and  CD  
    4  A    between atoms: CD   and  CE  

>  <TORSDO>
F 16

>  <BEGIN_>
RES LYS A 131

$$$$
ligand_39_pose_18_2HRL.pdbqt
 OpenBabel07062320523D

  6  5  0  0  0  0  0  0  0  0999 V2000
   33.1930   34.6630    9.2900 C   0  0  0  0  0  0  0  0  0  0  0  0
   32.0600   35.3600   10.0340 C   0  0  0  0  0  0  0  0  0  0  0  0
   30.7030   34.7670    9.7570 C   0  0  0  0  0  0  0  0  0  0  0  0
   30.5170   34.5250    8.2670 C   0  0  0  0  0  0  0  0  0  0  0  0
   29.1070   34.8850    7.8400 C   0  0  0  0  0  0  0  0  0  0  0  0
   28.1020   34.3370    8.7920 N   0  0  0  0  0  0  0  0  0  0  0  0
  1  2  1  0  0  0  0
  3  2  1  0  0  0  0
  4  3  1  0  0  0  0
  5  4  1  0  0  0  0
  5  6  1  0  0  0  0
M  END
>  <EGIN_R>
ES LYS A 135

>  <REMARK>
  4 active torsions:
  status: ('A' for Active; 'I' for Inactive)
    5  A    between atoms: CA   and  CB  
    6  A    between atoms: CB   and  CG  
    7  A    between atoms: CG   and  CD  
    8  A    between atoms: CD   and  CE  

$$$$
