ligand_24_pose_7_2HRL.pdbqt
 OpenBabel07062320523D

 52 53  0  0  1  0  0  0  0  0999 V2000
   27.4330   38.3950    4.6750 N   0  0  0  0  0  0  0  0  0  0  0  0
   27.4740   39.7810    4.4130 C   0  0  0  0  0  0  0  0  0  0  0  0
   28.5130   40.4730    4.5320 O   0  0  0  0  0  0  0  0  0  0  0  0
   26.5100   37.9180    4.5480 H   0  0  0  0  0  0  0  0  0  0  0  0
   28.5570   37.6190    5.0930 C   0  0  0  0  0  0  0  0  0  0  0  0
   28.2220   36.3990    5.8790 C   0  0  2  0  0  0  0  0  0  0  0  0
   27.4320   36.7080    7.1320 C   0  0  1  0  0  0  0  0  0  0  0  0
   28.0570   37.7260    8.0160 C   0  0  2  0  0  0  0  0  0  0  0  0
   30.0730   38.5480    8.8000 C   0  0  2  0  0  0  0  0  0  0  0  0
   29.5470   38.6830   10.2010 C   0  0  0  0  0  0  0  0  0  0  0  0
   29.4470   37.6310    8.0170 O   0  0  0  0  0  0  0  0  0  0  0  0
   28.0370   38.5830   10.2700 C   0  0  1  0  0  0  0  0  0  0  0  0
   27.6390   37.3990    9.4550 C   0  0  1  0  0  0  0  0  0  0  0  0
   31.4070   38.0870    8.9560 O   0  0  0  0  0  0  0  0  0  0  0  0
   31.8250   38.7120    9.5970 H   0  0  0  0  0  0  0  0  0  0  0  0
   30.1740   39.9090    8.2220 C   0  0  0  0  0  0  0  0  0  0  0  0
   31.1780   40.6560    8.4140 O   0  0  0  0  0  0  0  0  0  0  0  0
   29.1610   40.4460    7.4290 O   0  0  0  0  0  0  0  0  0  0  0  0
   29.1990   41.3990    7.1220 H   0  0  0  0  0  0  0  0  0  0  0  0
   27.6330   38.5100   11.5890 O   0  0  0  0  0  0  0  0  0  0  0  0
   27.9060   37.6600   11.9670 H   0  0  0  0  0  0  0  0  0  0  0  0
   26.2690   37.0190    9.5790 N   0  0  0  0  0  0  0  0  0  0  0  0
   25.7630   36.1030   10.5130 C   0  0  0  0  0  0  0  0  0  0  0  0
   25.5770   37.4640    8.9180 H   0  0  0  0  0  0  0  0  0  0  0  0
   24.3150   35.7930   10.5410 C   0  0  0  0  0  0  0  0  0  0  0  0
   26.5210   35.5510   11.3160 O   0  0  0  0  0  0  0  0  0  0  0  0
   26.1500   37.0740    6.7830 O   0  0  0  0  0  0  0  0  0  0  0  0
   25.4500   36.4150    6.9850 H   0  0  0  0  0  0  0  0  0  0  0  0
   29.2940   35.5940    6.1310 O   0  0  0  0  0  0  0  0  0  0  0  0
   29.3230   35.4220    7.1200 H   0  0  0  0  0  0  0  0  0  0  0  0
   26.3020   40.4420    3.9970 O   0  0  0  0  0  0  0  0  0  0  0  0
   25.7420   41.4110    4.8530 C   0  0  0  0  0  0  0  0  0  0  0  0
   25.2950   40.8370    6.1340 C   0  0  0  0  0  0  0  0  0  0  0  0
   24.0010   40.8620    6.6650 C   0  0  0  0  0  0  0  0  0  0  0  0
   26.0310   40.1820    7.0490 N   0  0  0  0  0  0  0  0  0  0  0  0
   24.0090   40.2340    7.8490 N   0  0  0  0  0  0  0  0  0  0  0  0
   25.2480   39.8330    8.0580 N   0  0  0  0  0  0  0  0  0  0  0  0
   22.9010   40.0230    8.7430 C   0  0  0  0  0  0  0  0  0  0  0  0
   22.1910   38.7620    8.4390 C   0  0  0  0  0  0  0  0  0  0  0  0
   20.8800   38.5890    8.8210 C   0  0  0  0  0  0  0  0  0  0  0  0
   22.8440   37.7580    7.7730 C   0  0  0  0  0  0  0  0  0  0  0  0
   20.2200   37.3970    8.5310 C   0  0  0  0  0  0  0  0  0  0  0  0
   22.1950   36.5610    7.4760 C   0  0  0  0  0  0  0  0  0  0  0  0
   20.8890   36.3890    7.8560 C   0  0  0  0  0  0  0  0  0  0  0  0
   20.2100   35.2020    7.5740 O   0  0  0  0  0  0  0  0  0  0  0  0
   19.0680   34.8530    8.3380 C   0  0  0  0  0  0  0  0  0  0  0  0
   29.8670   25.5550   16.9770 C   0  0  0  0  0  0  0  0  0  0  0  0
   28.3450   25.7220   17.0260 C   0  0  0  0  0  0  0  0  0  0  0  0
   27.5990   24.4380   16.6980 C   0  0  0  0  0  0  0  0  0  0  0  0
   26.9920   23.8070   17.9200 C   0  0  0  0  0  0  0  0  0  0  0  0
   25.6190   23.2410   17.5730 C   0  0  0  0  0  0  0  0  0  0  0  0
   24.7640   24.2890   16.9680 N   0  0  0  0  0  0  0  0  0  0  0  0
  1  5  1  0  0  0  0
  2  3  2  0  0  0  0
  2  1  1  0  0  0  0
  4  1  1  0  0  0  0
  6  5  1  1  0  0  0
  6 29  1  0  0  0  0
  6  7  1  0  0  0  0
  7 27  1  6  0  0  0
  8  7  1  6  0  0  0
  8 11  1  0  0  0  0
  8 13  1  0  0  0  0
  9 16  1  6  0  0  0
  9 14  1  0  0  0  0
  9 10  1  0  0  0  0
 10 12  1  0  0  0  0
 11  9  1  0  0  0  0
 12 20  1  1  0  0  0
 13 22  1  6  0  0  0
 13 12  1  0  0  0  0
 14 15  1  0  0  0  0
 16 17  2  0  0  0  0
 18 16  1  0  0  0  0
 19 18  1  0  0  0  0
 20 21  1  0  0  0  0
 22 23  1  0  0  0  0
 23 25  1  0  0  0  0
 23 26  2  0  0  0  0
 24 22  1  0  0  0  0
 27 28  1  0  0  0  0
 29 30  1  0  0  0  0
 31  2  1  0  0  0  0
 31 32  1  0  0  0  0
 32 33  1  0  0  0  0
 33 34  2  0  0  0  0
 33 35  1  0  0  0  0
 34 36  1  0  0  0  0
 35 37  2  0  0  0  0
 36 37  1  0  0  0  0
 36 38  1  0  0  0  0
 39 38  1  0  0  0  0
 39 40  2  0  0  0  0
 41 39  1  0  0  0  0
 42 40  1  0  0  0  0
 43 41  2  0  0  0  0
 43 44  1  0  0  0  0
 44 42  2  0  0  0  0
 45 44  1  0  0  0  0
 45 46  1  0  0  0  0
 47 48  1  0  0  0  0
 49 48  1  0  0  0  0
 49 50  1  0  0  0  0
 51 50  1  0  0  0  0
 52 51  1  0  0  0  0
M  END
>  <REMARK>
 VINA RESULT:    -5.223      7.556     13.931
 INTER + INTRA:         -14.927
 INTER:                  -9.060
 INTRA:                  -5.866
 UNBOUND:                -5.276
 SMILES COc1ccc(Cn2cc(COC(=O)NC[C@@H](O)C(O)[C@@H]3O[C@@](O)(C(=O)O)C[C@H](O)[C@H]3NC(C)=O)nn2)cc1
 SMILES IDX 15 1 13 2 14 3 16 5 17 6 19 7 21 8 23 9 28 10 22 11 29 12
 SMILES IDX 31 13 24 14 25 16 26 17 27 18 30 20 32 22 33 23 34 25 35 26
 SMILES IDX 20 27 18 29 12 31 11 32 10 33 9 34 36 35 8 36 37 37 7 38
 SMILES IDX 6 39 5 40 38 41 4 42 39 43 3 44 2 45 1 46
 H PARENT 15 4 24 15 27 19 30 21 32 24 20 28 18 30
 Flexibility Score: inf
  4 active torsions:
  status: ('A' for Active; 'I' for Inactive)
    1  A    between atoms: CA   and  CB  
    2  A    between atoms: CB   and  CG  
    3  A    between atoms: CG   and  CD  
    4  A    between atoms: CD   and  CE  

>  <TORSDO>
F 17

>  <BEGIN_>
RES LYS A 131

$$$$
ligand_24_pose_7_2HRL.pdbqt
 OpenBabel07062320523D

  6  5  0  0  0  0  0  0  0  0999 V2000
   33.1930   34.6630    9.2900 C   0  0  0  0  0  0  0  0  0  0  0  0
   32.0600   35.3600   10.0340 C   0  0  0  0  0  0  0  0  0  0  0  0
   30.6890   34.8920    9.6190 C   0  0  0  0  0  0  0  0  0  0  0  0
   29.7940   34.7080   10.8350 C   0  0  0  0  0  0  0  0  0  0  0  0
   30.5460   35.0510   12.1070 C   0  0  0  0  0  0  0  0  0  0  0  0
   29.8700   36.1520   12.8490 N   0  0  0  0  0  0  0  0  0  0  0  0
  1  2  1  0  0  0  0
  3  2  1  0  0  0  0
  3  4  1  0  0  0  0
  4  5  1  0  0  0  0
  5  6  1  0  0  0  0
M  END
>  <EGIN_R>
ES LYS A 135

>  <REMARK>
  4 active torsions:
  status: ('A' for Active; 'I' for Inactive)
    5  A    between atoms: CA   and  CB  
    6  A    between atoms: CB   and  CG  
    7  A    between atoms: CG   and  CD  
    8  A    between atoms: CD   and  CE  

$$$$
