ligand_6_pose_4_2HRL.pdbqt
 OpenBabel07062320523D

 52 53  0  0  1  0  0  0  0  0999 V2000
   28.8970   30.2940   18.3400 N   0  0  0  0  0  0  0  0  0  0  0  0
   27.7290   30.7660   18.9660 C   0  0  0  0  0  0  0  0  0  0  0  0
   27.5490   31.9600   19.2650 O   0  0  0  0  0  0  0  0  0  0  0  0
   28.9180   29.2410   18.1080 H   0  0  0  0  0  0  0  0  0  0  0  0
   30.0140   31.0880   18.0070 C   0  0  0  0  0  0  0  0  0  0  0  0
   30.4920   31.1620   16.6130 C   0  0  2  0  0  0  0  0  0  0  0  0
   31.0880   32.3650   16.0410 C   0  0  2  0  0  0  0  0  0  0  0  0
   30.1190   33.5530   16.0340 C   0  0  2  0  0  0  0  0  0  0  0  0
   28.4190   34.4020   14.6920 C   0  0  2  0  0  0  0  0  0  0  0  0
   28.4040   35.4840   15.7470 C   0  0  0  0  0  0  0  0  0  0  0  0
   29.1420   33.2870   15.0510 O   0  0  0  0  0  0  0  0  0  0  0  0
   29.7760   35.9480   16.1240 C   0  0  1  0  0  0  0  0  0  0  0  0
   30.7550   34.8460   15.6760 C   0  0  1  0  0  0  0  0  0  0  0  0
   28.8570   34.9800   13.5130 O   0  0  0  0  0  0  0  0  0  0  0  0
   29.2100   34.2820   12.9260 H   0  0  0  0  0  0  0  0  0  0  0  0
   27.0090   33.9720   14.5060 C   0  0  0  0  0  0  0  0  0  0  0  0
   26.3080   34.4480   13.5760 O   0  0  0  0  0  0  0  0  0  0  0  0
   26.4300   33.0370   15.3480 O   0  0  0  0  0  0  0  0  0  0  0  0
   26.9620   32.2600   15.7460 H   0  0  0  0  0  0  0  0  0  0  0  0
   30.1290   37.1710   15.6020 O   0  0  0  0  0  0  0  0  0  0  0  0
   30.5190   37.0240   14.7040 H   0  0  0  0  0  0  0  0  0  0  0  0
   31.9930   35.1370   16.3680 N   0  0  0  0  0  0  0  0  0  0  0  0
   33.0970   35.7270   15.6680 C   0  0  0  0  0  0  0  0  0  0  0  0
   32.1370   34.9390   17.3760 H   0  0  0  0  0  0  0  0  0  0  0  0
   34.3900   36.0510   16.3100 C   0  0  0  0  0  0  0  0  0  0  0  0
   32.9420   35.9730   14.4530 O   0  0  0  0  0  0  0  0  0  0  0  0
   31.6070   32.1390   14.7930 O   0  0  0  0  0  0  0  0  0  0  0  0
   31.8510   32.9340   14.2700 H   0  0  0  0  0  0  0  0  0  0  0  0
   29.4220   30.6460   15.8260 O   0  0  0  0  0  0  0  0  0  0  0  0
   29.7750   29.9900   15.1710 H   0  0  0  0  0  0  0  0  0  0  0  0
   26.7230   29.8170   19.2600 O   0  0  0  0  0  0  0  0  0  0  0  0
   26.5900   28.7480   18.3450 C   0  0  0  0  0  0  0  0  0  0  0  0
   25.9550   29.2350   17.0730 C   0  0  0  0  0  0  0  0  0  0  0  0
   24.7240   28.8850   16.5630 C   0  0  0  0  0  0  0  0  0  0  0  0
   26.4620   30.1130   16.1730 N   0  0  0  0  0  0  0  0  0  0  0  0
   24.5070   29.5360   15.3940 N   0  0  0  0  0  0  0  0  0  0  0  0
   25.5890   30.2630   15.2070 N   0  0  0  0  0  0  0  0  0  0  0  0
   23.3540   29.4400   14.5620 C   0  0  0  0  0  0  0  0  0  0  0  0
   22.0750   29.5470   15.0640 C   0  0  0  0  0  0  0  0  0  0  0  0
   23.4740   29.2360   13.1990 C   0  0  0  0  0  0  0  0  0  0  0  0
   20.9720   29.4520   14.2390 C   0  0  0  0  0  0  0  0  0  0  0  0
   22.3710   29.1410   12.3730 C   0  0  0  0  0  0  0  0  0  0  0  0
   21.0900   29.2470   12.8720 C   0  0  0  0  0  0  0  0  0  0  0  0
   19.9660   29.1500   12.0200 N   0  0  0  0  0  0  0  0  0  0  0  0
   19.3590   30.1900   11.7140 O   0  0  0  0  0  0  0  0  0  0  0  0
   19.5040   27.9720   11.5040 O   0  0  0  0  0  0  0  0  0  0  0  0
   29.8670   25.5550   16.9770 C   0  0  0  0  0  0  0  0  0  0  0  0
   28.3450   25.7220   17.0260 C   0  0  0  0  0  0  0  0  0  0  0  0
   27.6010   24.4010   16.9040 C   0  0  0  0  0  0  0  0  0  0  0  0
   26.1430   24.5380   17.2420 C   0  0  0  0  0  0  0  0  0  0  0  0
   25.9080   24.0830   18.6790 C   0  0  0  0  0  0  0  0  0  0  0  0
   25.7060   25.2520   19.5670 N   0  0  0  0  0  0  0  0  0  0  0  0
  1  2  1  0  0  0  0
  2 31  1  0  0  0  0
  2  3  2  0  0  0  0
  4  1  1  0  0  0  0
  5  1  1  0  0  0  0
  6  5  1  1  0  0  0
  7 27  1  6  0  0  0
  7  6  1  0  0  0  0
  8  7  1  6  0  0  0
  9 14  1  6  0  0  0
  9 11  1  0  0  0  0
  9 10  1  0  0  0  0
 10 12  1  0  0  0  0
 11  8  1  0  0  0  0
 12 20  1  6  0  0  0
 13  8  1  0  0  0  0
 13 12  1  0  0  0  0
 13 22  1  1  0  0  0
 15 14  1  0  0  0  0
 16  9  1  0  0  0  0
 16 18  1  0  0  0  0
 17 16  2  0  0  0  0
 18 19  1  0  0  0  0
 21 20  1  0  0  0  0
 22 24  1  0  0  0  0
 23 25  1  0  0  0  0
 23 22  1  0  0  0  0
 26 23  2  0  0  0  0
 28 27  1  0  0  0  0
 29  6  1  0  0  0  0
 30 29  1  0  0  0  0
 32 31  1  0  0  0  0
 33 32  1  0  0  0  0
 34 33  2  0  0  0  0
 35 33  1  0  0  0  0
 36 34  1  0  0  0  0
 37 36  1  0  0  0  0
 37 35  2  0  0  0  0
 38 39  1  0  0  0  0
 38 36  1  0  0  0  0
 40 38  2  0  0  0  0
 41 39  2  0  0  0  0
 42 43  2  0  0  0  0
 42 40  1  0  0  0  0
 43 41  1  0  0  0  0
 44 43  1  0  0  0  0
 45 44  2  0  0  0  0
 46 44  2  0  0  0  0
 47 48  1  0  0  0  0
 49 48  1  0  0  0  0
 49 50  1  0  0  0  0
 50 51  1  0  0  0  0
 51 52  1  0  0  0  0
M  END
>  <REMARK>
 VINA RESULT:    -5.574      4.537      8.343
 INTER + INTRA:         -14.723
 INTER:                  -9.024
 INTRA:                  -5.699
 UNBOUND:                -4.749
 SMILES CC(=O)N[C@@H]1[C@@H](O)C[C@](O)(C(=O)O)O[C@H]1C(O)[C@H](O)CNC(=O)OCc1cn(-c2ccc([N+](=O)[O-])cc2)nn1
 SMILES IDX 21 1 22 2 23 3 20 5 18 6 16 7 15 8 9 9 8 10 14 11 6 12 5 13
 SMILES IDX 10 14 11 16 12 17 13 18 7 20 4 22 2 23 1 25 3 26 17 27 19 29
 SMILES IDX 24 31 25 32 26 33 27 34 39 35 28 36 38 37 29 38 30 39 37 40
 SMILES IDX 31 41 36 42 32 43 33 44 34 45 35 46
 H PARENT 21 4 10 15 13 19 7 21 4 24 17 28 19 30
 Flexibility Score: inf
  4 active torsions:
  status: ('A' for Active; 'I' for Inactive)
    1  A    between atoms: CA   and  CB  
    2  A    between atoms: CB   and  CG  
    3  A    between atoms: CG   and  CD  
    4  A    between atoms: CD   and  CE  

>  <TORSDO>
F 16

>  <BEGIN_>
RES LYS A 131

$$$$
ligand_6_pose_4_2HRL.pdbqt
 OpenBabel07062320523D

  6  5  0  0  0  0  0  0  0  0999 V2000
   33.1930   34.6630    9.2900 C   0  0  0  0  0  0  0  0  0  0  0  0
   32.0600   35.3600   10.0340 C   0  0  0  0  0  0  0  0  0  0  0  0
   30.6990   34.7880    9.7320 C   0  0  0  0  0  0  0  0  0  0  0  0
   30.5590   34.4930    8.2470 C   0  0  0  0  0  0  0  0  0  0  0  0
   29.2010   34.9400    7.7410 C   0  0  0  0  0  0  0  0  0  0  0  0
   28.1070   34.4230    8.6100 N   0  0  0  0  0  0  0  0  0  0  0  0
  1  2  1  0  0  0  0
  3  2  1  0  0  0  0
  4  3  1  0  0  0  0
  5  4  1  0  0  0  0
  5  6  1  0  0  0  0
M  END
>  <EGIN_R>
ES LYS A 135

>  <REMARK>
  4 active torsions:
  status: ('A' for Active; 'I' for Inactive)
    5  A    between atoms: CA   and  CB  
    6  A    between atoms: CB   and  CG  
    7  A    between atoms: CG   and  CD  
    8  A    between atoms: CD   and  CE  

$$$$
