ligand_15_pose_18_2HRL.pdbqt
 OpenBabel07062320523D

 50 51  0  0  1  0  0  0  0  0999 V2000
   24.1290   37.9640    7.2270 C   0  0  0  0  0  0  0  0  0  0  0  0
   23.0310   38.6650    7.9690 C   0  0  2  0  0  0  0  0  0  0  0  0
   21.7970   37.8640    8.1920 C   0  0  2  0  0  0  0  0  0  0  0  0
   21.7230   37.2020    9.5530 C   0  0  2  0  0  0  0  0  0  0  0  0
   22.9640   37.2850   11.5420 C   0  0  2  0  0  0  0  0  0  0  0  0
   22.6150   35.8300   11.6870 C   0  0  0  0  0  0  0  0  0  0  0  0
   22.7940   37.7160   10.2730 O   0  0  0  0  0  0  0  0  0  0  0  0
   22.8730   35.1550   10.3600 C   0  0  1  0  0  0  0  0  0  0  0  0
   21.8490   35.7160    9.3630 C   0  0  1  0  0  0  0  0  0  0  0  0
   24.3430   37.4560   11.8510 O   0  0  0  0  0  0  0  0  0  0  0  0
   24.8140   37.3000   10.9910 H   0  0  0  0  0  0  0  0  0  0  0  0
   22.1690   38.1340   12.4710 C   0  0  0  0  0  0  0  0  0  0  0  0
   21.1510   37.7350   13.0630 O   0  0  0  0  0  0  0  0  0  0  0  0
   22.5760   39.4380   12.6940 O   0  0  0  0  0  0  0  0  0  0  0  0
   22.6690   40.1260   11.9460 H   0  0  0  0  0  0  0  0  0  0  0  0
   24.1220   35.5790    9.9110 O   0  0  0  0  0  0  0  0  0  0  0  0
   24.4980   35.0120    9.2110 H   0  0  0  0  0  0  0  0  0  0  0  0
   20.6050   35.0860    9.7050 N   0  0  0  0  0  0  0  0  0  0  0  0
   19.6150   34.7150    8.7640 C   0  0  0  0  0  0  0  0  0  0  0  0
   20.3850   34.8710   10.7120 H   0  0  0  0  0  0  0  0  0  0  0  0
   18.3340   34.0640    9.1690 C   0  0  0  0  0  0  0  0  0  0  0  0
   19.8190   34.9380    7.5530 O   0  0  0  0  0  0  0  0  0  0  0  0
   21.7270   36.8780    7.1770 O   0  0  0  0  0  0  0  0  0  0  0  0
   22.3790   37.1270    6.4880 H   0  0  0  0  0  0  0  0  0  0  0  0
   22.6910   39.8170    7.2270 O   0  0  0  0  0  0  0  0  0  0  0  0
   22.8050   40.6330    7.7740 H   0  0  0  0  0  0  0  0  0  0  0  0
   25.3390   37.7670    7.9550 N   0  0  0  0  0  0  0  0  0  0  0  0
   26.5200   38.5210    7.6120 C   0  0  0  0  0  0  0  0  0  0  0  0
   25.4800   37.1030    8.7440 H   0  0  0  0  0  0  0  0  0  0  0  0
   26.4330   39.3380    6.6640 O   0  0  0  0  0  0  0  0  0  0  0  0
   27.7100   38.3510    8.3030 O   0  0  0  0  0  0  0  0  0  0  0  0
   27.7070   38.7600    9.6640 C   0  0  0  0  0  0  0  0  0  0  0  0
   27.6420   37.5190   10.4880 C   0  0  0  0  0  0  0  0  0  0  0  0
   28.5960   37.0730   11.3830 C   0  0  0  0  0  0  0  0  0  0  0  0
   26.6600   36.5990   10.5290 N   0  0  0  0  0  0  0  0  0  0  0  0
   28.1740   35.9200   11.9290 N   0  0  0  0  0  0  0  0  0  0  0  0
   27.0040   35.6710   11.3880 N   0  0  0  0  0  0  0  0  0  0  0  0
   28.8070   35.0880   12.8970 C   0  0  0  0  0  0  0  0  0  0  0  0
   30.1660   34.8400   12.8830 C   0  0  0  0  0  0  0  0  0  0  0  0
   28.0750   34.4890   13.9020 C   0  0  0  0  0  0  0  0  0  0  0  0
   30.7670   34.0310   13.8290 C   0  0  0  0  0  0  0  0  0  0  0  0
   28.6740   33.6750   14.8560 C   0  0  0  0  0  0  0  0  0  0  0  0
   30.0270   33.4330   14.8350 C   0  0  0  0  0  0  0  0  0  0  0  0
   30.9050   32.3270   16.1140 Br  0  0  0  0  0  0  0  0  0  0  0  0
   29.8670   25.5550   16.9770 C   0  0  0  0  0  0  0  0  0  0  0  0
   28.3450   25.7220   17.0260 C   0  0  0  0  0  0  0  0  0  0  0  0
   27.6020   24.3990   16.9190 C   0  0  0  0  0  0  0  0  0  0  0  0
   26.4110   24.3430   17.8350 C   0  0  0  0  0  0  0  0  0  0  0  0
   26.4500   25.5290   18.7940 C   0  0  0  0  0  0  0  0  0  0  0  0
   25.4800   25.3360   19.8980 N   0  0  0  0  0  0  0  0  0  0  0  0
  1 27  1  0  0  0  0
  2  1  1  6  0  0  0
  2  3  1  0  0  0  0
  3 23  1  6  0  0  0
  4  3  1  6  0  0  0
  4  7  1  0  0  0  0
  5  6  1  0  0  0  0
  5 10  1  1  0  0  0
  5 12  1  0  0  0  0
  7  5  1  0  0  0  0
  8 16  1  6  0  0  0
  8  6  1  0  0  0  0
  9  4  1  0  0  0  0
  9 18  1  1  0  0  0
  9  8  1  0  0  0  0
 11 10  1  0  0  0  0
 12 14  1  0  0  0  0
 12 13  2  0  0  0  0
 15 14  1  0  0  0  0
 17 16  1  0  0  0  0
 18 20  1  0  0  0  0
 19 21  1  0  0  0  0
 19 18  1  0  0  0  0
 22 19  2  0  0  0  0
 24 23  1  0  0  0  0
 25 26  1  0  0  0  0
 25  2  1  0  0  0  0
 27 29  1  0  0  0  0
 28 27  1  0  0  0  0
 28 31  1  0  0  0  0
 30 28  2  0  0  0  0
 31 32  1  0  0  0  0
 32 33  1  0  0  0  0
 33 35  1  0  0  0  0
 33 34  2  0  0  0  0
 34 36  1  0  0  0  0
 35 37  2  0  0  0  0
 36 38  1  0  0  0  0
 37 36  1  0  0  0  0
 38 40  1  0  0  0  0
 39 38  2  0  0  0  0
 39 41  1  0  0  0  0
 40 42  2  0  0  0  0
 41 43  2  0  0  0  0
 43 42  1  0  0  0  0
 43 44  1  0  0  0  0
 45 46  1  0  0  0  0
 47 46  1  0  0  0  0
 47 48  1  0  0  0  0
 48 49  1  0  0  0  0
 49 50  1  0  0  0  0
M  END
>  <REMARK>
 VINA RESULT:    -5.060      8.896     13.799
 INTER + INTRA:         -13.919
 INTER:                  -7.574
 INTRA:                  -6.345
 UNBOUND:                -5.161
 SMILES CC(=O)N[C@@H]1[C@@H](O)C[C@](O)(C(=O)O)O[C@H]1C(O)[C@H](O)CNC(=O)OCc1cn(-c2ccc(Br)cc2)nn1
 SMILES IDX 20 1 18 2 16 3 15 4 9 5 8 6 14 7 6 8 5 9 10 10 11 12 12 13
 SMILES IDX 13 14 7 16 4 18 2 19 1 21 3 22 17 23 19 25 21 27 22 28 23 30
 SMILES IDX 24 31 25 32 26 33 27 34 37 35 28 36 36 37 29 38 30 39 35 40
 SMILES IDX 31 41 34 42 32 43 33 44
 H PARENT 10 11 13 15 7 17 4 20 17 24 19 26 21 29
 Flexibility Score: inf
  4 active torsions:
  status: ('A' for Active; 'I' for Inactive)
    1  A    between atoms: CA   and  CB  
    2  A    between atoms: CB   and  CG  
    3  A    between atoms: CG   and  CD  
    4  A    between atoms: CD   and  CE  

>  <TORSDO>
F 15

>  <BEGIN_>
RES LYS A 131

$$$$
ligand_15_pose_18_2HRL.pdbqt
 OpenBabel07062320523D

  6  5  0  0  0  0  0  0  0  0999 V2000
   33.1930   34.6630    9.2900 C   0  0  0  0  0  0  0  0  0  0  0  0
   32.0600   35.3600   10.0340 C   0  0  0  0  0  0  0  0  0  0  0  0
   30.8250   35.5660    9.1950 C   0  0  0  0  0  0  0  0  0  0  0  0
   30.0940   34.2490    8.9840 C   0  0  0  0  0  0  0  0  0  0  0  0
   28.7010   34.4950    8.4360 C   0  0  0  0  0  0  0  0  0  0  0  0
   28.7530   35.2840    7.1740 N   0  0  0  0  0  0  0  0  0  0  0  0
  1  2  1  0  0  0  0
  3  2  1  0  0  0  0
  4  3  1  0  0  0  0
  5  4  1  0  0  0  0
  6  5  1  0  0  0  0
M  END
>  <EGIN_R>
ES LYS A 135

>  <REMARK>
  4 active torsions:
  status: ('A' for Active; 'I' for Inactive)
    5  A    between atoms: CA   and  CB  
    6  A    between atoms: CB   and  CG  
    7  A    between atoms: CG   and  CD  
    8  A    between atoms: CD   and  CE  

$$$$
