ligand_92_pose_6_2HRL.pdbqt
 OpenBabel07062320523D

 59 61  0  0  1  0  0  0  0  0999 V2000
   28.1750   29.1650   18.2840 N   0  0  0  0  0  0  0  0  0  0  0  0
   27.8230   30.4690   17.8720 C   0  0  0  0  0  0  0  0  0  0  0  0
   26.6300   30.8750   18.0820 O   0  0  0  0  0  0  0  0  0  0  0  0
   29.1400   28.8310   18.1190 H   0  0  0  0  0  0  0  0  0  0  0  0
   27.2300   28.2930   18.9280 C   0  0  0  0  0  0  0  0  0  0  0  0
   27.6980   27.8250   20.2840 C   0  0  2  0  0  0  0  0  0  0  0  0
   29.1940   27.8390   20.4030 C   0  0  1  0  0  0  0  0  0  0  0  0
   29.6390   28.7440   21.5650 C   0  0  2  0  0  0  0  0  0  0  0  0
   30.6890   30.5520   20.4720 C   0  0  2  0  0  0  0  0  0  0  0  0
   31.9530   30.2740   21.2630 C   0  0  0  0  0  0  0  0  0  0  0  0
   29.6180   30.0240   21.1010 O   0  0  0  0  0  0  0  0  0  0  0  0
   32.0820   28.7710   21.3140 C   0  0  1  0  0  0  0  0  0  0  0  0
   30.9160   28.2330   22.1070 C   0  0  1  0  0  0  0  0  0  0  0  0
   30.8680   29.9110   19.2390 O   0  0  0  0  0  0  0  0  0  0  0  0
   31.1430   28.9800   19.3280 H   0  0  0  0  0  0  0  0  0  0  0  0
   30.5460   32.0050   20.1920 C   0  0  0  0  0  0  0  0  0  0  0  0
   31.5480   32.7340   20.2120 O   0  0  0  0  0  0  0  0  0  0  0  0
   29.3090   32.5530   19.9130 O   0  0  0  0  0  0  0  0  0  0  0  0
   28.7030   32.8770   20.6800 H   0  0  0  0  0  0  0  0  0  0  0  0
   32.1490   28.2560   20.0240 O   0  0  0  0  0  0  0  0  0  0  0  0
   31.2270   28.3070   19.6370 H   0  0  0  0  0  0  0  0  0  0  0  0
   31.1660   28.5130   23.4840 N   0  0  0  0  0  0  0  0  0  0  0  0
   31.0380   27.4960   24.4550 C   0  0  0  0  0  0  0  0  0  0  0  0
   31.4400   29.4630   23.7840 H   0  0  0  0  0  0  0  0  0  0  0  0
   31.2770   27.6980   25.9070 C   0  0  0  0  0  0  0  0  0  0  0  0
   30.7050   26.3670   24.0710 O   0  0  0  0  0  0  0  0  0  0  0  0
   29.7280   26.5430   20.5940 O   0  0  0  0  0  0  0  0  0  0  0  0
   30.6140   26.6480   20.9860 H   0  0  0  0  0  0  0  0  0  0  0  0
   27.1840   26.5170   20.4250 O   0  0  0  0  0  0  0  0  0  0  0  0
   26.3300   26.6100   20.9160 H   0  0  0  0  0  0  0  0  0  0  0  0
   28.6940   31.3400   17.2510 O   0  0  0  0  0  0  0  0  0  0  0  0
   28.8270   31.3900   15.8240 C   0  0  0  0  0  0  0  0  0  0  0  0
   29.8200   32.4670   15.5360 C   0  0  0  0  0  0  0  0  0  0  0  0
   30.7130   33.0450   16.4410 C   0  0  0  0  0  0  0  0  0  0  0  0
   30.0660   33.1030   14.3720 N   0  0  0  0  0  0  0  0  0  0  0  0
   31.4430   33.9790   15.8110 N   0  0  0  0  0  0  0  0  0  0  0  0
   31.0200   33.9820   14.5630 N   0  0  0  0  0  0  0  0  0  0  0  0
   32.4540   34.7750   16.4150 C   0  0  0  0  0  0  0  0  0  0  0  0
   33.5000   35.3130   15.7020 C   0  0  0  0  0  0  0  0  0  0  0  0
   32.4050   35.0280   17.7690 C   0  0  0  0  0  0  0  0  0  0  0  0
   34.4830   36.0890   16.3140 C   0  0  0  0  0  0  0  0  0  0  0  0
   33.3740   35.7940   18.3760 C   0  0  0  0  0  0  0  0  0  0  0  0
   34.4430   36.3490   17.6640 C   0  0  0  0  0  0  0  0  0  0  0  0
   35.6380   37.3210   18.4700 S   0  0  0  0  0  0  0  0  0  0  0  0
   34.9420   37.9870   19.6500 O   0  0  0  0  0  0  0  0  0  0  0  0
   36.0360   38.4170   17.5430 O   0  0  0  0  0  0  0  0  0  0  0  0
   36.9880   36.4560   19.0350 N   0  0  0  0  0  0  0  0  0  0  0  0
   37.4230   36.7720   19.9450 H   0  0  0  0  0  0  0  0  0  0  0  0
   37.6060   35.3530   18.4250 C   0  0  0  0  0  0  0  0  0  0  0  0
   38.0310   34.9600   17.3510 N   0  0  0  0  0  0  0  0  0  0  0  0
   38.0140   33.8360   19.4740 S   0  0  0  0  0  0  0  0  0  0  0  0
   38.5900   33.8280   17.0650 C   0  0  0  0  0  0  0  0  0  0  0  0
   38.7560   32.9090   18.0430 C   0  0  0  0  0  0  0  0  0  0  0  0
   29.8670   25.5550   16.9770 C   0  0  0  0  0  0  0  0  0  0  0  0
   28.3450   25.7220   17.0260 C   0  0  0  0  0  0  0  0  0  0  0  0
   27.6020   24.3980   16.9290 C   0  0  0  0  0  0  0  0  0  0  0  0
   26.1680   24.5210   17.3650 C   0  0  0  0  0  0  0  0  0  0  0  0
   25.8450   23.4160   18.3660 C   0  0  0  0  0  0  0  0  0  0  0  0
   24.9880   22.3820   17.7390 N   0  0  0  0  0  0  0  0  0  0  0  0
  1  5  1  0  0  0  0
  2  3  2  0  0  0  0
  2  1  1  0  0  0  0
  4  1  1  0  0  0  0
  6  5  1  6  0  0  0
  6  7  1  0  0  0  0
  6 29  1  0  0  0  0
  7 27  1  1  0  0  0
  8  7  1  6  0  0  0
  8 13  1  0  0  0  0
  9 14  1  6  0  0  0
  9 11  1  0  0  0  0
  9 10  1  0  0  0  0
 10 12  1  0  0  0  0
 11  8  1  0  0  0  0
 12 20  1  6  0  0  0
 12 13  1  0  0  0  0
 13 22  1  1  0  0  0
 14 15  1  0  0  0  0
 16 17  2  0  0  0  0
 16  9  1  0  0  0  0
 18 16  1  0  0  0  0
 18 19  1  0  0  0  0
 21 20  1  0  0  0  0
 22 24  1  0  0  0  0
 22 23  1  0  0  0  0
 23 25  1  0  0  0  0
 26 23  2  0  0  0  0
 27 28  1  0  0  0  0
 29 30  1  0  0  0  0
 31  2  1  0  0  0  0
 32 31  1  0  0  0  0
 33 32  1  0  0  0  0
 33 34  2  0  0  0  0
 35 37  2  0  0  0  0
 35 33  1  0  0  0  0
 36 38  1  0  0  0  0
 36 34  1  0  0  0  0
 37 36  1  0  0  0  0
 38 40  2  0  0  0  0
 39 41  2  0  0  0  0
 39 38  1  0  0  0  0
 40 42  1  0  0  0  0
 41 43  1  0  0  0  0
 43 42  2  0  0  0  0
 43 44  1  0  0  0  0
 44 47  1  0  0  0  0
 44 45  2  0  0  0  0
 46 44  2  0  0  0  0
 47 48  1  0  0  0  0
 49 47  1  0  0  0  0
 49 51  1  0  0  0  0
 50 49  2  0  0  0  0
 52 50  1  0  0  0  0
 52 53  2  0  0  0  0
 53 51  1  0  0  0  0
 54 55  1  0  0  0  0
 56 55  1  0  0  0  0
 56 57  1  0  0  0  0
 57 58  1  0  0  0  0
 59 58  1  0  0  0  0
M  END
>  <REMARK>
 VINA RESULT:    -5.089      3.241      5.684
 INTER + INTRA:         -16.108
 INTER:                  -9.758
 INTRA:                  -6.350
 UNBOUND:                -6.408
 SMILES CC(=O)N[C@@H]1[C@@H](O)C[C@](O)(C(=O)O)O[C@H]1C(O)[C@H](O)CNC(=O)OCc1cn(-c2ccc(S(=O)(=O)Nc3nccs3)cc2)nn1
 SMILES IDX 21 1 22 2 23 3 20 5 18 6 16 7 15 8 9 9 8 10 14 11 6 12 5 13
 SMILES IDX 10 14 11 16 12 17 13 18 7 20 4 22 2 23 1 25 3 26 17 27 19 29
 SMILES IDX 24 31 25 32 26 33 27 34 45 35 28 36 44 37 29 38 30 39 43 40
 SMILES IDX 31 41 42 42 32 43 33 44 34 45 35 46 36 47 37 49 38 50 41 51
 SMILES IDX 39 52 40 53
 H PARENT 21 4 10 15 13 19 7 21 4 24 17 28 19 30 36 48
 Flexibility Score: inf
  4 active torsions:
  status: ('A' for Active; 'I' for Inactive)
    1  A    between atoms: CA   and  CB  
    2  A    between atoms: CB   and  CG  
    3  A    between atoms: CG   and  CD  
    4  A    between atoms: CD   and  CE  

>  <TORSDO>
F 18

>  <BEGIN_>
RES LYS A 131

$$$$
ligand_92_pose_6_2HRL.pdbqt
 OpenBabel07062320523D

  6  5  0  0  0  0  0  0  0  0999 V2000
   33.1930   34.6630    9.2900 C   0  0  0  0  0  0  0  0  0  0  0  0
   32.0600   35.3600   10.0340 C   0  0  0  0  0  0  0  0  0  0  0  0
   30.7080   34.7410    9.7900 C   0  0  0  0  0  0  0  0  0  0  0  0
   30.4750   34.5300    8.3020 C   0  0  0  0  0  0  0  0  0  0  0  0
   29.0340   34.8370    7.9400 C   0  0  0  0  0  0  0  0  0  0  0  0
   28.9490   35.5450    6.6320 N   0  0  0  0  0  0  0  0  0  0  0  0
  1  2  1  0  0  0  0
  3  2  1  0  0  0  0
  4  3  1  0  0  0  0
  5  4  1  0  0  0  0
  6  5  1  0  0  0  0
M  END
>  <EGIN_R>
ES LYS A 135

>  <REMARK>
  4 active torsions:
  status: ('A' for Active; 'I' for Inactive)
    5  A    between atoms: CA   and  CB  
    6  A    between atoms: CB   and  CG  
    7  A    between atoms: CG   and  CD  
    8  A    between atoms: CD   and  CE  

$$$$
