ligand_20_pose_2_2HRL.pdbqt
 OpenBabel07062320523D

 53 55  0  0  1  0  0  0  0  0999 V2000
   30.1320   27.0630   21.4470 C   0  0  0  0  0  0  0  0  0  0  0  0
   31.5310   27.4690   21.2840 C   0  0  2  0  0  0  0  0  0  0  0  0
   31.6470   29.0040   21.1590 C   0  0  1  0  0  0  0  0  0  0  0  0
   31.5780   29.7070   22.4430 C   0  0  2  0  0  0  0  0  0  0  0  0
   29.8960   31.3190   22.2350 C   0  0  2  0  0  0  0  0  0  0  0  0
   30.9390   32.1850   21.5890 C   0  0  0  0  0  0  0  0  0  0  0  0
   30.3760   30.2020   22.8540 O   0  0  0  0  0  0  0  0  0  0  0  0
   32.2690   32.1280   22.2560 C   0  0  1  0  0  0  0  0  0  0  0  0
   32.7050   30.7370   22.5920 C   0  0  1  0  0  0  0  0  0  0  0  0
   28.9440   30.9590   21.2820 O   0  0  0  0  0  0  0  0  0  0  0  0
   28.1850   31.5920   21.2540 H   0  0  0  0  0  0  0  0  0  0  0  0
   29.2230   32.1470   23.2610 C   0  0  0  0  0  0  0  0  0  0  0  0
   28.7950   33.2750   22.9680 O   0  0  0  0  0  0  0  0  0  0  0  0
   29.0720   31.6630   24.5440 O   0  0  0  0  0  0  0  0  0  0  0  0
   29.0630   32.2670   25.3770 H   0  0  0  0  0  0  0  0  0  0  0  0
   33.2010   32.7680   21.4180 O   0  0  0  0  0  0  0  0  0  0  0  0
   33.7240   32.0410   21.0040 H   0  0  0  0  0  0  0  0  0  0  0  0
   33.3560   30.6420   23.8720 N   0  0  0  0  0  0  0  0  0  0  0  0
   34.5030   29.8310   24.0840 C   0  0  0  0  0  0  0  0  0  0  0  0
   32.9780   31.1920   24.7010 H   0  0  0  0  0  0  0  0  0  0  0  0
   35.1350   29.7660   25.4160 C   0  0  0  0  0  0  0  0  0  0  0  0
   34.9630   29.1740   23.1160 O   0  0  0  0  0  0  0  0  0  0  0  0
   33.0140   29.1240   20.7180 O   0  0  0  0  0  0  0  0  0  0  0  0
   33.1140   28.7370   19.8180 H   0  0  0  0  0  0  0  0  0  0  0  0
   31.9080   26.9960   19.9690 O   0  0  0  0  0  0  0  0  0  0  0  0
   31.2160   26.3540   19.6500 H   0  0  0  0  0  0  0  0  0  0  0  0
   29.3500   26.9550   20.2470 N   0  0  0  0  0  0  0  0  0  0  0  0
   28.1450   27.6830   20.0650 C   0  0  0  0  0  0  0  0  0  0  0  0
   29.6770   26.3750   19.4580 H   0  0  0  0  0  0  0  0  0  0  0  0
   27.7640   28.4420   20.9930 O   0  0  0  0  0  0  0  0  0  0  0  0
   27.3690   27.6040   18.9320 O   0  0  0  0  0  0  0  0  0  0  0  0
   26.6570   28.6880   18.3660 C   0  0  0  0  0  0  0  0  0  0  0  0
   27.6120   29.4550   17.4970 C   0  0  0  0  0  0  0  0  0  0  0  0
   28.4310   30.5060   17.8470 C   0  0  0  0  0  0  0  0  0  0  0  0
   27.8510   29.2510   16.1710 N   0  0  0  0  0  0  0  0  0  0  0  0
   29.1120   30.8740   16.7230 N   0  0  0  0  0  0  0  0  0  0  0  0
   28.7400   30.0960   15.7230 N   0  0  0  0  0  0  0  0  0  0  0  0
   30.0610   31.9270   16.6670 C   0  0  0  0  0  0  0  0  0  0  0  0
   30.6810   32.2180   15.4670 C   0  0  0  0  0  0  0  0  0  0  0  0
   30.4070   32.6950   17.7590 C   0  0  0  0  0  0  0  0  0  0  0  0
   31.6120   33.2300   15.3520 C   0  0  0  0  0  0  0  0  0  0  0  0
   31.3250   33.7010   17.6680 C   0  0  0  0  0  0  0  0  0  0  0  0
   31.9490   33.9930   16.4560 C   0  0  0  0  0  0  0  0  0  0  0  0
   31.8470   34.6010   18.5670 C   0  0  0  0  0  0  0  0  0  0  0  0
   32.7960   35.0170   16.6520 N   0  0  0  0  0  0  0  0  0  0  0  0
   32.7440   35.3900   17.9100 N   0  0  0  0  0  0  0  0  0  0  0  0
   33.3920   35.4400   15.9170 H   0  0  0  0  0  0  0  0  0  0  0  0
   29.8670   25.5550   16.9770 C   0  0  0  0  0  0  0  0  0  0  0  0
   28.3450   25.7220   17.0260 C   0  0  0  0  0  0  0  0  0  0  0  0
   27.6020   24.3990   16.9220 C   0  0  0  0  0  0  0  0  0  0  0  0
   26.1660   24.5210   17.3500 C   0  0  0  0  0  0  0  0  0  0  0  0
   25.9790   23.8440   18.7040 C   0  0  0  0  0  0  0  0  0  0  0  0
   25.4680   24.8140   19.7020 N   0  0  0  0  0  0  0  0  0  0  0  0
  2  1  1  6  0  0  0
  3 23  1  1  0  0  0
  3  2  1  0  0  0  0
  4  3  1  6  0  0  0
  4  9  1  0  0  0  0
  4  7  1  0  0  0  0
  5 10  1  6  0  0  0
  5  7  1  0  0  0  0
  5 12  1  0  0  0  0
  6  5  1  0  0  0  0
  6  8  1  0  0  0  0
  8 16  1  6  0  0  0
  8  9  1  0  0  0  0
  9 18  1  1  0  0  0
 11 10  1  0  0  0  0
 12 14  1  0  0  0  0
 13 12  2  0  0  0  0
 14 15  1  0  0  0  0
 17 16  1  0  0  0  0
 18 19  1  0  0  0  0
 18 20  1  0  0  0  0
 19 21  1  0  0  0  0
 22 19  2  0  0  0  0
 24 23  1  0  0  0  0
 25  2  1  0  0  0  0
 26 25  1  0  0  0  0
 27  1  1  0  0  0  0
 28 27  1  0  0  0  0
 28 30  2  0  0  0  0
 29 27  1  0  0  0  0
 31 28  1  0  0  0  0
 32 31  1  0  0  0  0
 33 34  2  0  0  0  0
 33 32  1  0  0  0  0
 35 33  1  0  0  0  0
 36 34  1  0  0  0  0
 37 35  2  0  0  0  0
 37 36  1  0  0  0  0
 38 36  1  0  0  0  0
 38 40  2  0  0  0  0
 39 38  1  0  0  0  0
 41 39  2  0  0  0  0
 41 43  1  0  0  0  0
 42 40  1  0  0  0  0
 42 44  1  0  0  0  0
 43 45  1  0  0  0  0
 43 42  2  0  0  0  0
 45 46  1  0  0  0  0
 46 44  2  0  0  0  0
 47 45  1  0  0  0  0
 48 49  1  0  0  0  0
 50 49  1  0  0  0  0
 50 51  1  0  0  0  0
 51 52  1  0  0  0  0
 52 53  1  0  0  0  0
M  END
>  <REMARK>
 VINA RESULT:    -5.028      5.443      8.716
 INTER + INTRA:         -15.193
 INTER:                  -9.300
 INTRA:                  -5.893
 UNBOUND:                -6.490
 SMILES CC(=O)N[C@@H]1[C@@H](O)C[C@](O)(C(=O)O)O[C@H]1C(O)[C@H](O)CNC(=O)OCc1cn(-c2ccc3[nH]ncc3c2)nn1
 SMILES IDX 20 1 18 2 16 3 15 4 9 5 8 6 14 7 6 8 5 9 10 10 11 12 12 13
 SMILES IDX 13 14 7 16 4 18 2 19 1 21 3 22 17 23 19 25 21 27 22 28 23 30
 SMILES IDX 24 31 25 32 26 33 27 34 39 35 28 36 38 37 29 38 30 39 37 40
 SMILES IDX 31 41 36 42 32 43 35 44 33 45 34 46
 H PARENT 10 11 13 15 7 17 4 20 17 24 19 26 21 29 33 47
 Flexibility Score: inf
  4 active torsions:
  status: ('A' for Active; 'I' for Inactive)
    1  A    between atoms: CA   and  CB  
    2  A    between atoms: CB   and  CG  
    3  A    between atoms: CG   and  CD  
    4  A    between atoms: CD   and  CE  

>  <TORSDO>
F 15

>  <BEGIN_>
RES LYS A 131

$$$$
ligand_20_pose_2_2HRL.pdbqt
 OpenBabel07062320523D

  6  5  0  0  0  0  0  0  0  0999 V2000
   33.1930   34.6630    9.2900 C   0  0  0  0  0  0  0  0  0  0  0  0
   32.0600   35.3600   10.0340 C   0  0  0  0  0  0  0  0  0  0  0  0
   30.8500   35.6260    9.1760 C   0  0  0  0  0  0  0  0  0  0  0  0
   30.2720   34.3230    8.6450 C   0  0  0  0  0  0  0  0  0  0  0  0
   28.7850   34.4670    8.3830 C   0  0  0  0  0  0  0  0  0  0  0  0
   28.3090   35.8350    8.7310 N   0  0  0  0  0  0  0  0  0  0  0  0
  1  2  1  0  0  0  0
  3  2  1  0  0  0  0
  4  3  1  0  0  0  0
  5  4  1  0  0  0  0
  5  6  1  0  0  0  0
M  END
>  <EGIN_R>
ES LYS A 135

>  <REMARK>
  4 active torsions:
  status: ('A' for Active; 'I' for Inactive)
    5  A    between atoms: CA   and  CB  
    6  A    between atoms: CB   and  CG  
    7  A    between atoms: CG   and  CD  
    8  A    between atoms: CD   and  CE  

$$$$
