ligand_92_pose_17_2HRL.pdbqt
 OpenBabel07062320523D

 59 61  0  0  1  0  0  0  0  0999 V2000
   29.6170   27.0030   20.3520 N   0  0  0  0  0  0  0  0  0  0  0  0
   28.3390   27.5610   20.5760 C   0  0  0  0  0  0  0  0  0  0  0  0
   27.9430   27.7150   21.7810 O   0  0  0  0  0  0  0  0  0  0  0  0
   29.9450   26.8770   19.3800 H   0  0  0  0  0  0  0  0  0  0  0  0
   30.4730   26.6110   21.4390 C   0  0  0  0  0  0  0  0  0  0  0  0
   31.8820   27.1290   21.2890 C   0  0  2  0  0  0  0  0  0  0  0  0
   31.9860   28.5910   21.6150 C   0  0  1  0  0  0  0  0  0  0  0  0
   32.4510   28.7920   23.0690 C   0  0  2  0  0  0  0  0  0  0  0  0
   30.4670   29.3980   24.1930 C   0  0  2  0  0  0  0  0  0  0  0  0
   31.1370   30.6800   24.6480 C   0  0  0  0  0  0  0  0  0  0  0  0
   31.3970   28.4740   23.8700 O   0  0  0  0  0  0  0  0  0  0  0  0
   31.9440   31.1610   23.4670 C   0  0  1  0  0  0  0  0  0  0  0  0
   33.0290   30.1450   23.2030 C   0  0  1  0  0  0  0  0  0  0  0  0
   29.7340   29.7400   23.0490 O   0  0  0  0  0  0  0  0  0  0  0  0
   29.2580   28.9840   22.6580 H   0  0  0  0  0  0  0  0  0  0  0  0
   29.4940   28.9170   25.2080 C   0  0  0  0  0  0  0  0  0  0  0  0
   29.1910   27.7160   25.2460 O   0  0  0  0  0  0  0  0  0  0  0  0
   28.9210   29.7940   26.1100 O   0  0  0  0  0  0  0  0  0  0  0  0
   29.4110   30.6620   26.3680 H   0  0  0  0  0  0  0  0  0  0  0  0
   31.1100   31.3670   22.3740 O   0  0  0  0  0  0  0  0  0  0  0  0
   31.6760   31.7340   21.6340 H   0  0  0  0  0  0  0  0  0  0  0  0
   34.0220   30.3030   24.2150 N   0  0  0  0  0  0  0  0  0  0  0  0
   35.3920   30.3370   23.8740 C   0  0  0  0  0  0  0  0  0  0  0  0
   33.7490   30.3900   25.2080 H   0  0  0  0  0  0  0  0  0  0  0  0
   36.4910   30.4960   24.8600 C   0  0  0  0  0  0  0  0  0  0  0  0
   35.6930   30.2280   22.6780 O   0  0  0  0  0  0  0  0  0  0  0  0
   32.8700   29.2720   20.7470 O   0  0  0  0  0  0  0  0  0  0  0  0
   33.5500   28.6340   20.4640 H   0  0  0  0  0  0  0  0  0  0  0  0
   32.2310   26.8780   19.9440 O   0  0  0  0  0  0  0  0  0  0  0  0
   32.9390   26.1880   19.9680 H   0  0  0  0  0  0  0  0  0  0  0  0
   27.4830   27.9510   19.5670 O   0  0  0  0  0  0  0  0  0  0  0  0
   27.0950   29.3210   19.3900 C   0  0  0  0  0  0  0  0  0  0  0  0
   28.3620   30.0930   19.2230 C   0  0  0  0  0  0  0  0  0  0  0  0
   28.7160   30.8940   18.1350 C   0  0  0  0  0  0  0  0  0  0  0  0
   29.4140   30.1870   20.0630 N   0  0  0  0  0  0  0  0  0  0  0  0
   29.9310   31.4240   18.3490 N   0  0  0  0  0  0  0  0  0  0  0  0
   30.3160   30.9710   19.5260 N   0  0  0  0  0  0  0  0  0  0  0  0
   30.6160   32.2920   17.4560 C   0  0  0  0  0  0  0  0  0  0  0  0
   31.1920   33.4720   17.8640 C   0  0  0  0  0  0  0  0  0  0  0  0
   30.7180   31.9560   16.1230 C   0  0  0  0  0  0  0  0  0  0  0  0
   31.8580   34.3110   16.9710 C   0  0  0  0  0  0  0  0  0  0  0  0
   31.3760   32.7820   15.2390 C   0  0  0  0  0  0  0  0  0  0  0  0
   31.9670   33.9850   15.6390 C   0  0  0  0  0  0  0  0  0  0  0  0
   32.7980   34.9920   14.4910 S   0  0  0  0  0  0  0  0  0  0  0  0
   34.1660   34.3610   14.2620 O   0  0  0  0  0  0  0  0  0  0  0  0
   33.0460   36.3120   15.1360 O   0  0  0  0  0  0  0  0  0  0  0  0
   32.0060   35.1620   12.9980 N   0  0  0  0  0  0  0  0  0  0  0  0
   32.4620   34.7260   12.1510 H   0  0  0  0  0  0  0  0  0  0  0  0
   30.7940   35.8270   12.7500 C   0  0  0  0  0  0  0  0  0  0  0  0
   30.3360   36.9290   12.4920 N   0  0  0  0  0  0  0  0  0  0  0  0
   29.1840   34.8380   12.7730 S   0  0  0  0  0  0  0  0  0  0  0  0
   29.1010   37.2680   12.3000 C   0  0  0  0  0  0  0  0  0  0  0  0
   28.1370   36.3240   12.3810 C   0  0  0  0  0  0  0  0  0  0  0  0
   29.8670   25.5550   16.9770 C   0  0  0  0  0  0  0  0  0  0  0  0
   28.3450   25.7220   17.0260 C   0  0  0  0  0  0  0  0  0  0  0  0
   27.6020   24.4000   16.9120 C   0  0  0  0  0  0  0  0  0  0  0  0
   26.6180   24.2050   18.0330 C   0  0  0  0  0  0  0  0  0  0  0  0
   25.3120   24.9150   17.6920 C   0  0  0  0  0  0  0  0  0  0  0  0
   24.4380   24.0340   16.8820 N   0  0  0  0  0  0  0  0  0  0  0  0
  1  2  1  0  0  0  0
  1  5  1  0  0  0  0
  2  3  2  0  0  0  0
  4  1  1  0  0  0  0
  6  5  1  6  0  0  0
  6  7  1  0  0  0  0
  7 27  1  6  0  0  0
  8  7  1  6  0  0  0
  8 13  1  0  0  0  0
  8 11  1  0  0  0  0
  9 14  1  6  0  0  0
  9 10  1  0  0  0  0
  9 16  1  0  0  0  0
 11  9  1  0  0  0  0
 12 20  1  6  0  0  0
 12 10  1  0  0  0  0
 13 12  1  0  0  0  0
 13 22  1  1  0  0  0
 15 14  1  0  0  0  0
 16 17  2  0  0  0  0
 16 18  1  0  0  0  0
 18 19  1  0  0  0  0
 21 20  1  0  0  0  0
 22 24  1  0  0  0  0
 23 22  1  0  0  0  0
 23 25  1  0  0  0  0
 26 23  2  0  0  0  0
 28 27  1  0  0  0  0
 29 30  1  0  0  0  0
 29  6  1  0  0  0  0
 31  2  1  0  0  0  0
 32 31  1  0  0  0  0
 33 32  1  0  0  0  0
 33 35  1  0  0  0  0
 34 36  1  0  0  0  0
 34 33  2  0  0  0  0
 36 37  1  0  0  0  0
 37 35  2  0  0  0  0
 38 39  1  0  0  0  0
 38 36  1  0  0  0  0
 40 38  2  0  0  0  0
 41 39  2  0  0  0  0
 42 43  2  0  0  0  0
 42 40  1  0  0  0  0
 43 41  1  0  0  0  0
 44 46  2  0  0  0  0
 44 43  1  0  0  0  0
 45 44  2  0  0  0  0
 47 44  1  0  0  0  0
 48 47  1  0  0  0  0
 49 51  1  0  0  0  0
 49 47  1  0  0  0  0
 50 49  2  0  0  0  0
 52 53  2  0  0  0  0
 52 50  1  0  0  0  0
 53 51  1  0  0  0  0
 54 55  1  0  0  0  0
 56 55  1  0  0  0  0
 56 57  1  0  0  0  0
 58 57  1  0  0  0  0
 59 58  1  0  0  0  0
M  END
>  <REMARK>
 VINA RESULT:    -4.842      1.523      2.783
 INTER + INTRA:         -15.637
 INTER:                 -10.075
 INTRA:                  -5.562
 UNBOUND:                -6.408
 SMILES CC(=O)N[C@@H]1[C@@H](O)C[C@](O)(C(=O)O)O[C@H]1C(O)[C@H](O)CNC(=O)OCc1cn(-c2ccc(S(=O)(=O)Nc3nccs3)cc2)nn1
 SMILES IDX 21 1 22 2 23 3 20 5 18 6 16 7 15 8 9 9 8 10 14 11 6 12 5 13
 SMILES IDX 10 14 11 16 12 17 13 18 7 20 4 22 2 23 1 25 3 26 17 27 19 29
 SMILES IDX 24 31 25 32 26 33 27 34 45 35 28 36 44 37 29 38 30 39 43 40
 SMILES IDX 31 41 42 42 32 43 33 44 34 45 35 46 36 47 37 49 38 50 41 51
 SMILES IDX 39 52 40 53
 H PARENT 21 4 10 15 13 19 7 21 4 24 17 28 19 30 36 48
 Flexibility Score: inf
  4 active torsions:
  status: ('A' for Active; 'I' for Inactive)
    1  A    between atoms: CA   and  CB  
    2  A    between atoms: CB   and  CG  
    3  A    between atoms: CG   and  CD  
    4  A    between atoms: CD   and  CE  

>  <TORSDO>
F 18

>  <BEGIN_>
RES LYS A 131

$$$$
ligand_92_pose_17_2HRL.pdbqt
 OpenBabel07062320523D

  6  5  0  0  0  0  0  0  0  0999 V2000
   33.1930   34.6630    9.2900 C   0  0  0  0  0  0  0  0  0  0  0  0
   32.0600   35.3600   10.0340 C   0  0  0  0  0  0  0  0  0  0  0  0
   30.7300   35.2650    9.3320 C   0  0  0  0  0  0  0  0  0  0  0  0
   30.3170   36.6200    8.7780 C   0  0  0  0  0  0  0  0  0  0  0  0
   28.9240   36.5510    8.1830 C   0  0  0  0  0  0  0  0  0  0  0  0
   28.8900   35.6410    7.0040 N   0  0  0  0  0  0  0  0  0  0  0  0
  1  2  1  0  0  0  0
  3  2  1  0  0  0  0
  4  3  1  0  0  0  0
  5  4  1  0  0  0  0
  6  5  1  0  0  0  0
M  END
>  <EGIN_R>
ES LYS A 135

>  <REMARK>
  4 active torsions:
  status: ('A' for Active; 'I' for Inactive)
    5  A    between atoms: CA   and  CB  
    6  A    between atoms: CB   and  CG  
    7  A    between atoms: CG   and  CD  
    8  A    between atoms: CD   and  CE  

$$$$
