ligand_81_pose_11_2HRL.pdbqt
 OpenBabel07062320523D

 63 65  0  0  1  0  0  0  0  0999 V2000
   32.4860   34.9050   15.0030 O   0  0  0  0  0  0  0  0  0  0  0  0
   32.0130   33.9620   15.8870 C   0  0  0  0  0  0  0  0  0  0  0  0
   31.7140   34.2920   17.2600 N   0  0  0  0  0  0  0  0  0  0  0  0
   31.8900   35.2850   17.5120 H   0  0  0  0  0  0  0  0  0  0  0  0
   31.8430   32.7890   15.4680 O   0  0  0  0  0  0  0  0  0  0  0  0
   31.2200   33.2630   18.1440 C   0  0  0  0  0  0  0  0  0  0  0  0
   29.8430   33.6930   18.6320 C   0  0  2  0  0  0  0  0  0  0  0  0
   28.8540   32.7180   18.0380 C   0  0  2  0  0  0  0  0  0  0  0  0
   29.2530   31.2770   18.1310 C   0  0  2  0  0  0  0  0  0  0  0  0
   27.1570   30.4220   17.5290 C   0  0  2  0  0  0  0  0  0  0  0  0
   26.8950   30.2360   19.0140 C   0  0  0  0  0  0  0  0  0  0  0  0
   28.4830   30.5680   17.2400 O   0  0  0  0  0  0  0  0  0  0  0  0
   28.1520   29.6780   19.6500 C   0  0  1  0  0  0  0  0  0  0  0  0
   29.3050   30.6890   19.4930 C   0  0  1  0  0  0  0  0  0  0  0  0
   26.3870   31.5270   17.1450 O   0  0  0  0  0  0  0  0  0  0  0  0
   26.3430   31.6280   16.1690 H   0  0  0  0  0  0  0  0  0  0  0  0
   26.6620   29.2570   16.7670 C   0  0  0  0  0  0  0  0  0  0  0  0
   27.4080   28.2750   16.5960 O   0  0  0  0  0  0  0  0  0  0  0  0
   25.3930   29.2550   16.2500 O   0  0  0  0  0  0  0  0  0  0  0  0
   24.8250   28.4280   16.1140 H   0  0  0  0  0  0  0  0  0  0  0  0
   27.9420   29.3600   20.9710 O   0  0  0  0  0  0  0  0  0  0  0  0
   27.5730   30.1190   21.4720 H   0  0  0  0  0  0  0  0  0  0  0  0
   30.5200   29.8930   19.7160 N   0  0  0  0  0  0  0  0  0  0  0  0
   31.3940   30.2330   20.7760 C   0  0  0  0  0  0  0  0  0  0  0  0
   30.7510   29.0790   19.1070 H   0  0  0  0  0  0  0  0  0  0  0  0
   32.6470   29.4680   21.0600 C   0  0  0  0  0  0  0  0  0  0  0  0
   31.0810   31.2240   21.4930 O   0  0  0  0  0  0  0  0  0  0  0  0
   28.9230   33.0120   16.6360 O   0  0  0  0  0  0  0  0  0  0  0  0
   28.0690   32.8020   16.2120 H   0  0  0  0  0  0  0  0  0  0  0  0
   29.6740   35.0020   18.2090 O   0  0  0  0  0  0  0  0  0  0  0  0
   29.3560   35.5850   18.9310 H   0  0  0  0  0  0  0  0  0  0  0  0
   31.7160   35.5860   14.0370 C   0  0  0  0  0  0  0  0  0  0  0  0
   30.2630   35.4810   14.3870 C   0  0  0  0  0  0  0  0  0  0  0  0
   29.2760   34.8100   13.7100 C   0  0  0  0  0  0  0  0  0  0  0  0
   29.6500   36.0420   15.4510 N   0  0  0  0  0  0  0  0  0  0  0  0
   28.0820   34.9660   14.3610 N   0  0  0  0  0  0  0  0  0  0  0  0
   28.3700   35.7230   15.4120 N   0  0  0  0  0  0  0  0  0  0  0  0
   26.8270   34.4420   13.9650 C   0  0  0  0  0  0  0  0  0  0  0  0
   26.3090   33.3560   14.5550 N   0  0  0  0  0  0  0  0  0  0  0  0
   26.1040   35.0320   12.9210 C   0  0  0  0  0  0  0  0  0  0  0  0
   25.1190   32.8350   14.1610 C   0  0  0  0  0  0  0  0  0  0  0  0
   24.9070   34.5080   12.5210 C   0  0  0  0  0  0  0  0  0  0  0  0
   24.4180   33.3870   13.1640 N   0  0  0  0  0  0  0  0  0  0  0  0
   26.6830   36.2100   12.2450 C   0  0  0  0  0  0  0  0  0  0  0  0
   26.3700   37.5310   12.8890 C   0  0  0  0  0  0  0  0  0  0  0  0
   27.4910   38.2530   13.1910 O   0  0  0  0  0  0  0  0  0  0  0  0
   28.5120   38.1210   12.2780 C   0  0  0  0  0  0  0  0  0  0  0  0
   29.7940   38.7580   12.7720 C   0  0  0  0  0  0  0  0  0  0  0  0
   24.6100   31.6890   14.8130 N   0  0  0  0  0  0  0  0  0  0  0  0
   23.7040   31.2820   14.5190 H   0  0  0  0  0  0  0  0  0  0  0  0
   25.1180   31.2290   15.5910 H   0  0  0  0  0  0  0  0  0  0  0  0
   24.1690   35.0030   11.3760 C   0  0  0  0  0  0  0  0  0  0  0  0
   24.6210   35.2790   10.1380 C   0  0  0  0  0  0  0  0  0  0  0  0
   22.7870   35.1980   11.5950 C   0  0  0  0  0  0  0  0  0  0  0  0
   23.7500   35.7340    9.1300 C   0  0  0  0  0  0  0  0  0  0  0  0
   21.9300   35.6400   10.6250 C   0  0  0  0  0  0  0  0  0  0  0  0
   22.4080   35.9190    9.3560 C   0  0  0  0  0  0  0  0  0  0  0  0
   29.8670   25.5550   16.9770 C   0  0  0  0  0  0  0  0  0  0  0  0
   28.3450   25.7220   17.0260 C   0  0  0  0  0  0  0  0  0  0  0  0
   27.5990   24.4240   16.7570 C   0  0  0  0  0  0  0  0  0  0  0  0
   26.9180   23.8960   17.9890 C   0  0  0  0  0  0  0  0  0  0  0  0
   25.5960   23.2440   17.6000 C   0  0  0  0  0  0  0  0  0  0  0  0
   24.7260   24.2140   16.8940 N   0  0  0  0  0  0  0  0  0  0  0  0
  1  2  1  0  0  0  0
  2  3  1  0  0  0  0
  3  4  1  0  0  0  0
  3  6  1  0  0  0  0
  5  2  2  0  0  0  0
  7  6  1  6  0  0  0
  8 28  1  6  0  0  0
  8  7  1  0  0  0  0
  9  8  1  1  0  0  0
  9 14  1  0  0  0  0
 10 17  1  6  0  0  0
 10 11  1  0  0  0  0
 11 13  1  0  0  0  0
 12 10  1  0  0  0  0
 12  9  1  0  0  0  0
 13 21  1  1  0  0  0
 14 13  1  0  0  0  0
 14 23  1  6  0  0  0
 15 10  1  0  0  0  0
 16 15  1  0  0  0  0
 18 17  2  0  0  0  0
 19 17  1  0  0  0  0
 20 19  1  0  0  0  0
 21 22  1  0  0  0  0
 23 24  1  0  0  0  0
 24 26  1  0  0  0  0
 24 27  2  0  0  0  0
 25 23  1  0  0  0  0
 29 28  1  0  0  0  0
 30  7  1  0  0  0  0
 30 31  1  0  0  0  0
 32 33  1  0  0  0  0
 32  1  1  0  0  0  0
 33 35  1  0  0  0  0
 34 36  1  0  0  0  0
 34 33  2  0  0  0  0
 36 37  1  0  0  0  0
 37 35  2  0  0  0  0
 38 36  1  0  0  0  0
 38 39  1  0  0  0  0
 40 38  2  0  0  0  0
 41 39  2  0  0  0  0
 41 49  1  0  0  0  0
 42 40  1  0  0  0  0
 42 43  2  0  0  0  0
 43 41  1  0  0  0  0
 44 45  1  0  0  0  0
 44 40  1  0  0  0  0
 45 46  1  0  0  0  0
 47 48  1  0  0  0  0
 47 46  1  0  0  0  0
 49 51  1  0  0  0  0
 50 49  1  0  0  0  0
 52 54  1  0  0  0  0
 52 42  1  0  0  0  0
 53 52  2  0  0  0  0
 55 57  2  0  0  0  0
 55 53  1  0  0  0  0
 56 54  2  0  0  0  0
 57 56  1  0  0  0  0
 58 59  1  0  0  0  0
 60 59  1  0  0  0  0
 60 61  1  0  0  0  0
 62 61  1  0  0  0  0
 63 62  1  0  0  0  0
M  END
>  <REMARK>
 VINA RESULT:    -4.658      4.142      9.675
 INTER + INTRA:         -16.731
 INTER:                  -8.639
 INTRA:                  -8.092
 UNBOUND:                -7.171
 SMILES CCOCCc1c(-c2ccccc2)nc(N)nc1-n1cc(COC(=O)NC[C@@H](O)C(O)[C@@H]2O[C@@](O)(C(=O)O)C[C@H](O)[C@H]2NC(C)=O)nn1
 SMILES IDX 23 1 24 2 26 3 25 5 27 6 28 7 30 8 32 9 34 10 39 11 33 12
 SMILES IDX 40 13 42 14 35 15 36 17 37 18 38 19 41 21 43 23 44 24 45 26
 SMILES IDX 46 27 31 28 29 30 22 32 21 33 20 34 47 35 19 36 48 37 18 38
 SMILES IDX 17 39 6 40 15 41 7 42 14 43 5 44 4 45 3 46 2 47 1 48 16 49
 SMILES IDX 8 52 9 53 13 54 10 55 12 56 11 57
 H PARENT 26 4 35 16 38 20 41 22 43 25 31 29 29 31 16 50 16 51
 Flexibility Score: inf
  4 active torsions:
  status: ('A' for Active; 'I' for Inactive)
    1  A    between atoms: CA   and  CB  
    2  A    between atoms: CB   and  CG  
    3  A    between atoms: CG   and  CD  
    4  A    between atoms: CD   and  CE  

>  <TORSDO>
F 21

>  <BEGIN_>
RES LYS A 131

$$$$
ligand_81_pose_11_2HRL.pdbqt
 OpenBabel07062320523D

  6  5  0  0  0  0  0  0  0  0999 V2000
   33.1930   34.6630    9.2900 C   0  0  0  0  0  0  0  0  0  0  0  0
   32.0600   35.3600   10.0340 C   0  0  0  0  0  0  0  0  0  0  0  0
   30.7070   34.7470    9.7820 C   0  0  0  0  0  0  0  0  0  0  0  0
   30.5020   34.4910    8.2970 C   0  0  0  0  0  0  0  0  0  0  0  0
   29.1340   34.9740    7.8560 C   0  0  0  0  0  0  0  0  0  0  0  0
   28.3030   35.3730    9.0270 N   0  0  0  0  0  0  0  0  0  0  0  0
  1  2  1  0  0  0  0
  3  2  1  0  0  0  0
  4  3  1  0  0  0  0
  5  4  1  0  0  0  0
  5  6  1  0  0  0  0
M  END
>  <EGIN_R>
ES LYS A 135

>  <REMARK>
  4 active torsions:
  status: ('A' for Active; 'I' for Inactive)
    5  A    between atoms: CA   and  CB  
    6  A    between atoms: CB   and  CG  
    7  A    between atoms: CG   and  CD  
    8  A    between atoms: CD   and  CE  

$$$$
