ligand_87_pose_14_2HRL.pdbqt
 OpenBabel07062320523D

 52 54  0  0  1  0  0  0  0  0999 V2000
   28.5710   40.3880    7.3290 C   0  0  0  0  0  0  0  0  0  0  0  0
   29.3170   39.1550    7.7480 C   0  0  2  0  0  0  0  0  0  0  0  0
   28.8720   38.7000    9.1330 C   0  0  2  0  0  0  0  0  0  0  0  0
   28.4100   37.2480    9.0170 C   0  0  2  0  0  0  0  0  0  0  0  0
   28.8510   35.4430    7.5960 C   0  0  2  0  0  0  0  0  0  0  0  0
   27.4280   35.2980    7.1590 C   0  0  0  0  0  0  0  0  0  0  0  0
   29.1940   36.6470    8.1150 O   0  0  0  0  0  0  0  0  0  0  0  0
   26.5200   36.3980    7.5930 C   0  0  1  0  0  0  0  0  0  0  0  0
   26.9240   37.1320    8.8280 C   0  0  1  0  0  0  0  0  0  0  0  0
   29.6650   35.2520    6.4760 O   0  0  0  0  0  0  0  0  0  0  0  0
   30.5690   34.9300    6.7130 H   0  0  0  0  0  0  0  0  0  0  0  0
   29.2480   34.4020    8.5680 C   0  0  0  0  0  0  0  0  0  0  0  0
   30.4500   34.0810    8.6770 O   0  0  0  0  0  0  0  0  0  0  0  0
   28.3520   33.7310    9.3960 O   0  0  0  0  0  0  0  0  0  0  0  0
   27.7230   33.0140    9.0030 H   0  0  0  0  0  0  0  0  0  0  0  0
   26.3870   37.2780    6.5090 O   0  0  0  0  0  0  0  0  0  0  0  0
   25.4830   37.2020    6.1200 H   0  0  0  0  0  0  0  0  0  0  0  0
   26.2650   36.7010   10.0310 N   0  0  0  0  0  0  0  0  0  0  0  0
   25.3360   37.4870   10.7510 C   0  0  0  0  0  0  0  0  0  0  0  0
   26.4690   35.7440   10.4250 H   0  0  0  0  0  0  0  0  0  0  0  0
   24.6480   37.0660   11.9900 C   0  0  0  0  0  0  0  0  0  0  0  0
   25.1040   38.6210   10.2670 O   0  0  0  0  0  0  0  0  0  0  0  0
   27.8670   39.5000    9.6500 O   0  0  0  0  0  0  0  0  0  0  0  0
   28.2860   40.3320    9.9910 H   0  0  0  0  0  0  0  0  0  0  0  0
   30.6720   39.3290    7.7770 O   0  0  0  0  0  0  0  0  0  0  0  0
   30.9150   40.0500    8.4290 H   0  0  0  0  0  0  0  0  0  0  0  0
   27.3130   40.1010    6.7310 N   0  0  0  0  0  0  0  0  0  0  0  0
   26.0670   40.5480    7.2040 C   0  0  0  0  0  0  0  0  0  0  0  0
   27.2910   39.4960    5.8500 H   0  0  0  0  0  0  0  0  0  0  0  0
   25.9470   41.2520    8.2240 O   0  0  0  0  0  0  0  0  0  0  0  0
   24.8990   40.1930    6.5020 O   0  0  0  0  0  0  0  0  0  0  0  0
   23.6480   40.4190    7.1190 C   0  0  0  0  0  0  0  0  0  0  0  0
   23.0790   39.1640    7.6100 C   0  0  0  0  0  0  0  0  0  0  0  0
   21.9950   39.0520    8.4720 C   0  0  0  0  0  0  0  0  0  0  0  0
   23.4820   37.9250    7.3320 N   0  0  0  0  0  0  0  0  0  0  0  0
   21.7820   37.7470    8.6840 N   0  0  0  0  0  0  0  0  0  0  0  0
   22.6890   37.0970    7.9870 N   0  0  0  0  0  0  0  0  0  0  0  0
   20.7670   37.1370    9.5050 C   0  0  1  0  0  0  0  0  0  0  0  0
   19.4360   37.1860    8.7560 C   0  0  0  0  0  0  0  0  0  0  0  0
   21.1490   35.6820    9.6720 C   0  0  0  0  0  0  0  0  0  0  0  0
   18.4390   36.3350    9.4950 C   0  0  1  0  0  0  0  0  0  0  0  0
   20.0030   34.8950   10.2210 C   0  0  2  0  0  0  0  0  0  0  0  0
   18.8250   34.9390    9.4130 N   0  0  0  0  0  0  0  0  0  0  0  0
   18.5370   36.5950   10.9870 C   0  0  0  0  0  0  0  0  0  0  0  0
   19.5420   35.6080   11.4980 C   0  0  0  0  0  0  0  0  0  0  0  0
   19.0210   34.4890    8.0660 C   0  0  0  0  0  0  0  0  0  0  0  0
   29.8670   25.5550   16.9770 C   0  0  0  0  0  0  0  0  0  0  0  0
   28.3450   25.7220   17.0260 C   0  0  0  0  0  0  0  0  0  0  0  0
   27.6020   24.4000   16.9100 C   0  0  0  0  0  0  0  0  0  0  0  0
   26.5820   24.2260   18.0010 C   0  0  0  0  0  0  0  0  0  0  0  0
   25.6610   23.0610   17.6560 C   0  0  0  0  0  0  0  0  0  0  0  0
   24.9080   22.6210   18.8550 N   0  0  0  0  0  0  0  0  0  0  0  0
  2  1  1  1  0  0  0
  2 25  1  0  0  0  0
  2  3  1  0  0  0  0
  3 23  1  6  0  0  0
  4  3  1  6  0  0  0
  5 10  1  6  0  0  0
  5  7  1  0  0  0  0
  5 12  1  0  0  0  0
  6  8  1  0  0  0  0
  6  5  1  0  0  0  0
  7  4  1  0  0  0  0
  8 16  1  6  0  0  0
  8  9  1  0  0  0  0
  9  4  1  0  0  0  0
  9 18  1  1  0  0  0
 10 11  1  0  0  0  0
 12 13  2  0  0  0  0
 12 14  1  0  0  0  0
 15 14  1  0  0  0  0
 17 16  1  0  0  0  0
 18 20  1  0  0  0  0
 18 19  1  0  0  0  0
 19 21  1  0  0  0  0
 22 19  2  0  0  0  0
 23 24  1  0  0  0  0
 25 26  1  0  0  0  0
 27 28  1  0  0  0  0
 27  1  1  0  0  0  0
 28 30  2  0  0  0  0
 29 27  1  0  0  0  0
 31 32  1  0  0  0  0
 31 28  1  0  0  0  0
 32 33  1  0  0  0  0
 33 34  2  0  0  0  0
 34 36  1  0  0  0  0
 35 33  1  0  0  0  0
 35 37  2  0  0  0  0
 37 36  1  0  0  0  0
 38 36  1  6  0  0  0
 38 40  1  0  0  0  0
 39 38  1  0  0  0  0
 41 39  1  6  0  0  0
 41 44  1  0  0  0  0
 42 40  1  6  0  0  0
 42 45  1  0  0  0  0
 43 41  1  0  0  0  0
 43 42  1  0  0  0  0
 44 45  1  0  0  0  0
 46 43  1  0  0  0  0
 47 48  1  0  0  0  0
 49 48  1  0  0  0  0
 49 50  1  0  0  0  0
 51 50  1  0  0  0  0
 51 52  1  0  0  0  0
M  END
>  <REMARK>
 VINA RESULT:    -5.158      7.884     13.591
 INTER + INTRA:         -14.429
 INTER:                  -8.686
 INTRA:                  -5.743
 UNBOUND:                -5.502
 SMILES CC(=O)N[C@@H]1[C@@H](O)C[C@](O)(C(=O)O)O[C@H]1C(O)[C@H](O)CNC(=O)OCc1cn([C@@H]2C[C@H]3CC[C@@H](C2)N3C)nn1
 SMILES IDX 20 1 18 2 16 3 15 4 9 5 8 6 14 7 6 8 5 9 10 10 11 12 12 13
 SMILES IDX 13 14 7 16 4 18 2 19 1 21 3 22 17 23 19 25 21 27 22 28 23 30
 SMILES IDX 24 31 25 32 26 33 27 34 39 35 28 36 38 37 29 38 35 39 30 40
 SMILES IDX 34 41 31 42 36 43 33 44 32 45 37 46
 H PARENT 10 11 13 15 7 17 4 20 17 24 19 26 21 29
 Flexibility Score: inf
  4 active torsions:
  status: ('A' for Active; 'I' for Inactive)
    1  A    between atoms: CA   and  CB  
    2  A    between atoms: CB   and  CG  
    3  A    between atoms: CG   and  CD  
    4  A    between atoms: CD   and  CE  

>  <TORSDO>
F 15

>  <BEGIN_>
RES LYS A 131

$$$$
ligand_87_pose_14_2HRL.pdbqt
 OpenBabel07062320523D

  6  5  0  0  0  0  0  0  0  0999 V2000
   33.1930   34.6630    9.2900 C   0  0  0  0  0  0  0  0  0  0  0  0
   32.0600   35.3600   10.0340 C   0  0  0  0  0  0  0  0  0  0  0  0
   32.2290   35.3530   11.5310 C   0  0  0  0  0  0  0  0  0  0  0  0
   32.2680   36.7740   12.0730 C   0  0  0  0  0  0  0  0  0  0  0  0
   31.8510   37.7640   11.0030 C   0  0  0  0  0  0  0  0  0  0  0  0
   31.4700   39.0730   11.6020 N   0  0  0  0  0  0  0  0  0  0  0  0
  1  2  1  0  0  0  0
  2  3  1  0  0  0  0
  3  4  1  0  0  0  0
  5  6  1  0  0  0  0
  5  4  1  0  0  0  0
M  END
>  <EGIN_R>
ES LYS A 135

>  <REMARK>
  4 active torsions:
  status: ('A' for Active; 'I' for Inactive)
    5  A    between atoms: CA   and  CB  
    6  A    between atoms: CB   and  CG  
    7  A    between atoms: CG   and  CD  
    8  A    between atoms: CD   and  CE  

$$$$
