ligand_47_pose_16_2HRL.pdbqt
 OpenBabel07062320523D

 62 64  0  0  1  0  0  0  0  0999 V2000
   24.2220   36.9780   10.4230 N   0  0  0  0  0  0  0  0  0  0  0  0
   23.8160   35.7310   10.9650 C   0  0  0  0  0  0  0  0  0  0  0  0
   22.7610   35.1770   10.5380 O   0  0  0  0  0  0  0  0  0  0  0  0
   25.1170   37.3770   10.8350 H   0  0  0  0  0  0  0  0  0  0  0  0
   23.4940   37.6730    9.3880 C   0  0  0  0  0  0  0  0  0  0  0  0
   23.9230   37.2470    7.9830 C   0  0  2  0  0  0  0  0  0  0  0  0
   25.2990   37.8030    7.7780 C   0  0  2  0  0  0  0  0  0  0  0  0
   26.3590   36.7450    7.6570 C   0  0  2  0  0  0  0  0  0  0  0  0
   28.0320   35.7600    8.9240 C   0  0  2  0  0  0  0  0  0  0  0  0
   28.4130   35.0400    7.6560 C   0  0  0  0  0  0  0  0  0  0  0  0
   26.8110   36.3750    8.8930 O   0  0  0  0  0  0  0  0  0  0  0  0
   28.2690   35.8800    6.4330 C   0  0  1  0  0  0  0  0  0  0  0  0
   27.5240   37.1650    6.7910 C   0  0  1  0  0  0  0  0  0  0  0  0
   29.0500   36.6740    9.2140 O   0  0  0  0  0  0  0  0  0  0  0  0
   29.8060   36.5810    8.5730 H   0  0  0  0  0  0  0  0  0  0  0  0
   28.0100   34.7470   10.0070 C   0  0  0  0  0  0  0  0  0  0  0  0
   29.0740   34.4760   10.6150 O   0  0  0  0  0  0  0  0  0  0  0  0
   26.8520   34.0920   10.3690 O   0  0  0  0  0  0  0  0  0  0  0  0
   26.8110   33.0650   10.3190 H   0  0  0  0  0  0  0  0  0  0  0  0
   29.4340   36.1210    5.7500 O   0  0  0  0  0  0  0  0  0  0  0  0
   30.0880   36.6020    6.3210 H   0  0  0  0  0  0  0  0  0  0  0  0
   27.0660   37.8240    5.5760 N   0  0  0  0  0  0  0  0  0  0  0  0
   27.8000   38.9310    5.0900 C   0  0  0  0  0  0  0  0  0  0  0  0
   26.2220   37.4690    5.1010 H   0  0  0  0  0  0  0  0  0  0  0  0
   27.3810   39.6380    3.8610 C   0  0  0  0  0  0  0  0  0  0  0  0
   28.8240   39.3340    5.6970 O   0  0  0  0  0  0  0  0  0  0  0  0
   25.5810   38.7620    8.7290 O   0  0  0  0  0  0  0  0  0  0  0  0
   25.4920   38.4230    9.6640 H   0  0  0  0  0  0  0  0  0  0  0  0
   23.0020   37.8450    7.1050 O   0  0  0  0  0  0  0  0  0  0  0  0
   22.1050   37.5670    7.4590 H   0  0  0  0  0  0  0  0  0  0  0  0
   24.5470   35.1040   11.9530 O   0  0  0  0  0  0  0  0  0  0  0  0
   24.7540   35.7160   13.2330 C   0  0  0  0  0  0  0  0  0  0  0  0
   26.0890   35.3680   13.7700 C   0  0  0  0  0  0  0  0  0  0  0  0
   26.6990   35.9780   14.8760 C   0  0  0  0  0  0  0  0  0  0  0  0
   26.9780   34.4540   13.3660 N   0  0  0  0  0  0  0  0  0  0  0  0
   27.8950   35.4330   15.0990 N   0  0  0  0  0  0  0  0  0  0  0  0
   28.0450   34.4860   14.1450 N   0  0  0  0  0  0  0  0  0  0  0  0
   28.9120   35.6550   16.0860 C   0  0  0  0  0  0  0  0  0  0  0  0
   29.0210   34.6390   17.1740 C   0  0  1  0  0  0  0  0  0  0  0  0
   27.7240   34.0260   17.4660 C   0  0  0  0  0  0  0  0  0  0  0  0
   26.9030   34.4180   18.3130 O   0  0  0  0  0  0  0  0  0  0  0  0
   27.3240   32.8800   16.7450 O   0  0  0  0  0  0  0  0  0  0  0  0
   26.3910   32.8670   16.3240 H   0  0  0  0  0  0  0  0  0  0  0  0
   30.0940   33.6050   16.8810 C   0  0  0  0  0  0  0  0  0  0  0  0
   30.4080   32.7920   18.0790 C   0  0  0  0  0  0  0  0  0  0  0  0
   30.2560   31.4000   18.0740 C   0  0  0  0  0  0  0  0  0  0  0  0
   30.8640   33.3600   19.2530 C   0  0  0  0  0  0  0  0  0  0  0  0
   30.5490   30.6430   19.1870 C   0  0  0  0  0  0  0  0  0  0  0  0
   31.1600   32.6210   20.3680 C   0  0  0  0  0  0  0  0  0  0  0  0
   31.0080   31.2580   20.3530 C   0  0  0  0  0  0  0  0  0  0  0  0
   31.3400   34.1760   16.3600 C   0  0  0  0  0  0  0  0  0  0  0  0
   32.0630   35.0310   17.2020 C   0  0  0  0  0  0  0  0  0  0  0  0
   31.8350   33.9200   15.1000 C   0  0  0  0  0  0  0  0  0  0  0  0
   33.2370   35.5850   16.7500 C   0  0  0  0  0  0  0  0  0  0  0  0
   33.0110   34.4740   14.6450 C   0  0  0  0  0  0  0  0  0  0  0  0
   33.7350   35.3240   15.4740 C   0  0  0  0  0  0  0  0  0  0  0  0
   29.8670   25.5550   16.9770 C   0  0  0  0  0  0  0  0  0  0  0  0
   28.3450   25.7220   17.0260 C   0  0  0  0  0  0  0  0  0  0  0  0
   27.6020   24.4000   16.9090 C   0  0  0  0  0  0  0  0  0  0  0  0
   26.1630   24.5210   17.3290 C   0  0  0  0  0  0  0  0  0  0  0  0
   25.9410   23.7340   18.6170 C   0  0  0  0  0  0  0  0  0  0  0  0
   24.5890   23.1270   18.6280 N   0  0  0  0  0  0  0  0  0  0  0  0
  1  4  1  0  0  0  0
  1  2  1  0  0  0  0
  2 31  1  0  0  0  0
  3  2  2  0  0  0  0
  5  1  1  0  0  0  0
  6  5  1  1  0  0  0
  7  6  1  0  0  0  0
  7 27  1  1  0  0  0
  8  7  1  1  0  0  0
  8 11  1  0  0  0  0
  9 14  1  1  0  0  0
  9 16  1  0  0  0  0
 10  9  1  0  0  0  0
 11  9  1  0  0  0  0
 12 20  1  1  0  0  0
 12 13  1  0  0  0  0
 12 10  1  0  0  0  0
 13 22  1  6  0  0  0
 13  8  1  0  0  0  0
 15 14  1  0  0  0  0
 16 18  1  0  0  0  0
 16 17  2  0  0  0  0
 19 18  1  0  0  0  0
 20 21  1  0  0  0  0
 23 22  1  0  0  0  0
 23 26  2  0  0  0  0
 24 22  1  0  0  0  0
 25 23  1  0  0  0  0
 27 28  1  0  0  0  0
 29 30  1  0  0  0  0
 29  6  1  0  0  0  0
 31 32  1  0  0  0  0
 32 33  1  0  0  0  0
 33 34  2  0  0  0  0
 34 36  1  0  0  0  0
 35 33  1  0  0  0  0
 35 37  2  0  0  0  0
 36 38  1  0  0  0  0
 37 36  1  0  0  0  0
 39 38  1  6  0  0  0
 39 40  1  0  0  0  0
 40 41  2  0  0  0  0
 42 40  1  0  0  0  0
 43 42  1  0  0  0  0
 44 39  1  0  0  0  0
 44 45  1  0  0  0  0
 45 47  1  0  0  0  0
 46 45  2  0  0  0  0
 46 48  1  0  0  0  0
 47 49  2  0  0  0  0
 48 50  2  0  0  0  0
 50 49  1  0  0  0  0
 51 44  1  0  0  0  0
 51 52  2  0  0  0  0
 53 51  1  0  0  0  0
 54 52  1  0  0  0  0
 55 53  2  0  0  0  0
 55 56  1  0  0  0  0
 56 54  2  0  0  0  0
 57 58  1  0  0  0  0
 59 58  1  0  0  0  0
 59 60  1  0  0  0  0
 60 61  1  0  0  0  0
 61 62  1  0  0  0  0
M  END
>  <REMARK>
 VINA RESULT:    -5.302      3.563      9.462
 INTER + INTRA:         -17.181
 INTER:                 -12.609
 INTRA:                  -4.572
 UNBOUND:                -6.299
 SMILES CC(=O)N[C@@H]1[C@@H](O)C[C@](O)(C(=O)O)O[C@H]1C(O)[C@H](O)CNC(=O)OCc1cn(C[C@@H](C(=O)O)C(c2ccccc2)c2ccccc2)nn1
 SMILES IDX 21 1 22 2 23 3 20 5 18 6 16 7 15 8 9 9 8 10 14 11 6 12 5 13
 SMILES IDX 10 14 11 16 12 17 13 18 7 20 4 22 2 23 1 25 3 26 17 27 19 29
 SMILES IDX 24 31 25 32 26 33 27 34 48 35 28 36 47 37 29 38 30 39 31 40
 SMILES IDX 32 41 33 42 34 44 35 45 36 46 40 47 37 48 39 49 38 50 41 51
 SMILES IDX 42 52 46 53 43 54 45 55 44 56
 H PARENT 21 4 10 15 13 19 7 21 4 24 17 28 19 30 33 43
 Flexibility Score: inf
  4 active torsions:
  status: ('A' for Active; 'I' for Inactive)
    1  A    between atoms: CA   and  CB  
    2  A    between atoms: CB   and  CG  
    3  A    between atoms: CG   and  CD  
    4  A    between atoms: CD   and  CE  

>  <TORSDO>
F 21

>  <BEGIN_>
RES LYS A 131

$$$$
ligand_47_pose_16_2HRL.pdbqt
 OpenBabel07062320523D

  6  5  0  0  0  0  0  0  0  0999 V2000
   33.1930   34.6630    9.2900 C   0  0  0  0  0  0  0  0  0  0  0  0
   32.0600   35.3600   10.0340 C   0  0  0  0  0  0  0  0  0  0  0  0
   32.4890   35.9820   11.3380 C   0  0  0  0  0  0  0  0  0  0  0  0
   31.5920   37.1590   11.6910 C   0  0  0  0  0  0  0  0  0  0  0  0
   30.6010   36.7680   12.7710 C   0  0  0  0  0  0  0  0  0  0  0  0
   29.2800   37.4170   12.5480 N   0  0  0  0  0  0  0  0  0  0  0  0
  1  2  1  0  0  0  0
  2  3  1  0  0  0  0
  3  4  1  0  0  0  0
  4  5  1  0  0  0  0
  6  5  1  0  0  0  0
M  END
>  <EGIN_R>
ES LYS A 135

>  <REMARK>
  4 active torsions:
  status: ('A' for Active; 'I' for Inactive)
    5  A    between atoms: CA   and  CB  
    6  A    between atoms: CB   and  CG  
    7  A    between atoms: CG   and  CD  
    8  A    between atoms: CD   and  CE  

$$$$
