ligand_60_pose_16_2HRL.pdbqt
 OpenBabel07062320523D

 55 56  0  0  1  0  0  0  0  0999 V2000
   27.2470   39.8000    5.8360 N   0  0  0  0  0  0  0  0  0  0  0  0
   26.4530   40.8930    5.4630 C   0  0  0  0  0  0  0  0  0  0  0  0
   25.9170   40.9400    4.3440 O   0  0  0  0  0  0  0  0  0  0  0  0
   27.6720   39.8190    6.8040 H   0  0  0  0  0  0  0  0  0  0  0  0
   27.4860   38.7000    4.9700 C   0  0  0  0  0  0  0  0  0  0  0  0
   28.3040   37.5910    5.6210 C   0  0  2  0  0  0  0  0  0  0  0  0
   27.8390   37.4300    7.0400 C   0  0  1  0  0  0  0  0  0  0  0  0
   28.6000   38.2180    8.0350 C   0  0  2  0  0  0  0  0  0  0  0  0
   30.8100   38.6500    8.6360 C   0  0  2  0  0  0  0  0  0  0  0  0
   30.0880   39.7200    9.4180 C   0  0  0  0  0  0  0  0  0  0  0  0
   29.9680   37.8550    7.9100 O   0  0  0  0  0  0  0  0  0  0  0  0
   28.9360   39.1930   10.2170 C   0  0  1  0  0  0  0  0  0  0  0  0
   28.2760   38.0580    9.4730 C   0  0  1  0  0  0  0  0  0  0  0  0
   31.6590   37.8930    9.4780 O   0  0  0  0  0  0  0  0  0  0  0  0
   31.1550   37.1640    9.9200 H   0  0  0  0  0  0  0  0  0  0  0  0
   31.7170   39.3470    7.6850 C   0  0  0  0  0  0  0  0  0  0  0  0
   31.1990   39.9840    6.7340 O   0  0  0  0  0  0  0  0  0  0  0  0
   33.0960   39.3370    7.7820 O   0  0  0  0  0  0  0  0  0  0  0  0
   33.6670   38.9110    7.0560 H   0  0  0  0  0  0  0  0  0  0  0  0
   29.4070   38.8180   11.4690 O   0  0  0  0  0  0  0  0  0  0  0  0
   29.9360   39.5840   11.8100 H   0  0  0  0  0  0  0  0  0  0  0  0
   26.9280   37.8410    9.8390 N   0  0  0  0  0  0  0  0  0  0  0  0
   26.5550   37.0030   10.9140 C   0  0  0  0  0  0  0  0  0  0  0  0
   26.1620   38.3210    9.3260 H   0  0  0  0  0  0  0  0  0  0  0  0
   25.1160   36.7820   11.2890 C   0  0  0  0  0  0  0  0  0  0  0  0
   27.4620   36.4400   11.5530 O   0  0  0  0  0  0  0  0  0  0  0  0
   26.4860   37.3200    7.2180 O   0  0  0  0  0  0  0  0  0  0  0  0
   26.2540   37.6240    8.1240 H   0  0  0  0  0  0  0  0  0  0  0  0
   29.6350   37.8680    5.4590 O   0  0  0  0  0  0  0  0  0  0  0  0
   30.0910   37.9080    6.3450 H   0  0  0  0  0  0  0  0  0  0  0  0
   26.2200   41.9810    6.3190 O   0  0  0  0  0  0  0  0  0  0  0  0
   25.0030   42.1300    6.9790 C   0  0  0  0  0  0  0  0  0  0  0  0
   24.4950   40.8470    7.5120 C   0  0  0  0  0  0  0  0  0  0  0  0
   23.2740   40.2400    7.3450 C   0  0  0  0  0  0  0  0  0  0  0  0
   25.2120   40.0090    8.3040 N   0  0  0  0  0  0  0  0  0  0  0  0
   23.2590   39.0740    8.0160 N   0  0  0  0  0  0  0  0  0  0  0  0
   24.4450   38.9690    8.5820 N   0  0  0  0  0  0  0  0  0  0  0  0
   22.2070   38.1200    8.1230 C   0  0  0  0  0  0  0  0  0  0  0  0
   20.9630   38.4640    8.6070 C   0  0  0  0  0  0  0  0  0  0  0  0
   22.3920   36.8030    7.7450 C   0  0  0  0  0  0  0  0  0  0  0  0
   19.9350   37.5540    8.7170 C   0  0  0  0  0  0  0  0  0  0  0  0
   21.3650   35.8890    7.8530 C   0  0  0  0  0  0  0  0  0  0  0  0
   20.1170   36.2200    8.3360 C   0  0  0  0  0  0  0  0  0  0  0  0
   18.8090   35.0680    8.4780 S   0  0  0  0  0  0  0  0  0  0  0  0
   19.1050   34.2050    9.6730 O   0  0  0  0  0  0  0  0  0  0  0  0
   17.5370   35.8210    8.7930 O   0  0  0  0  0  0  0  0  0  0  0  0
   18.6170   34.1040    7.0760 N   0  0  0  0  0  0  0  0  0  0  0  0
   18.7160   34.6040    6.1860 H   0  0  0  0  0  0  0  0  0  0  0  0
   19.1920   33.2330    7.1120 H   0  0  0  0  0  0  0  0  0  0  0  0
   29.8670   25.5550   16.9770 C   0  0  0  0  0  0  0  0  0  0  0  0
   28.3450   25.7220   17.0260 C   0  0  0  0  0  0  0  0  0  0  0  0
   27.6010   24.4020   16.8950 C   0  0  0  0  0  0  0  0  0  0  0  0
   26.6810   24.1520   18.0580 C   0  0  0  0  0  0  0  0  0  0  0  0
   26.4210   25.4640   18.7920 C   0  0  0  0  0  0  0  0  0  0  0  0
   25.4060   25.2720   19.8550 N   0  0  0  0  0  0  0  0  0  0  0  0
  1  4  1  0  0  0  0
  2  1  1  0  0  0  0
  2 31  1  0  0  0  0
  3  2  2  0  0  0  0
  5  1  1  0  0  0  0
  6  5  1  1  0  0  0
  6  7  1  0  0  0  0
  7 27  1  6  0  0  0
  8  7  1  6  0  0  0
  8 13  1  0  0  0  0
  9 16  1  6  0  0  0
  9 10  1  0  0  0  0
  9 14  1  0  0  0  0
 10 12  1  0  0  0  0
 11  8  1  0  0  0  0
 11  9  1  0  0  0  0
 12 20  1  1  0  0  0
 13 22  1  6  0  0  0
 13 12  1  0  0  0  0
 14 15  1  0  0  0  0
 16 18  1  0  0  0  0
 17 16  2  0  0  0  0
 19 18  1  0  0  0  0
 20 21  1  0  0  0  0
 22 23  1  0  0  0  0
 23 25  1  0  0  0  0
 23 26  2  0  0  0  0
 24 22  1  0  0  0  0
 27 28  1  0  0  0  0
 29  6  1  0  0  0  0
 29 30  1  0  0  0  0
 31 32  1  0  0  0  0
 32 33  1  0  0  0  0
 33 35  1  0  0  0  0
 34 33  2  0  0  0  0
 34 36  1  0  0  0  0
 35 37  2  0  0  0  0
 36 38  1  0  0  0  0
 36 37  1  0  0  0  0
 38 39  2  0  0  0  0
 39 41  1  0  0  0  0
 40 42  2  0  0  0  0
 40 38  1  0  0  0  0
 42 43  1  0  0  0  0
 43 44  1  0  0  0  0
 43 41  2  0  0  0  0
 44 46  2  0  0  0  0
 44 45  2  0  0  0  0
 47 49  1  0  0  0  0
 47 44  1  0  0  0  0
 48 47  1  0  0  0  0
 50 51  1  0  0  0  0
 52 51  1  0  0  0  0
 52 53  1  0  0  0  0
 53 54  1  0  0  0  0
 54 55  1  0  0  0  0
M  END
>  <REMARK>
 VINA RESULT:    -4.740      8.707     14.542
 INTER + INTRA:         -14.582
 INTER:                  -8.465
 INTRA:                  -6.118
 UNBOUND:                -5.964
 SMILES CC(=O)N[C@@H]1[C@@H](O)C[C@](O)(C(=O)O)O[C@H]1C(O)[C@H](O)CNC(=O)OCc1cn(-c2ccc(S(N)(=O)=O)cc2)nn1
 SMILES IDX 21 1 22 2 23 3 20 5 18 6 16 7 15 8 9 9 8 10 14 11 6 12 5 13
 SMILES IDX 10 14 11 16 12 17 13 18 7 20 4 22 2 23 1 25 3 26 17 27 19 29
 SMILES IDX 24 31 25 32 26 33 27 34 40 35 28 36 39 37 29 38 30 39 38 40
 SMILES IDX 31 41 37 42 32 43 33 44 35 45 36 46 34 47
 H PARENT 21 4 10 15 13 19 7 21 4 24 17 28 19 30 34 48 34 49
 Flexibility Score: inf
  4 active torsions:
  status: ('A' for Active; 'I' for Inactive)
    1  A    between atoms: CA   and  CB  
    2  A    between atoms: CB   and  CG  
    3  A    between atoms: CG   and  CD  
    4  A    between atoms: CD   and  CE  

>  <TORSDO>
F 17

>  <BEGIN_>
RES LYS A 131

$$$$
ligand_60_pose_16_2HRL.pdbqt
 OpenBabel07062320523D

  6  5  0  0  0  0  0  0  0  0999 V2000
   33.1930   34.6630    9.2900 C   0  0  0  0  0  0  0  0  0  0  0  0
   32.0600   35.3600   10.0340 C   0  0  0  0  0  0  0  0  0  0  0  0
   30.7410   34.6370    9.9370 C   0  0  0  0  0  0  0  0  0  0  0  0
   30.3010   34.5170    8.4860 C   0  0  0  0  0  0  0  0  0  0  0  0
   28.7960   34.3540    8.3980 C   0  0  0  0  0  0  0  0  0  0  0  0
   28.2410   33.8030    9.6660 N   0  0  0  0  0  0  0  0  0  0  0  0
  1  2  1  0  0  0  0
  3  2  1  0  0  0  0
  4  3  1  0  0  0  0
  5  4  1  0  0  0  0
  5  6  1  0  0  0  0
M  END
>  <EGIN_R>
ES LYS A 135

>  <REMARK>
  4 active torsions:
  status: ('A' for Active; 'I' for Inactive)
    5  A    between atoms: CA   and  CB  
    6  A    between atoms: CB   and  CG  
    7  A    between atoms: CG   and  CD  
    8  A    between atoms: CD   and  CE  

$$$$
