ligand_54_pose_9_2HRL.pdbqt
 OpenBabel07062320523D

 52 52  0  0  1  0  0  0  0  0999 V2000
   27.5780   28.7700   19.4960 O   0  0  0  0  0  0  0  0  0  0  0  0
   28.5110   29.8050   19.3300 C   0  0  0  0  0  0  0  0  0  0  0  0
   28.7920   30.3570   18.0620 N   0  0  0  0  0  0  0  0  0  0  0  0
   28.2340   29.9380   17.2510 H   0  0  0  0  0  0  0  0  0  0  0  0
   29.0860   30.2210   20.3380 O   0  0  0  0  0  0  0  0  0  0  0  0
   29.7210   31.3960   17.7500 C   0  0  0  0  0  0  0  0  0  0  0  0
   30.4490   31.1150   16.4660 C   0  0  2  0  0  0  0  0  0  0  0  0
   31.0030   32.4570   15.9950 C   0  0  2  0  0  0  0  0  0  0  0  0
   29.9520   33.5220   15.9800 C   0  0  2  0  0  0  0  0  0  0  0  0
   28.3010   34.3410   14.5720 C   0  0  2  0  0  0  0  0  0  0  0  0
   28.2860   35.5860   15.3960 C   0  0  0  0  0  0  0  0  0  0  0  0
   28.8760   33.2410   15.1900 O   0  0  0  0  0  0  0  0  0  0  0  0
   29.5850   35.9100   16.0770 C   0  0  1  0  0  0  0  0  0  0  0  0
   30.5930   34.8650   15.6500 C   0  0  1  0  0  0  0  0  0  0  0  0
   28.8680   34.5880   13.3190 O   0  0  0  0  0  0  0  0  0  0  0  0
   28.3120   35.3050   12.8900 H   0  0  0  0  0  0  0  0  0  0  0  0
   26.8750   33.9730   14.3370 C   0  0  0  0  0  0  0  0  0  0  0  0
   26.1680   34.6130   13.5300 O   0  0  0  0  0  0  0  0  0  0  0  0
   26.3320   32.8850   15.0460 O   0  0  0  0  0  0  0  0  0  0  0  0
   26.0090   33.0960   15.9900 H   0  0  0  0  0  0  0  0  0  0  0  0
   30.0250   37.2060   15.8380 O   0  0  0  0  0  0  0  0  0  0  0  0
   29.3660   37.8080   16.2690 H   0  0  0  0  0  0  0  0  0  0  0  0
   31.8260   34.9570   16.4040 N   0  0  0  0  0  0  0  0  0  0  0  0
   32.9130   35.7010   15.8720 C   0  0  0  0  0  0  0  0  0  0  0  0
   31.9750   34.5080   17.3240 H   0  0  0  0  0  0  0  0  0  0  0  0
   34.2060   35.8490   16.5700 C   0  0  0  0  0  0  0  0  0  0  0  0
   32.7670   36.2640   14.7520 O   0  0  0  0  0  0  0  0  0  0  0  0
   31.5920   32.2770   14.7530 O   0  0  0  0  0  0  0  0  0  0  0  0
   31.2130   31.5030   14.2560 H   0  0  0  0  0  0  0  0  0  0  0  0
   29.5820   30.6790   15.4970 O   0  0  0  0  0  0  0  0  0  0  0  0
   28.6740   31.0690   15.5800 H   0  0  0  0  0  0  0  0  0  0  0  0
   27.3550   27.8300   18.4490 C   0  0  0  0  0  0  0  0  0  0  0  0
   25.9500   27.9100   18.0130 C   0  0  0  0  0  0  0  0  0  0  0  0
   25.2870   29.1320   17.8630 C   0  0  0  0  0  0  0  0  0  0  0  0
   25.0530   26.9890   17.6880 N   0  0  0  0  0  0  0  0  0  0  0  0
   24.0240   28.8880   17.4570 N   0  0  0  0  0  0  0  0  0  0  0  0
   23.9060   27.5950   17.3570 N   0  0  0  0  0  0  0  0  0  0  0  0
   23.0520   29.9140   17.2060 C   0  0  0  0  0  0  0  0  0  0  0  0
   23.6460   31.1520   16.5750 C   0  0  0  0  0  0  0  0  0  0  0  0
   23.4010   31.2330   15.1010 C   0  0  0  0  0  0  0  0  0  0  0  0
   24.4000   30.5160   14.4530 O   0  0  0  0  0  0  0  0  0  0  0  0
   24.1290   30.4390   13.0810 C   0  0  0  0  0  0  0  0  0  0  0  0
   23.5490   29.1010   12.7050 C   0  0  0  0  0  0  0  0  0  0  0  0
   23.4000   32.5210   14.6310 O   0  0  0  0  0  0  0  0  0  0  0  0
   22.1780   33.1610   14.8400 C   0  0  0  0  0  0  0  0  0  0  0  0
   21.0870   32.3750   14.1220 C   0  0  0  0  0  0  0  0  0  0  0  0
   29.8670   25.5550   16.9770 C   0  0  0  0  0  0  0  0  0  0  0  0
   28.3450   25.7220   17.0260 C   0  0  0  0  0  0  0  0  0  0  0  0
   27.5990   24.4190   16.7810 C   0  0  0  0  0  0  0  0  0  0  0  0
   26.8730   23.9430   18.0090 C   0  0  0  0  0  0  0  0  0  0  0  0
   25.7700   22.9710   17.6020 C   0  0  0  0  0  0  0  0  0  0  0  0
   24.6260   23.7030   17.0100 N   0  0  0  0  0  0  0  0  0  0  0  0
  2  1  1  0  0  0  0
  2  5  2  0  0  0  0
  3  2  1  0  0  0  0
  4  3  1  0  0  0  0
  6  3  1  0  0  0  0
  7  6  1  1  0  0  0
  8 28  1  6  0  0  0
  8  7  1  0  0  0  0
  9  8  1  6  0  0  0
 10 15  1  6  0  0  0
 10 12  1  0  0  0  0
 10 11  1  0  0  0  0
 11 13  1  0  0  0  0
 12  9  1  0  0  0  0
 13 21  1  6  0  0  0
 14  9  1  0  0  0  0
 14 13  1  0  0  0  0
 14 23  1  1  0  0  0
 16 15  1  0  0  0  0
 17 10  1  0  0  0  0
 17 19  1  0  0  0  0
 18 17  2  0  0  0  0
 19 20  1  0  0  0  0
 21 22  1  0  0  0  0
 23 25  1  0  0  0  0
 24 23  1  0  0  0  0
 24 26  1  0  0  0  0
 27 24  2  0  0  0  0
 29 28  1  0  0  0  0
 30 31  1  0  0  0  0
 30  7  1  0  0  0  0
 32  1  1  0  0  0  0
 33 32  1  0  0  0  0
 34 33  2  0  0  0  0
 35 33  1  0  0  0  0
 36 34  1  0  0  0  0
 37 36  1  0  0  0  0
 37 35  2  0  0  0  0
 38 36  1  0  0  0  0
 39 38  1  0  0  0  0
 40 39  1  0  0  0  0
 41 40  1  0  0  0  0
 42 41  1  0  0  0  0
 43 42  1  0  0  0  0
 44 45  1  0  0  0  0
 44 40  1  0  0  0  0
 46 45  1  0  0  0  0
 47 48  1  0  0  0  0
 49 48  1  0  0  0  0
 49 50  1  0  0  0  0
 51 50  1  0  0  0  0
 52 51  1  0  0  0  0
M  END
>  <REMARK>
 VINA RESULT:    -4.231      2.849      7.445
 INTER + INTRA:         -14.746
 INTER:                  -8.489
 INTRA:                  -6.257
 UNBOUND:                -5.938
 SMILES CCOC(CCn1cc(COC(=O)NC[C@@H](O)C(O)[C@@H]2O[C@@](O)(C(=O)O)C[C@H](O)[C@H]2NC(C)=O)nn1)OCC
 SMILES IDX 11 1 12 2 14 3 13 5 15 6 16 7 18 8 20 9 22 10 27 11 21 12
 SMILES IDX 28 13 30 14 23 15 24 17 25 18 26 19 29 21 31 23 32 24 33 26
 SMILES IDX 34 27 19 28 17 30 10 32 9 33 8 34 35 35 7 36 36 37 6 38 5 39
 SMILES IDX 4 40 3 41 2 42 1 43 37 44 38 45 39 46
 H PARENT 14 4 23 16 26 20 29 22 31 25 19 29 17 31
 Flexibility Score: inf
  4 active torsions:
  status: ('A' for Active; 'I' for Inactive)
    1  A    between atoms: CA   and  CB  
    2  A    between atoms: CB   and  CG  
    3  A    between atoms: CG   and  CD  
    4  A    between atoms: CD   and  CE  

>  <TORSDO>
F 21

>  <BEGIN_>
RES LYS A 131

$$$$
ligand_54_pose_9_2HRL.pdbqt
 OpenBabel07062320523D

  6  5  0  0  0  0  0  0  0  0999 V2000
   33.1930   34.6630    9.2900 C   0  0  0  0  0  0  0  0  0  0  0  0
   32.0600   35.3600   10.0340 C   0  0  0  0  0  0  0  0  0  0  0  0
   30.7200   34.6970    9.8490 C   0  0  0  0  0  0  0  0  0  0  0  0
   30.4260   34.4830    8.3720 C   0  0  0  0  0  0  0  0  0  0  0  0
   29.3780   35.4680    7.8890 C   0  0  0  0  0  0  0  0  0  0  0  0
   28.0190   34.8600    7.9160 N   0  0  0  0  0  0  0  0  0  0  0  0
  1  2  1  0  0  0  0
  3  2  1  0  0  0  0
  4  3  1  0  0  0  0
  5  6  1  0  0  0  0
  5  4  1  0  0  0  0
M  END
>  <EGIN_R>
ES LYS A 135

>  <REMARK>
  4 active torsions:
  status: ('A' for Active; 'I' for Inactive)
    5  A    between atoms: CA   and  CB  
    6  A    between atoms: CB   and  CG  
    7  A    between atoms: CG   and  CD  
    8  A    between atoms: CD   and  CE  

$$$$
