ligand_5_pose_10_2HRL.pdbqt
 OpenBabel07062320523D

 51 52  0  0  1  0  0  0  0  0999 V2000
   23.6840   37.6780   10.8180 N   0  0  0  0  0  0  0  0  0  0  0  0
   24.5870   37.3760   11.8600 C   0  0  0  0  0  0  0  0  0  0  0  0
   25.8170   37.4160   11.7050 O   0  0  0  0  0  0  0  0  0  0  0  0
   22.6520   37.5760   11.0840 H   0  0  0  0  0  0  0  0  0  0  0  0
   23.9580   38.0880    9.5000 C   0  0  0  0  0  0  0  0  0  0  0  0
   24.0060   37.1050    8.4200 C   0  0  2  0  0  0  0  0  0  0  0  0
   25.0560   36.1110    8.3860 C   0  0  1  0  0  0  0  0  0  0  0  0
   26.4980   36.6440    8.2470 C   0  0  2  0  0  0  0  0  0  0  0  0
   27.7050   37.1920    6.2960 C   0  0  2  0  0  0  0  0  0  0  0  0
   28.4510   35.8480    6.3490 C   0  0  0  0  0  0  0  0  0  0  0  0
   26.5340   37.0140    6.9140 O   0  0  0  0  0  0  0  0  0  0  0  0
   28.7590   35.6100    7.7770 C   0  0  1  0  0  0  0  0  0  0  0  0
   27.5360   35.7290    8.7040 C   0  0  1  0  0  0  0  0  0  0  0  0
   27.3910   37.3230    4.9160 O   0  0  0  0  0  0  0  0  0  0  0  0
   27.0680   38.2340    4.7130 H   0  0  0  0  0  0  0  0  0  0  0  0
   28.5220   38.3280    6.6740 C   0  0  0  0  0  0  0  0  0  0  0  0
   27.9860   39.3800    7.1050 O   0  0  0  0  0  0  0  0  0  0  0  0
   29.9150   38.3850    6.6070 O   0  0  0  0  0  0  0  0  0  0  0  0
   30.4220   39.2670    6.4980 H   0  0  0  0  0  0  0  0  0  0  0  0
   29.3200   34.3480    8.0300 O   0  0  0  0  0  0  0  0  0  0  0  0
   29.8000   34.1080    7.1770 H   0  0  0  0  0  0  0  0  0  0  0  0
   28.1490   35.9930    9.9700 N   0  0  0  0  0  0  0  0  0  0  0  0
   28.0650   35.2310   11.1350 C   0  0  0  0  0  0  0  0  0  0  0  0
   28.7330   36.8810   10.0070 H   0  0  0  0  0  0  0  0  0  0  0  0
   28.7620   35.6420   12.3930 C   0  0  0  0  0  0  0  0  0  0  0  0
   27.3860   34.1990   11.0880 O   0  0  0  0  0  0  0  0  0  0  0  0
   24.9540   35.2640    9.4840 O   0  0  0  0  0  0  0  0  0  0  0  0
   24.3520   34.4960    9.3130 H   0  0  0  0  0  0  0  0  0  0  0  0
   23.8140   37.7610    7.1700 O   0  0  0  0  0  0  0  0  0  0  0  0
   22.9310   38.2150    7.1600 H   0  0  0  0  0  0  0  0  0  0  0  0
   24.1240   37.0120   13.1410 O   0  0  0  0  0  0  0  0  0  0  0  0
   24.9600   36.2760   13.9990 C   0  0  0  0  0  0  0  0  0  0  0  0
   24.7590   34.8360   13.7750 C   0  0  0  0  0  0  0  0  0  0  0  0
   23.5290   34.2740   13.4130 C   0  0  0  0  0  0  0  0  0  0  0  0
   25.5990   33.8070   13.8480 N   0  0  0  0  0  0  0  0  0  0  0  0
   23.6920   32.9440   13.2880 N   0  0  0  0  0  0  0  0  0  0  0  0
   24.9700   32.6990   13.5620 N   0  0  0  0  0  0  0  0  0  0  0  0
   22.7050   31.9850   12.9340 C   0  0  0  0  0  0  0  0  0  0  0  0
   22.9710   30.6400   12.8210 C   0  0  0  0  0  0  0  0  0  0  0  0
   21.3900   32.3850   12.6840 C   0  0  0  0  0  0  0  0  0  0  0  0
   21.9910   29.7170   12.4760 C   0  0  0  0  0  0  0  0  0  0  0  0
   20.4170   31.4660   12.3400 C   0  0  0  0  0  0  0  0  0  0  0  0
   20.7010   30.1250   12.2320 C   0  0  0  0  0  0  0  0  0  0  0  0
   19.7440   29.2160   11.8950 O   0  0  0  0  0  0  0  0  0  0  0  0
   19.5760   28.0480   12.6690 C   0  0  0  0  0  0  0  0  0  0  0  0
   29.8670   25.5550   16.9770 C   0  0  0  0  0  0  0  0  0  0  0  0
   28.3450   25.7220   17.0260 C   0  0  0  0  0  0  0  0  0  0  0  0
   27.6010   24.4020   16.8910 C   0  0  0  0  0  0  0  0  0  0  0  0
   26.6430   24.1730   18.0270 C   0  0  0  0  0  0  0  0  0  0  0  0
   25.6170   23.1200   17.6220 C   0  0  0  0  0  0  0  0  0  0  0  0
   24.9090   22.6000   18.8160 N   0  0  0  0  0  0  0  0  0  0  0  0
  1  4  1  0  0  0  0
  1  2  1  0  0  0  0
  2 31  1  0  0  0  0
  3  2  2  0  0  0  0
  5  1  1  0  0  0  0
  6  5  1  1  0  0  0
  7  6  1  0  0  0  0
  7 27  1  1  0  0  0
  8  7  1  6  0  0  0
  8 13  1  0  0  0  0
  9 14  1  6  0  0  0
  9 10  1  0  0  0  0
  9 16  1  0  0  0  0
  9 11  1  0  0  0  0
 10 12  1  0  0  0  0
 11  8  1  0  0  0  0
 12 20  1  6  0  0  0
 12 13  1  0  0  0  0
 13 22  1  1  0  0  0
 15 14  1  0  0  0  0
 16 17  2  0  0  0  0
 18 16  1  0  0  0  0
 19 18  1  0  0  0  0
 21 20  1  0  0  0  0
 22 24  1  0  0  0  0
 22 23  1  0  0  0  0
 23 25  1  0  0  0  0
 26 23  2  0  0  0  0
 28 27  1  0  0  0  0
 29  6  1  0  0  0  0
 30 29  1  0  0  0  0
 31 32  1  0  0  0  0
 33 35  1  0  0  0  0
 33 32  1  0  0  0  0
 34 33  2  0  0  0  0
 36 34  1  0  0  0  0
 36 37  1  0  0  0  0
 37 35  2  0  0  0  0
 38 36  1  0  0  0  0
 39 38  1  0  0  0  0
 40 38  2  0  0  0  0
 41 39  2  0  0  0  0
 42 40  1  0  0  0  0
 43 42  2  0  0  0  0
 43 41  1  0  0  0  0
 44 43  1  0  0  0  0
 44 45  1  0  0  0  0
 46 47  1  0  0  0  0
 48 47  1  0  0  0  0
 48 49  1  0  0  0  0
 50 49  1  0  0  0  0
 50 51  1  0  0  0  0
M  END
>  <REMARK>
 VINA RESULT:    -4.976      9.142     14.127
 INTER + INTRA:         -14.129
 INTER:                  -9.728
 INTRA:                  -4.401
 UNBOUND:                -5.226
 SMILES COc1ccc(-n2cc(COC(=O)NC[C@@H](O)C(O)[C@@H]3O[C@@](O)(C(=O)O)C[C@H](O)[C@H]3NC(C)=O)nn2)cc1
 SMILES IDX 14 1 12 2 13 3 15 5 16 6 18 7 20 8 22 9 27 10 21 11 28 12
 SMILES IDX 30 13 23 14 24 16 25 17 26 18 29 20 31 22 32 23 33 25 34 26
 SMILES IDX 19 27 17 29 11 31 10 32 9 33 8 34 35 35 7 36 36 37 6 38 5 39
 SMILES IDX 37 40 4 41 38 42 3 43 2 44 1 45
 H PARENT 14 4 23 15 26 19 29 21 31 24 19 28 17 30
 Flexibility Score: inf
  4 active torsions:
  status: ('A' for Active; 'I' for Inactive)
    1  A    between atoms: CA   and  CB  
    2  A    between atoms: CB   and  CG  
    3  A    between atoms: CG   and  CD  
    4  A    between atoms: CD   and  CE  

>  <TORSDO>
F 16

>  <BEGIN_>
RES LYS A 131

$$$$
ligand_5_pose_10_2HRL.pdbqt
 OpenBabel07062320523D

  6  5  0  0  0  0  0  0  0  0999 V2000
   33.1930   34.6630    9.2900 C   0  0  0  0  0  0  0  0  0  0  0  0
   32.0600   35.3600   10.0340 C   0  0  0  0  0  0  0  0  0  0  0  0
   32.5120   36.0900   11.2720 C   0  0  0  0  0  0  0  0  0  0  0  0
   31.8960   37.4800   11.3300 C   0  0  0  0  0  0  0  0  0  0  0  0
   31.2340   37.8250   10.0100 C   0  0  0  0  0  0  0  0  0  0  0  0
   30.2330   38.9140   10.1800 N   0  0  0  0  0  0  0  0  0  0  0  0
  1  2  1  0  0  0  0
  2  3  1  0  0  0  0
  3  4  1  0  0  0  0
  5  6  1  0  0  0  0
  5  4  1  0  0  0  0
M  END
>  <EGIN_R>
ES LYS A 135

>  <REMARK>
  4 active torsions:
  status: ('A' for Active; 'I' for Inactive)
    5  A    between atoms: CA   and  CB  
    6  A    between atoms: CB   and  CG  
    7  A    between atoms: CG   and  CD  
    8  A    between atoms: CD   and  CE  

$$$$
