ligand_56_pose_16_2HRL.pdbqt
 OpenBabel07062320523D

 49 50  0  0  1  0  0  0  0  0999 V2000
   29.8230   31.1700   17.8060 C   0  0  0  0  0  0  0  0  0  0  0  0
   30.3970   31.0890   16.4360 C   0  0  2  0  0  0  0  0  0  0  0  0
   30.8800   32.4360   15.9240 C   0  0  2  0  0  0  0  0  0  0  0  0
   29.8180   33.4750   15.8880 C   0  0  2  0  0  0  0  0  0  0  0  0
   28.0860   34.3590   14.6460 C   0  0  2  0  0  0  0  0  0  0  0  0
   28.0180   35.3730   15.7600 C   0  0  0  0  0  0  0  0  0  0  0  0
   28.8520   33.2650   14.9440 O   0  0  0  0  0  0  0  0  0  0  0  0
   29.3770   35.8440   16.2010 C   0  0  1  0  0  0  0  0  0  0  0  0
   30.3970   34.8610   15.6610 C   0  0  1  0  0  0  0  0  0  0  0  0
   28.4690   34.9400   13.4370 O   0  0  0  0  0  0  0  0  0  0  0  0
   27.8040   34.7700   12.7170 H   0  0  0  0  0  0  0  0  0  0  0  0
   26.6790   33.8660   14.4410 C   0  0  0  0  0  0  0  0  0  0  0  0
   25.9200   34.3120   13.5670 O   0  0  0  0  0  0  0  0  0  0  0  0
   26.2610   32.8570   15.3050 O   0  0  0  0  0  0  0  0  0  0  0  0
   25.2720   32.7220   15.4960 H   0  0  0  0  0  0  0  0  0  0  0  0
   29.6570   37.1320   15.7450 O   0  0  0  0  0  0  0  0  0  0  0  0
   29.3610   37.7910   16.4190 H   0  0  0  0  0  0  0  0  0  0  0  0
   31.6850   35.0240   16.2940 N   0  0  0  0  0  0  0  0  0  0  0  0
   32.7130   35.7830   15.6710 C   0  0  0  0  0  0  0  0  0  0  0  0
   31.8970   34.5950   17.2140 H   0  0  0  0  0  0  0  0  0  0  0  0
   34.0590   35.9710   16.3000 C   0  0  0  0  0  0  0  0  0  0  0  0
   32.4830   36.3130   14.5550 O   0  0  0  0  0  0  0  0  0  0  0  0
   31.6300   32.2950   14.7850 O   0  0  0  0  0  0  0  0  0  0  0  0
   32.1510   33.1290   14.6330 H   0  0  0  0  0  0  0  0  0  0  0  0
   29.4950   30.6300   15.4940 O   0  0  0  0  0  0  0  0  0  0  0  0
   29.6410   29.6950   15.2240 H   0  0  0  0  0  0  0  0  0  0  0  0
   28.6290   30.3820   17.9190 N   0  0  0  0  0  0  0  0  0  0  0  0
   27.3030   30.8280   17.9870 C   0  0  0  0  0  0  0  0  0  0  0  0
   28.7450   29.3110   17.9580 H   0  0  0  0  0  0  0  0  0  0  0  0
   27.0370   32.0300   17.9620 O   0  0  0  0  0  0  0  0  0  0  0  0
   26.2100   29.9450   18.0860 O   0  0  0  0  0  0  0  0  0  0  0  0
   24.8840   30.4520   17.8960 C   0  0  0  0  0  0  0  0  0  0  0  0
   24.3690   30.0980   16.5710 C   0  0  0  0  0  0  0  0  0  0  0  0
   23.0960   29.7310   16.1950 C   0  0  0  0  0  0  0  0  0  0  0  0
   25.1060   30.0740   15.4400 N   0  0  0  0  0  0  0  0  0  0  0  0
   23.1250   29.5050   14.8610 N   0  0  0  0  0  0  0  0  0  0  0  0
   24.3390   29.7140   14.4170 N   0  0  0  0  0  0  0  0  0  0  0  0
   22.0270   29.1030   14.0410 C   0  0  0  0  0  0  0  0  0  0  0  0
   21.9470   29.5930   12.7590 C   0  0  0  0  0  0  0  0  0  0  0  0
   21.0610   28.2350   14.5350 C   0  0  0  0  0  0  0  0  0  0  0  0
   20.8810   29.1950   11.9810 C   0  0  0  0  0  0  0  0  0  0  0  0
   20.0250   27.8700   13.7250 C   0  0  0  0  0  0  0  0  0  0  0  0
   19.9570   28.3560   12.4680 N   0  0  0  0  0  0  0  0  0  0  0  0
   29.8670   25.5550   16.9770 C   0  0  0  0  0  0  0  0  0  0  0  0
   28.3450   25.7220   17.0260 C   0  0  0  0  0  0  0  0  0  0  0  0
   27.5990   24.4880   16.5430 C   0  0  0  0  0  0  0  0  0  0  0  0
   27.0120   23.6990   17.6800 C   0  0  0  0  0  0  0  0  0  0  0  0
   25.6360   24.2560   18.0290 C   0  0  0  0  0  0  0  0  0  0  0  0
   24.6340   23.8320   17.0230 N   0  0  0  0  0  0  0  0  0  0  0  0
  1 27  1  0  0  0  0
  2  1  1  1  0  0  0
  3 23  1  6  0  0  0
  3  2  1  0  0  0  0
  4  3  1  6  0  0  0
  5 10  1  6  0  0  0
  5  7  1  0  0  0  0
  5  6  1  0  0  0  0
  6  8  1  0  0  0  0
  7  4  1  0  0  0  0
  8 16  1  6  0  0  0
  9  4  1  0  0  0  0
  9  8  1  0  0  0  0
  9 18  1  1  0  0  0
 11 10  1  0  0  0  0
 12  5  1  0  0  0  0
 12 14  1  0  0  0  0
 13 12  2  0  0  0  0
 14 15  1  0  0  0  0
 16 17  1  0  0  0  0
 18 20  1  0  0  0  0
 19 18  1  0  0  0  0
 19 21  1  0  0  0  0
 22 19  2  0  0  0  0
 24 23  1  0  0  0  0
 25  2  1  0  0  0  0
 26 25  1  0  0  0  0
 27 29  1  0  0  0  0
 27 28  1  0  0  0  0
 28 31  1  0  0  0  0
 30 28  2  0  0  0  0
 32 31  1  0  0  0  0
 33 32  1  0  0  0  0
 34 33  2  0  0  0  0
 35 33  1  0  0  0  0
 36 34  1  0  0  0  0
 37 36  1  0  0  0  0
 37 35  2  0  0  0  0
 38 40  1  0  0  0  0
 38 36  1  0  0  0  0
 39 38  2  0  0  0  0
 41 43  2  0  0  0  0
 41 39  1  0  0  0  0
 42 40  2  0  0  0  0
 43 42  1  0  0  0  0
 44 45  1  0  0  0  0
 46 45  1  0  0  0  0
 46 47  1  0  0  0  0
 47 48  1  0  0  0  0
 49 48  1  0  0  0  0
M  END
>  <REMARK>
 VINA RESULT:    -4.745      4.965      8.103
 INTER + INTRA:         -13.485
 INTER:                  -7.811
 INTRA:                  -5.674
 UNBOUND:                -5.272
 SMILES CC(=O)N[C@@H]1[C@@H](O)C[C@](O)(C(=O)O)O[C@H]1C(O)[C@H](O)CNC(=O)OCc1cn(-c2ccncc2)nn1
 SMILES IDX 20 1 18 2 16 3 15 4 9 5 8 6 14 7 6 8 5 9 10 10 11 12 12 13
 SMILES IDX 13 14 7 16 4 18 2 19 1 21 3 22 17 23 19 25 21 27 22 28 23 30
 SMILES IDX 24 31 25 32 26 33 27 34 36 35 28 36 35 37 29 38 30 39 34 40
 SMILES IDX 31 41 33 42 32 43
 H PARENT 10 11 13 15 7 17 4 20 17 24 19 26 21 29
 Flexibility Score: inf
  4 active torsions:
  status: ('A' for Active; 'I' for Inactive)
    1  A    between atoms: CA   and  CB  
    2  A    between atoms: CB   and  CG  
    3  A    between atoms: CG   and  CD  
    4  A    between atoms: CD   and  CE  

>  <TORSDO>
F 15

>  <BEGIN_>
RES LYS A 131

$$$$
ligand_56_pose_16_2HRL.pdbqt
 OpenBabel07062320523D

  6  5  0  0  0  0  0  0  0  0999 V2000
   33.1930   34.6630    9.2900 C   0  0  0  0  0  0  0  0  0  0  0  0
   32.0600   35.3600   10.0340 C   0  0  0  0  0  0  0  0  0  0  0  0
   30.7070   34.7460    9.7830 C   0  0  0  0  0  0  0  0  0  0  0  0
   30.4850   34.5260    8.2950 C   0  0  0  0  0  0  0  0  0  0  0  0
   29.0690   34.9050    7.9050 C   0  0  0  0  0  0  0  0  0  0  0  0
   28.0750   34.2790    8.8200 N   0  0  0  0  0  0  0  0  0  0  0  0
  1  2  1  0  0  0  0
  3  2  1  0  0  0  0
  4  3  1  0  0  0  0
  5  4  1  0  0  0  0
  5  6  1  0  0  0  0
M  END
>  <EGIN_R>
ES LYS A 135

>  <REMARK>
  4 active torsions:
  status: ('A' for Active; 'I' for Inactive)
    5  A    between atoms: CA   and  CB  
    6  A    between atoms: CB   and  CG  
    7  A    between atoms: CG   and  CD  
    8  A    between atoms: CD   and  CE  

$$$$
