ligand_44_pose_12_2HRL.pdbqt
 OpenBabel07062320523D

 51 52  0  0  1  0  0  0  0  0999 V2000
   28.7600   31.3180   18.1940 N   0  0  0  0  0  0  0  0  0  0  0  0
   27.8980   30.4230   17.5160 C   0  0  0  0  0  0  0  0  0  0  0  0
   28.2120   29.6880   16.5610 O   0  0  0  0  0  0  0  0  0  0  0  0
   28.3830   31.8990   19.0080 H   0  0  0  0  0  0  0  0  0  0  0  0
   30.1260   31.4440   17.7920 C   0  0  0  0  0  0  0  0  0  0  0  0
   30.4360   32.6620   16.9590 C   0  0  2  0  0  0  0  0  0  0  0  0
   30.3580   32.4160   15.4960 C   0  0  1  0  0  0  0  0  0  0  0  0
   29.6920   33.4180   14.6390 C   0  0  2  0  0  0  0  0  0  0  0  0
   31.1200   35.1580   14.1340 C   0  0  2  0  0  0  0  0  0  0  0  0
   30.0240   36.0800   13.6480 C   0  0  0  0  0  0  0  0  0  0  0  0
   30.6990   33.8870   13.7790 O   0  0  0  0  0  0  0  0  0  0  0  0
   28.8120   35.7620   14.4550 C   0  0  1  0  0  0  0  0  0  0  0  0
   28.8810   34.4720   15.2490 C   0  0  1  0  0  0  0  0  0  0  0  0
   31.2670   35.3620   15.4880 O   0  0  0  0  0  0  0  0  0  0  0  0
   31.4270   36.2880   15.7480 H   0  0  0  0  0  0  0  0  0  0  0  0
   32.3480   35.4820   13.3700 C   0  0  0  0  0  0  0  0  0  0  0  0
   33.4540   34.9390   13.5890 O   0  0  0  0  0  0  0  0  0  0  0  0
   32.2360   36.4400   12.3670 O   0  0  0  0  0  0  0  0  0  0  0  0
   32.2250   36.2130   11.3860 H   0  0  0  0  0  0  0  0  0  0  0  0
   28.6660   36.8020   15.4020 O   0  0  0  0  0  0  0  0  0  0  0  0
   29.5220   37.0550   15.8010 H   0  0  0  0  0  0  0  0  0  0  0  0
   27.4550   34.0830   15.3250 N   0  0  0  0  0  0  0  0  0  0  0  0
   26.7810   33.8710   16.5330 C   0  0  0  0  0  0  0  0  0  0  0  0
   26.9890   33.9770   14.3920 H   0  0  0  0  0  0  0  0  0  0  0  0
   25.3420   33.4730   16.5030 C   0  0  0  0  0  0  0  0  0  0  0  0
   27.3640   34.0120   17.6180 O   0  0  0  0  0  0  0  0  0  0  0  0
   31.5750   31.9250   15.0470 O   0  0  0  0  0  0  0  0  0  0  0  0
   32.2750   32.0810   15.7440 H   0  0  0  0  0  0  0  0  0  0  0  0
   31.5530   33.3720   17.3640 O   0  0  0  0  0  0  0  0  0  0  0  0
   31.3530   34.2810   17.6630 H   0  0  0  0  0  0  0  0  0  0  0  0
   26.5740   30.3400   17.9450 O   0  0  0  0  0  0  0  0  0  0  0  0
   25.7050   29.3480   17.4540 C   0  0  0  0  0  0  0  0  0  0  0  0
   24.8370   29.8590   16.3780 C   0  0  0  0  0  0  0  0  0  0  0  0
   25.0860   30.0710   15.0420 C   0  0  0  0  0  0  0  0  0  0  0  0
   23.5530   30.2230   16.6040 N   0  0  0  0  0  0  0  0  0  0  0  0
   23.9460   30.5560   14.4990 N   0  0  0  0  0  0  0  0  0  0  0  0
   23.0540   30.6310   15.4680 N   0  0  0  0  0  0  0  0  0  0  0  0
   23.7800   30.9150   13.1060 C   0  0  0  0  0  0  0  0  0  0  0  0
   22.3840   30.5350   12.7090 C   0  0  0  0  0  0  0  0  0  0  0  0
   22.1010   29.2090   12.4200 C   0  0  0  0  0  0  0  0  0  0  0  0
   21.4070   31.5050   12.6400 C   0  0  0  0  0  0  0  0  0  0  0  0
   20.8190   28.8850   12.0600 C   0  0  0  0  0  0  0  0  0  0  0  0
   20.1020   31.1770   12.2740 C   0  0  0  0  0  0  0  0  0  0  0  0
   19.8480   29.8570   11.9920 C   0  0  0  0  0  0  0  0  0  0  0  0
   18.0680   29.3750   11.4880 Br  0  0  0  0  0  0  0  0  0  0  0  0
   29.8670   25.5550   16.9770 C   0  0  0  0  0  0  0  0  0  0  0  0
   28.3450   25.7220   17.0260 C   0  0  0  0  0  0  0  0  0  0  0  0
   27.6010   24.4050   16.8710 C   0  0  0  0  0  0  0  0  0  0  0  0
   26.5520   24.2180   17.9320 C   0  0  0  0  0  0  0  0  0  0  0  0
   25.1710   24.4550   17.3290 C   0  0  0  0  0  0  0  0  0  0  0  0
   24.4570   23.1690   17.1450 N   0  0  0  0  0  0  0  0  0  0  0  0
  1  4  1  0  0  0  0
  2 31  1  0  0  0  0
  2  1  1  0  0  0  0
  3  2  2  0  0  0  0
  5  1  1  0  0  0  0
  6 29  1  0  0  0  0
  6  5  1  1  0  0  0
  7 27  1  6  0  0  0
  7  6  1  0  0  0  0
  8 13  1  0  0  0  0
  8  7  1  1  0  0  0
  9 16  1  6  0  0  0
  9 14  1  0  0  0  0
 10  9  1  0  0  0  0
 10 12  1  0  0  0  0
 11  9  1  0  0  0  0
 11  8  1  0  0  0  0
 12 13  1  0  0  0  0
 12 20  1  1  0  0  0
 13 22  1  6  0  0  0
 14 15  1  0  0  0  0
 16 17  2  0  0  0  0
 18 16  1  0  0  0  0
 19 18  1  0  0  0  0
 20 21  1  0  0  0  0
 22 23  1  0  0  0  0
 23 26  2  0  0  0  0
 24 22  1  0  0  0  0
 25 23  1  0  0  0  0
 27 28  1  0  0  0  0
 29 30  1  0  0  0  0
 32 31  1  0  0  0  0
 33 35  1  0  0  0  0
 33 32  1  0  0  0  0
 34 33  2  0  0  0  0
 36 34  1  0  0  0  0
 36 37  1  0  0  0  0
 37 35  2  0  0  0  0
 38 36  1  0  0  0  0
 39 38  1  0  0  0  0
 40 39  2  0  0  0  0
 41 39  1  0  0  0  0
 42 40  1  0  0  0  0
 43 41  2  0  0  0  0
 44 42  2  0  0  0  0
 44 43  1  0  0  0  0
 45 44  1  0  0  0  0
 46 47  1  0  0  0  0
 48 47  1  0  0  0  0
 48 49  1  0  0  0  0
 50 49  1  0  0  0  0
 51 50  1  0  0  0  0
M  END
>  <REMARK>
 VINA RESULT:    -4.508      1.828      3.071
 INTER + INTRA:         -14.463
 INTER:                  -9.053
 INTRA:                  -5.410
 UNBOUND:                -6.398
 SMILES CC(=O)N[C@@H]1[C@@H](O)C[C@](O)(C(=O)O)O[C@H]1C(O)[C@H](O)CNC(=O)OCc1cn(Cc2ccc(Br)cc2)nn1
 SMILES IDX 21 1 22 2 23 3 20 5 18 6 16 7 15 8 9 9 8 10 14 11 6 12 5 13
 SMILES IDX 10 14 11 16 12 17 13 18 7 20 4 22 2 23 1 25 3 26 17 27 19 29
 SMILES IDX 24 31 25 32 26 33 27 34 38 35 28 36 37 37 29 38 30 39 31 40
 SMILES IDX 36 41 32 42 35 43 33 44 34 45
 H PARENT 21 4 10 15 13 19 7 21 4 24 17 28 19 30
 Flexibility Score: inf
  4 active torsions:
  status: ('A' for Active; 'I' for Inactive)
    1  A    between atoms: CA   and  CB  
    2  A    between atoms: CB   and  CG  
    3  A    between atoms: CG   and  CD  
    4  A    between atoms: CD   and  CE  

>  <TORSDO>
F 16

>  <BEGIN_>
RES LYS A 131

$$$$
ligand_44_pose_12_2HRL.pdbqt
 OpenBabel07062320523D

  6  5  0  0  0  0  0  0  0  0999 V2000
   33.1930   34.6630    9.2900 C   0  0  0  0  0  0  0  0  0  0  0  0
   32.0600   35.3600   10.0340 C   0  0  0  0  0  0  0  0  0  0  0  0
   30.7830   35.4510    9.2390 C   0  0  0  0  0  0  0  0  0  0  0  0
   30.2200   34.0650    8.9670 C   0  0  0  0  0  0  0  0  0  0  0  0
   28.7670   33.9870    9.3960 C   0  0  0  0  0  0  0  0  0  0  0  0
   27.8660   34.5270    8.3410 N   0  0  0  0  0  0  0  0  0  0  0  0
  1  2  1  0  0  0  0
  3  2  1  0  0  0  0
  4  3  1  0  0  0  0
  4  5  1  0  0  0  0
  6  5  1  0  0  0  0
M  END
>  <EGIN_R>
ES LYS A 135

>  <REMARK>
  4 active torsions:
  status: ('A' for Active; 'I' for Inactive)
    5  A    between atoms: CA   and  CB  
    6  A    between atoms: CB   and  CG  
    7  A    between atoms: CG   and  CD  
    8  A    between atoms: CD   and  CE  

$$$$
