ligand_46_pose_3_2HRL.pdbqt
 OpenBabel07062320523D

 50 51  0  0  1  0  0  0  0  0999 V2000
   28.1100   29.1370   17.9130 N   0  0  0  0  0  0  0  0  0  0  0  0
   28.1460   30.4850   17.5030 C   0  0  0  0  0  0  0  0  0  0  0  0
   27.1350   31.2060   17.4990 O   0  0  0  0  0  0  0  0  0  0  0  0
   29.0310   28.6280   17.8770 H   0  0  0  0  0  0  0  0  0  0  0  0
   26.9150   28.4830   18.3510 C   0  0  0  0  0  0  0  0  0  0  0  0
   26.8320   28.5290   19.8600 C   0  0  2  0  0  0  0  0  0  0  0  0
   27.8150   27.5880   20.4950 C   0  0  2  0  0  0  0  0  0  0  0  0
   28.9930   28.2860   21.1320 C   0  0  2  0  0  0  0  0  0  0  0  0
   30.2950   30.1200   20.4970 C   0  0  2  0  0  0  0  0  0  0  0  0
   31.2620   29.6510   21.5960 C   0  0  0  0  0  0  0  0  0  0  0  0
   29.0730   29.6070   20.8140 O   0  0  0  0  0  0  0  0  0  0  0  0
   31.5160   28.1860   21.2460 C   0  0  1  0  0  0  0  0  0  0  0  0
   30.2200   27.4610   20.9600 C   0  0  1  0  0  0  0  0  0  0  0  0
   30.7810   29.7840   19.2500 O   0  0  0  0  0  0  0  0  0  0  0  0
   31.7560   29.6980   19.3080 H   0  0  0  0  0  0  0  0  0  0  0  0
   30.1980   31.6170   20.6380 C   0  0  0  0  0  0  0  0  0  0  0  0
   29.9740   32.1570   21.7410 O   0  0  0  0  0  0  0  0  0  0  0  0
   30.3550   32.4280   19.5310 O   0  0  0  0  0  0  0  0  0  0  0  0
   29.5790   32.9960   19.2350 H   0  0  0  0  0  0  0  0  0  0  0  0
   32.3550   28.2040   20.1320 O   0  0  0  0  0  0  0  0  0  0  0  0
   31.8110   28.1130   19.3180 H   0  0  0  0  0  0  0  0  0  0  0  0
   30.0900   26.3140   21.8770 N   0  0  0  0  0  0  0  0  0  0  0  0
   29.8790   26.4700   23.2690 C   0  0  0  0  0  0  0  0  0  0  0  0
   30.1590   25.3310   21.4870 H   0  0  0  0  0  0  0  0  0  0  0  0
   29.7420   25.3490   24.2300 C   0  0  0  0  0  0  0  0  0  0  0  0
   29.7990   27.6380   23.7250 O   0  0  0  0  0  0  0  0  0  0  0  0
   28.1950   26.6340   19.5700 O   0  0  0  0  0  0  0  0  0  0  0  0
   28.6040   25.8770   20.0550 H   0  0  0  0  0  0  0  0  0  0  0  0
   25.5110   28.2110   20.1750 O   0  0  0  0  0  0  0  0  0  0  0  0
   24.8820   28.9390   19.9720 H   0  0  0  0  0  0  0  0  0  0  0  0
   29.3420   31.0640   17.0820 O   0  0  0  0  0  0  0  0  0  0  0  0
   29.3760   31.7940   15.8790 C   0  0  0  0  0  0  0  0  0  0  0  0
   30.5280   32.7270   15.8360 C   0  0  0  0  0  0  0  0  0  0  0  0
   31.1070   33.2440   14.7090 C   0  0  0  0  0  0  0  0  0  0  0  0
   31.1930   33.2160   16.8870 N   0  0  0  0  0  0  0  0  0  0  0  0
   32.1150   34.0380   15.1060 N   0  0  0  0  0  0  0  0  0  0  0  0
   32.1440   34.0010   16.4430 N   0  0  0  0  0  0  0  0  0  0  0  0
   33.0290   34.8090   14.3020 C   0  0  0  0  0  0  0  0  0  0  0  0
   32.3760   36.0400   13.7800 C   0  0  0  0  0  0  0  0  0  0  0  0
   32.4210   36.3620   12.4280 C   0  0  0  0  0  0  0  0  0  0  0  0
   31.7020   36.9100   14.6000 C   0  0  0  0  0  0  0  0  0  0  0  0
   31.8170   37.4990   11.9520 C   0  0  0  0  0  0  0  0  0  0  0  0
   31.0900   38.0590   14.1300 C   0  0  0  0  0  0  0  0  0  0  0  0
   31.1440   38.3640   12.7890 C   0  0  0  0  0  0  0  0  0  0  0  0
   29.8670   25.5550   16.9770 C   0  0  0  0  0  0  0  0  0  0  0  0
   28.3450   25.7220   17.0260 C   0  0  0  0  0  0  0  0  0  0  0  0
   27.6010   24.4010   16.9000 C   0  0  0  0  0  0  0  0  0  0  0  0
   26.1640   24.5180   17.3250 C   0  0  0  0  0  0  0  0  0  0  0  0
   25.9460   23.7220   18.6080 C   0  0  0  0  0  0  0  0  0  0  0  0
   25.4740   24.6110   19.6960 N   0  0  0  0  0  0  0  0  0  0  0  0
  1  5  1  0  0  0  0
  2  1  1  0  0  0  0
  3  2  2  0  0  0  0
  4  1  1  0  0  0  0
  6  5  1  6  0  0  0
  6 29  1  0  0  0  0
  6  7  1  0  0  0  0
  7 27  1  6  0  0  0
  8  7  1  6  0  0  0
  9 14  1  6  0  0  0
  9 16  1  0  0  0  0
  9 11  1  0  0  0  0
  9 10  1  0  0  0  0
 11  8  1  0  0  0  0
 12 20  1  6  0  0  0
 12 10  1  0  0  0  0
 13  8  1  0  0  0  0
 13 12  1  0  0  0  0
 13 22  1  1  0  0  0
 14 15  1  0  0  0  0
 16 17  2  0  0  0  0
 18 16  1  0  0  0  0
 19 18  1  0  0  0  0
 21 20  1  0  0  0  0
 22 23  1  0  0  0  0
 23 26  2  0  0  0  0
 23 25  1  0  0  0  0
 24 22  1  0  0  0  0
 27 28  1  0  0  0  0
 30 29  1  0  0  0  0
 31  2  1  0  0  0  0
 32 31  1  0  0  0  0
 33 32  1  0  0  0  0
 33 35  1  0  0  0  0
 34 36  1  0  0  0  0
 34 33  2  0  0  0  0
 36 37  1  0  0  0  0
 37 35  2  0  0  0  0
 38 36  1  0  0  0  0
 39 38  1  0  0  0  0
 39 41  2  0  0  0  0
 40 39  1  0  0  0  0
 42 40  2  0  0  0  0
 42 44  1  0  0  0  0
 43 41  1  0  0  0  0
 44 43  2  0  0  0  0
 45 46  1  0  0  0  0
 47 46  1  0  0  0  0
 47 48  1  0  0  0  0
 48 49  1  0  0  0  0
 49 50  1  0  0  0  0
M  END
>  <REMARK>
 VINA RESULT:    -5.496      7.697     13.489
 INTER + INTRA:         -15.124
 INTER:                  -9.759
 INTRA:                  -5.364
 UNBOUND:                -5.290
 SMILES CC(=O)N[C@@H]1[C@@H](O)C[C@](O)(C(=O)O)O[C@H]1C(O)[C@H](O)CNC(=O)OCc1cn(Cc2ccccc2)nn1
 SMILES IDX 21 1 22 2 23 3 20 5 18 6 16 7 15 8 9 9 8 10 14 11 6 12 5 13
 SMILES IDX 10 14 11 16 12 17 13 18 7 20 4 22 2 23 1 25 3 26 17 27 19 29
 SMILES IDX 24 31 25 32 26 33 27 34 37 35 28 36 36 37 29 38 30 39 31 40
 SMILES IDX 35 41 32 42 34 43 33 44
 H PARENT 21 4 10 15 13 19 7 21 4 24 17 28 19 30
 Flexibility Score: inf
  4 active torsions:
  status: ('A' for Active; 'I' for Inactive)
    1  A    between atoms: CA   and  CB  
    2  A    between atoms: CB   and  CG  
    3  A    between atoms: CG   and  CD  
    4  A    between atoms: CD   and  CE  

>  <TORSDO>
F 16

>  <BEGIN_>
RES LYS A 131

$$$$
ligand_46_pose_3_2HRL.pdbqt
 OpenBabel07062320523D

  6  5  0  0  0  0  0  0  0  0999 V2000
   33.1930   34.6630    9.2900 C   0  0  0  0  0  0  0  0  0  0  0  0
   32.0600   35.3600   10.0340 C   0  0  0  0  0  0  0  0  0  0  0  0
   30.8570   35.6420    9.1720 C   0  0  0  0  0  0  0  0  0  0  0  0
   30.3170   34.3550    8.5660 C   0  0  0  0  0  0  0  0  0  0  0  0
   28.8450   34.5010    8.2300 C   0  0  0  0  0  0  0  0  0  0  0  0
   28.6530   35.3530    7.0240 N   0  0  0  0  0  0  0  0  0  0  0  0
  1  2  1  0  0  0  0
  3  2  1  0  0  0  0
  4  3  1  0  0  0  0
  5  4  1  0  0  0  0
  6  5  1  0  0  0  0
M  END
>  <EGIN_R>
ES LYS A 135

>  <REMARK>
  4 active torsions:
  status: ('A' for Active; 'I' for Inactive)
    5  A    between atoms: CA   and  CB  
    6  A    between atoms: CB   and  CG  
    7  A    between atoms: CG   and  CD  
    8  A    between atoms: CD   and  CE  

$$$$
