ligand_23_pose_8_2HRL.pdbqt
 OpenBabel07062320523D

 55 56  0  0  1  0  0  0  0  0999 V2000
   29.1890   34.9080   13.8170 N   0  0  0  0  0  0  0  0  0  0  0  0
   30.3760   35.6810   13.9010 C   0  0  0  0  0  0  0  0  0  0  0  0
   30.7260   36.3530   12.9160 O   0  0  0  0  0  0  0  0  0  0  0  0
   28.9520   34.3650   14.6910 H   0  0  0  0  0  0  0  0  0  0  0  0
   28.3670   34.8640   12.6350 C   0  0  0  0  0  0  0  0  0  0  0  0
   26.9510   35.3010   12.9420 C   0  0  2  0  0  0  0  0  0  0  0  0
   26.0570   34.0720   13.0310 C   0  0  1  0  0  0  0  0  0  0  0  0
   25.5340   33.9590   14.4610 C   0  0  2  0  0  0  0  0  0  0  0  0
   27.0290   33.6250   16.2010 C   0  0  2  0  0  0  0  0  0  0  0  0
   26.0430   32.8110   17.0060 C   0  0  0  0  0  0  0  0  0  0  0  0
   26.4150   34.5110   15.3390 O   0  0  0  0  0  0  0  0  0  0  0  0
   24.8310   32.4240   16.2280 C   0  0  1  0  0  0  0  0  0  0  0  0
   25.1590   32.5350   14.7390 C   0  0  1  0  0  0  0  0  0  0  0  0
   27.9160   32.8170   15.4960 O   0  0  0  0  0  0  0  0  0  0  0  0
   28.8560   33.0790   15.7470 H   0  0  0  0  0  0  0  0  0  0  0  0
   27.8230   34.4260   17.1710 C   0  0  0  0  0  0  0  0  0  0  0  0
   27.8770   34.1210   18.3910 O   0  0  0  0  0  0  0  0  0  0  0  0
   28.5460   35.5530   16.7770 O   0  0  0  0  0  0  0  0  0  0  0  0
   28.0760   36.4370   16.6260 H   0  0  0  0  0  0  0  0  0  0  0  0
   24.3440   31.1640   16.5280 O   0  0  0  0  0  0  0  0  0  0  0  0
   23.4700   31.1830   17.0100 H   0  0  0  0  0  0  0  0  0  0  0  0
   23.9630   32.2380   13.9690 N   0  0  0  0  0  0  0  0  0  0  0  0
   23.7210   30.9550   13.3970 C   0  0  0  0  0  0  0  0  0  0  0  0
   23.2460   33.0030   13.8290 H   0  0  0  0  0  0  0  0  0  0  0  0
   22.4630   30.7650   12.6300 C   0  0  0  0  0  0  0  0  0  0  0  0
   24.5730   30.0670   13.5710 O   0  0  0  0  0  0  0  0  0  0  0  0
   24.9770   34.2740   12.1900 O   0  0  0  0  0  0  0  0  0  0  0  0
   24.5730   33.4190   11.9110 H   0  0  0  0  0  0  0  0  0  0  0  0
   26.5140   36.1310   11.8950 O   0  0  0  0  0  0  0  0  0  0  0  0
   25.5080   36.1510   11.8490 H   0  0  0  0  0  0  0  0  0  0  0  0
   31.1520   35.7010   15.0640 O   0  0  0  0  0  0  0  0  0  0  0  0
   32.1240   34.7070   15.3140 C   0  0  0  0  0  0  0  0  0  0  0  0
   31.4710   33.4710   15.8150 C   0  0  0  0  0  0  0  0  0  0  0  0
   31.1420   33.2280   17.1340 C   0  0  0  0  0  0  0  0  0  0  0  0
   31.0860   32.3900   15.1270 N   0  0  0  0  0  0  0  0  0  0  0  0
   30.5780   32.0110   17.1480 N   0  0  0  0  0  0  0  0  0  0  0  0
   30.5390   31.4910   15.9310 N   0  0  0  0  0  0  0  0  0  0  0  0
   30.0810   31.3460   18.3080 C   0  0  0  0  0  0  0  0  0  0  0  0
   28.9390   30.5750   18.2940 C   0  0  0  0  0  0  0  0  0  0  0  0
   30.7470   31.4570   19.5170 C   0  0  0  0  0  0  0  0  0  0  0  0
   28.4600   29.9280   19.4320 C   0  0  0  0  0  0  0  0  0  0  0  0
   30.2970   30.8310   20.6480 C   0  0  0  0  0  0  0  0  0  0  0  0
   29.1540   30.0690   20.6020 C   0  0  0  0  0  0  0  0  0  0  0  0
   27.0220   28.9590   19.4070 S   0  0  0  0  0  0  0  0  0  0  0  0
   27.3960   27.5700   18.9570 O   0  0  0  0  0  0  0  0  0  0  0  0
   26.0720   29.5030   18.3670 O   0  0  0  0  0  0  0  0  0  0  0  0
   26.2860   28.8710   20.9550 N   0  0  0  0  0  0  0  0  0  0  0  0
   25.9580   29.8110   21.2410 H   0  0  0  0  0  0  0  0  0  0  0  0
   26.9140   28.4530   21.6730 H   0  0  0  0  0  0  0  0  0  0  0  0
   29.8670   25.5550   16.9770 C   0  0  0  0  0  0  0  0  0  0  0  0
   28.3450   25.7220   17.0260 C   0  0  0  0  0  0  0  0  0  0  0  0
   27.6010   24.4010   16.9030 C   0  0  0  0  0  0  0  0  0  0  0  0
   26.1550   24.5260   17.2950 C   0  0  0  0  0  0  0  0  0  0  0  0
   25.6780   23.2140   17.9080 C   0  0  0  0  0  0  0  0  0  0  0  0
   24.4070   22.7800   17.2820 N   0  0  0  0  0  0  0  0  0  0  0  0
  1  2  1  0  0  0  0
  1  4  1  0  0  0  0
  2 31  1  0  0  0  0
  3  2  2  0  0  0  0
  5  1  1  0  0  0  0
  6  5  1  6  0  0  0
  6  7  1  0  0  0  0
  7 27  1  6  0  0  0
  8  7  1  6  0  0  0
  8 13  1  0  0  0  0
  8 11  1  0  0  0  0
  9 14  1  6  0  0  0
  9 10  1  0  0  0  0
  9 16  1  0  0  0  0
 11  9  1  0  0  0  0
 12 20  1  6  0  0  0
 12 10  1  0  0  0  0
 13 22  1  6  0  0  0
 13 12  1  0  0  0  0
 14 15  1  0  0  0  0
 16 17  2  0  0  0  0
 18 16  1  0  0  0  0
 19 18  1  0  0  0  0
 20 21  1  0  0  0  0
 23 26  2  0  0  0  0
 23 22  1  0  0  0  0
 24 22  1  0  0  0  0
 25 23  1  0  0  0  0
 28 27  1  0  0  0  0
 29  6  1  0  0  0  0
 30 29  1  0  0  0  0
 31 32  1  0  0  0  0
 32 33  1  0  0  0  0
 33 34  2  0  0  0  0
 34 36  1  0  0  0  0
 35 33  1  0  0  0  0
 35 37  2  0  0  0  0
 36 38  1  0  0  0  0
 37 36  1  0  0  0  0
 38 40  1  0  0  0  0
 39 38  2  0  0  0  0
 39 41  1  0  0  0  0
 40 42  2  0  0  0  0
 41 43  2  0  0  0  0
 43 42  1  0  0  0  0
 44 41  1  0  0  0  0
 44 47  1  0  0  0  0
 45 44  2  0  0  0  0
 46 44  2  0  0  0  0
 47 48  1  0  0  0  0
 47 49  1  0  0  0  0
 50 51  1  0  0  0  0
 52 51  1  0  0  0  0
 52 53  1  0  0  0  0
 53 54  1  0  0  0  0
 55 54  1  0  0  0  0
M  END
>  <REMARK>
 VINA RESULT:    -4.460      3.486      6.915
 INTER + INTRA:         -14.733
 INTER:                  -7.115
 INTRA:                  -7.618
 UNBOUND:                -6.624
 SMILES CC(=O)N[C@@H]1[C@@H](O)C[C@](O)(C(=O)O)O[C@H]1C(O)[C@H](O)CNC(=O)OCc1cn(-c2cccc(S(N)(=O)=O)c2)nn1
 SMILES IDX 21 1 22 2 23 3 20 5 18 6 16 7 15 8 9 9 8 10 14 11 6 12 5 13
 SMILES IDX 10 14 11 16 12 17 13 18 7 20 4 22 2 23 1 25 3 26 17 27 19 29
 SMILES IDX 24 31 25 32 26 33 27 34 40 35 28 36 39 37 29 38 38 39 30 40
 SMILES IDX 33 41 31 42 32 43 34 44 36 45 37 46 35 47
 H PARENT 21 4 10 15 13 19 7 21 4 24 17 28 19 30 35 48 35 49
 Flexibility Score: inf
  4 active torsions:
  status: ('A' for Active; 'I' for Inactive)
    1  A    between atoms: CA   and  CB  
    2  A    between atoms: CB   and  CG  
    3  A    between atoms: CG   and  CD  
    4  A    between atoms: CD   and  CE  

>  <TORSDO>
F 17

>  <BEGIN_>
RES LYS A 131

$$$$
ligand_23_pose_8_2HRL.pdbqt
 OpenBabel07062320523D

  6  5  0  0  0  0  0  0  0  0999 V2000
   33.1930   34.6630    9.2900 C   0  0  0  0  0  0  0  0  0  0  0  0
   32.0600   35.3600   10.0340 C   0  0  0  0  0  0  0  0  0  0  0  0
   30.7080   34.7410    9.7890 C   0  0  0  0  0  0  0  0  0  0  0  0
   30.4790   34.5240    8.3010 C   0  0  0  0  0  0  0  0  0  0  0  0
   29.0460   34.8540    7.9290 C   0  0  0  0  0  0  0  0  0  0  0  0
   28.0890   34.2630    8.9040 N   0  0  0  0  0  0  0  0  0  0  0  0
  1  2  1  0  0  0  0
  3  2  1  0  0  0  0
  4  3  1  0  0  0  0
  5  4  1  0  0  0  0
  5  6  1  0  0  0  0
M  END
>  <EGIN_R>
ES LYS A 135

>  <REMARK>
  4 active torsions:
  status: ('A' for Active; 'I' for Inactive)
    5  A    between atoms: CA   and  CB  
    6  A    between atoms: CB   and  CG  
    7  A    between atoms: CG   and  CD  
    8  A    between atoms: CD   and  CE  

$$$$
