ligand_24_pose_19_2HRL.pdbqt
 OpenBabel07062320523D

 52 53  0  0  1  0  0  0  0  0999 V2000
   30.1710   30.7350   18.0080 N   0  0  0  0  0  0  0  0  0  0  0  0
   29.2010   30.3960   18.9750 C   0  0  0  0  0  0  0  0  0  0  0  0
   27.9800   30.2760   18.7110 O   0  0  0  0  0  0  0  0  0  0  0  0
   31.1610   30.8140   18.3400 H   0  0  0  0  0  0  0  0  0  0  0  0
   29.8870   30.9720   16.6280 C   0  0  0  0  0  0  0  0  0  0  0  0
   30.8280   31.9020   15.9420 C   0  0  2  0  0  0  0  0  0  0  0  0
   31.1100   33.1500   16.7500 C   0  0  1  0  0  0  0  0  0  0  0  0
   31.7470   34.2490   15.9780 C   0  0  2  0  0  0  0  0  0  0  0  0
   33.2280   34.7290   14.2650 C   0  0  2  0  0  0  0  0  0  0  0  0
   33.8490   35.8600   15.0340 C   0  0  0  0  0  0  0  0  0  0  0  0
   32.6260   33.7660   15.0110 O   0  0  0  0  0  0  0  0  0  0  0  0
   33.0170   36.2830   16.2260 C   0  0  1  0  0  0  0  0  0  0  0  0
   32.6280   35.0400   16.9520 C   0  0  1  0  0  0  0  0  0  0  0  0
   34.3150   34.0950   13.6080 O   0  0  0  0  0  0  0  0  0  0  0  0
   34.6390   33.4110   14.2430 H   0  0  0  0  0  0  0  0  0  0  0  0
   32.3870   35.3160   13.1950 C   0  0  0  0  0  0  0  0  0  0  0  0
   32.3080   36.5650   13.0040 O   0  0  0  0  0  0  0  0  0  0  0  0
   31.6310   34.5210   12.3350 O   0  0  0  0  0  0  0  0  0  0  0  0
   32.0520   34.0790   11.5410 H   0  0  0  0  0  0  0  0  0  0  0  0
   33.7310   37.1770   17.0010 O   0  0  0  0  0  0  0  0  0  0  0  0
   34.6740   36.9540   16.9720 H   0  0  0  0  0  0  0  0  0  0  0  0
   32.0220   35.2540   18.2260 N   0  0  0  0  0  0  0  0  0  0  0  0
   32.7100   35.3800   19.4410 C   0  0  0  0  0  0  0  0  0  0  0  0
   30.9690   35.3280   18.2600 H   0  0  0  0  0  0  0  0  0  0  0  0
   31.9620   35.6020   20.7000 C   0  0  0  0  0  0  0  0  0  0  0  0
   33.9420   35.3070   19.4680 O   0  0  0  0  0  0  0  0  0  0  0  0
   29.9450   33.5760   17.3510 O   0  0  0  0  0  0  0  0  0  0  0  0
   30.0050   34.4310   17.8310 H   0  0  0  0  0  0  0  0  0  0  0  0
   30.4790   32.1880   14.6560 O   0  0  0  0  0  0  0  0  0  0  0  0
   30.7550   31.4110   14.0820 H   0  0  0  0  0  0  0  0  0  0  0  0
   29.5990   30.1770   20.3070 O   0  0  0  0  0  0  0  0  0  0  0  0
   30.0260   28.8840   20.6720 C   0  0  0  0  0  0  0  0  0  0  0  0
   31.1870   28.9110   21.5790 C   0  0  0  0  0  0  0  0  0  0  0  0
   32.4410   29.4750   21.3300 C   0  0  0  0  0  0  0  0  0  0  0  0
   31.2780   28.4000   22.8190 N   0  0  0  0  0  0  0  0  0  0  0  0
   33.2200   29.2880   22.4040 N   0  0  0  0  0  0  0  0  0  0  0  0
   32.4940   28.6350   23.2900 N   0  0  0  0  0  0  0  0  0  0  0  0
   34.5860   29.7040   22.5870 C   0  0  0  0  0  0  0  0  0  0  0  0
   34.7080   31.1770   22.5990 C   0  0  0  0  0  0  0  0  0  0  0  0
   34.0240   31.9270   23.5290 C   0  0  0  0  0  0  0  0  0  0  0  0
   35.5070   31.8010   21.6760 C   0  0  0  0  0  0  0  0  0  0  0  0
   34.1450   33.3140   23.5330 C   0  0  0  0  0  0  0  0  0  0  0  0
   35.6370   33.1890   21.6700 C   0  0  0  0  0  0  0  0  0  0  0  0
   34.9570   33.9350   22.5970 C   0  0  0  0  0  0  0  0  0  0  0  0
   35.0650   35.3270   22.6170 O   0  0  0  0  0  0  0  0  0  0  0  0
   35.5720   35.9700   23.7740 C   0  0  0  0  0  0  0  0  0  0  0  0
   29.8670   25.5550   16.9770 C   0  0  0  0  0  0  0  0  0  0  0  0
   28.3450   25.7220   17.0260 C   0  0  0  0  0  0  0  0  0  0  0  0
   27.6160   24.4160   17.3000 C   0  0  0  0  0  0  0  0  0  0  0  0
   26.6040   24.5530   18.4040 C   0  0  0  0  0  0  0  0  0  0  0  0
   25.8260   23.2480   18.5470 C   0  0  0  0  0  0  0  0  0  0  0  0
   25.0280   22.9850   17.3260 N   0  0  0  0  0  0  0  0  0  0  0  0
  1  4  1  0  0  0  0
  1  2  1  0  0  0  0
  2 31  1  0  0  0  0
  3  2  2  0  0  0  0
  5  1  1  0  0  0  0
  6  5  1  1  0  0  0
  6  7  1  0  0  0  0
  7 27  1  6  0  0  0
  8  7  1  1  0  0  0
  8 13  1  0  0  0  0
  9 16  1  6  0  0  0
  9 11  1  0  0  0  0
  9 10  1  0  0  0  0
 10 12  1  0  0  0  0
 11  8  1  0  0  0  0
 12 13  1  0  0  0  0
 12 20  1  1  0  0  0
 13 22  1  1  0  0  0
 14 15  1  0  0  0  0
 14  9  1  0  0  0  0
 17 16  2  0  0  0  0
 18 16  1  0  0  0  0
 19 18  1  0  0  0  0
 21 20  1  0  0  0  0
 22 24  1  0  0  0  0
 22 23  1  0  0  0  0
 23 26  2  0  0  0  0
 23 25  1  0  0  0  0
 27 28  1  0  0  0  0
 29  6  1  0  0  0  0
 30 29  1  0  0  0  0
 31 32  1  0  0  0  0
 32 33  1  0  0  0  0
 33 35  1  0  0  0  0
 34 33  2  0  0  0  0
 34 36  1  0  0  0  0
 35 37  2  0  0  0  0
 36 38  1  0  0  0  0
 36 37  1  0  0  0  0
 38 39  1  0  0  0  0
 39 40  2  0  0  0  0
 40 42  1  0  0  0  0
 41 39  1  0  0  0  0
 43 41  2  0  0  0  0
 43 44  1  0  0  0  0
 44 45  1  0  0  0  0
 44 42  2  0  0  0  0
 45 46  1  0  0  0  0
 47 48  1  0  0  0  0
 48 49  1  0  0  0  0
 49 50  1  0  0  0  0
 50 51  1  0  0  0  0
 52 51  1  0  0  0  0
M  END
>  <REMARK>
 VINA RESULT:    -4.818      3.499      7.333
 INTER + INTRA:         -14.178
 INTER:                  -8.581
 INTRA:                  -5.598
 UNBOUND:                -5.276
 SMILES COc1ccc(Cn2cc(COC(=O)NC[C@@H](O)C(O)[C@@H]3O[C@@](O)(C(=O)O)C[C@H](O)[C@H]3NC(C)=O)nn2)cc1
 SMILES IDX 15 1 13 2 14 3 16 5 17 6 19 7 21 8 23 9 28 10 22 11 29 12
 SMILES IDX 31 13 24 14 25 16 26 17 27 18 30 20 32 22 33 23 34 25 35 26
 SMILES IDX 20 27 18 29 12 31 11 32 10 33 9 34 36 35 8 36 37 37 7 38
 SMILES IDX 6 39 5 40 38 41 4 42 39 43 3 44 2 45 1 46
 H PARENT 15 4 24 15 27 19 30 21 32 24 20 28 18 30
 Flexibility Score: inf
  4 active torsions:
  status: ('A' for Active; 'I' for Inactive)
    1  A    between atoms: CA   and  CB  
    2  A    between atoms: CB   and  CG  
    3  A    between atoms: CG   and  CD  
    4  A    between atoms: CD   and  CE  

>  <TORSDO>
F 17

>  <BEGIN_>
RES LYS A 131

$$$$
ligand_24_pose_19_2HRL.pdbqt
 OpenBabel07062320523D

  6  5  0  0  0  0  0  0  0  0999 V2000
   33.1930   34.6630    9.2900 C   0  0  0  0  0  0  0  0  0  0  0  0
   32.0600   35.3600   10.0340 C   0  0  0  0  0  0  0  0  0  0  0  0
   30.8850   35.7050    9.1560 C   0  0  0  0  0  0  0  0  0  0  0  0
   30.3880   34.4730    8.4150 C   0  0  0  0  0  0  0  0  0  0  0  0
   28.8730   34.4690    8.3450 C   0  0  0  0  0  0  0  0  0  0  0  0
   28.2840   33.7460    9.5060 N   0  0  0  0  0  0  0  0  0  0  0  0
  1  2  1  0  0  0  0
  3  2  1  0  0  0  0
  4  3  1  0  0  0  0
  5  4  1  0  0  0  0
  5  6  1  0  0  0  0
M  END
>  <EGIN_R>
ES LYS A 135

>  <REMARK>
  4 active torsions:
  status: ('A' for Active; 'I' for Inactive)
    5  A    between atoms: CA   and  CB  
    6  A    between atoms: CB   and  CG  
    7  A    between atoms: CG   and  CD  
    8  A    between atoms: CD   and  CE  

$$$$
