ligand_31_pose_13_2HRL.pdbqt
 OpenBabel07062320523D

 57 58  0  0  1  0  0  0  0  0999 V2000
   20.2650   30.6400   14.4100 O   0  0  0  0  0  0  0  0  0  0  0  0
   20.2210   31.9950   14.1010 C   0  0  0  0  0  0  0  0  0  0  0  0
   21.1100   32.9540   14.6080 N   0  0  0  0  0  0  0  0  0  0  0  0
   21.8590   32.6700   15.2550 H   0  0  0  0  0  0  0  0  0  0  0  0
   19.3180   32.3780   13.3120 O   0  0  0  0  0  0  0  0  0  0  0  0
   20.9720   34.3600   14.2150 C   0  0  0  0  0  0  0  0  0  0  0  0
   22.2150   34.7830   13.4790 C   0  0  2  0  0  0  0  0  0  0  0  0
   22.1040   34.5760   11.9940 C   0  0  1  0  0  0  0  0  0  0  0  0
   23.3550   34.9600   11.2580 C   0  0  2  0  0  0  0  0  0  0  0  0
   25.3320   36.1400   11.6580 C   0  0  2  0  0  0  0  0  0  0  0  0
   25.5020   36.4270   10.2020 C   0  0  0  0  0  0  0  0  0  0  0  0
   24.0630   35.8720   12.0610 O   0  0  0  0  0  0  0  0  0  0  0  0
   24.4760   35.8530    9.3100 C   0  0  1  0  0  0  0  0  0  0  0  0
   23.1170   35.7100    9.9700 C   0  0  1  0  0  0  0  0  0  0  0  0
   25.7120   37.3350   12.3220 O   0  0  0  0  0  0  0  0  0  0  0  0
   24.9330   37.7550   12.7620 H   0  0  0  0  0  0  0  0  0  0  0  0
   26.2460   35.0800   12.1490 C   0  0  0  0  0  0  0  0  0  0  0  0
   27.4960   35.1520   11.9750 O   0  0  0  0  0  0  0  0  0  0  0  0
   25.7950   33.9510   12.8230 O   0  0  0  0  0  0  0  0  0  0  0  0
   24.8000   33.7950   12.9390 H   0  0  0  0  0  0  0  0  0  0  0  0
   24.3550   36.6450    8.1490 O   0  0  0  0  0  0  0  0  0  0  0  0
   23.5630   36.4050    7.6270 H   0  0  0  0  0  0  0  0  0  0  0  0
   22.1810   35.1220    9.0750 N   0  0  0  0  0  0  0  0  0  0  0  0
   20.9970   35.8520    8.7400 C   0  0  0  0  0  0  0  0  0  0  0  0
   22.2940   34.1880    8.6280 H   0  0  0  0  0  0  0  0  0  0  0  0
   19.9650   35.3290    7.8200 C   0  0  0  0  0  0  0  0  0  0  0  0
   20.8050   36.9980    9.2420 O   0  0  0  0  0  0  0  0  0  0  0  0
   21.5990   33.3370   11.6420 O   0  0  0  0  0  0  0  0  0  0  0  0
   21.1280   33.3290   10.7710 H   0  0  0  0  0  0  0  0  0  0  0  0
   23.2310   33.8840   13.9050 O   0  0  0  0  0  0  0  0  0  0  0  0
   23.4180   34.1690   14.8520 H   0  0  0  0  0  0  0  0  0  0  0  0
   21.0840   29.7460   13.6860 C   0  0  0  0  0  0  0  0  0  0  0  0
   22.4860   30.2050   13.8010 C   0  0  0  0  0  0  0  0  0  0  0  0
   23.3620   29.9360   14.8170 C   0  0  0  0  0  0  0  0  0  0  0  0
   23.1430   30.9730   12.9180 N   0  0  0  0  0  0  0  0  0  0  0  0
   24.5250   30.5450   14.5240 N   0  0  0  0  0  0  0  0  0  0  0  0
   24.3880   31.1740   13.3680 N   0  0  0  0  0  0  0  0  0  0  0  0
   25.7530   30.5340   15.3240 C   0  0  0  0  0  0  0  0  0  0  0  0
   25.8100   31.8350   16.0810 C   0  0  0  0  0  0  0  0  0  0  0  0
   26.5200   32.8140   15.2980 N   0  0  0  0  0  0  0  0  0  0  0  0
   27.4560   33.7330   15.8280 C   0  0  0  0  0  0  0  0  0  0  0  0
   26.3500   32.8720   14.2540 H   0  0  0  0  0  0  0  0  0  0  0  0
   27.6920   33.6960   17.0730 O   0  0  0  0  0  0  0  0  0  0  0  0
   28.1020   34.6620   14.9730 N   0  0  0  0  0  0  0  0  0  0  0  0
   27.9280   34.7130   13.9530 H   0  0  0  0  0  0  0  0  0  0  0  0
   29.0530   35.5860   15.5510 C   0  0  0  0  0  0  0  0  0  0  0  0
   30.4170   35.1190   15.2230 C   0  0  0  0  0  0  0  0  0  0  0  0
   31.3080   35.8280   14.4240 C   0  0  0  0  0  0  0  0  0  0  0  0
   30.9860   34.0200   15.6080 O   0  0  0  0  0  0  0  0  0  0  0  0
   32.4470   35.0560   14.3710 C   0  0  0  0  0  0  0  0  0  0  0  0
   32.1900   33.9330   15.1310 C   0  0  0  0  0  0  0  0  0  0  0  0
   29.8670   25.5550   16.9770 C   0  0  0  0  0  0  0  0  0  0  0  0
   28.3450   25.7220   17.0260 C   0  0  0  0  0  0  0  0  0  0  0  0
   27.5990   24.4280   16.7370 C   0  0  0  0  0  0  0  0  0  0  0  0
   26.9380   23.8690   17.9660 C   0  0  0  0  0  0  0  0  0  0  0  0
   25.6030   23.2380   17.5830 C   0  0  0  0  0  0  0  0  0  0  0  0
   24.6990   24.2540   16.9940 N   0  0  0  0  0  0  0  0  0  0  0  0
  2  1  1  0  0  0  0
  2  3  1  0  0  0  0
  3  4  1  0  0  0  0
  5  2  2  0  0  0  0
  6  3  1  0  0  0  0
  7 30  1  0  0  0  0
  7  6  1  1  0  0  0
  8 28  1  1  0  0  0
  8  7  1  0  0  0  0
  9  8  1  1  0  0  0
  9 12  1  0  0  0  0
 10 12  1  0  0  0  0
 10 17  1  1  0  0  0
 10 15  1  0  0  0  0
 11 10  1  0  0  0  0
 13 21  1  6  0  0  0
 13 14  1  0  0  0  0
 13 11  1  0  0  0  0
 14 23  1  6  0  0  0
 14  9  1  0  0  0  0
 15 16  1  0  0  0  0
 17 19  1  0  0  0  0
 18 17  2  0  0  0  0
 19 20  1  0  0  0  0
 22 21  1  0  0  0  0
 24 23  1  0  0  0  0
 24 27  2  0  0  0  0
 25 23  1  0  0  0  0
 26 24  1  0  0  0  0
 29 28  1  0  0  0  0
 30 31  1  0  0  0  0
 32 33  1  0  0  0  0
 32  1  1  0  0  0  0
 33 34  2  0  0  0  0
 35 37  2  0  0  0  0
 35 33  1  0  0  0  0
 36 34  1  0  0  0  0
 36 38  1  0  0  0  0
 37 36  1  0  0  0  0
 38 39  1  0  0  0  0
 40 41  1  0  0  0  0
 40 39  1  0  0  0  0
 41 43  2  0  0  0  0
 42 40  1  0  0  0  0
 44 46  1  0  0  0  0
 44 41  1  0  0  0  0
 45 44  1  0  0  0  0
 47 46  1  0  0  0  0
 47 49  1  0  0  0  0
 48 47  2  0  0  0  0
 50 48  1  0  0  0  0
 50 51  2  0  0  0  0
 51 49  1  0  0  0  0
 52 53  1  0  0  0  0
 54 53  1  0  0  0  0
 54 55  1  0  0  0  0
 56 55  1  0  0  0  0
 57 56  1  0  0  0  0
M  END
>  <REMARK>
 VINA RESULT:    -4.934      5.746     11.990
 INTER + INTRA:         -15.603
 INTER:                  -7.313
 INTRA:                  -8.289
 UNBOUND:                -5.909
 SMILES CC(=O)N[C@@H]1[C@@H](O)C[C@](O)(C(=O)O)O[C@H]1C(O)[C@H](O)CNC(=O)OCc1cn(CCNC(=O)NCc2ccco2)nn1
 SMILES IDX 24 1 22 2 21 3 23 5 20 6 18 7 16 8 15 9 9 10 8 11 14 12 6 13
 SMILES IDX 5 14 10 15 11 17 12 18 13 19 7 21 4 23 2 24 1 26 3 27 17 28
 SMILES IDX 19 30 25 32 26 33 27 34 42 35 28 36 41 37 29 38 30 39 31 40
 SMILES IDX 32 41 33 43 34 44 35 46 36 47 37 48 40 49 38 50 39 51
 H PARENT 21 4 10 16 13 20 7 22 4 25 17 29 19 31 31 42 34 45
 Flexibility Score: inf
  4 active torsions:
  status: ('A' for Active; 'I' for Inactive)
    1  A    between atoms: CA   and  CB  
    2  A    between atoms: CB   and  CG  
    3  A    between atoms: CG   and  CD  
    4  A    between atoms: CD   and  CE  

>  <TORSDO>
F 19

>  <BEGIN_>
RES LYS A 131

$$$$
ligand_31_pose_13_2HRL.pdbqt
 OpenBabel07062320523D

  6  5  0  0  0  0  0  0  0  0999 V2000
   33.1930   34.6630    9.2900 C   0  0  0  0  0  0  0  0  0  0  0  0
   32.0600   35.3600   10.0340 C   0  0  0  0  0  0  0  0  0  0  0  0
   30.7040   34.7600    9.7650 C   0  0  0  0  0  0  0  0  0  0  0  0
   30.5300   34.4710    8.2820 C   0  0  0  0  0  0  0  0  0  0  0  0
   29.1900   34.9880    7.7930 C   0  0  0  0  0  0  0  0  0  0  0  0
   28.0720   34.4290    8.6020 N   0  0  0  0  0  0  0  0  0  0  0  0
  1  2  1  0  0  0  0
  3  2  1  0  0  0  0
  4  3  1  0  0  0  0
  5  4  1  0  0  0  0
  5  6  1  0  0  0  0
M  END
>  <EGIN_R>
ES LYS A 135

>  <REMARK>
  4 active torsions:
  status: ('A' for Active; 'I' for Inactive)
    5  A    between atoms: CA   and  CB  
    6  A    between atoms: CB   and  CG  
    7  A    between atoms: CG   and  CD  
    8  A    between atoms: CD   and  CE  

$$$$
