ligand_57_pose_12_2HRL.pdbqt
 OpenBabel07062320523D

 50 51  0  0  1  0  0  0  0  0999 V2000
   20.5130   35.7010    8.0560 C   0  0  0  0  0  0  0  0  0  0  0  0
   21.8990   36.2410    7.9310 C   0  0  2  0  0  0  0  0  0  0  0  0
   22.6750   36.1590    9.2290 C   0  0  2  0  0  0  0  0  0  0  0  0
   23.9540   36.9590    9.1070 C   0  0  2  0  0  0  0  0  0  0  0  0
   25.6590   37.5820    7.6380 C   0  0  2  0  0  0  0  0  0  0  0  0
   26.6960   37.2990    8.6820 C   0  0  0  0  0  0  0  0  0  0  0  0
   24.4370   37.0110    7.8380 O   0  0  0  0  0  0  0  0  0  0  0  0
   26.1250   37.4110   10.0710 C   0  0  1  0  0  0  0  0  0  0  0  0
   24.9270   36.4670   10.1320 C   0  0  1  0  0  0  0  0  0  0  0  0
   26.2030   37.1900    6.3820 O   0  0  0  0  0  0  0  0  0  0  0  0
   25.5230   36.7360    5.8280 H   0  0  0  0  0  0  0  0  0  0  0  0
   25.4560   39.0520    7.5730 C   0  0  0  0  0  0  0  0  0  0  0  0
   24.3340   39.5140    7.2460 O   0  0  0  0  0  0  0  0  0  0  0  0
   26.4360   39.9910    7.8540 O   0  0  0  0  0  0  0  0  0  0  0  0
   27.0520   40.3740    7.1370 H   0  0  0  0  0  0  0  0  0  0  0  0
   27.0580   37.0380   11.0430 O   0  0  0  0  0  0  0  0  0  0  0  0
   26.6330   36.6800   11.8530 H   0  0  0  0  0  0  0  0  0  0  0  0
   24.3730   36.6590   11.4780 N   0  0  0  0  0  0  0  0  0  0  0  0
   24.6410   35.7670   12.5350 C   0  0  0  0  0  0  0  0  0  0  0  0
   23.7750   37.4850   11.6160 H   0  0  0  0  0  0  0  0  0  0  0  0
   24.0650   35.9790   13.9090 C   0  0  0  0  0  0  0  0  0  0  0  0
   25.3800   34.7750   12.3080 O   0  0  0  0  0  0  0  0  0  0  0  0
   22.9020   34.8350    9.5260 O   0  0  0  0  0  0  0  0  0  0  0  0
   22.8930   34.2830    8.7040 H   0  0  0  0  0  0  0  0  0  0  0  0
   21.8060   37.6070    7.5770 O   0  0  0  0  0  0  0  0  0  0  0  0
   21.8390   38.1830    8.3860 H   0  0  0  0  0  0  0  0  0  0  0  0
   20.2160   35.5070    9.4580 N   0  0  0  0  0  0  0  0  0  0  0  0
   18.9900   34.9890    9.9560 C   0  0  0  0  0  0  0  0  0  0  0  0
   20.9220   35.7490   10.2180 H   0  0  0  0  0  0  0  0  0  0  0  0
   18.0980   34.6720    9.1550 O   0  0  0  0  0  0  0  0  0  0  0  0
   18.7500   34.8230   11.3140 O   0  0  0  0  0  0  0  0  0  0  0  0
   18.7990   33.5380   11.9010 C   0  0  0  0  0  0  0  0  0  0  0  0
   20.2050   33.1190   12.1340 C   0  0  0  0  0  0  0  0  0  0  0  0
   20.6770   31.8830   12.4700 C   0  0  0  0  0  0  0  0  0  0  0  0
   21.2880   33.9140   12.0530 N   0  0  0  0  0  0  0  0  0  0  0  0
   22.0140   31.9410   12.5870 N   0  0  0  0  0  0  0  0  0  0  0  0
   22.3540   33.2060   12.3220 N   0  0  0  0  0  0  0  0  0  0  0  0
   22.8890   30.8420   12.9290 C   0  0  0  0  0  0  0  0  0  0  0  0
   22.3320   30.0260   14.0730 C   0  0  0  0  0  0  0  0  0  0  0  0
   24.2890   31.3140   13.1890 C   0  0  0  0  0  0  0  0  0  0  0  0
   22.6670   30.6170   15.4220 C   0  0  0  0  0  0  0  0  0  0  0  0
   24.4890   31.9120   14.5460 C   0  0  0  0  0  0  0  0  0  0  0  0
   24.0460   30.9850   15.5430 N   0  0  0  0  0  0  0  0  0  0  0  0
   24.9320   29.8560   15.5870 C   0  0  0  0  0  0  0  0  0  0  0  0
   29.8670   25.5550   16.9770 C   0  0  0  0  0  0  0  0  0  0  0  0
   28.3450   25.7220   17.0260 C   0  0  0  0  0  0  0  0  0  0  0  0
   27.6010   24.4040   16.8770 C   0  0  0  0  0  0  0  0  0  0  0  0
   26.1570   24.5190   17.2820 C   0  0  0  0  0  0  0  0  0  0  0  0
   25.9760   25.7410   18.1770 C   0  0  0  0  0  0  0  0  0  0  0  0
   25.7120   25.3250   19.5750 N   0  0  0  0  0  0  0  0  0  0  0  0
  1 27  1  0  0  0  0
  2  1  1  1  0  0  0
  2  3  1  0  0  0  0
  3 23  1  6  0  0  0
  4  3  1  6  0  0  0
  4  9  1  0  0  0  0
  5 10  1  6  0  0  0
  5  7  1  0  0  0  0
  5  6  1  0  0  0  0
  6  8  1  0  0  0  0
  7  4  1  0  0  0  0
  8  9  1  0  0  0  0
  8 16  1  1  0  0  0
  9 18  1  1  0  0  0
 11 10  1  0  0  0  0
 12  5  1  0  0  0  0
 12 14  1  0  0  0  0
 13 12  2  0  0  0  0
 15 14  1  0  0  0  0
 16 17  1  0  0  0  0
 18 20  1  0  0  0  0
 18 19  1  0  0  0  0
 19 21  1  0  0  0  0
 22 19  2  0  0  0  0
 24 23  1  0  0  0  0
 25  2  1  0  0  0  0
 25 26  1  0  0  0  0
 27 28  1  0  0  0  0
 27 29  1  0  0  0  0
 28 31  1  0  0  0  0
 30 28  2  0  0  0  0
 31 32  1  0  0  0  0
 32 33  1  0  0  0  0
 33 34  2  0  0  0  0
 34 36  1  0  0  0  0
 35 33  1  0  0  0  0
 35 37  2  0  0  0  0
 36 38  1  0  0  0  0
 37 36  1  0  0  0  0
 38 40  1  0  0  0  0
 38 39  1  0  0  0  0
 39 41  1  0  0  0  0
 40 42  1  0  0  0  0
 41 43  1  0  0  0  0
 42 43  1  0  0  0  0
 43 44  1  0  0  0  0
 45 46  1  0  0  0  0
 47 46  1  0  0  0  0
 47 48  1  0  0  0  0
 48 49  1  0  0  0  0
 49 50  1  0  0  0  0
M  END
>  <REMARK>
 VINA RESULT:    -4.388      7.422     12.745
 INTER + INTRA:         -13.382
 INTER:                  -7.340
 INTRA:                  -6.041
 UNBOUND:                -5.786
 SMILES CC(=O)N[C@@H]1[C@@H](O)C[C@](O)(C(=O)O)O[C@H]1C(O)[C@H](O)CNC(=O)OCc1cn(C2CCN(C)CC2)nn1
 SMILES IDX 20 1 18 2 16 3 15 4 9 5 8 6 14 7 6 8 5 9 10 10 11 12 12 13
 SMILES IDX 13 14 7 16 4 18 2 19 1 21 3 22 17 23 19 25 21 27 22 28 23 30
 SMILES IDX 24 31 25 32 26 33 27 34 37 35 28 36 36 37 29 38 30 39 35 40
 SMILES IDX 31 41 34 42 32 43 33 44
 H PARENT 10 11 13 15 7 17 4 20 17 24 19 26 21 29
 Flexibility Score: inf
  4 active torsions:
  status: ('A' for Active; 'I' for Inactive)
    1  A    between atoms: CA   and  CB  
    2  A    between atoms: CB   and  CG  
    3  A    between atoms: CG   and  CD  
    4  A    between atoms: CD   and  CE  

>  <TORSDO>
F 15

>  <BEGIN_>
RES LYS A 131

$$$$
ligand_57_pose_12_2HRL.pdbqt
 OpenBabel07062320523D

  6  5  0  0  0  0  0  0  0  0999 V2000
   33.1930   34.6630    9.2900 C   0  0  0  0  0  0  0  0  0  0  0  0
   32.0600   35.3600   10.0340 C   0  0  0  0  0  0  0  0  0  0  0  0
   30.7960   35.4880    9.2240 C   0  0  0  0  0  0  0  0  0  0  0  0
   30.1310   34.1310    9.0500 C   0  0  0  0  0  0  0  0  0  0  0  0
   28.6790   34.2980    8.6440 C   0  0  0  0  0  0  0  0  0  0  0  0
   27.7650   33.7380    9.6790 N   0  0  0  0  0  0  0  0  0  0  0  0
  1  2  1  0  0  0  0
  3  2  1  0  0  0  0
  4  3  1  0  0  0  0
  5  4  1  0  0  0  0
  5  6  1  0  0  0  0
M  END
>  <EGIN_R>
ES LYS A 135

>  <REMARK>
  4 active torsions:
  status: ('A' for Active; 'I' for Inactive)
    5  A    between atoms: CA   and  CB  
    6  A    between atoms: CB   and  CG  
    7  A    between atoms: CG   and  CD  
    8  A    between atoms: CD   and  CE  

$$$$
