ligand_76_pose_9_2HRL.pdbqt
 OpenBabel07062320523D

 55 56  0  0  1  0  0  0  0  0999 V2000
   27.4850   36.1070   11.7250 O   0  0  0  0  0  0  0  0  0  0  0  0
   26.4380   35.8490   10.8580 C   0  0  0  0  0  0  0  0  0  0  0  0
   26.3210   36.5520    9.6410 N   0  0  0  0  0  0  0  0  0  0  0  0
   27.0300   37.2680    9.4000 H   0  0  0  0  0  0  0  0  0  0  0  0
   25.5810   34.9840   11.1500 O   0  0  0  0  0  0  0  0  0  0  0  0
   25.2370   36.3100    8.6990 C   0  0  0  0  0  0  0  0  0  0  0  0
   24.4220   37.5710    8.4770 C   0  0  2  0  0  0  0  0  0  0  0  0
   23.2580   37.5600    9.4540 C   0  0  1  0  0  0  0  0  0  0  0  0
   22.5640   36.1950    9.4340 C   0  0  2  0  0  0  0  0  0  0  0  0
   20.4230   36.3810    8.5210 C   0  0  2  0  0  0  0  0  0  0  0  0
   19.9920   36.8870    9.8520 C   0  0  0  0  0  0  0  0  0  0  0  0
   21.7190   36.0270    8.3950 O   0  0  0  0  0  0  0  0  0  0  0  0
   20.5870   36.1540   11.0010 C   0  0  1  0  0  0  0  0  0  0  0  0
   22.0520   35.8750   10.8030 C   0  0  1  0  0  0  0  0  0  0  0  0
   20.1570   37.4080    7.5830 O   0  0  0  0  0  0  0  0  0  0  0  0
   20.3930   38.2840    7.9830 H   0  0  0  0  0  0  0  0  0  0  0  0
   19.5040   35.2470    8.1450 C   0  0  0  0  0  0  0  0  0  0  0  0
   18.3230   35.1640    8.5570 O   0  0  0  0  0  0  0  0  0  0  0  0
   19.9350   34.2180    7.3030 O   0  0  0  0  0  0  0  0  0  0  0  0
   19.9130   33.2410    7.6280 H   0  0  0  0  0  0  0  0  0  0  0  0
   20.3520   36.9020   12.1780 O   0  0  0  0  0  0  0  0  0  0  0  0
   19.9530   37.7940   11.9500 H   0  0  0  0  0  0  0  0  0  0  0  0
   22.3870   34.4960   11.1650 N   0  0  0  0  0  0  0  0  0  0  0  0
   22.5650   34.1050   12.5000 C   0  0  0  0  0  0  0  0  0  0  0  0
   22.4870   33.8110   10.3580 H   0  0  0  0  0  0  0  0  0  0  0  0
   22.9020   32.7050   12.8150 C   0  0  0  0  0  0  0  0  0  0  0  0
   22.4410   34.9300   13.4250 O   0  0  0  0  0  0  0  0  0  0  0  0
   23.8450   37.6440   10.7300 O   0  0  0  0  0  0  0  0  0  0  0  0
   24.5180   36.9130   10.8740 H   0  0  0  0  0  0  0  0  0  0  0  0
   23.9500   37.6100    7.1710 O   0  0  0  0  0  0  0  0  0  0  0  0
   24.1340   38.5130    6.8190 H   0  0  0  0  0  0  0  0  0  0  0  0
   28.0220   37.4390   11.6880 C   0  0  0  0  0  0  0  0  0  0  0  0
   29.4240   37.4360   12.1600 C   0  0  0  0  0  0  0  0  0  0  0  0
   29.9700   36.8320   13.2680 C   0  0  0  0  0  0  0  0  0  0  0  0
   30.4360   38.0610   11.5340 N   0  0  0  0  0  0  0  0  0  0  0  0
   31.2830   37.1020   13.2870 N   0  0  0  0  0  0  0  0  0  0  0  0
   31.5450   37.8330   12.2490 N   0  0  0  0  0  0  0  0  0  0  0  0
   32.2820   36.6670   14.2890 C   0  0  0  0  0  0  0  0  0  0  0  0
   32.8660   35.3660   13.8320 C   0  0  2  0  0  0  0  0  0  0  0  0
   32.7410   35.1950   12.4460 O   0  0  0  0  0  0  0  0  0  0  0  0
   33.2640   34.3780   12.2030 H   0  0  0  0  0  0  0  0  0  0  0  0
   32.6710   34.2080   14.6740 C   0  0  0  0  0  0  0  0  0  0  0  0
   32.1720   34.3810   16.0430 C   0  0  0  0  0  0  0  0  0  0  0  0
   31.3910   33.2730   16.5690 C   0  0  0  0  0  0  0  0  0  0  0  0
   31.0760   33.2770   17.9340 C   0  0  0  0  0  0  0  0  0  0  0  0
   30.9890   32.1800   15.8660 C   0  0  0  0  0  0  0  0  0  0  0  0
   30.4000   32.2280   18.5100 C   0  0  0  0  0  0  0  0  0  0  0  0
   30.3070   31.1150   16.4270 C   0  0  0  0  0  0  0  0  0  0  0  0
   30.0050   31.1360   17.7730 C   0  0  0  0  0  0  0  0  0  0  0  0
   29.8670   25.5550   16.9770 C   0  0  0  0  0  0  0  0  0  0  0  0
   28.3450   25.7220   17.0260 C   0  0  0  0  0  0  0  0  0  0  0  0
   27.6030   24.3960   16.9630 C   0  0  0  0  0  0  0  0  0  0  0  0
   26.1140   24.5740   17.0780 C   0  0  0  0  0  0  0  0  0  0  0  0
   25.5040   23.3420   17.7390 C   0  0  0  0  0  0  0  0  0  0  0  0
   25.7840   23.3410   19.1940 N   0  0  0  0  0  0  0  0  0  0  0  0
  2  5  2  0  0  0  0
  2  1  1  0  0  0  0
  3  2  1  0  0  0  0
  4  3  1  0  0  0  0
  6  3  1  0  0  0  0
  7  6  1  6  0  0  0
  7  8  1  0  0  0  0
  8 28  1  1  0  0  0
  9  8  1  1  0  0  0
  9 14  1  0  0  0  0
 10 15  1  6  0  0  0
 10 11  1  0  0  0  0
 11 13  1  0  0  0  0
 12 10  1  0  0  0  0
 12  9  1  0  0  0  0
 13 21  1  1  0  0  0
 14 13  1  0  0  0  0
 14 23  1  6  0  0  0
 15 16  1  0  0  0  0
 17 10  1  0  0  0  0
 17 18  2  0  0  0  0
 19 20  1  0  0  0  0
 19 17  1  0  0  0  0
 22 21  1  0  0  0  0
 23 24  1  0  0  0  0
 24 26  1  0  0  0  0
 24 27  2  0  0  0  0
 25 23  1  0  0  0  0
 28 29  1  0  0  0  0
 30  7  1  0  0  0  0
 31 30  1  0  0  0  0
 32  1  1  0  0  0  0
 32 33  1  0  0  0  0
 33 34  2  0  0  0  0
 34 36  1  0  0  0  0
 35 33  1  0  0  0  0
 35 37  2  0  0  0  0
 36 38  1  0  0  0  0
 37 36  1  0  0  0  0
 39 38  1  1  0  0  0
 39 42  1  0  0  0  0
 40 39  1  0  0  0  0
 41 40  1  0  0  0  0
 42 43  1  0  0  0  0
 43 44  1  0  0  0  0
 44 45  2  0  0  0  0
 45 47  1  0  0  0  0
 46 48  2  0  0  0  0
 46 44  1  0  0  0  0
 48 49  1  0  0  0  0
 49 47  2  0  0  0  0
 50 51  1  0  0  0  0
 52 51  1  0  0  0  0
 52 53  1  0  0  0  0
 53 54  1  0  0  0  0
 54 55  1  0  0  0  0
M  END
>  <REMARK>
 VINA RESULT:    -5.055      2.840      6.020
 INTER + INTRA:         -16.850
 INTER:                 -11.090
 INTRA:                  -5.761
 UNBOUND:                -6.771
 SMILES CC(=O)N[C@@H]1[C@@H](O)C[C@](O)(C(=O)O)O[C@H]1C(O)[C@H](O)CNC(=O)OCc1cn(CC(O)CCc2ccccc2)nn1
 SMILES IDX 24 1 22 2 21 3 23 5 20 6 18 7 16 8 15 9 9 10 8 11 14 12 6 13
 SMILES IDX 5 14 10 15 11 17 12 18 13 19 7 21 4 23 2 24 1 26 3 27 17 28
 SMILES IDX 19 30 25 32 26 33 27 34 41 35 28 36 40 37 29 38 30 39 31 40
 SMILES IDX 32 42 33 43 34 44 35 45 39 46 36 47 38 48 37 49
 H PARENT 21 4 10 16 13 20 7 22 4 25 17 29 19 31 31 41
 Flexibility Score: inf
  4 active torsions:
  status: ('A' for Active; 'I' for Inactive)
    1  A    between atoms: CA   and  CB  
    2  A    between atoms: CB   and  CG  
    3  A    between atoms: CG   and  CD  
    4  A    between atoms: CD   and  CE  

>  <TORSDO>
F 20

>  <BEGIN_>
RES LYS A 131

$$$$
ligand_76_pose_9_2HRL.pdbqt
 OpenBabel07062320523D

  6  5  0  0  0  0  0  0  0  0999 V2000
   33.1930   34.6630    9.2900 C   0  0  0  0  0  0  0  0  0  0  0  0
   32.0600   35.3600   10.0340 C   0  0  0  0  0  0  0  0  0  0  0  0
   30.7990   35.4960    9.2200 C   0  0  0  0  0  0  0  0  0  0  0  0
   30.0290   34.1850    9.2000 C   0  0  0  0  0  0  0  0  0  0  0  0
   28.7420   34.3350    8.4110 C   0  0  0  0  0  0  0  0  0  0  0  0
   28.8820   35.3670    7.3470 N   0  0  0  0  0  0  0  0  0  0  0  0
  1  2  1  0  0  0  0
  3  2  1  0  0  0  0
  4  3  1  0  0  0  0
  5  4  1  0  0  0  0
  6  5  1  0  0  0  0
M  END
>  <EGIN_R>
ES LYS A 135

>  <REMARK>
  4 active torsions:
  status: ('A' for Active; 'I' for Inactive)
    5  A    between atoms: CA   and  CB  
    6  A    between atoms: CB   and  CG  
    7  A    between atoms: CG   and  CD  
    8  A    between atoms: CD   and  CE  

$$$$
