ligand_84_pose_12_2HRL.pdbqt
 OpenBabel07062320523D

 60 62  0  0  1  0  0  0  0  0999 V2000
   31.7730   33.5480   15.5500 O   0  0  0  0  0  0  0  0  0  0  0  0
   30.8970   33.4020   16.6140 C   0  0  0  0  0  0  0  0  0  0  0  0
   29.4820   33.3350   16.4800 N   0  0  0  0  0  0  0  0  0  0  0  0
   29.1040   33.4120   15.5170 H   0  0  0  0  0  0  0  0  0  0  0  0
   31.4260   33.3250   17.7570 O   0  0  0  0  0  0  0  0  0  0  0  0
   28.7250   33.1690   17.6770 C   0  0  0  0  0  0  0  0  0  0  0  0
   28.0360   31.8760   17.8540 C   0  0  2  0  0  0  0  0  0  0  0  0
   28.7850   30.8390   18.6720 C   0  0  1  0  0  0  0  0  0  0  0  0
   27.8700   29.6140   18.6480 C   0  0  2  0  0  0  0  0  0  0  0  0
   25.5830   29.1510   18.7070 C   0  0  2  0  0  0  0  0  0  0  0  0
   25.8460   27.9730   19.6020 C   0  0  0  0  0  0  0  0  0  0  0  0
   26.5860   30.0820   18.6960 O   0  0  0  0  0  0  0  0  0  0  0  0
   27.2540   27.4980   19.6140 C   0  0  1  0  0  0  0  0  0  0  0  0
   28.1520   28.7370   19.8230 C   0  0  1  0  0  0  0  0  0  0  0  0
   24.4510   29.7900   19.2750 O   0  0  0  0  0  0  0  0  0  0  0  0
   23.7650   29.9570   18.6030 H   0  0  0  0  0  0  0  0  0  0  0  0
   25.1750   28.7510   17.3280 C   0  0  0  0  0  0  0  0  0  0  0  0
   24.4950   27.7100   17.1460 O   0  0  0  0  0  0  0  0  0  0  0  0
   25.5100   29.4850   16.2000 O   0  0  0  0  0  0  0  0  0  0  0  0
   25.9180   29.0920   15.3600 H   0  0  0  0  0  0  0  0  0  0  0  0
   27.4320   26.6470   20.7040 O   0  0  0  0  0  0  0  0  0  0  0  0
   26.5930   26.1540   20.9060 H   0  0  0  0  0  0  0  0  0  0  0  0
   29.5310   28.3340   19.9130 N   0  0  0  0  0  0  0  0  0  0  0  0
   30.2890   28.5670   21.0820 C   0  0  0  0  0  0  0  0  0  0  0  0
   29.9720   27.8650   19.1040 H   0  0  0  0  0  0  0  0  0  0  0  0
   31.7110   28.1090   21.0680 C   0  0  0  0  0  0  0  0  0  0  0  0
   29.8280   29.1240   22.1000 O   0  0  0  0  0  0  0  0  0  0  0  0
   30.0050   30.5620   18.0350 O   0  0  0  0  0  0  0  0  0  0  0  0
   29.8490   29.7490   17.4880 H   0  0  0  0  0  0  0  0  0  0  0  0
   27.9530   31.2830   16.5630 O   0  0  0  0  0  0  0  0  0  0  0  0
   28.1760   32.0320   15.9400 H   0  0  0  0  0  0  0  0  0  0  0  0
   32.3490   34.8100   15.2520 C   0  0  0  0  0  0  0  0  0  0  0  0
   31.5220   35.5350   14.2620 C   0  0  0  0  0  0  0  0  0  0  0  0
   31.9500   36.6730   13.5730 C   0  0  0  0  0  0  0  0  0  0  0  0
   30.2840   35.3180   13.7970 N   0  0  0  0  0  0  0  0  0  0  0  0
   30.9930   37.1000   12.7370 N   0  0  0  0  0  0  0  0  0  0  0  0
   29.9670   36.2360   12.9010 N   0  0  0  0  0  0  0  0  0  0  0  0
   31.0000   38.2200   11.8140 C   0  0  0  0  0  0  0  0  0  0  0  0
   29.5900   38.8190   11.7360 C   0  0  1  0  0  0  0  0  0  0  0  0
   29.3410   39.7980   12.8210 C   0  0  0  0  0  0  0  0  0  0  0  0
   29.2140   39.1570   10.3540 C   0  0  0  0  0  0  0  0  0  0  0  0
   27.9600   38.6060    9.9450 N   0  0  0  0  0  0  0  0  0  0  0  0
   27.8370   38.6810    8.4650 C   0  0  0  0  0  0  0  0  0  0  0  0
   27.9420   37.1710   10.2110 C   0  0  0  0  0  0  0  0  0  0  0  0
   26.6210   37.9730    7.9820 C   0  0  0  0  0  0  0  0  0  0  0  0
   26.4500   36.8060   10.2120 C   0  0  0  0  0  0  0  0  0  0  0  0
   25.8940   37.2210    8.9560 N   0  0  0  0  0  0  0  0  0  0  0  0
   24.5480   36.8510    8.6790 C   0  0  0  0  0  0  0  0  0  0  0  0
   23.8340   37.5540    7.7340 C   0  0  0  0  0  0  0  0  0  0  0  0
   23.9430   35.7990    9.3530 C   0  0  0  0  0  0  0  0  0  0  0  0
   22.5310   37.1970    7.4760 C   0  0  0  0  0  0  0  0  0  0  0  0
   22.6440   35.4540    9.0890 C   0  0  0  0  0  0  0  0  0  0  0  0
   21.9330   36.1650    8.1350 C   0  0  0  0  0  0  0  0  0  0  0  0
   20.2790   35.7170    7.8170 Cl  0  0  0  0  0  0  0  0  0  0  0  0
   29.8670   25.5550   16.9770 C   0  0  0  0  0  0  0  0  0  0  0  0
   28.3450   25.7220   17.0260 C   0  0  0  0  0  0  0  0  0  0  0  0
   27.6020   24.3980   16.9320 C   0  0  0  0  0  0  0  0  0  0  0  0
   26.1540   24.5330   17.3120 C   0  0  0  0  0  0  0  0  0  0  0  0
   25.9510   24.0230   18.7350 C   0  0  0  0  0  0  0  0  0  0  0  0
   24.9930   22.8920   18.7490 N   0  0  0  0  0  0  0  0  0  0  0  0
  1  2  1  0  0  0  0
  2  5  2  0  0  0  0
  3  2  1  0  0  0  0
  3  6  1  0  0  0  0
  4  3  1  0  0  0  0
  7  6  1  6  0  0  0
  7  8  1  0  0  0  0
  8 28  1  6  0  0  0
  9  8  1  1  0  0  0
  9 12  1  0  0  0  0
  9 14  1  0  0  0  0
 10 17  1  6  0  0  0
 10 15  1  0  0  0  0
 10 11  1  0  0  0  0
 11 13  1  0  0  0  0
 12 10  1  0  0  0  0
 13 14  1  0  0  0  0
 13 21  1  1  0  0  0
 14 23  1  6  0  0  0
 16 15  1  0  0  0  0
 18 17  2  0  0  0  0
 19 17  1  0  0  0  0
 20 19  1  0  0  0  0
 21 22  1  0  0  0  0
 23 24  1  0  0  0  0
 24 27  2  0  0  0  0
 25 23  1  0  0  0  0
 26 24  1  0  0  0  0
 29 28  1  0  0  0  0
 30  7  1  0  0  0  0
 31 30  1  0  0  0  0
 32  1  1  0  0  0  0
 33 32  1  0  0  0  0
 34 33  2  0  0  0  0
 35 33  1  0  0  0  0
 36 37  1  0  0  0  0
 36 34  1  0  0  0  0
 37 35  2  0  0  0  0
 38 36  1  0  0  0  0
 39 38  1  0  0  0  0
 39 40  1  1  0  0  0
 41 39  1  0  0  0  0
 42 44  1  0  0  0  0
 42 41  1  0  0  0  0
 43 42  1  0  0  0  0
 44 46  1  0  0  0  0
 45 43  1  0  0  0  0
 45 47  1  0  0  0  0
 47 46  1  0  0  0  0
 48 47  1  0  0  0  0
 48 50  2  0  0  0  0
 49 48  1  0  0  0  0
 51 49  2  0  0  0  0
 51 53  1  0  0  0  0
 52 50  1  0  0  0  0
 53 52  2  0  0  0  0
 54 53  1  0  0  0  0
 55 56  1  0  0  0  0
 57 56  1  0  0  0  0
 57 58  1  0  0  0  0
 58 59  1  0  0  0  0
 59 60  1  0  0  0  0
M  END
>  <REMARK>
 VINA RESULT:    -5.054      5.709     12.037
 INTER + INTRA:         -16.050
 INTER:                 -10.092
 INTRA:                  -5.958
 UNBOUND:                -6.121
 SMILES CC(=O)N[C@@H]1[C@@H](O)C[C@](O)(C(=O)O)O[C@H]1C(O)[C@H](O)CNC(=O)OCc1cn(C[C@@H](C)CN2CCN(c3ccc(Cl)cc3)CC2)nn1
 SMILES IDX 24 1 22 2 21 3 23 5 20 6 18 7 16 8 15 9 9 10 8 11 14 12 6 13
 SMILES IDX 5 14 10 15 11 17 12 18 13 19 7 21 4 23 2 24 1 26 3 27 17 28
 SMILES IDX 19 30 25 32 26 33 27 34 47 35 28 36 46 37 29 38 30 39 31 40
 SMILES IDX 32 41 33 42 34 43 45 44 35 45 44 46 36 47 37 48 38 49 43 50
 SMILES IDX 39 51 42 52 40 53 41 54
 H PARENT 21 4 10 16 13 20 7 22 4 25 17 29 19 31
 Flexibility Score: inf
  4 active torsions:
  status: ('A' for Active; 'I' for Inactive)
    1  A    between atoms: CA   and  CB  
    2  A    between atoms: CB   and  CG  
    3  A    between atoms: CG   and  CD  
    4  A    between atoms: CD   and  CE  

>  <TORSDO>
F 19

>  <BEGIN_>
RES LYS A 131

$$$$
ligand_84_pose_12_2HRL.pdbqt
 OpenBabel07062320523D

  6  5  0  0  0  0  0  0  0  0999 V2000
   33.1930   34.6630    9.2900 C   0  0  0  0  0  0  0  0  0  0  0  0
   32.0600   35.3600   10.0340 C   0  0  0  0  0  0  0  0  0  0  0  0
   30.7100   34.7320    9.8010 C   0  0  0  0  0  0  0  0  0  0  0  0
   30.4780   34.4950    8.3170 C   0  0  0  0  0  0  0  0  0  0  0  0
   29.0240   34.7380    7.9600 C   0  0  0  0  0  0  0  0  0  0  0  0
   28.9050   35.5310    6.7050 N   0  0  0  0  0  0  0  0  0  0  0  0
  1  2  1  0  0  0  0
  3  2  1  0  0  0  0
  4  3  1  0  0  0  0
  5  4  1  0  0  0  0
  6  5  1  0  0  0  0
M  END
>  <EGIN_R>
ES LYS A 135

>  <REMARK>
  4 active torsions:
  status: ('A' for Active; 'I' for Inactive)
    5  A    between atoms: CA   and  CB  
    6  A    between atoms: CB   and  CG  
    7  A    between atoms: CG   and  CD  
    8  A    between atoms: CD   and  CE  

$$$$
