ligand_34_pose_13_2HRL.pdbqt
 OpenBabel07062320523D

 69 73  0  0  1  0  0  0  0  0999 V2000
   26.8880   39.8140    7.7560 N   0  0  0  0  0  0  0  0  0  0  0  0
   27.3730   40.7380    8.7450 C   0  0  0  0  0  0  0  0  0  0  0  0
   26.5050   41.3220    9.4500 O   0  0  0  0  0  0  0  0  0  0  0  0
   27.5570   39.3070    7.1480 H   0  0  0  0  0  0  0  0  0  0  0  0
   25.4750   39.5750    7.5880 C   0  0  0  0  0  0  0  0  0  0  0  0
   25.2180   38.1050    7.6280 C   0  0  2  0  0  0  0  0  0  0  0  0
   25.5590   37.5030    8.9900 C   0  0  2  0  0  0  0  0  0  0  0  0
   24.7130   36.2660    9.2490 C   0  0  2  0  0  0  0  0  0  0  0  0
   22.4010   36.5110    9.4020 C   0  0  2  0  0  0  0  0  0  0  0  0
   22.2620   35.2490   10.2260 C   0  0  0  0  0  0  0  0  0  0  0  0
   23.5180   36.4340    8.6090 O   0  0  0  0  0  0  0  0  0  0  0  0
   23.4860   35.0010   11.0290 C   0  0  1  0  0  0  0  0  0  0  0  0
   24.6300   35.9270   10.6970 C   0  0  1  0  0  0  0  0  0  0  0  0
   22.3850   37.5770   10.2650 O   0  0  0  0  0  0  0  0  0  0  0  0
   22.3500   37.3370   11.2080 H   0  0  0  0  0  0  0  0  0  0  0  0
   21.2170   36.5750    8.5120 C   0  0  0  0  0  0  0  0  0  0  0  0
   20.0630   36.6180    9.0050 O   0  0  0  0  0  0  0  0  0  0  0  0
   21.3120   36.5910    7.1300 O   0  0  0  0  0  0  0  0  0  0  0  0
   21.9260   37.2580    6.6380 H   0  0  0  0  0  0  0  0  0  0  0  0
   23.2420   35.0940   12.3960 O   0  0  0  0  0  0  0  0  0  0  0  0
   24.0530   35.2370   12.9330 H   0  0  0  0  0  0  0  0  0  0  0  0
   25.8500   35.2240   11.1220 N   0  0  0  0  0  0  0  0  0  0  0  0
   26.8450   35.8110   11.9230 C   0  0  0  0  0  0  0  0  0  0  0  0
   25.9600   34.2360   10.8000 H   0  0  0  0  0  0  0  0  0  0  0  0
   28.0470   35.0380   12.3100 C   0  0  0  0  0  0  0  0  0  0  0  0
   26.6520   37.0180   12.2850 O   0  0  0  0  0  0  0  0  0  0  0  0
   25.2830   38.5030    9.9290 O   0  0  0  0  0  0  0  0  0  0  0  0
   24.4650   38.2140   10.4150 H   0  0  0  0  0  0  0  0  0  0  0  0
   25.8850   37.4310    6.6090 O   0  0  0  0  0  0  0  0  0  0  0  0
   25.3300   36.7280    6.1950 H   0  0  0  0  0  0  0  0  0  0  0  0
   28.6970   40.9960    8.9420 O   0  0  0  0  0  0  0  0  0  0  0  0
   29.6940   40.3960    8.1490 C   0  0  0  0  0  0  0  0  0  0  0  0
   30.5680   39.5820    9.0170 C   0  0  0  0  0  0  0  0  0  0  0  0
   30.2430   39.0270   10.2560 C   0  0  0  0  0  0  0  0  0  0  0  0
   31.8400   39.2230    8.7930 N   0  0  0  0  0  0  0  0  0  0  0  0
   31.3130   38.3630   10.7280 N   0  0  0  0  0  0  0  0  0  0  0  0
   32.2600   38.5000    9.8230 N   0  0  0  0  0  0  0  0  0  0  0  0
   31.3320   37.6810   11.9720 C   0  0  0  0  0  0  0  0  0  0  0  0
   30.4290   37.8620   12.9770 C   0  0  0  0  0  0  0  0  0  0  0  0
   32.3550   36.7540   12.1900 C   0  0  0  0  0  0  0  0  0  0  0  0
   30.4890   37.1720   14.1830 C   0  0  0  0  0  0  0  0  0  0  0  0
   32.4350   36.0630   13.3670 C   0  0  0  0  0  0  0  0  0  0  0  0
   31.4930   36.2730   14.3730 C   0  0  0  0  0  0  0  0  0  0  0  0
   29.5020   37.3920   15.2370 C   0  0  0  0  0  0  0  0  0  0  0  0
   28.4490   36.6830   15.3120 O   0  0  0  0  0  0  0  0  0  0  0  0
   29.6920   38.3730   16.1720 O   0  0  0  0  0  0  0  0  0  0  0  0
   31.6650   35.4900   15.5870 C   0  0  0  0  0  0  0  0  0  0  0  0
   31.1290   34.2370   15.7870 C   0  0  0  0  0  0  0  0  0  0  0  0
   32.4180   36.0310   16.6160 C   0  0  0  0  0  0  0  0  0  0  0  0
   30.3710   33.6640   14.7840 C   0  0  0  0  0  0  0  0  0  0  0  0
   31.3320   33.5370   16.9700 C   0  0  0  0  0  0  0  0  0  0  0  0
   32.6010   35.2580   17.8350 C   0  0  0  0  0  0  0  0  0  0  0  0
   32.9960   37.2760   16.5170 C   0  0  0  0  0  0  0  0  0  0  0  0
   29.8120   32.4040   14.9390 C   0  0  0  0  0  0  0  0  0  0  0  0
   30.7900   32.2850   17.1540 C   0  0  0  0  0  0  0  0  0  0  0  0
   32.0450   34.0540   17.9410 O   0  0  0  0  0  0  0  0  0  0  0  0
   33.3420   35.7820   18.8530 C   0  0  0  0  0  0  0  0  0  0  0  0
   33.7290   37.7570   17.5650 C   0  0  0  0  0  0  0  0  0  0  0  0
   30.0300   31.7330   16.1250 C   0  0  0  0  0  0  0  0  0  0  0  0
   33.9120   37.0300   18.7320 C   0  0  0  0  0  0  0  0  0  0  0  0
   34.5970   37.5180   19.6700 O   0  0  0  0  0  0  0  0  0  0  0  0
   29.4740   30.4760   16.2890 O   0  0  0  0  0  0  0  0  0  0  0  0
   28.7230   30.1140   15.7320 H   0  0  0  0  0  0  0  0  0  0  0  0
   29.8670   25.5550   16.9770 C   0  0  0  0  0  0  0  0  0  0  0  0
   28.3450   25.7220   17.0260 C   0  0  0  0  0  0  0  0  0  0  0  0
   27.6010   24.4030   16.8870 C   0  0  0  0  0  0  0  0  0  0  0  0
   26.1520   24.5270   17.2660 C   0  0  0  0  0  0  0  0  0  0  0  0
   26.0410   24.8850   18.7450 C   0  0  0  0  0  0  0  0  0  0  0  0
   25.5030   23.7400   19.5170 N   0  0  0  0  0  0  0  0  0  0  0  0
  1  2  1  0  0  0  0
  2 31  1  0  0  0  0
  2  3  2  0  0  0  0
  4  1  1  0  0  0  0
  5  1  1  0  0  0  0
  6  5  1  1  0  0  0
  6  7  1  0  0  0  0
  7 27  1  1  0  0  0
  8  7  1  1  0  0  0
  8 13  1  0  0  0  0
  9 16  1  6  0  0  0
  9 10  1  0  0  0  0
  9 14  1  0  0  0  0
 10 12  1  0  0  0  0
 11  8  1  0  0  0  0
 11  9  1  0  0  0  0
 12 20  1  1  0  0  0
 13 12  1  0  0  0  0
 13 22  1  6  0  0  0
 14 15  1  0  0  0  0
 16 17  2  0  0  0  0
 18 16  1  0  0  0  0
 19 18  1  0  0  0  0
 20 21  1  0  0  0  0
 22 23  1  0  0  0  0
 23 26  2  0  0  0  0
 23 25  1  0  0  0  0
 24 22  1  0  0  0  0
 27 28  1  0  0  0  0
 29  6  1  0  0  0  0
 30 29  1  0  0  0  0
 32 31  1  0  0  0  0
 32 33  1  0  0  0  0
 33 34  2  0  0  0  0
 34 36  1  0  0  0  0
 35 33  1  0  0  0  0
 35 37  2  0  0  0  0
 36 38  1  0  0  0  0
 37 36  1  0  0  0  0
 38 40  2  0  0  0  0
 38 39  1  0  0  0  0
 39 41  2  0  0  0  0
 40 42  1  0  0  0  0
 41 43  1  0  0  0  0
 41 44  1  0  0  0  0
 42 43  2  0  0  0  0
 43 47  1  0  0  0  0
 44 45  2  0  0  0  0
 44 46  1  0  0  0  0
 47 48  1  0  0  0  0
 47 49  2  0  0  0  0
 48 51  1  0  0  0  0
 49 52  1  0  0  0  0
 50 54  1  0  0  0  0
 50 48  2  0  0  0  0
 51 55  2  0  0  0  0
 51 56  1  0  0  0  0
 52 56  1  0  0  0  0
 52 57  2  0  0  0  0
 53 49  1  0  0  0  0
 53 58  2  0  0  0  0
 54 59  2  0  0  0  0
 58 60  1  0  0  0  0
 59 62  1  0  0  0  0
 59 55  1  0  0  0  0
 60 57  1  0  0  0  0
 60 61  2  0  0  0  0
 63 62  1  0  0  0  0
 64 65  1  0  0  0  0
 66 65  1  0  0  0  0
 66 67  1  0  0  0  0
 67 68  1  0  0  0  0
 68 69  1  0  0  0  0
M  END
>  <REMARK>
 VINA RESULT:    -5.390      3.461      9.490
 INTER + INTRA:         -17.834
 INTER:                 -10.867
 INTRA:                  -6.968
 UNBOUND:                -7.717
 SMILES CC(=O)N[C@@H]1[C@@H](O)C[C@](O)(C(=O)O)O[C@H]1C(O)[C@H](O)CNC(=O)OCc1cn(-c2ccc(-c3c4ccc(=O)cc-4oc4cc(O)ccc34)c(C(=O)[O-])c2)nn1
 SMILES IDX 21 1 22 2 23 3 20 5 18 6 16 7 15 8 9 9 8 10 14 11 6 12 5 13
 SMILES IDX 10 14 11 16 12 17 13 18 7 20 4 22 2 23 1 25 3 26 17 27 19 29
 SMILES IDX 24 31 25 32 26 33 27 34 55 35 28 36 54 37 29 38 53 39 30 40
 SMILES IDX 49 41 31 42 32 43 50 44 51 45 52 46 33 47 48 48 34 49 47 50
 SMILES IDX 42 51 40 52 35 53 46 54 43 55 41 56 39 57 36 58 44 59 37 60
 SMILES IDX 38 61 45 62
 H PARENT 21 4 10 15 13 19 7 21 4 24 17 28 19 30 45 63
 Flexibility Score: inf
  4 active torsions:
  status: ('A' for Active; 'I' for Inactive)
    1  A    between atoms: CA   and  CB  
    2  A    between atoms: CB   and  CG  
    3  A    between atoms: CG   and  CD  
    4  A    between atoms: CD   and  CE  

>  <TORSDO>
F 18

>  <BEGIN_>
RES LYS A 131

$$$$
ligand_34_pose_13_2HRL.pdbqt
 OpenBabel07062320523D

  6  5  0  0  0  0  0  0  0  0999 V2000
   33.1930   34.6630    9.2900 C   0  0  0  0  0  0  0  0  0  0  0  0
   32.0600   35.3600   10.0340 C   0  0  0  0  0  0  0  0  0  0  0  0
   30.7000   34.7830    9.7370 C   0  0  0  0  0  0  0  0  0  0  0  0
   29.9340   35.6800    8.7770 C   0  0  0  0  0  0  0  0  0  0  0  0
   29.2220   34.8500    7.7260 C   0  0  0  0  0  0  0  0  0  0  0  0
   27.7550   34.8120    7.9760 N   0  0  0  0  0  0  0  0  0  0  0  0
  1  2  1  0  0  0  0
  3  2  1  0  0  0  0
  4  3  1  0  0  0  0
  5  6  1  0  0  0  0
  5  4  1  0  0  0  0
M  END
>  <EGIN_R>
ES LYS A 135

>  <REMARK>
  4 active torsions:
  status: ('A' for Active; 'I' for Inactive)
    5  A    between atoms: CA   and  CB  
    6  A    between atoms: CB   and  CG  
    7  A    between atoms: CG   and  CD  
    8  A    between atoms: CD   and  CE  

$$$$
