ligand_5_pose_7_2HRL.pdbqt
 OpenBabel07062320523D

 51 52  0  0  1  0  0  0  0  0999 V2000
   26.6550   31.3790   15.8640 N   0  0  0  0  0  0  0  0  0  0  0  0
   25.4470   30.8490   15.3630 C   0  0  0  0  0  0  0  0  0  0  0  0
   24.9980   29.7540   15.7340 O   0  0  0  0  0  0  0  0  0  0  0  0
   26.9360   32.3200   15.4360 H   0  0  0  0  0  0  0  0  0  0  0  0
   27.5220   30.8440   16.8340 C   0  0  0  0  0  0  0  0  0  0  0  0
   28.8640   30.4050   16.4590 C   0  0  2  0  0  0  0  0  0  0  0  0
   30.0220   31.1620   16.8790 C   0  0  1  0  0  0  0  0  0  0  0  0
   29.9360   32.6940   16.7070 C   0  0  2  0  0  0  0  0  0  0  0  0
   30.6340   34.0340   14.8960 C   0  0  2  0  0  0  0  0  0  0  0  0
   31.9210   34.4190   15.6430 C   0  0  0  0  0  0  0  0  0  0  0  0
   30.2490   32.8450   15.3680 O   0  0  0  0  0  0  0  0  0  0  0  0
   31.5250   34.6330   17.0520 C   0  0  1  0  0  0  0  0  0  0  0  0
   30.7290   33.4630   17.6580 C   0  0  1  0  0  0  0  0  0  0  0  0
   31.0980   33.7860   13.5750 O   0  0  0  0  0  0  0  0  0  0  0  0
   30.5310   33.1170   13.1210 H   0  0  0  0  0  0  0  0  0  0  0  0
   29.6550   35.1010   14.8280 C   0  0  0  0  0  0  0  0  0  0  0  0
   29.9770   36.2300   14.3780 O   0  0  0  0  0  0  0  0  0  0  0  0
   28.3220   35.0070   15.2280 O   0  0  0  0  0  0  0  0  0  0  0  0
   27.5610   35.4500   14.7070 H   0  0  0  0  0  0  0  0  0  0  0  0
   32.6090   34.8580   17.9160 O   0  0  0  0  0  0  0  0  0  0  0  0
   32.5830   35.8480   18.1040 H   0  0  0  0  0  0  0  0  0  0  0  0
   30.0420   34.1000   18.7390 N   0  0  0  0  0  0  0  0  0  0  0  0
   30.0530   33.7430   20.0880 C   0  0  0  0  0  0  0  0  0  0  0  0
   29.4580   34.9450   18.4620 H   0  0  0  0  0  0  0  0  0  0  0  0
   29.2740   34.5090   21.1090 C   0  0  0  0  0  0  0  0  0  0  0  0
   30.7350   32.7620   20.4070 O   0  0  0  0  0  0  0  0  0  0  0  0
   30.3610   30.8390   18.1890 O   0  0  0  0  0  0  0  0  0  0  0  0
   29.6810   30.2630   18.6230 H   0  0  0  0  0  0  0  0  0  0  0  0
   28.8860   30.0700   15.0750 O   0  0  0  0  0  0  0  0  0  0  0  0
   27.9660   29.8640   14.7630 H   0  0  0  0  0  0  0  0  0  0  0  0
   24.6850   31.5520   14.4070 O   0  0  0  0  0  0  0  0  0  0  0  0
   24.2890   32.8750   14.6700 C   0  0  0  0  0  0  0  0  0  0  0  0
   25.0430   33.8000   13.8080 C   0  0  0  0  0  0  0  0  0  0  0  0
   25.1890   33.6250   12.4270 C   0  0  0  0  0  0  0  0  0  0  0  0
   25.7070   34.9190   14.0840 N   0  0  0  0  0  0  0  0  0  0  0  0
   25.9280   34.6410   11.9470 N   0  0  0  0  0  0  0  0  0  0  0  0
   26.2250   35.4100   12.9910 N   0  0  0  0  0  0  0  0  0  0  0  0
   26.3190   34.8600   10.5990 C   0  0  0  0  0  0  0  0  0  0  0  0
   25.7990   35.8690    9.8210 C   0  0  0  0  0  0  0  0  0  0  0  0
   27.2750   34.0370    9.9980 C   0  0  0  0  0  0  0  0  0  0  0  0
   26.1960   36.0680    8.5040 C   0  0  0  0  0  0  0  0  0  0  0  0
   27.6670   34.2370    8.6880 C   0  0  0  0  0  0  0  0  0  0  0  0
   27.1370   35.2510    7.9250 C   0  0  0  0  0  0  0  0  0  0  0  0
   27.5230   35.4510    6.6340 O   0  0  0  0  0  0  0  0  0  0  0  0
   27.8140   36.7550    6.1790 C   0  0  0  0  0  0  0  0  0  0  0  0
   29.8670   25.5550   16.9770 C   0  0  0  0  0  0  0  0  0  0  0  0
   28.3450   25.7220   17.0260 C   0  0  0  0  0  0  0  0  0  0  0  0
   27.6000   24.4080   16.8430 C   0  0  0  0  0  0  0  0  0  0  0  0
   26.4880   24.2450   17.8420 C   0  0  0  0  0  0  0  0  0  0  0  0
   25.1460   24.4620   17.1490 C   0  0  0  0  0  0  0  0  0  0  0  0
   24.3500   23.2130   17.1570 N   0  0  0  0  0  0  0  0  0  0  0  0
  1  5  1  0  0  0  0
  2  3  2  0  0  0  0
  2  1  1  0  0  0  0
  4  1  1  0  0  0  0
  6  5  1  6  0  0  0
  6  7  1  0  0  0  0
  7 27  1  1  0  0  0
  8  7  1  1  0  0  0
  8 13  1  0  0  0  0
  9 14  1  6  0  0  0
  9 11  1  0  0  0  0
  9 10  1  0  0  0  0
 10 12  1  0  0  0  0
 11  8  1  0  0  0  0
 12 13  1  0  0  0  0
 12 20  1  1  0  0  0
 13 22  1  1  0  0  0
 15 14  1  0  0  0  0
 16  9  1  0  0  0  0
 16 18  1  0  0  0  0
 17 16  2  0  0  0  0
 19 18  1  0  0  0  0
 20 21  1  0  0  0  0
 22 23  1  0  0  0  0
 23 26  2  0  0  0  0
 23 25  1  0  0  0  0
 24 22  1  0  0  0  0
 27 28  1  0  0  0  0
 29  6  1  0  0  0  0
 30 29  1  0  0  0  0
 31 32  1  0  0  0  0
 31  2  1  0  0  0  0
 33 35  1  0  0  0  0
 33 32  1  0  0  0  0
 34 33  2  0  0  0  0
 36 34  1  0  0  0  0
 36 37  1  0  0  0  0
 37 35  2  0  0  0  0
 38 36  1  0  0  0  0
 39 38  2  0  0  0  0
 40 38  1  0  0  0  0
 41 39  1  0  0  0  0
 42 40  2  0  0  0  0
 43 41  2  0  0  0  0
 43 42  1  0  0  0  0
 44 43  1  0  0  0  0
 45 44  1  0  0  0  0
 46 47  1  0  0  0  0
 48 47  1  0  0  0  0
 48 49  1  0  0  0  0
 50 51  1  0  0  0  0
 50 49  1  0  0  0  0
M  END
>  <REMARK>
 VINA RESULT:    -5.039      5.047      8.105
 INTER + INTRA:         -14.242
 INTER:                  -9.280
 INTRA:                  -4.963
 UNBOUND:                -5.226
 SMILES COc1ccc(-n2cc(COC(=O)NC[C@@H](O)C(O)[C@@H]3O[C@@](O)(C(=O)O)C[C@H](O)[C@H]3NC(C)=O)nn2)cc1
 SMILES IDX 14 1 12 2 13 3 15 5 16 6 18 7 20 8 22 9 27 10 21 11 28 12
 SMILES IDX 30 13 23 14 24 16 25 17 26 18 29 20 31 22 32 23 33 25 34 26
 SMILES IDX 19 27 17 29 11 31 10 32 9 33 8 34 35 35 7 36 36 37 6 38 5 39
 SMILES IDX 37 40 4 41 38 42 3 43 2 44 1 45
 H PARENT 14 4 23 15 26 19 29 21 31 24 19 28 17 30
 Flexibility Score: inf
  4 active torsions:
  status: ('A' for Active; 'I' for Inactive)
    1  A    between atoms: CA   and  CB  
    2  A    between atoms: CB   and  CG  
    3  A    between atoms: CG   and  CD  
    4  A    between atoms: CD   and  CE  

>  <TORSDO>
F 16

>  <BEGIN_>
RES LYS A 131

$$$$
ligand_5_pose_7_2HRL.pdbqt
 OpenBabel07062320523D

  6  5  0  0  0  0  0  0  0  0999 V2000
   33.1930   34.6630    9.2900 C   0  0  0  0  0  0  0  0  0  0  0  0
   32.0600   35.3600   10.0340 C   0  0  0  0  0  0  0  0  0  0  0  0
   30.7790   35.4380    9.2440 C   0  0  0  0  0  0  0  0  0  0  0  0
   30.3360   36.8840    9.0820 C   0  0  0  0  0  0  0  0  0  0  0  0
   30.2310   37.5640   10.4340 C   0  0  0  0  0  0  0  0  0  0  0  0
   29.0060   37.1290   11.1600 N   0  0  0  0  0  0  0  0  0  0  0  0
  1  2  1  0  0  0  0
  3  2  1  0  0  0  0
  4  3  1  0  0  0  0
  4  5  1  0  0  0  0
  5  6  1  0  0  0  0
M  END
>  <EGIN_R>
ES LYS A 135

>  <REMARK>
  4 active torsions:
  status: ('A' for Active; 'I' for Inactive)
    5  A    between atoms: CA   and  CB  
    6  A    between atoms: CB   and  CG  
    7  A    between atoms: CG   and  CD  
    8  A    between atoms: CD   and  CE  

$$$$
