ligand_83_pose_19_2HRL.pdbqt
 OpenBabel07062320523D

 56 57  0  0  1  0  0  0  0  0999 V2000
   29.1700   27.3780   21.2700 O   0  0  0  0  0  0  0  0  0  0  0  0
   29.6380   28.7000   21.1730 C   0  0  0  0  0  0  0  0  0  0  0  0
   30.1750   29.2330   19.9960 N   0  0  0  0  0  0  0  0  0  0  0  0
   30.2260   28.5900   19.1490 H   0  0  0  0  0  0  0  0  0  0  0  0
   29.5490   29.3870   22.1990 O   0  0  0  0  0  0  0  0  0  0  0  0
   30.6620   30.5840   19.8540 C   0  0  0  0  0  0  0  0  0  0  0  0
   29.5070   31.4640   19.4600 C   0  0  2  0  0  0  0  0  0  0  0  0
   29.3130   31.3440   17.9670 C   0  0  2  0  0  0  0  0  0  0  0  0
   28.5980   32.5680   17.4080 C   0  0  2  0  0  0  0  0  0  0  0  0
   26.4770   33.5280   17.4600 C   0  0  2  0  0  0  0  0  0  0  0  0
   26.7730   33.9350   16.0290 C   0  0  0  0  0  0  0  0  0  0  0  0
   27.2970   32.4880   17.8240 O   0  0  0  0  0  0  0  0  0  0  0  0
   27.3840   32.7660   15.2900 C   0  0  1  0  0  0  0  0  0  0  0  0
   28.7650   32.5510   15.9000 C   0  0  1  0  0  0  0  0  0  0  0  0
   25.1530   33.0590   17.5690 O   0  0  0  0  0  0  0  0  0  0  0  0
   24.5880   33.8460   17.7430 H   0  0  0  0  0  0  0  0  0  0  0  0
   26.6510   34.6380   18.4050 C   0  0  0  0  0  0  0  0  0  0  0  0
   27.0440   34.4270   19.5630 O   0  0  0  0  0  0  0  0  0  0  0  0
   26.3790   35.9360   18.0130 O   0  0  0  0  0  0  0  0  0  0  0  0
   26.5180   36.7040   18.6430 H   0  0  0  0  0  0  0  0  0  0  0  0
   26.6880   31.5810   15.4690 O   0  0  0  0  0  0  0  0  0  0  0  0
   25.8930   31.7310   16.0170 H   0  0  0  0  0  0  0  0  0  0  0  0
   29.6420   33.5900   15.4420 N   0  0  0  0  0  0  0  0  0  0  0  0
   31.0070   33.3290   15.2030 C   0  0  0  0  0  0  0  0  0  0  0  0
   29.3240   34.5800   15.2660 H   0  0  0  0  0  0  0  0  0  0  0  0
   31.9150   34.4160   14.7260 C   0  0  0  0  0  0  0  0  0  0  0  0
   31.4860   32.1790   15.3830 O   0  0  0  0  0  0  0  0  0  0  0  0
   28.4940   30.2600   17.7210 O   0  0  0  0  0  0  0  0  0  0  0  0
   27.8380   30.4260   17.0040 H   0  0  0  0  0  0  0  0  0  0  0  0
   29.6900   32.7850   19.8570 O   0  0  0  0  0  0  0  0  0  0  0  0
   29.3510   33.3520   19.1200 H   0  0  0  0  0  0  0  0  0  0  0  0
   27.7560   27.1330   21.3220 C   0  0  0  0  0  0  0  0  0  0  0  0
   27.1150   27.4120   20.0410 C   0  0  0  0  0  0  0  0  0  0  0  0
   25.7760   27.6390   19.8400 C   0  0  0  0  0  0  0  0  0  0  0  0
   27.7360   27.4890   18.8550 N   0  0  0  0  0  0  0  0  0  0  0  0
   25.6230   27.8500   18.5250 N   0  0  0  0  0  0  0  0  0  0  0  0
   26.8010   27.7560   17.9570 N   0  0  0  0  0  0  0  0  0  0  0  0
   24.3290   28.1340   17.8800 C   0  0  0  0  0  0  0  0  0  0  0  0
   24.4580   29.3410   16.9780 C   0  0  2  0  0  0  0  0  0  0  0  0
   25.4200   30.1690   17.5980 O   0  0  0  0  0  0  0  0  0  0  0  0
   26.2280   29.6810   17.8440 H   0  0  0  0  0  0  0  0  0  0  0  0
   23.1340   30.0300   16.8820 C   0  0  0  0  0  0  0  0  0  0  0  0
   22.5070   29.6390   15.6170 N   0  0  0  0  0  0  0  0  0  0  0  0
   21.5150   28.7320   15.4620 C   0  0  0  0  0  0  0  0  0  0  0  0
   22.8290   30.1440   14.4380 C   0  0  0  0  0  0  0  0  0  0  0  0
   21.2170   28.6770   14.1390 C   0  0  0  0  0  0  0  0  0  0  0  0
   22.0220   29.5410   13.5210 N   0  0  0  0  0  0  0  0  0  0  0  0
   23.8260   31.1320   14.1320 N   0  0  0  0  0  0  0  0  0  0  0  0
   24.7170   30.9580   13.2850 O   0  0  0  0  0  0  0  0  0  0  0  0
   23.8010   32.3370   14.8050 O   0  0  0  0  0  0  0  0  0  0  0  0
   29.8670   25.5550   16.9770 C   0  0  0  0  0  0  0  0  0  0  0  0
   28.3450   25.7220   17.0260 C   0  0  0  0  0  0  0  0  0  0  0  0
   27.6010   24.4030   16.8870 C   0  0  0  0  0  0  0  0  0  0  0  0
   26.6140   24.1890   18.0000 C   0  0  0  0  0  0  0  0  0  0  0  0
   25.1970   24.3840   17.4690 C   0  0  0  0  0  0  0  0  0  0  0  0
   24.2340   24.4940   18.5900 N   0  0  0  0  0  0  0  0  0  0  0  0
  1 32  1  0  0  0  0
  2  1  1  0  0  0  0
  2  5  2  0  0  0  0
  3  2  1  0  0  0  0
  4  3  1  0  0  0  0
  6  3  1  0  0  0  0
  7  6  1  6  0  0  0
  7 30  1  0  0  0  0
  8 28  1  1  0  0  0
  8  7  1  0  0  0  0
  9 12  1  0  0  0  0
  9  8  1  1  0  0  0
 10 15  1  1  0  0  0
 10 12  1  0  0  0  0
 10 17  1  0  0  0  0
 11 10  1  0  0  0  0
 13 21  1  1  0  0  0
 13 14  1  0  0  0  0
 13 11  1  0  0  0  0
 14 23  1  1  0  0  0
 14  9  1  0  0  0  0
 15 16  1  0  0  0  0
 17 18  2  0  0  0  0
 19 17  1  0  0  0  0
 19 20  1  0  0  0  0
 21 22  1  0  0  0  0
 24 27  2  0  0  0  0
 24 23  1  0  0  0  0
 25 23  1  0  0  0  0
 26 24  1  0  0  0  0
 29 28  1  0  0  0  0
 31 30  1  0  0  0  0
 33 32  1  0  0  0  0
 34 33  2  0  0  0  0
 35 33  1  0  0  0  0
 36 34  1  0  0  0  0
 37 36  1  0  0  0  0
 37 35  2  0  0  0  0
 38 36  1  0  0  0  0
 39 42  1  1  0  0  0
 39 40  1  0  0  0  0
 39 38  1  0  0  0  0
 40 41  1  0  0  0  0
 43 42  1  0  0  0  0
 44 43  1  0  0  0  0
 45 43  1  0  0  0  0
 46 44  2  0  0  0  0
 47 46  1  0  0  0  0
 47 45  2  0  0  0  0
 48 45  1  0  0  0  0
 48 50  2  0  0  0  0
 49 48  2  0  0  0  0
 51 52  1  0  0  0  0
 53 52  1  0  0  0  0
 53 54  1  0  0  0  0
 55 54  1  0  0  0  0
 55 56  1  0  0  0  0
M  END
>  <REMARK>
 VINA RESULT:    -3.380      3.105      6.564
 INTER + INTRA:         -15.185
 INTER:                  -6.739
 INTRA:                  -8.446
 UNBOUND:                -8.446
 SMILES CC(=O)N[C@@H]1[C@@H](O)C[C@](O)(C(=O)O)O[C@H]1C(O)[C@H](O)CNC(=O)OCc1cn(CC(O)Cn2ccnc2[N+](=O)[O-])nn1
 SMILES IDX 24 1 22 2 21 3 23 5 20 6 18 7 16 8 15 9 9 10 8 11 14 12 6 13
 SMILES IDX 5 14 10 15 11 17 12 18 13 19 7 21 4 23 2 24 1 26 3 27 17 28
 SMILES IDX 19 30 25 32 26 33 27 34 42 35 28 36 41 37 29 38 30 39 31 40
 SMILES IDX 32 42 33 43 34 44 37 45 35 46 36 47 38 48 39 49 40 50
 H PARENT 21 4 10 16 13 20 7 22 4 25 17 29 19 31 31 41
 Flexibility Score: inf
  4 active torsions:
  status: ('A' for Active; 'I' for Inactive)
    1  A    between atoms: CA   and  CB  
    2  A    between atoms: CB   and  CG  
    3  A    between atoms: CG   and  CD  
    4  A    between atoms: CD   and  CE  

>  <TORSDO>
F 20

>  <BEGIN_>
RES LYS A 131

$$$$
ligand_83_pose_19_2HRL.pdbqt
 OpenBabel07062320523D

  6  5  0  0  0  0  0  0  0  0999 V2000
   33.1930   34.6630    9.2900 C   0  0  0  0  0  0  0  0  0  0  0  0
   32.0600   35.3600   10.0340 C   0  0  0  0  0  0  0  0  0  0  0  0
   30.7090   34.7360    9.7950 C   0  0  0  0  0  0  0  0  0  0  0  0
   30.4780   34.5080    8.3100 C   0  0  0  0  0  0  0  0  0  0  0  0
   29.0570   34.8770    7.9280 C   0  0  0  0  0  0  0  0  0  0  0  0
   28.0750   34.2770    8.8740 N   0  0  0  0  0  0  0  0  0  0  0  0
  1  2  1  0  0  0  0
  3  2  1  0  0  0  0
  4  3  1  0  0  0  0
  5  4  1  0  0  0  0
  5  6  1  0  0  0  0
M  END
>  <EGIN_R>
ES LYS A 135

>  <REMARK>
  4 active torsions:
  status: ('A' for Active; 'I' for Inactive)
    5  A    between atoms: CA   and  CB  
    6  A    between atoms: CB   and  CG  
    7  A    between atoms: CG   and  CD  
    8  A    between atoms: CD   and  CE  

$$$$
