ligand_42_pose_1_2HRL.pdbqt
 OpenBabel07062320523D

 52 54  0  0  1  0  0  0  0  0999 V2000
   26.6850   37.9620   11.1570 C   0  0  0  0  0  0  0  0  0  0  0  0
   26.7900   36.5930   10.5750 C   0  0  2  0  0  0  0  0  0  0  0  0
   26.1110   36.5270    9.1970 C   0  0  1  0  0  0  0  0  0  0  0  0
   27.1730   36.2460    8.1950 C   0  0  2  0  0  0  0  0  0  0  0  0
   29.4000   35.9030    7.8530 C   0  0  2  0  0  0  0  0  0  0  0  0
   28.8660   35.6350    6.4620 C   0  0  0  0  0  0  0  0  0  0  0  0
   28.4200   36.1040    8.7930 O   0  0  0  0  0  0  0  0  0  0  0  0
   27.9650   36.7510    5.9700 C   0  0  1  0  0  0  0  0  0  0  0  0
   27.3220   37.3680    7.1660 C   0  0  1  0  0  0  0  0  0  0  0  0
   30.2690   36.9890    7.7360 O   0  0  0  0  0  0  0  0  0  0  0  0
   30.0940   37.5630    8.5290 H   0  0  0  0  0  0  0  0  0  0  0  0
   30.1630   34.6990    8.2550 C   0  0  0  0  0  0  0  0  0  0  0  0
   29.6040   33.8250    8.9600 O   0  0  0  0  0  0  0  0  0  0  0  0
   31.4800   34.4880    7.8850 O   0  0  0  0  0  0  0  0  0  0  0  0
   31.8500   33.5820    7.6180 H   0  0  0  0  0  0  0  0  0  0  0  0
   28.8140   37.6620    5.3050 O   0  0  0  0  0  0  0  0  0  0  0  0
   28.3300   38.4710    5.0560 H   0  0  0  0  0  0  0  0  0  0  0  0
   26.1190   38.0770    6.9260 N   0  0  0  0  0  0  0  0  0  0  0  0
   25.9070   39.4720    7.0930 C   0  0  0  0  0  0  0  0  0  0  0  0
   25.2950   37.5320    6.5900 H   0  0  0  0  0  0  0  0  0  0  0  0
   24.5940   40.1240    6.8100 C   0  0  0  0  0  0  0  0  0  0  0  0
   26.8770   40.1540    7.4940 O   0  0  0  0  0  0  0  0  0  0  0  0
   25.1610   35.5440    9.2500 O   0  0  0  0  0  0  0  0  0  0  0  0
   24.5010   35.5770    9.9500 H   0  0  0  0  0  0  0  0  0  0  0  0
   26.2060   35.6480   11.3760 O   0  0  0  0  0  0  0  0  0  0  0  0
   26.1360   34.7410   11.0100 H   0  0  0  0  0  0  0  0  0  0  0  0
   27.3760   38.9320   10.3810 N   0  0  0  0  0  0  0  0  0  0  0  0
   28.7380   39.2310   10.5450 C   0  0  0  0  0  0  0  0  0  0  0  0
   26.8640   39.4810    9.6250 H   0  0  0  0  0  0  0  0  0  0  0  0
   29.4920   38.7060   11.3800 O   0  0  0  0  0  0  0  0  0  0  0  0
   29.3220   40.2000    9.7090 O   0  0  0  0  0  0  0  0  0  0  0  0
   30.7100   40.2470    9.5830 C   0  0  0  0  0  0  0  0  0  0  0  0
   31.0780   40.0240    8.1610 C   0  0  0  0  0  0  0  0  0  0  0  0
   32.3670   39.9530    7.6430 C   0  0  0  0  0  0  0  0  0  0  0  0
   30.2680   39.8480    7.1030 N   0  0  0  0  0  0  0  0  0  0  0  0
   32.3080   39.7420    6.3170 N   0  0  0  0  0  0  0  0  0  0  0  0
   31.0200   39.6840    6.0310 N   0  0  0  0  0  0  0  0  0  0  0  0
   33.4200   39.6120    5.4400 C   0  0  0  0  0  0  0  0  0  0  0  0
   33.3430   40.0630    4.1370 C   0  0  0  0  0  0  0  0  0  0  0  0
   34.6130   39.0400    5.8310 C   0  0  0  0  0  0  0  0  0  0  0  0
   34.4200   39.9460    3.2610 C   0  0  0  0  0  0  0  0  0  0  0  0
   35.7040   38.9110    4.9720 C   0  0  0  0  0  0  0  0  0  0  0  0
   35.6010   39.3700    3.6770 C   0  0  0  0  0  0  0  0  0  0  0  0
   36.9840   38.3850    5.1230 O   0  0  0  0  0  0  0  0  0  0  0  0
   36.8380   39.1090    3.0610 O   0  0  0  0  0  0  0  0  0  0  0  0
   37.5280   38.1260    3.8410 C   0  0  0  0  0  0  0  0  0  0  0  0
   29.8670   25.5550   16.9770 C   0  0  0  0  0  0  0  0  0  0  0  0
   28.3450   25.7220   17.0260 C   0  0  0  0  0  0  0  0  0  0  0  0
   27.6020   24.3990   16.9200 C   0  0  0  0  0  0  0  0  0  0  0  0
   26.1520   24.5320   17.2960 C   0  0  0  0  0  0  0  0  0  0  0  0
   26.0040   25.5910   18.3840 C   0  0  0  0  0  0  0  0  0  0  0  0
   24.9150   26.5370   18.0430 N   0  0  0  0  0  0  0  0  0  0  0  0
  2  1  1  1  0  0  0
  2 25  1  0  0  0  0
  3 23  1  1  0  0  0
  3  2  1  0  0  0  0
  4  7  1  0  0  0  0
  4  3  1  1  0  0  0
  5 10  1  6  0  0  0
  5 12  1  0  0  0  0
  5  7  1  0  0  0  0
  6  5  1  0  0  0  0
  8 16  1  1  0  0  0
  8  6  1  0  0  0  0
  8  9  1  0  0  0  0
  9 18  1  6  0  0  0
  9  4  1  0  0  0  0
 10 11  1  0  0  0  0
 12 13  2  0  0  0  0
 14 12  1  0  0  0  0
 15 14  1  0  0  0  0
 17 16  1  0  0  0  0
 18 19  1  0  0  0  0
 19 22  2  0  0  0  0
 20 18  1  0  0  0  0
 21 19  1  0  0  0  0
 23 24  1  0  0  0  0
 26 25  1  0  0  0  0
 27 28  1  0  0  0  0
 27  1  1  0  0  0  0
 28 30  2  0  0  0  0
 29 27  1  0  0  0  0
 31 28  1  0  0  0  0
 32 31  1  0  0  0  0
 33 32  1  0  0  0  0
 34 33  2  0  0  0  0
 35 33  1  0  0  0  0
 36 34  1  0  0  0  0
 37 36  1  0  0  0  0
 37 35  2  0  0  0  0
 38 40  1  0  0  0  0
 38 36  1  0  0  0  0
 39 38  2  0  0  0  0
 41 43  2  0  0  0  0
 41 39  1  0  0  0  0
 42 44  1  0  0  0  0
 42 40  2  0  0  0  0
 43 42  1  0  0  0  0
 45 43  1  0  0  0  0
 45 46  1  0  0  0  0
 46 44  1  0  0  0  0
 47 48  1  0  0  0  0
 49 48  1  0  0  0  0
 49 50  1  0  0  0  0
 50 51  1  0  0  0  0
 52 51  1  0  0  0  0
M  END
>  <REMARK>
 VINA RESULT:    -5.922      8.553     14.232
 INTER + INTRA:         -14.798
 INTER:                  -9.979
 INTRA:                  -4.819
 UNBOUND:                -4.548
 SMILES CC(=O)N[C@@H]1[C@@H](O)C[C@](O)(C(=O)O)O[C@H]1C(O)[C@H](O)CNC(=O)OCc1cn(-c2ccc3c(c2)OCO3)nn1
 SMILES IDX 20 1 18 2 16 3 15 4 9 5 8 6 14 7 6 8 5 9 10 10 11 12 12 13
 SMILES IDX 13 14 7 16 4 18 2 19 1 21 3 22 17 23 19 25 21 27 22 28 23 30
 SMILES IDX 24 31 25 32 26 33 27 34 39 35 28 36 38 37 29 38 30 39 34 40
 SMILES IDX 31 41 33 42 32 43 35 44 37 45 36 46
 H PARENT 10 11 13 15 7 17 4 20 17 24 19 26 21 29
 Flexibility Score: inf
  4 active torsions:
  status: ('A' for Active; 'I' for Inactive)
    1  A    between atoms: CA   and  CB  
    2  A    between atoms: CB   and  CG  
    3  A    between atoms: CG   and  CD  
    4  A    between atoms: CD   and  CE  

>  <TORSDO>
F 15

>  <BEGIN_>
RES LYS A 131

$$$$
ligand_42_pose_1_2HRL.pdbqt
 OpenBabel07062320523D

  6  5  0  0  0  0  0  0  0  0999 V2000
   33.1930   34.6630    9.2900 C   0  0  0  0  0  0  0  0  0  0  0  0
   32.0600   35.3600   10.0340 C   0  0  0  0  0  0  0  0  0  0  0  0
   32.5300   36.2230   11.1760 C   0  0  0  0  0  0  0  0  0  0  0  0
   31.8160   35.8440   12.4650 C   0  0  0  0  0  0  0  0  0  0  0  0
   30.5640   35.0440   12.1640 C   0  0  0  0  0  0  0  0  0  0  0  0
   29.4170   35.5100   12.9910 N   0  0  0  0  0  0  0  0  0  0  0  0
  1  2  1  0  0  0  0
  2  3  1  0  0  0  0
  3  4  1  0  0  0  0
  5  4  1  0  0  0  0
  5  6  1  0  0  0  0
M  END
>  <EGIN_R>
ES LYS A 135

>  <REMARK>
  4 active torsions:
  status: ('A' for Active; 'I' for Inactive)
    5  A    between atoms: CA   and  CB  
    6  A    between atoms: CB   and  CG  
    7  A    between atoms: CG   and  CD  
    8  A    between atoms: CD   and  CE  

$$$$
