ligand_92_pose_1_2HRL.pdbqt
 OpenBabel07062320523D

 59 61  0  0  1  0  0  0  0  0999 V2000
   29.7520   27.0000   20.3460 N   0  0  0  0  0  0  0  0  0  0  0  0
   28.4070   27.4290   20.3780 C   0  0  0  0  0  0  0  0  0  0  0  0
   27.8750   27.6860   21.5120 O   0  0  0  0  0  0  0  0  0  0  0  0
   30.1890   26.7920   19.4320 H   0  0  0  0  0  0  0  0  0  0  0  0
   30.5280   26.8470   21.5470 C   0  0  0  0  0  0  0  0  0  0  0  0
   31.8110   27.6410   21.5180 C   0  0  2  0  0  0  0  0  0  0  0  0
   31.6740   28.9650   22.2120 C   0  0  1  0  0  0  0  0  0  0  0  0
   32.3570   30.0790   21.3980 C   0  0  2  0  0  0  0  0  0  0  0  0
   34.2810   30.5770   22.6700 C   0  0  2  0  0  0  0  0  0  0  0  0
   33.8280   32.0220   22.7570 C   0  0  0  0  0  0  0  0  0  0  0  0
   33.6950   29.9660   21.6170 O   0  0  0  0  0  0  0  0  0  0  0  0
   32.3340   31.9710   22.9630 C   0  0  1  0  0  0  0  0  0  0  0  0
   31.7160   31.3700   21.7250 C   0  0  1  0  0  0  0  0  0  0  0  0
   33.8470   29.9740   23.8580 O   0  0  0  0  0  0  0  0  0  0  0  0
   32.9130   30.1640   24.0660 H   0  0  0  0  0  0  0  0  0  0  0  0
   35.7630   30.4850   22.6490 C   0  0  0  0  0  0  0  0  0  0  0  0
   36.4330   31.4650   22.2960 O   0  0  0  0  0  0  0  0  0  0  0  0
   36.4050   29.3180   23.0170 O   0  0  0  0  0  0  0  0  0  0  0  0
   37.0900   29.3260   23.7880 H   0  0  0  0  0  0  0  0  0  0  0  0
   32.0380   31.2610   24.1210 O   0  0  0  0  0  0  0  0  0  0  0  0
   32.9100   31.0240   24.5540 H   0  0  0  0  0  0  0  0  0  0  0  0
   31.7530   32.3630   20.6990 N   0  0  0  0  0  0  0  0  0  0  0  0
   30.5630   32.7830   20.0670 C   0  0  0  0  0  0  0  0  0  0  0  0
   32.6520   32.7810   20.4080 H   0  0  0  0  0  0  0  0  0  0  0  0
   30.5090   33.8070   18.9930 C   0  0  0  0  0  0  0  0  0  0  0  0
   29.4990   32.2650   20.4320 O   0  0  0  0  0  0  0  0  0  0  0  0
   30.3220   29.3160   22.4350 O   0  0  0  0  0  0  0  0  0  0  0  0
   29.8690   29.2920   21.5730 H   0  0  0  0  0  0  0  0  0  0  0  0
   32.1160   27.8080   20.1500 O   0  0  0  0  0  0  0  0  0  0  0  0
   31.9150   26.9420   19.7170 H   0  0  0  0  0  0  0  0  0  0  0  0
   27.6240   27.5890   19.2540 O   0  0  0  0  0  0  0  0  0  0  0  0
   26.9230   28.8120   18.9860 C   0  0  0  0  0  0  0  0  0  0  0  0
   27.5460   29.3880   17.7580 C   0  0  0  0  0  0  0  0  0  0  0  0
   28.3130   30.5520   17.6760 C   0  0  0  0  0  0  0  0  0  0  0  0
   27.5080   28.9230   16.4920 N   0  0  0  0  0  0  0  0  0  0  0  0
   28.6960   30.7430   16.4030 N   0  0  0  0  0  0  0  0  0  0  0  0
   28.1890   29.7360   15.7220 N   0  0  0  0  0  0  0  0  0  0  0  0
   29.4890   31.8280   15.9400 C   0  0  0  0  0  0  0  0  0  0  0  0
   30.8650   31.7950   15.9390 C   0  0  0  0  0  0  0  0  0  0  0  0
   28.8760   32.9690   15.4700 C   0  0  0  0  0  0  0  0  0  0  0  0
   31.6240   32.8710   15.4820 C   0  0  0  0  0  0  0  0  0  0  0  0
   29.6230   34.0340   15.0180 C   0  0  0  0  0  0  0  0  0  0  0  0
   31.0220   34.0140   15.0110 C   0  0  0  0  0  0  0  0  0  0  0  0
   31.9270   35.3760   14.4190 S   0  0  0  0  0  0  0  0  0  0  0  0
   31.0380   36.6020   14.5900 O   0  0  0  0  0  0  0  0  0  0  0  0
   32.1160   35.1960   12.9520 O   0  0  0  0  0  0  0  0  0  0  0  0
   33.4040   35.6430   15.2150 N   0  0  0  0  0  0  0  0  0  0  0  0
   34.2880   35.5550   14.6440 H   0  0  0  0  0  0  0  0  0  0  0  0
   33.5930   35.9710   16.5670 C   0  0  0  0  0  0  0  0  0  0  0  0
   33.3750   35.5630   17.6970 N   0  0  0  0  0  0  0  0  0  0  0  0
   34.4900   37.5750   17.0040 S   0  0  0  0  0  0  0  0  0  0  0  0
   33.6870   36.1060   18.8290 C   0  0  0  0  0  0  0  0  0  0  0  0
   34.3450   37.2870   18.8360 C   0  0  0  0  0  0  0  0  0  0  0  0
   29.8670   25.5550   16.9770 C   0  0  0  0  0  0  0  0  0  0  0  0
   28.3450   25.7220   17.0260 C   0  0  0  0  0  0  0  0  0  0  0  0
   27.6020   24.3990   16.9260 C   0  0  0  0  0  0  0  0  0  0  0  0
   26.1510   24.5340   17.2960 C   0  0  0  0  0  0  0  0  0  0  0  0
   26.0120   24.5410   18.8150 C   0  0  0  0  0  0  0  0  0  0  0  0
   25.5380   23.2240   19.2990 N   0  0  0  0  0  0  0  0  0  0  0  0
  1  2  1  0  0  0  0
  1  5  1  0  0  0  0
  2  3  2  0  0  0  0
  4  1  1  0  0  0  0
  6  5  1  6  0  0  0
  6  7  1  0  0  0  0
  7 27  1  6  0  0  0
  8 11  1  0  0  0  0
  8 13  1  0  0  0  0
  8  7  1  1  0  0  0
  9 16  1  6  0  0  0
  9 10  1  0  0  0  0
  9 14  1  0  0  0  0
 10 12  1  0  0  0  0
 11  9  1  0  0  0  0
 12 20  1  1  0  0  0
 13 22  1  6  0  0  0
 13 12  1  0  0  0  0
 14 15  1  0  0  0  0
 16 18  1  0  0  0  0
 17 16  2  0  0  0  0
 18 19  1  0  0  0  0
 20 21  1  0  0  0  0
 23 26  2  0  0  0  0
 23 22  1  0  0  0  0
 24 22  1  0  0  0  0
 25 23  1  0  0  0  0
 28 27  1  0  0  0  0
 29  6  1  0  0  0  0
 30 29  1  0  0  0  0
 31  2  1  0  0  0  0
 32 31  1  0  0  0  0
 33 32  1  0  0  0  0
 34 33  2  0  0  0  0
 35 33  1  0  0  0  0
 36 34  1  0  0  0  0
 37 36  1  0  0  0  0
 37 35  2  0  0  0  0
 38 36  1  0  0  0  0
 39 38  1  0  0  0  0
 40 38  2  0  0  0  0
 41 39  2  0  0  0  0
 42 40  1  0  0  0  0
 43 42  2  0  0  0  0
 43 41  1  0  0  0  0
 44 45  2  0  0  0  0
 44 43  1  0  0  0  0
 44 47  1  0  0  0  0
 46 44  2  0  0  0  0
 47 49  1  0  0  0  0
 48 47  1  0  0  0  0
 49 51  1  0  0  0  0
 49 50  2  0  0  0  0
 50 52  1  0  0  0  0
 51 53  1  0  0  0  0
 52 53  2  0  0  0  0
 54 55  1  0  0  0  0
 56 55  1  0  0  0  0
 56 57  1  0  0  0  0
 57 58  1  0  0  0  0
 58 59  1  0  0  0  0
M  END
>  <REMARK>
 VINA RESULT:    -5.395      1.874      2.843
 INTER + INTRA:         -16.691
 INTER:                 -10.027
 INTRA:                  -6.664
 UNBOUND:                -6.408
 SMILES CC(=O)N[C@@H]1[C@@H](O)C[C@](O)(C(=O)O)O[C@H]1C(O)[C@H](O)CNC(=O)OCc1cn(-c2ccc(S(=O)(=O)Nc3nccs3)cc2)nn1
 SMILES IDX 21 1 22 2 23 3 20 5 18 6 16 7 15 8 9 9 8 10 14 11 6 12 5 13
 SMILES IDX 10 14 11 16 12 17 13 18 7 20 4 22 2 23 1 25 3 26 17 27 19 29
 SMILES IDX 24 31 25 32 26 33 27 34 45 35 28 36 44 37 29 38 30 39 43 40
 SMILES IDX 31 41 42 42 32 43 33 44 34 45 35 46 36 47 37 49 38 50 41 51
 SMILES IDX 39 52 40 53
 H PARENT 21 4 10 15 13 19 7 21 4 24 17 28 19 30 36 48
 Flexibility Score: inf
  4 active torsions:
  status: ('A' for Active; 'I' for Inactive)
    1  A    between atoms: CA   and  CB  
    2  A    between atoms: CB   and  CG  
    3  A    between atoms: CG   and  CD  
    4  A    between atoms: CD   and  CE  

>  <TORSDO>
F 18

>  <BEGIN_>
RES LYS A 131

$$$$
ligand_92_pose_1_2HRL.pdbqt
 OpenBabel07062320523D

  6  5  0  0  0  0  0  0  0  0999 V2000
   33.1930   34.6630    9.2900 C   0  0  0  0  0  0  0  0  0  0  0  0
   32.0600   35.3600   10.0340 C   0  0  0  0  0  0  0  0  0  0  0  0
   30.8800   35.6940    9.1580 C   0  0  0  0  0  0  0  0  0  0  0  0
   30.3890   34.4560    8.4240 C   0  0  0  0  0  0  0  0  0  0  0  0
   28.8750   34.4530    8.3370 C   0  0  0  0  0  0  0  0  0  0  0  0
   28.2700   33.7840    9.5220 N   0  0  0  0  0  0  0  0  0  0  0  0
  1  2  1  0  0  0  0
  3  2  1  0  0  0  0
  4  3  1  0  0  0  0
  5  4  1  0  0  0  0
  5  6  1  0  0  0  0
M  END
>  <EGIN_R>
ES LYS A 135

>  <REMARK>
  4 active torsions:
  status: ('A' for Active; 'I' for Inactive)
    5  A    between atoms: CA   and  CB  
    6  A    between atoms: CB   and  CG  
    7  A    between atoms: CG   and  CD  
    8  A    between atoms: CD   and  CE  

$$$$
