ligand_84_pose_4_2HRL.pdbqt
 OpenBabel07062320523D

 60 62  0  0  1  0  0  0  0  0999 V2000
   17.8720   33.1400    7.8270 O   0  0  0  0  0  0  0  0  0  0  0  0
   18.4040   34.4130    7.9560 C   0  0  0  0  0  0  0  0  0  0  0  0
   19.5090   34.8970    7.2010 N   0  0  0  0  0  0  0  0  0  0  0  0
   19.9330   34.2350    6.5240 H   0  0  0  0  0  0  0  0  0  0  0  0
   17.8450   35.1610    8.8030 O   0  0  0  0  0  0  0  0  0  0  0  0
   19.9240   36.2400    7.4470 C   0  0  0  0  0  0  0  0  0  0  0  0
   21.0500   36.4250    8.3830 C   0  0  2  0  0  0  0  0  0  0  0  0
   22.1060   37.4270    7.9490 C   0  0  1  0  0  0  0  0  0  0  0  0
   23.2290   37.2510    8.9740 C   0  0  2  0  0  0  0  0  0  0  0  0
   23.4460   36.8650   11.2650 C   0  0  2  0  0  0  0  0  0  0  0  0
   24.6020   37.8240   11.3150 C   0  0  0  0  0  0  0  0  0  0  0  0
   22.6270   37.0320   10.1810 O   0  0  0  0  0  0  0  0  0  0  0  0
   25.2210   38.1270    9.9990 C   0  0  1  0  0  0  0  0  0  0  0  0
   24.0760   38.4800    9.0260 C   0  0  1  0  0  0  0  0  0  0  0  0
   22.6660   37.1810   12.4070 O   0  0  0  0  0  0  0  0  0  0  0  0
   21.7130   37.1630   12.2010 H   0  0  0  0  0  0  0  0  0  0  0  0
   23.8640   35.4430   11.4390 C   0  0  0  0  0  0  0  0  0  0  0  0
   23.0430   34.5130   11.2360 O   0  0  0  0  0  0  0  0  0  0  0  0
   25.1450   35.0750   11.8230 O   0  0  0  0  0  0  0  0  0  0  0  0
   25.5720   34.1810   11.6110 H   0  0  0  0  0  0  0  0  0  0  0  0
   26.0360   39.2510   10.1340 O   0  0  0  0  0  0  0  0  0  0  0  0
   26.9930   38.9890   10.1770 H   0  0  0  0  0  0  0  0  0  0  0  0
   24.6160   38.8520    7.7450 N   0  0  0  0  0  0  0  0  0  0  0  0
   24.5220   40.1770    7.2650 C   0  0  0  0  0  0  0  0  0  0  0  0
   25.0820   38.1330    7.1670 H   0  0  0  0  0  0  0  0  0  0  0  0
   25.1160   40.4540    5.9230 C   0  0  0  0  0  0  0  0  0  0  0  0
   23.9780   41.1020    7.9040 O   0  0  0  0  0  0  0  0  0  0  0  0
   22.5490   37.0810    6.6620 O   0  0  0  0  0  0  0  0  0  0  0  0
   23.5300   37.2220    6.6640 H   0  0  0  0  0  0  0  0  0  0  0  0
   21.7570   35.1910    8.4160 O   0  0  0  0  0  0  0  0  0  0  0  0
   21.1500   34.5800    8.9230 H   0  0  0  0  0  0  0  0  0  0  0  0
   16.9300   32.8470    6.8070 C   0  0  0  0  0  0  0  0  0  0  0  0
   16.8910   31.3910    6.5430 C   0  0  0  0  0  0  0  0  0  0  0  0
   16.9320   30.4160    7.5430 C   0  0  0  0  0  0  0  0  0  0  0  0
   16.8020   30.6880    5.4050 N   0  0  0  0  0  0  0  0  0  0  0  0
   16.8680   29.1910    7.0040 N   0  0  0  0  0  0  0  0  0  0  0  0
   16.7900   29.3940    5.6700 N   0  0  0  0  0  0  0  0  0  0  0  0
   16.8560   27.8920    7.6510 C   0  0  0  0  0  0  0  0  0  0  0  0
   15.6340   27.7990    8.5750 C   0  0  1  0  0  0  0  0  0  0  0  0
   14.4670   27.1930    7.8930 C   0  0  0  0  0  0  0  0  0  0  0  0
   16.0020   27.3450    9.9250 C   0  0  0  0  0  0  0  0  0  0  0  0
   17.1730   27.9750   10.4480 N   0  0  0  0  0  0  0  0  0  0  0  0
   16.8120   29.2850   11.0530 C   0  0  0  0  0  0  0  0  0  0  0  0
   17.6810   27.2100   11.5830 C   0  0  0  0  0  0  0  0  0  0  0  0
   17.9710   29.9020   11.7520 C   0  0  0  0  0  0  0  0  0  0  0  0
   19.1410   27.6670   11.7230 C   0  0  0  0  0  0  0  0  0  0  0  0
   19.1440   29.0930   11.8730 N   0  0  0  0  0  0  0  0  0  0  0  0
   20.3880   29.7200   12.1650 C   0  0  0  0  0  0  0  0  0  0  0  0
   21.5370   28.9620   12.1970 C   0  0  0  0  0  0  0  0  0  0  0  0
   20.4570   31.0820   12.4260 C   0  0  0  0  0  0  0  0  0  0  0  0
   22.7350   29.5720   12.4870 C   0  0  0  0  0  0  0  0  0  0  0  0
   21.6560   31.6780   12.7160 C   0  0  0  0  0  0  0  0  0  0  0  0
   22.8080   30.9080   12.7440 C   0  0  0  0  0  0  0  0  0  0  0  0
   24.3240   31.6810   13.1220 Cl  0  0  0  0  0  0  0  0  0  0  0  0
   29.8670   25.5550   16.9770 C   0  0  0  0  0  0  0  0  0  0  0  0
   28.3450   25.7220   17.0260 C   0  0  0  0  0  0  0  0  0  0  0  0
   27.5990   24.4780   16.5690 C   0  0  0  0  0  0  0  0  0  0  0  0
   26.7340   23.9040   17.6560 C   0  0  0  0  0  0  0  0  0  0  0  0
   25.2660   24.1350   17.3140 C   0  0  0  0  0  0  0  0  0  0  0  0
   24.4790   22.9000   17.5440 N   0  0  0  0  0  0  0  0  0  0  0  0
  1  2  1  0  0  0  0
  2  5  2  0  0  0  0
  3  6  1  0  0  0  0
  3  2  1  0  0  0  0
  4  3  1  0  0  0  0
  7  6  1  6  0  0  0
  7 30  1  0  0  0  0
  8 28  1  6  0  0  0
  8  7  1  0  0  0  0
  9  8  1  6  0  0  0
  9 14  1  0  0  0  0
  9 12  1  0  0  0  0
 10 11  1  0  0  0  0
 10 17  1  1  0  0  0
 10 15  1  0  0  0  0
 12 10  1  0  0  0  0
 13 21  1  1  0  0  0
 13 11  1  0  0  0  0
 14 23  1  6  0  0  0
 14 13  1  0  0  0  0
 16 15  1  0  0  0  0
 17 19  1  0  0  0  0
 18 17  2  0  0  0  0
 20 19  1  0  0  0  0
 21 22  1  0  0  0  0
 24 23  1  0  0  0  0
 24 27  2  0  0  0  0
 25 23  1  0  0  0  0
 26 24  1  0  0  0  0
 28 29  1  0  0  0  0
 30 31  1  0  0  0  0
 32  1  1  0  0  0  0
 33 32  1  0  0  0  0
 33 34  2  0  0  0  0
 35 37  2  0  0  0  0
 35 33  1  0  0  0  0
 36 34  1  0  0  0  0
 36 38  1  0  0  0  0
 37 36  1  0  0  0  0
 38 39  1  0  0  0  0
 39 40  1  6  0  0  0
 39 41  1  0  0  0  0
 41 42  1  0  0  0  0
 42 43  1  0  0  0  0
 42 44  1  0  0  0  0
 43 45  1  0  0  0  0
 44 46  1  0  0  0  0
 45 47  1  0  0  0  0
 46 47  1  0  0  0  0
 47 48  1  0  0  0  0
 48 49  2  0  0  0  0
 48 50  1  0  0  0  0
 49 51  1  0  0  0  0
 50 52  2  0  0  0  0
 51 53  2  0  0  0  0
 52 53  1  0  0  0  0
 53 54  1  0  0  0  0
 55 56  1  0  0  0  0
 57 56  1  0  0  0  0
 57 58  1  0  0  0  0
 59 60  1  0  0  0  0
 59 58  1  0  0  0  0
M  END
>  <REMARK>
 VINA RESULT:    -5.228      5.199      7.482
 INTER + INTRA:         -16.392
 INTER:                 -10.449
 INTRA:                  -5.943
 UNBOUND:                -6.121
 SMILES CC(=O)N[C@@H]1[C@@H](O)C[C@](O)(C(=O)O)O[C@H]1C(O)[C@H](O)CNC(=O)OCc1cn(C[C@@H](C)CN2CCN(c3ccc(Cl)cc3)CC2)nn1
 SMILES IDX 24 1 22 2 21 3 23 5 20 6 18 7 16 8 15 9 9 10 8 11 14 12 6 13
 SMILES IDX 5 14 10 15 11 17 12 18 13 19 7 21 4 23 2 24 1 26 3 27 17 28
 SMILES IDX 19 30 25 32 26 33 27 34 47 35 28 36 46 37 29 38 30 39 31 40
 SMILES IDX 32 41 33 42 34 43 45 44 35 45 44 46 36 47 37 48 38 49 43 50
 SMILES IDX 39 51 42 52 40 53 41 54
 H PARENT 21 4 10 16 13 20 7 22 4 25 17 29 19 31
 Flexibility Score: inf
  4 active torsions:
  status: ('A' for Active; 'I' for Inactive)
    1  A    between atoms: CA   and  CB  
    2  A    between atoms: CB   and  CG  
    3  A    between atoms: CG   and  CD  
    4  A    between atoms: CD   and  CE  

>  <TORSDO>
F 19

>  <BEGIN_>
RES LYS A 131

$$$$
ligand_84_pose_4_2HRL.pdbqt
 OpenBabel07062320523D

  6  5  0  0  0  0  0  0  0  0999 V2000
   33.1930   34.6630    9.2900 C   0  0  0  0  0  0  0  0  0  0  0  0
   32.0600   35.3600   10.0340 C   0  0  0  0  0  0  0  0  0  0  0  0
   30.9180   35.7720    9.1420 C   0  0  0  0  0  0  0  0  0  0  0  0
   30.4020   34.5840    8.3460 C   0  0  0  0  0  0  0  0  0  0  0  0
   28.8860   34.5650    8.3390 C   0  0  0  0  0  0  0  0  0  0  0  0
   28.3460   35.2490    7.1310 N   0  0  0  0  0  0  0  0  0  0  0  0
  1  2  1  0  0  0  0
  3  2  1  0  0  0  0
  4  3  1  0  0  0  0
  5  4  1  0  0  0  0
  6  5  1  0  0  0  0
M  END
>  <EGIN_R>
ES LYS A 135

>  <REMARK>
  4 active torsions:
  status: ('A' for Active; 'I' for Inactive)
    5  A    between atoms: CA   and  CB  
    6  A    between atoms: CB   and  CG  
    7  A    between atoms: CG   and  CD  
    8  A    between atoms: CD   and  CE  

$$$$
