ligand_78_pose_13_2HRL.pdbqt
 OpenBabel07062320523D

 53 54  0  0  1  0  0  0  0  0999 V2000
   30.6420   37.3460   14.7730 N   0  0  0  0  0  0  0  0  0  0  0  0
   30.5900   38.4730   15.6700 C   0  0  0  0  0  0  0  0  0  0  0  0
   31.6220   39.1310   15.8650 O   0  0  0  0  0  0  0  0  0  0  0  0
   29.7360   36.8520   14.6600 H   0  0  0  0  0  0  0  0  0  0  0  0
   31.8840   36.9880   14.1110 C   0  0  0  0  0  0  0  0  0  0  0  0
   32.6670   35.9700   14.8680 C   0  0  2  0  0  0  0  0  0  0  0  0
   31.9970   34.6450   14.9970 C   0  0  2  0  0  0  0  0  0  0  0  0
   31.8850   34.0760   16.3650 C   0  0  2  0  0  0  0  0  0  0  0  0
   30.3050   32.4530   15.7800 C   0  0  2  0  0  0  0  0  0  0  0  0
   29.2210   33.4460   16.0410 C   0  0  0  0  0  0  0  0  0  0  0  0
   31.5400   32.7270   16.3110 O   0  0  0  0  0  0  0  0  0  0  0  0
   29.5170   34.5220   17.0100 C   0  0  1  0  0  0  0  0  0  0  0  0
   30.9710   34.6970   17.3450 C   0  0  1  0  0  0  0  0  0  0  0  0
   30.4910   32.2510   14.4110 O   0  0  0  0  0  0  0  0  0  0  0  0
   30.9510   31.4260   14.1890 H   0  0  0  0  0  0  0  0  0  0  0  0
   29.8960   31.1430   16.3490 C   0  0  0  0  0  0  0  0  0  0  0  0
   29.1010   30.4200   15.7110 O   0  0  0  0  0  0  0  0  0  0  0  0
   30.3560   30.6700   17.5720 O   0  0  0  0  0  0  0  0  0  0  0  0
   29.6990   30.3220   18.2840 H   0  0  0  0  0  0  0  0  0  0  0  0
   28.9590   35.7160   16.5560 O   0  0  0  0  0  0  0  0  0  0  0  0
   29.5980   36.2800   16.0840 H   0  0  0  0  0  0  0  0  0  0  0  0
   31.2830   34.1510   18.6690 N   0  0  0  0  0  0  0  0  0  0  0  0
   32.3060   34.6930   19.4780 C   0  0  0  0  0  0  0  0  0  0  0  0
   30.7440   33.3420   19.0350 H   0  0  0  0  0  0  0  0  0  0  0  0
   32.6360   34.1490   20.8290 C   0  0  0  0  0  0  0  0  0  0  0  0
   32.9460   35.6710   19.0170 O   0  0  0  0  0  0  0  0  0  0  0  0
   32.9720   33.7460   14.3780 O   0  0  0  0  0  0  0  0  0  0  0  0
   33.5770   34.3230   13.8790 H   0  0  0  0  0  0  0  0  0  0  0  0
   33.2490   36.4090   16.0410 O   0  0  0  0  0  0  0  0  0  0  0  0
   33.5540   37.3470   15.9860 H   0  0  0  0  0  0  0  0  0  0  0  0
   29.4180   38.8270   16.3090 O   0  0  0  0  0  0  0  0  0  0  0  0
   28.3050   39.3700   15.6210 C   0  0  0  0  0  0  0  0  0  0  0  0
   27.3720   38.3230   15.1800 C   0  0  0  0  0  0  0  0  0  0  0  0
   26.9350   37.9900   13.9290 C   0  0  0  0  0  0  0  0  0  0  0  0
   26.7530   37.4620   16.0160 N   0  0  0  0  0  0  0  0  0  0  0  0
   26.0730   36.9490   14.0400 N   0  0  0  0  0  0  0  0  0  0  0  0
   25.9820   36.6500   15.3250 N   0  0  0  0  0  0  0  0  0  0  0  0
   25.4040   36.3180   12.9330 C   0  0  0  0  0  0  0  0  0  0  0  0
   26.3020   34.8630   12.4110 S   0  0  0  0  0  0  0  0  0  0  0  0
   25.4650   33.6570   12.7530 O   0  0  0  0  0  0  0  0  0  0  0  0
   27.5790   34.8260   13.1630 O   0  0  0  0  0  0  0  0  0  0  0  0
   26.5660   34.9620   10.6790 C   0  0  0  0  0  0  0  0  0  0  0  0
   25.9920   36.0270    9.9920 C   0  0  0  0  0  0  0  0  0  0  0  0
   27.3190   34.0100   10.0360 C   0  0  0  0  0  0  0  0  0  0  0  0
   26.2000   36.1030    8.6360 C   0  0  0  0  0  0  0  0  0  0  0  0
   27.4970   34.1310    8.6750 C   0  0  0  0  0  0  0  0  0  0  0  0
   26.9550   35.1610    7.9430 C   0  0  0  0  0  0  0  0  0  0  0  0
   29.8670   25.5550   16.9770 C   0  0  0  0  0  0  0  0  0  0  0  0
   28.3450   25.7220   17.0260 C   0  0  0  0  0  0  0  0  0  0  0  0
   27.6010   24.4020   16.8920 C   0  0  0  0  0  0  0  0  0  0  0  0
   26.5270   24.2490   17.9330 C   0  0  0  0  0  0  0  0  0  0  0  0
   25.1850   24.0140   17.2490 C   0  0  0  0  0  0  0  0  0  0  0  0
   24.2800   23.2420   18.1330 N   0  0  0  0  0  0  0  0  0  0  0  0
  1  2  1  0  0  0  0
  2  3  2  0  0  0  0
  2 31  1  0  0  0  0
  4  1  1  0  0  0  0
  5  1  1  0  0  0  0
  6  5  1  1  0  0  0
  6  7  1  0  0  0  0
  6 29  1  0  0  0  0
  7 27  1  6  0  0  0
  8  7  1  6  0  0  0
  8 13  1  0  0  0  0
  9 14  1  6  0  0  0
  9 10  1  0  0  0  0
  9 11  1  0  0  0  0
  9 16  1  0  0  0  0
 10 12  1  0  0  0  0
 11  8  1  0  0  0  0
 12 20  1  6  0  0  0
 12 13  1  0  0  0  0
 13 22  1  1  0  0  0
 15 14  1  0  0  0  0
 16 18  1  0  0  0  0
 17 16  2  0  0  0  0
 18 19  1  0  0  0  0
 21 20  1  0  0  0  0
 22 24  1  0  0  0  0
 22 23  1  0  0  0  0
 23 25  1  0  0  0  0
 26 23  2  0  0  0  0
 28 27  1  0  0  0  0
 30 29  1  0  0  0  0
 32 31  1  0  0  0  0
 33 32  1  0  0  0  0
 33 35  1  0  0  0  0
 34 36  1  0  0  0  0
 34 33  2  0  0  0  0
 36 37  1  0  0  0  0
 37 35  2  0  0  0  0
 38 36  1  0  0  0  0
 39 40  2  0  0  0  0
 39 38  1  0  0  0  0
 39 41  2  0  0  0  0
 42 39  1  0  0  0  0
 43 42  2  0  0  0  0
 44 42  1  0  0  0  0
 45 43  1  0  0  0  0
 46 44  2  0  0  0  0
 47 45  2  0  0  0  0
 47 46  1  0  0  0  0
 48 49  1  0  0  0  0
 50 49  1  0  0  0  0
 50 51  1  0  0  0  0
 52 51  1  0  0  0  0
 52 53  1  0  0  0  0
M  END
>  <REMARK>
 VINA RESULT:    -5.247      3.898      7.914
 INTER + INTRA:         -14.706
 INTER:                  -9.454
 INTRA:                  -5.252
 UNBOUND:                -5.011
 SMILES CC(=O)N[C@@H]1[C@@H](O)C[C@](O)(C(=O)O)O[C@H]1C(O)[C@H](O)CNC(=O)OCc1cn(CS(=O)(=O)c2ccccc2)nn1
 SMILES IDX 21 1 22 2 23 3 20 5 18 6 16 7 15 8 9 9 8 10 14 11 6 12 5 13
 SMILES IDX 10 14 11 16 12 17 13 18 7 20 4 22 2 23 1 25 3 26 17 27 19 29
 SMILES IDX 24 31 25 32 26 33 27 34 40 35 28 36 39 37 29 38 30 39 31 40
 SMILES IDX 32 41 33 42 34 43 38 44 35 45 37 46 36 47
 H PARENT 21 4 10 15 13 19 7 21 4 24 17 28 19 30
 Flexibility Score: inf
  4 active torsions:
  status: ('A' for Active; 'I' for Inactive)
    1  A    between atoms: CA   and  CB  
    2  A    between atoms: CB   and  CG  
    3  A    between atoms: CG   and  CD  
    4  A    between atoms: CD   and  CE  

>  <TORSDO>
F 17

>  <BEGIN_>
RES LYS A 131

$$$$
ligand_78_pose_13_2HRL.pdbqt
 OpenBabel07062320523D

  6  5  0  0  0  0  0  0  0  0999 V2000
   33.1930   34.6630    9.2900 C   0  0  0  0  0  0  0  0  0  0  0  0
   32.0600   35.3600   10.0340 C   0  0  0  0  0  0  0  0  0  0  0  0
   30.7510   35.3470    9.2880 C   0  0  0  0  0  0  0  0  0  0  0  0
   30.1230   36.7320    9.2810 C   0  0  0  0  0  0  0  0  0  0  0  0
   29.5930   37.0830   10.6580 C   0  0  0  0  0  0  0  0  0  0  0  0
   30.1830   38.3590   11.1500 N   0  0  0  0  0  0  0  0  0  0  0  0
  1  2  1  0  0  0  0
  3  2  1  0  0  0  0
  4  3  1  0  0  0  0
  4  5  1  0  0  0  0
  5  6  1  0  0  0  0
M  END
>  <EGIN_R>
ES LYS A 135

>  <REMARK>
  4 active torsions:
  status: ('A' for Active; 'I' for Inactive)
    5  A    between atoms: CA   and  CB  
    6  A    between atoms: CB   and  CG  
    7  A    between atoms: CG   and  CD  
    8  A    between atoms: CD   and  CE  

$$$$
