ligand_22_pose_5_2HRL.pdbqt
 OpenBabel07062320523D

 50 50  0  0  1  0  0  0  0  0999 V2000
   31.4810   32.2860   15.0700 N   0  0  0  0  0  0  0  0  0  0  0  0
   31.8750   33.5510   15.5660 C   0  0  0  0  0  0  0  0  0  0  0  0
   31.5130   33.9370   16.7300 O   0  0  0  0  0  0  0  0  0  0  0  0
   31.7820   31.9810   14.1260 H   0  0  0  0  0  0  0  0  0  0  0  0
   30.6650   31.4530   15.9170 C   0  0  0  0  0  0  0  0  0  0  0  0
   29.2710   31.2370   15.4450 C   0  0  2  0  0  0  0  0  0  0  0  0
   28.2880   32.2460   15.9830 C   0  0  1  0  0  0  0  0  0  0  0  0
   26.9320   31.5460   16.1340 C   0  0  2  0  0  0  0  0  0  0  0  0
   24.7580   31.7900   15.3440 C   0  0  2  0  0  0  0  0  0  0  0  0
   24.2010   31.6210   16.7410 C   0  0  0  0  0  0  0  0  0  0  0  0
   26.0520   32.2510   15.3210 O   0  0  0  0  0  0  0  0  0  0  0  0
   25.1430   32.2170   17.7460 C   0  0  1  0  0  0  0  0  0  0  0  0
   26.5060   31.5740   17.5860 C   0  0  1  0  0  0  0  0  0  0  0  0
   23.9750   32.7810   14.7310 O   0  0  0  0  0  0  0  0  0  0  0  0
   23.0410   32.6760   14.9910 H   0  0  0  0  0  0  0  0  0  0  0  0
   24.6020   30.5420   14.5660 C   0  0  0  0  0  0  0  0  0  0  0  0
   24.3570   29.4680   15.1510 O   0  0  0  0  0  0  0  0  0  0  0  0
   24.7200   30.5170   13.1850 O   0  0  0  0  0  0  0  0  0  0  0  0
   24.7200   31.3580   12.6270 H   0  0  0  0  0  0  0  0  0  0  0  0
   25.1990   33.5880   17.6940 O   0  0  0  0  0  0  0  0  0  0  0  0
   26.0660   33.9760   17.9420 H   0  0  0  0  0  0  0  0  0  0  0  0
   26.3920   30.2180   18.1210 N   0  0  0  0  0  0  0  0  0  0  0  0
   27.4830   29.5900   18.7830 C   0  0  0  0  0  0  0  0  0  0  0  0
   25.5000   29.6910   18.0200 H   0  0  0  0  0  0  0  0  0  0  0  0
   27.3830   28.2070   19.3350 C   0  0  0  0  0  0  0  0  0  0  0  0
   28.5490   30.2760   18.8790 O   0  0  0  0  0  0  0  0  0  0  0  0
   28.6640   32.8650   17.1420 O   0  0  0  0  0  0  0  0  0  0  0  0
   28.0800   33.6210   17.3420 H   0  0  0  0  0  0  0  0  0  0  0  0
   28.8980   29.9490   15.9100 O   0  0  0  0  0  0  0  0  0  0  0  0
   28.0110   29.7170   15.5090 H   0  0  0  0  0  0  0  0  0  0  0  0
   32.6540   34.4430   14.8590 O   0  0  0  0  0  0  0  0  0  0  0  0
   32.1380   35.7170   14.4340 C   0  0  0  0  0  0  0  0  0  0  0  0
   30.8410   35.4700   13.7520 C   0  0  0  0  0  0  0  0  0  0  0  0
   29.6700   36.1790   13.9690 C   0  0  0  0  0  0  0  0  0  0  0  0
   30.5190   34.5530   12.8200 N   0  0  0  0  0  0  0  0  0  0  0  0
   28.6900   35.6840   13.1790 N   0  0  0  0  0  0  0  0  0  0  0  0
   29.2420   34.6990   12.4960 N   0  0  0  0  0  0  0  0  0  0  0  0
   27.3250   36.1650   13.1220 C   0  0  0  0  0  0  0  0  0  0  0  0
   27.1730   37.4120   13.9680 C   0  0  0  0  0  0  0  0  0  0  0  0
   26.9610   36.4750   11.6850 C   0  0  0  0  0  0  0  0  0  0  0  0
   26.3780   35.1510   13.6720 C   0  0  0  0  0  0  0  0  0  0  0  0
   25.7620   34.4290   12.8470 O   0  0  0  0  0  0  0  0  0  0  0  0
   26.1710   34.9920   15.0280 O   0  0  0  0  0  0  0  0  0  0  0  0
   25.4400   35.5530   15.4570 H   0  0  0  0  0  0  0  0  0  0  0  0
   29.8670   25.5550   16.9770 C   0  0  0  0  0  0  0  0  0  0  0  0
   28.3450   25.7220   17.0260 C   0  0  0  0  0  0  0  0  0  0  0  0
   27.6020   24.3990   16.9220 C   0  0  0  0  0  0  0  0  0  0  0  0
   26.1530   24.5320   17.3000 C   0  0  0  0  0  0  0  0  0  0  0  0
   25.9420   23.9920   18.7100 C   0  0  0  0  0  0  0  0  0  0  0  0
   25.5130   25.0780   19.6240 N   0  0  0  0  0  0  0  0  0  0  0  0
  1  2  1  0  0  0  0
  1  5  1  0  0  0  0
  2  3  2  0  0  0  0
  4  1  1  0  0  0  0
  6 29  1  0  0  0  0
  6  5  1  1  0  0  0
  6  7  1  0  0  0  0
  7 27  1  1  0  0  0
  8  7  1  1  0  0  0
  8 13  1  0  0  0  0
  9 16  1  6  0  0  0
  9 10  1  0  0  0  0
 10 12  1  0  0  0  0
 11  9  1  0  0  0  0
 11  8  1  0  0  0  0
 12 20  1  6  0  0  0
 13 12  1  0  0  0  0
 13 22  1  6  0  0  0
 14 15  1  0  0  0  0
 14  9  1  0  0  0  0
 16 17  2  0  0  0  0
 18 16  1  0  0  0  0
 19 18  1  0  0  0  0
 20 21  1  0  0  0  0
 22 23  1  0  0  0  0
 23 26  2  0  0  0  0
 23 25  1  0  0  0  0
 24 22  1  0  0  0  0
 27 28  1  0  0  0  0
 30 29  1  0  0  0  0
 31  2  1  0  0  0  0
 32 31  1  0  0  0  0
 33 34  2  0  0  0  0
 33 32  1  0  0  0  0
 35 33  1  0  0  0  0
 36 34  1  0  0  0  0
 37 35  2  0  0  0  0
 37 36  1  0  0  0  0
 38 36  1  0  0  0  0
 38 41  1  0  0  0  0
 38 39  1  0  0  0  0
 40 38  1  0  0  0  0
 41 43  1  0  0  0  0
 42 41  2  0  0  0  0
 43 44  1  0  0  0  0
 45 46  1  0  0  0  0
 47 46  1  0  0  0  0
 47 48  1  0  0  0  0
 48 49  1  0  0  0  0
 49 50  1  0  0  0  0
M  END
>  <REMARK>
 VINA RESULT:    -5.005      2.438      7.309
 INTER + INTRA:         -14.680
 INTER:                  -7.697
 INTRA:                  -6.983
 UNBOUND:                -5.578
 SMILES CC(=O)N[C@@H]1[C@@H](O)C[C@](O)(C(=O)O)O[C@H]1C(O)[C@H](O)CNC(=O)OCc1cn(C(C)(C)C(=O)O)nn1
 SMILES IDX 21 1 22 2 23 3 20 5 18 6 16 7 15 8 9 9 8 10 14 11 6 12 5 13
 SMILES IDX 10 14 11 16 12 17 13 18 7 20 4 22 2 23 1 25 3 26 17 27 19 29
 SMILES IDX 24 31 25 32 26 33 27 34 36 35 28 36 35 37 29 38 30 39 31 40
 SMILES IDX 32 41 33 42 34 43
 H PARENT 21 4 10 15 13 19 7 21 4 24 17 28 19 30 34 44
 Flexibility Score: inf
  4 active torsions:
  status: ('A' for Active; 'I' for Inactive)
    1  A    between atoms: CA   and  CB  
    2  A    between atoms: CB   and  CG  
    3  A    between atoms: CG   and  CD  
    4  A    between atoms: CD   and  CE  

>  <TORSDO>
F 17

>  <BEGIN_>
RES LYS A 131

$$$$
ligand_22_pose_5_2HRL.pdbqt
 OpenBabel07062320523D

  6  5  0  0  0  0  0  0  0  0999 V2000
   33.1930   34.6630    9.2900 C   0  0  0  0  0  0  0  0  0  0  0  0
   32.0600   35.3600   10.0340 C   0  0  0  0  0  0  0  0  0  0  0  0
   30.8150   35.5400    9.2040 C   0  0  0  0  0  0  0  0  0  0  0  0
   30.1150   34.2070    8.9900 C   0  0  0  0  0  0  0  0  0  0  0  0
   28.6830   34.4230    8.5420 C   0  0  0  0  0  0  0  0  0  0  0  0
   27.7280   33.7100    9.4360 N   0  0  0  0  0  0  0  0  0  0  0  0
  1  2  1  0  0  0  0
  3  2  1  0  0  0  0
  4  3  1  0  0  0  0
  5  4  1  0  0  0  0
  5  6  1  0  0  0  0
M  END
>  <EGIN_R>
ES LYS A 135

>  <REMARK>
  4 active torsions:
  status: ('A' for Active; 'I' for Inactive)
    5  A    between atoms: CA   and  CB  
    6  A    between atoms: CB   and  CG  
    7  A    between atoms: CG   and  CD  
    8  A    between atoms: CD   and  CE  

$$$$
