ligand_22_pose_13_2HRL.pdbqt
 OpenBabel07062320523D

 50 50  0  0  1  0  0  0  0  0999 V2000
   26.2020   36.7930   10.5790 N   0  0  0  0  0  0  0  0  0  0  0  0
   25.7460   36.3040   11.8260 C   0  0  0  0  0  0  0  0  0  0  0  0
   24.5490   35.8740   11.9590 O   0  0  0  0  0  0  0  0  0  0  0  0
   27.1750   37.1370   10.4800 H   0  0  0  0  0  0  0  0  0  0  0  0
   25.2790   36.7870    9.4720 C   0  0  0  0  0  0  0  0  0  0  0  0
   25.7730   37.4330    8.2270 C   0  0  2  0  0  0  0  0  0  0  0  0
   26.0780   38.9010    8.3890 C   0  0  1  0  0  0  0  0  0  0  0  0
   27.1880   39.2630    7.3950 C   0  0  2  0  0  0  0  0  0  0  0  0
   27.3760   39.9430    5.1790 C   0  0  2  0  0  0  0  0  0  0  0  0
   28.4600   38.9190    4.9250 C   0  0  0  0  0  0  0  0  0  0  0  0
   26.5380   39.6120    6.2170 O   0  0  0  0  0  0  0  0  0  0  0  0
   28.2030   37.6860    5.7420 C   0  0  1  0  0  0  0  0  0  0  0  0
   28.1050   38.0730    7.2040 C   0  0  1  0  0  0  0  0  0  0  0  0
   26.5820   39.9620    4.0210 O   0  0  0  0  0  0  0  0  0  0  0  0
   26.5120   40.8720    3.6800 H   0  0  0  0  0  0  0  0  0  0  0  0
   27.9620   41.2910    5.3500 C   0  0  0  0  0  0  0  0  0  0  0  0
   27.2350   42.3020    5.2820 O   0  0  0  0  0  0  0  0  0  0  0  0
   29.3150   41.4790    5.5870 O   0  0  0  0  0  0  0  0  0  0  0  0
   29.8780   42.1120    5.0370 H   0  0  0  0  0  0  0  0  0  0  0  0
   27.1140   36.9660    5.3140 O   0  0  0  0  0  0  0  0  0  0  0  0
   26.7900   37.2020    4.4180 H   0  0  0  0  0  0  0  0  0  0  0  0
   29.4630   38.3870    7.6440 N   0  0  0  0  0  0  0  0  0  0  0  0
   29.8750   38.1680    8.9870 C   0  0  0  0  0  0  0  0  0  0  0  0
   30.1520   38.7800    6.9690 H   0  0  0  0  0  0  0  0  0  0  0  0
   31.2580   38.4840    9.4520 C   0  0  0  0  0  0  0  0  0  0  0  0
   28.9960   37.6880    9.7710 O   0  0  0  0  0  0  0  0  0  0  0  0
   25.0040   39.7370    8.2670 O   0  0  0  0  0  0  0  0  0  0  0  0
   25.2720   40.6700    8.3650 H   0  0  0  0  0  0  0  0  0  0  0  0
   24.7310   37.2900    7.2750 O   0  0  0  0  0  0  0  0  0  0  0  0
   25.1430   37.2730    6.3630 H   0  0  0  0  0  0  0  0  0  0  0  0
   26.5260   36.2550   12.9630 O   0  0  0  0  0  0  0  0  0  0  0  0
   27.8210   36.8810   13.0110 C   0  0  0  0  0  0  0  0  0  0  0  0
   28.8150   35.8300   13.3490 C   0  0  0  0  0  0  0  0  0  0  0  0
   29.9020   35.9930   14.1920 C   0  0  0  0  0  0  0  0  0  0  0  0
   28.8870   34.5500   12.9390 N   0  0  0  0  0  0  0  0  0  0  0  0
   30.5910   34.8310   14.2700 N   0  0  0  0  0  0  0  0  0  0  0  0
   29.9450   33.9780   13.4960 N   0  0  0  0  0  0  0  0  0  0  0  0
   31.7880   34.6070   15.0540 C   0  0  0  0  0  0  0  0  0  0  0  0
   31.8380   35.5710   16.2210 C   0  0  0  0  0  0  0  0  0  0  0  0
   31.7930   33.1820   15.5670 C   0  0  0  0  0  0  0  0  0  0  0  0
   33.0140   34.8510   14.2380 C   0  0  0  0  0  0  0  0  0  0  0  0
   34.0680   35.1510   14.8540 O   0  0  0  0  0  0  0  0  0  0  0  0
   33.0160   34.7560   12.8600 O   0  0  0  0  0  0  0  0  0  0  0  0
   32.6340   33.9080   12.4500 H   0  0  0  0  0  0  0  0  0  0  0  0
   29.8670   25.5550   16.9770 C   0  0  0  0  0  0  0  0  0  0  0  0
   28.3450   25.7220   17.0260 C   0  0  0  0  0  0  0  0  0  0  0  0
   27.6000   24.4140   16.8100 C   0  0  0  0  0  0  0  0  0  0  0  0
   26.8010   24.0110   18.0180 C   0  0  0  0  0  0  0  0  0  0  0  0
   25.5750   23.2180   17.5770 C   0  0  0  0  0  0  0  0  0  0  0  0
   24.5940   24.1070   16.9120 N   0  0  0  0  0  0  0  0  0  0  0  0
  1  2  1  0  0  0  0
  2  3  2  0  0  0  0
  2 31  1  0  0  0  0
  4  1  1  0  0  0  0
  5  1  1  0  0  0  0
  6  7  1  0  0  0  0
  6  5  1  1  0  0  0
  7 27  1  6  0  0  0
  8  7  1  1  0  0  0
  9 14  1  6  0  0  0
  9 16  1  0  0  0  0
  9 11  1  0  0  0  0
 10  9  1  0  0  0  0
 10 12  1  0  0  0  0
 11  8  1  0  0  0  0
 12 20  1  6  0  0  0
 12 13  1  0  0  0  0
 13  8  1  0  0  0  0
 13 22  1  6  0  0  0
 15 14  1  0  0  0  0
 16 18  1  0  0  0  0
 17 16  2  0  0  0  0
 19 18  1  0  0  0  0
 21 20  1  0  0  0  0
 22 23  1  0  0  0  0
 23 25  1  0  0  0  0
 23 26  2  0  0  0  0
 24 22  1  0  0  0  0
 27 28  1  0  0  0  0
 29  6  1  0  0  0  0
 30 29  1  0  0  0  0
 31 32  1  0  0  0  0
 32 33  1  0  0  0  0
 33 34  2  0  0  0  0
 34 36  1  0  0  0  0
 35 33  1  0  0  0  0
 35 37  2  0  0  0  0
 36 38  1  0  0  0  0
 37 36  1  0  0  0  0
 38 40  1  0  0  0  0
 38 39  1  0  0  0  0
 41 42  2  0  0  0  0
 41 38  1  0  0  0  0
 43 41  1  0  0  0  0
 44 43  1  0  0  0  0
 45 46  1  0  0  0  0
 47 46  1  0  0  0  0
 47 48  1  0  0  0  0
 49 48  1  0  0  0  0
 50 49  1  0  0  0  0
M  END
>  <REMARK>
 VINA RESULT:    -4.817      2.973      5.548
 INTER + INTRA:         -14.338
 INTER:                  -8.814
 INTRA:                  -5.524
 UNBOUND:                -5.578
 SMILES CC(=O)N[C@@H]1[C@@H](O)C[C@](O)(C(=O)O)O[C@H]1C(O)[C@H](O)CNC(=O)OCc1cn(C(C)(C)C(=O)O)nn1
 SMILES IDX 21 1 22 2 23 3 20 5 18 6 16 7 15 8 9 9 8 10 14 11 6 12 5 13
 SMILES IDX 10 14 11 16 12 17 13 18 7 20 4 22 2 23 1 25 3 26 17 27 19 29
 SMILES IDX 24 31 25 32 26 33 27 34 36 35 28 36 35 37 29 38 30 39 31 40
 SMILES IDX 32 41 33 42 34 43
 H PARENT 21 4 10 15 13 19 7 21 4 24 17 28 19 30 34 44
 Flexibility Score: inf
  4 active torsions:
  status: ('A' for Active; 'I' for Inactive)
    1  A    between atoms: CA   and  CB  
    2  A    between atoms: CB   and  CG  
    3  A    between atoms: CG   and  CD  
    4  A    between atoms: CD   and  CE  

>  <TORSDO>
F 17

>  <BEGIN_>
RES LYS A 131

$$$$
ligand_22_pose_13_2HRL.pdbqt
 OpenBabel07062320523D

  6  5  0  0  0  0  0  0  0  0999 V2000
   33.1930   34.6630    9.2900 C   0  0  0  0  0  0  0  0  0  0  0  0
   32.0600   35.3600   10.0340 C   0  0  0  0  0  0  0  0  0  0  0  0
   30.7350   34.6520    9.9140 C   0  0  0  0  0  0  0  0  0  0  0  0
   30.3430   34.4910    8.4530 C   0  0  0  0  0  0  0  0  0  0  0  0
   28.8350   34.5420    8.2980 C   0  0  0  0  0  0  0  0  0  0  0  0
   28.1550   33.8970    9.4550 N   0  0  0  0  0  0  0  0  0  0  0  0
  1  2  1  0  0  0  0
  3  2  1  0  0  0  0
  4  3  1  0  0  0  0
  5  4  1  0  0  0  0
  5  6  1  0  0  0  0
M  END
>  <EGIN_R>
ES LYS A 135

>  <REMARK>
  4 active torsions:
  status: ('A' for Active; 'I' for Inactive)
    5  A    between atoms: CA   and  CB  
    6  A    between atoms: CB   and  CG  
    7  A    between atoms: CG   and  CD  
    8  A    between atoms: CD   and  CE  

$$$$
