ligand_29_pose_17_2HRL.pdbqt
 OpenBabel07062320523D

 54 55  0  0  1  0  0  0  0  0999 V2000
   26.5710   37.5690    7.7340 N   0  0  0  0  0  0  0  0  0  0  0  0
   27.5640   37.4280    6.7550 C   0  0  0  0  0  0  0  0  0  0  0  0
   27.3810   36.7230    5.7390 O   0  0  0  0  0  0  0  0  0  0  0  0
   26.8110   38.1800    8.5740 H   0  0  0  0  0  0  0  0  0  0  0  0
   25.2520   36.9620    7.7060 C   0  0  0  0  0  0  0  0  0  0  0  0
   24.1900   38.0010    7.6810 C   0  0  2  0  0  0  0  0  0  0  0  0
   22.7930   37.4710    7.8960 C   0  0  2  0  0  0  0  0  0  0  0  0
   22.6840   36.3930    8.9210 C   0  0  2  0  0  0  0  0  0  0  0  0
   20.4470   35.7330    8.9260 C   0  0  2  0  0  0  0  0  0  0  0  0
   20.4190   35.3440   10.3970 C   0  0  0  0  0  0  0  0  0  0  0  0
   21.7120   35.4790    8.4680 O   0  0  0  0  0  0  0  0  0  0  0  0
   21.7960   35.5030   10.9740 C   0  0  1  0  0  0  0  0  0  0  0  0
   22.5170   36.7470   10.3360 C   0  0  1  0  0  0  0  0  0  0  0  0
   20.0030   37.0380    8.7410 O   0  0  0  0  0  0  0  0  0  0  0  0
   20.3020   37.4230    7.8770 H   0  0  0  0  0  0  0  0  0  0  0  0
   19.5040   34.8540    8.1750 C   0  0  0  0  0  0  0  0  0  0  0  0
   18.7290   34.1090    8.8190 O   0  0  0  0  0  0  0  0  0  0  0  0
   19.4500   34.8260    6.7900 O   0  0  0  0  0  0  0  0  0  0  0  0
   19.2320   33.9680    6.2680 H   0  0  0  0  0  0  0  0  0  0  0  0
   21.7760   35.6720   12.3540 O   0  0  0  0  0  0  0  0  0  0  0  0
   21.4540   36.5640   12.6030 H   0  0  0  0  0  0  0  0  0  0  0  0
   23.8010   36.7570   11.0520 N   0  0  0  0  0  0  0  0  0  0  0  0
   24.1290   37.6790   12.0740 C   0  0  0  0  0  0  0  0  0  0  0  0
   24.5500   36.0420   10.8150 H   0  0  0  0  0  0  0  0  0  0  0  0
   25.4370   37.6670   12.7790 C   0  0  0  0  0  0  0  0  0  0  0  0
   23.2910   38.5510   12.4130 O   0  0  0  0  0  0  0  0  0  0  0  0
   22.3990   36.8330    6.6510 O   0  0  0  0  0  0  0  0  0  0  0  0
   22.6610   35.8840    6.7240 H   0  0  0  0  0  0  0  0  0  0  0  0
   24.3000   38.9610    6.7090 O   0  0  0  0  0  0  0  0  0  0  0  0
   23.5110   39.0530    6.1420 H   0  0  0  0  0  0  0  0  0  0  0  0
   28.8090   38.0810    6.8860 O   0  0  0  0  0  0  0  0  0  0  0  0
   28.9020   39.1510    7.8390 C   0  0  0  0  0  0  0  0  0  0  0  0
   29.9150   38.8750    8.8550 C   0  0  0  0  0  0  0  0  0  0  0  0
   29.7990   39.0840   10.2060 C   0  0  0  0  0  0  0  0  0  0  0  0
   31.1340   38.3590    8.6300 N   0  0  0  0  0  0  0  0  0  0  0  0
   30.9370   38.6970   10.7730 N   0  0  0  0  0  0  0  0  0  0  0  0
   31.7270   38.2640    9.8130 N   0  0  0  0  0  0  0  0  0  0  0  0
   31.2760   38.7390   12.1900 C   0  0  0  0  0  0  0  0  0  0  0  0
   31.1650   37.3520   12.7390 C   0  0  0  0  0  0  0  0  0  0  0  0
   29.9310   36.8990   13.2010 C   0  0  0  0  0  0  0  0  0  0  0  0
   32.2380   36.4890   12.8020 C   0  0  0  0  0  0  0  0  0  0  0  0
   29.7840   35.6300   13.7050 C   0  0  0  0  0  0  0  0  0  0  0  0
   32.1230   35.2070   13.3040 C   0  0  0  0  0  0  0  0  0  0  0  0
   30.8880   34.7980   13.7490 C   0  0  0  0  0  0  0  0  0  0  0  0
   28.5570   35.1640   14.1710 O   0  0  0  0  0  0  0  0  0  0  0  0
   27.5990   34.7280   13.2220 C   0  0  0  0  0  0  0  0  0  0  0  0
   30.7290   33.5190   14.2590 O   0  0  0  0  0  0  0  0  0  0  0  0
   31.5360   33.0270   15.3130 C   0  0  0  0  0  0  0  0  0  0  0  0
   29.8670   25.5550   16.9770 C   0  0  0  0  0  0  0  0  0  0  0  0
   28.3450   25.7220   17.0260 C   0  0  0  0  0  0  0  0  0  0  0  0
   27.6010   24.4060   16.8610 C   0  0  0  0  0  0  0  0  0  0  0  0
   26.3160   24.3800   17.6420 C   0  0  0  0  0  0  0  0  0  0  0  0
   26.3560   25.4550   18.7240 C   0  0  0  0  0  0  0  0  0  0  0  0
   25.5090   25.0630   19.8750 N   0  0  0  0  0  0  0  0  0  0  0  0
  1  4  1  0  0  0  0
  2 31  1  0  0  0  0
  2  1  1  0  0  0  0
  3  2  2  0  0  0  0
  5  1  1  0  0  0  0
  6  5  1  6  0  0  0
  6  7  1  0  0  0  0
  7 27  1  6  0  0  0
  8  7  1  6  0  0  0
  8 13  1  0  0  0  0
  9 16  1  6  0  0  0
  9 10  1  0  0  0  0
 10 12  1  0  0  0  0
 11  8  1  0  0  0  0
 11  9  1  0  0  0  0
 12 20  1  1  0  0  0
 13 12  1  0  0  0  0
 13 22  1  1  0  0  0
 14  9  1  0  0  0  0
 15 14  1  0  0  0  0
 16 17  2  0  0  0  0
 18 16  1  0  0  0  0
 19 18  1  0  0  0  0
 20 21  1  0  0  0  0
 22 23  1  0  0  0  0
 23 26  2  0  0  0  0
 23 25  1  0  0  0  0
 24 22  1  0  0  0  0
 27 28  1  0  0  0  0
 29  6  1  0  0  0  0
 30 29  1  0  0  0  0
 31 32  1  0  0  0  0
 32 33  1  0  0  0  0
 33 34  2  0  0  0  0
 34 36  1  0  0  0  0
 35 33  1  0  0  0  0
 35 37  2  0  0  0  0
 36 38  1  0  0  0  0
 37 36  1  0  0  0  0
 38 39  1  0  0  0  0
 39 41  2  0  0  0  0
 39 40  1  0  0  0  0
 40 42  2  0  0  0  0
 41 43  1  0  0  0  0
 42 44  1  0  0  0  0
 42 45  1  0  0  0  0
 43 44  2  0  0  0  0
 44 47  1  0  0  0  0
 46 45  1  0  0  0  0
 47 48  1  0  0  0  0
 49 50  1  0  0  0  0
 51 50  1  0  0  0  0
 51 52  1  0  0  0  0
 52 53  1  0  0  0  0
 53 54  1  0  0  0  0
M  END
>  <REMARK>
 VINA RESULT:    -4.889      4.698      9.046
 INTER + INTRA:         -14.436
 INTER:                  -9.996
 INTRA:                  -4.441
 UNBOUND:                -5.118
 SMILES COc1ccc(Cn2cc(COC(=O)NC[C@@H](O)C(O)[C@@H]3O[C@@](O)(C(=O)O)C[C@H](O)[C@H]3NC(C)=O)nn2)cc1OC
 SMILES IDX 15 1 13 2 14 3 16 5 17 6 19 7 21 8 23 9 28 10 22 11 29 12
 SMILES IDX 31 13 24 14 25 16 26 17 27 18 30 20 32 22 33 23 34 25 35 26
 SMILES IDX 20 27 18 29 12 31 11 32 10 33 9 34 36 35 8 36 37 37 7 38
 SMILES IDX 6 39 38 40 5 41 39 42 4 43 3 44 40 45 41 46 2 47 1 48
 H PARENT 15 4 24 15 27 19 30 21 32 24 20 28 18 30
 Flexibility Score: inf
  4 active torsions:
  status: ('A' for Active; 'I' for Inactive)
    1  A    between atoms: CA   and  CB  
    2  A    between atoms: CB   and  CG  
    3  A    between atoms: CG   and  CD  
    4  A    between atoms: CD   and  CE  

>  <TORSDO>
F 18

>  <BEGIN_>
RES LYS A 131

$$$$
ligand_29_pose_17_2HRL.pdbqt
 OpenBabel07062320523D

  6  5  0  0  0  0  0  0  0  0999 V2000
   33.1930   34.6630    9.2900 C   0  0  0  0  0  0  0  0  0  0  0  0
   32.0600   35.3600   10.0340 C   0  0  0  0  0  0  0  0  0  0  0  0
   30.7200   34.6950    9.8510 C   0  0  0  0  0  0  0  0  0  0  0  0
   30.1940   34.9250    8.4430 C   0  0  0  0  0  0  0  0  0  0  0  0
   28.7660   34.4310    8.3210 C   0  0  0  0  0  0  0  0  0  0  0  0
   27.9560   34.8320    9.5050 N   0  0  0  0  0  0  0  0  0  0  0  0
  1  2  1  0  0  0  0
  3  2  1  0  0  0  0
  4  3  1  0  0  0  0
  5  4  1  0  0  0  0
  5  6  1  0  0  0  0
M  END
>  <EGIN_R>
ES LYS A 135

>  <REMARK>
  4 active torsions:
  status: ('A' for Active; 'I' for Inactive)
    5  A    between atoms: CA   and  CB  
    6  A    between atoms: CB   and  CG  
    7  A    between atoms: CG   and  CD  
    8  A    between atoms: CD   and  CE  

$$$$
