ligand_87_pose_19_2HRL.pdbqt
 OpenBabel07062320523D

 52 54  0  0  1  0  0  0  0  0999 V2000
   24.5950   28.5380   17.5310 C   0  0  0  0  0  0  0  0  0  0  0  0
   23.4400   28.4110   16.5810 C   0  0  2  0  0  0  0  0  0  0  0  0
   22.5070   29.6100   16.7030 C   0  0  2  0  0  0  0  0  0  0  0  0
   22.4670   30.3060   15.3440 C   0  0  2  0  0  0  0  0  0  0  0  0
   23.0270   29.7480   13.1420 C   0  0  2  0  0  0  0  0  0  0  0  0
   24.0290   30.8510   13.0020 C   0  0  0  0  0  0  0  0  0  0  0  0
   22.7190   29.3820   14.4110 O   0  0  0  0  0  0  0  0  0  0  0  0
   24.3530   31.5730   14.2650 C   0  0  1  0  0  0  0  0  0  0  0  0
   23.2940   31.5610   15.3160 C   0  0  1  0  0  0  0  0  0  0  0  0
   23.5510   28.6110   12.5210 O   0  0  0  0  0  0  0  0  0  0  0  0
   23.5780   27.8280   13.1220 H   0  0  0  0  0  0  0  0  0  0  0  0
   21.7620   30.0480   12.4390 C   0  0  0  0  0  0  0  0  0  0  0  0
   21.0310   29.1120   12.0510 O   0  0  0  0  0  0  0  0  0  0  0  0
   21.3110   31.3360   12.1670 O   0  0  0  0  0  0  0  0  0  0  0  0
   21.8430   32.1520   12.5050 H   0  0  0  0  0  0  0  0  0  0  0  0
   25.5510   31.0330   14.7550 O   0  0  0  0  0  0  0  0  0  0  0  0
   26.2250   30.9960   14.0360 H   0  0  0  0  0  0  0  0  0  0  0  0
   22.4750   32.7410   15.3640 N   0  0  0  0  0  0  0  0  0  0  0  0
   22.5170   33.6940   16.4080 C   0  0  0  0  0  0  0  0  0  0  0  0
   21.7900   32.9340   14.5850 H   0  0  0  0  0  0  0  0  0  0  0  0
   21.6840   34.9130   16.4790 C   0  0  0  0  0  0  0  0  0  0  0  0
   23.3390   33.4490   17.3250 O   0  0  0  0  0  0  0  0  0  0  0  0
   22.9060   30.4870   17.6980 O   0  0  0  0  0  0  0  0  0  0  0  0
   22.9560   31.3940   17.3010 H   0  0  0  0  0  0  0  0  0  0  0  0
   22.7010   27.2800   16.7790 O   0  0  0  0  0  0  0  0  0  0  0  0
   22.9250   26.8710   17.6660 H   0  0  0  0  0  0  0  0  0  0  0  0
   25.6690   29.3060   17.0020 N   0  0  0  0  0  0  0  0  0  0  0  0
   27.0010   28.8700   16.8890 C   0  0  0  0  0  0  0  0  0  0  0  0
   25.4690   30.2970   16.6570 H   0  0  0  0  0  0  0  0  0  0  0  0
   27.3740   27.7420   17.2610 O   0  0  0  0  0  0  0  0  0  0  0  0
   27.9620   29.7370   16.3340 O   0  0  0  0  0  0  0  0  0  0  0  0
   28.3940   30.8430   17.1010 C   0  0  0  0  0  0  0  0  0  0  0  0
   28.6580   31.9970   16.2410 C   0  0  0  0  0  0  0  0  0  0  0  0
   29.9150   32.5060   15.9370 C   0  0  0  0  0  0  0  0  0  0  0  0
   27.7680   32.7570   15.6050 N   0  0  0  0  0  0  0  0  0  0  0  0
   29.7380   33.5570   15.1280 N   0  0  0  0  0  0  0  0  0  0  0  0
   28.4410   33.6830   14.9460 N   0  0  0  0  0  0  0  0  0  0  0  0
   30.7470   34.4070   14.5470 C   0  0  1  0  0  0  0  0  0  0  0  0
   30.5700   35.8230   15.0950 C   0  0  0  0  0  0  0  0  0  0  0  0
   32.0870   33.8920   15.0240 C   0  0  0  0  0  0  0  0  0  0  0  0
   31.7630   36.6450   14.6900 C   0  0  1  0  0  0  0  0  0  0  0  0
   33.1650   34.8910   14.7530 C   0  0  2  0  0  0  0  0  0  0  0  0
   32.9500   36.1630   15.3690 N   0  0  0  0  0  0  0  0  0  0  0  0
   32.1100   36.3790   13.2370 C   0  0  0  0  0  0  0  0  0  0  0  0
   33.0850   35.2420   13.2620 C   0  0  0  0  0  0  0  0  0  0  0  0
   32.7970   36.1050   16.7940 C   0  0  0  0  0  0  0  0  0  0  0  0
   29.8670   25.5550   16.9770 C   0  0  0  0  0  0  0  0  0  0  0  0
   28.3450   25.7220   17.0260 C   0  0  0  0  0  0  0  0  0  0  0  0
   27.6010   24.4020   16.8910 C   0  0  0  0  0  0  0  0  0  0  0  0
   26.8120   24.0680   18.1260 C   0  0  0  0  0  0  0  0  0  0  0  0
   25.4630   24.7780   18.0760 C   0  0  0  0  0  0  0  0  0  0  0  0
   24.7050   24.3680   16.8710 N   0  0  0  0  0  0  0  0  0  0  0  0
  2  3  1  0  0  0  0
  2 25  1  0  0  0  0
  2  1  1  1  0  0  0
  3 23  1  1  0  0  0
  4  3  1  1  0  0  0
  5 12  1  6  0  0  0
  5  7  1  0  0  0  0
  6  5  1  0  0  0  0
  6  8  1  0  0  0  0
  7  4  1  0  0  0  0
  8 16  1  1  0  0  0
  8  9  1  0  0  0  0
  9  4  1  0  0  0  0
  9 18  1  6  0  0  0
 10 11  1  0  0  0  0
 10  5  1  0  0  0  0
 13 12  2  0  0  0  0
 14 12  1  0  0  0  0
 14 15  1  0  0  0  0
 17 16  1  0  0  0  0
 18 19  1  0  0  0  0
 19 21  1  0  0  0  0
 19 22  2  0  0  0  0
 20 18  1  0  0  0  0
 24 23  1  0  0  0  0
 25 26  1  0  0  0  0
 27  1  1  0  0  0  0
 28 27  1  0  0  0  0
 28 30  2  0  0  0  0
 29 27  1  0  0  0  0
 31 28  1  0  0  0  0
 31 32  1  0  0  0  0
 33 32  1  0  0  0  0
 34 33  2  0  0  0  0
 35 33  1  0  0  0  0
 36 34  1  0  0  0  0
 37 36  1  0  0  0  0
 37 35  2  0  0  0  0
 38 40  1  1  0  0  0
 38 39  1  0  0  0  0
 38 36  1  0  0  0  0
 41 44  1  6  0  0  0
 41 39  1  0  0  0  0
 41 43  1  0  0  0  0
 42 45  1  6  0  0  0
 42 40  1  0  0  0  0
 42 43  1  0  0  0  0
 43 46  1  0  0  0  0
 44 45  1  0  0  0  0
 47 48  1  0  0  0  0
 49 48  1  0  0  0  0
 49 50  1  0  0  0  0
 51 50  1  0  0  0  0
 52 51  1  0  0  0  0
M  END
>  <REMARK>
 VINA RESULT:    -4.992      3.912      6.750
 INTER + INTRA:         -14.143
 INTER:                  -8.414
 INTRA:                  -5.729
 UNBOUND:                -5.502
 SMILES CC(=O)N[C@@H]1[C@@H](O)C[C@](O)(C(=O)O)O[C@H]1C(O)[C@H](O)CNC(=O)OCc1cn([C@@H]2C[C@H]3CC[C@@H](C2)N3C)nn1
 SMILES IDX 20 1 18 2 16 3 15 4 9 5 8 6 14 7 6 8 5 9 10 10 11 12 12 13
 SMILES IDX 13 14 7 16 4 18 2 19 1 21 3 22 17 23 19 25 21 27 22 28 23 30
 SMILES IDX 24 31 25 32 26 33 27 34 39 35 28 36 38 37 29 38 35 39 30 40
 SMILES IDX 34 41 31 42 36 43 33 44 32 45 37 46
 H PARENT 10 11 13 15 7 17 4 20 17 24 19 26 21 29
 Flexibility Score: inf
  4 active torsions:
  status: ('A' for Active; 'I' for Inactive)
    1  A    between atoms: CA   and  CB  
    2  A    between atoms: CB   and  CG  
    3  A    between atoms: CG   and  CD  
    4  A    between atoms: CD   and  CE  

>  <TORSDO>
F 15

>  <BEGIN_>
RES LYS A 131

$$$$
ligand_87_pose_19_2HRL.pdbqt
 OpenBabel07062320523D

  6  5  0  0  0  0  0  0  0  0999 V2000
   33.1930   34.6630    9.2900 C   0  0  0  0  0  0  0  0  0  0  0  0
   32.0600   35.3600   10.0340 C   0  0  0  0  0  0  0  0  0  0  0  0
   30.6890   34.8980    9.6130 C   0  0  0  0  0  0  0  0  0  0  0  0
   29.6460   35.3010   10.6450 C   0  0  0  0  0  0  0  0  0  0  0  0
   28.2510   35.2030   10.0580 C   0  0  0  0  0  0  0  0  0  0  0  0
   27.9290   33.8020    9.6710 N   0  0  0  0  0  0  0  0  0  0  0  0
  1  2  1  0  0  0  0
  3  2  1  0  0  0  0
  3  4  1  0  0  0  0
  5  4  1  0  0  0  0
  6  5  1  0  0  0  0
M  END
>  <EGIN_R>
ES LYS A 135

>  <REMARK>
  4 active torsions:
  status: ('A' for Active; 'I' for Inactive)
    5  A    between atoms: CA   and  CB  
    6  A    between atoms: CB   and  CG  
    7  A    between atoms: CG   and  CD  
    8  A    between atoms: CD   and  CE  

$$$$
