ligand_67_pose_14_2HRL.pdbqt
 OpenBabel07062320523D

 50 51  0  0  1  0  0  0  0  0999 V2000
   21.8640   38.9680    7.9000 N   0  0  0  0  0  0  0  0  0  0  0  0
   20.8640   38.6400    8.8470 C   0  0  0  0  0  0  0  0  0  0  0  0
   20.8830   39.2080    9.9920 O   0  0  0  0  0  0  0  0  0  0  0  0
   21.8570   38.5160    6.9710 H   0  0  0  0  0  0  0  0  0  0  0  0
   22.8690   39.9210    8.2360 C   0  0  0  0  0  0  0  0  0  0  0  0
   24.2090   39.3070    8.5370 C   0  0  2  0  0  0  0  0  0  0  0  0
   24.7880   38.5610    7.3730 C   0  0  1  0  0  0  0  0  0  0  0  0
   26.2170   38.9900    7.1250 C   0  0  2  0  0  0  0  0  0  0  0  0
   27.5630   39.8000    5.4100 C   0  0  2  0  0  0  0  0  0  0  0  0
   28.6610   38.8980    5.8970 C   0  0  0  0  0  0  0  0  0  0  0  0
   26.3080   39.4630    5.8420 O   0  0  0  0  0  0  0  0  0  0  0  0
   28.0390   37.5560    6.2190 C   0  0  1  0  0  0  0  0  0  0  0  0
   27.0970   37.7790    7.3950 C   0  0  1  0  0  0  0  0  0  0  0  0
   27.5450   39.7020    3.9990 O   0  0  0  0  0  0  0  0  0  0  0  0
   26.6760   39.9490    3.6290 H   0  0  0  0  0  0  0  0  0  0  0  0
   27.9080   41.2290    5.6940 C   0  0  0  0  0  0  0  0  0  0  0  0
   27.2480   42.2050    5.2740 O   0  0  0  0  0  0  0  0  0  0  0  0
   29.0340   41.4640    6.4720 O   0  0  0  0  0  0  0  0  0  0  0  0
   29.1820   42.3070    7.0170 H   0  0  0  0  0  0  0  0  0  0  0  0
   27.2770   37.1470    5.1140 O   0  0  0  0  0  0  0  0  0  0  0  0
   27.0730   36.1830    5.1390 H   0  0  0  0  0  0  0  0  0  0  0  0
   27.9040   37.9630    8.5910 N   0  0  0  0  0  0  0  0  0  0  0  0
   27.4770   37.3760    9.8090 C   0  0  0  0  0  0  0  0  0  0  0  0
   28.8010   38.5280    8.5620 H   0  0  0  0  0  0  0  0  0  0  0  0
   28.2290   37.5070   11.0830 C   0  0  0  0  0  0  0  0  0  0  0  0
   26.4020   36.7090    9.7980 O   0  0  0  0  0  0  0  0  0  0  0  0
   24.6670   37.1820    7.5450 O   0  0  0  0  0  0  0  0  0  0  0  0
   25.4870   36.6840    7.3410 H   0  0  0  0  0  0  0  0  0  0  0  0
   24.0800   38.4510    9.6210 O   0  0  0  0  0  0  0  0  0  0  0  0
   23.3540   37.8070    9.5330 H   0  0  0  0  0  0  0  0  0  0  0  0
   19.8560   37.7440    8.6320 O   0  0  0  0  0  0  0  0  0  0  0  0
   19.9780   36.3350    8.6380 C   0  0  0  0  0  0  0  0  0  0  0  0
   21.2300   35.8790    9.2870 C   0  0  0  0  0  0  0  0  0  0  0  0
   21.3730   35.4540   10.5870 C   0  0  0  0  0  0  0  0  0  0  0  0
   22.4510   35.7980    8.7350 N   0  0  0  0  0  0  0  0  0  0  0  0
   22.6680   35.1290   10.7870 N   0  0  0  0  0  0  0  0  0  0  0  0
   23.2990   35.3470    9.6480 N   0  0  0  0  0  0  0  0  0  0  0  0
   23.3040   34.6250   11.9980 C   0  0  0  0  0  0  0  0  0  0  0  0
   24.8050   34.5500   11.8180 C   0  0  0  0  0  0  0  0  0  0  0  0
   25.5150   34.6830   13.1220 C   0  0  0  0  0  0  0  0  0  0  0  0
   26.8790   34.9150   13.0070 O   0  0  0  0  0  0  0  0  0  0  0  0
   25.3660   33.5930   13.9660 O   0  0  0  0  0  0  0  0  0  0  0  0
   27.4490   34.5080   14.2110 C   0  0  0  0  0  0  0  0  0  0  0  0
   26.4550   33.5520   14.8030 C   0  0  0  0  0  0  0  0  0  0  0  0
   29.8670   25.5550   16.9770 C   0  0  0  0  0  0  0  0  0  0  0  0
   28.3450   25.7220   17.0260 C   0  0  0  0  0  0  0  0  0  0  0  0
   27.6010   24.4050   16.8680 C   0  0  0  0  0  0  0  0  0  0  0  0
   26.2040   24.4740   17.4220 C   0  0  0  0  0  0  0  0  0  0  0  0
   26.1650   25.4620   18.5830 C   0  0  0  0  0  0  0  0  0  0  0  0
   25.5000   24.8540   19.7590 N   0  0  0  0  0  0  0  0  0  0  0  0
  1  5  1  0  0  0  0
  1  2  1  0  0  0  0
  2  3  2  0  0  0  0
  4  1  1  0  0  0  0
  6  5  1  6  0  0  0
  6 29  1  0  0  0  0
  7 27  1  1  0  0  0
  7  6  1  0  0  0  0
  8  7  1  6  0  0  0
  8 13  1  0  0  0  0
  9 14  1  6  0  0  0
  9 16  1  0  0  0  0
  9 11  1  0  0  0  0
  9 10  1  0  0  0  0
 10 12  1  0  0  0  0
 11  8  1  0  0  0  0
 12 20  1  6  0  0  0
 12 13  1  0  0  0  0
 13 22  1  1  0  0  0
 15 14  1  0  0  0  0
 16 18  1  0  0  0  0
 17 16  2  0  0  0  0
 18 19  1  0  0  0  0
 20 21  1  0  0  0  0
 22 23  1  0  0  0  0
 23 25  1  0  0  0  0
 24 22  1  0  0  0  0
 26 23  2  0  0  0  0
 28 27  1  0  0  0  0
 30 29  1  0  0  0  0
 31 32  1  0  0  0  0
 31  2  1  0  0  0  0
 32 33  1  0  0  0  0
 33 34  2  0  0  0  0
 34 36  1  0  0  0  0
 35 33  1  0  0  0  0
 35 37  2  0  0  0  0
 36 38  1  0  0  0  0
 37 36  1  0  0  0  0
 39 38  1  0  0  0  0
 39 40  1  0  0  0  0
 40 42  1  0  0  0  0
 41 40  1  0  0  0  0
 41 43  1  0  0  0  0
 42 44  1  0  0  0  0
 43 44  1  0  0  0  0
 45 46  1  0  0  0  0
 47 46  1  0  0  0  0
 47 48  1  0  0  0  0
 48 49  1  0  0  0  0
 49 50  1  0  0  0  0
M  END
>  <REMARK>
 VINA RESULT:    -4.232      4.006      9.088
 INTER + INTRA:         -14.111
 INTER:                  -7.418
 INTRA:                  -6.694
 UNBOUND:                -6.292
 SMILES CC(=O)N[C@@H]1[C@@H](O)C[C@](O)(C(=O)O)O[C@H]1C(O)[C@H](O)CNC(=O)OCc1cn(CCC2OCCO2)nn1
 SMILES IDX 21 1 22 2 23 3 20 5 18 6 16 7 15 8 9 9 8 10 14 11 6 12 5 13
 SMILES IDX 10 14 11 16 12 17 13 18 7 20 4 22 2 23 1 25 3 26 17 27 19 29
 SMILES IDX 24 31 25 32 26 33 27 34 37 35 28 36 36 37 29 38 30 39 31 40
 SMILES IDX 32 41 35 42 33 43 34 44
 H PARENT 21 4 10 15 13 19 7 21 4 24 17 28 19 30
 Flexibility Score: inf
  4 active torsions:
  status: ('A' for Active; 'I' for Inactive)
    1  A    between atoms: CA   and  CB  
    2  A    between atoms: CB   and  CG  
    3  A    between atoms: CG   and  CD  
    4  A    between atoms: CD   and  CE  

>  <TORSDO>
F 17

>  <BEGIN_>
RES LYS A 131

$$$$
ligand_67_pose_14_2HRL.pdbqt
 OpenBabel07062320523D

  6  5  0  0  0  0  0  0  0  0999 V2000
   33.1930   34.6630    9.2900 C   0  0  0  0  0  0  0  0  0  0  0  0
   32.0600   35.3600   10.0340 C   0  0  0  0  0  0  0  0  0  0  0  0
   30.8000   35.5000    9.2190 C   0  0  0  0  0  0  0  0  0  0  0  0
   30.1780   34.1380    8.9540 C   0  0  0  0  0  0  0  0  0  0  0  0
   28.7100   34.2830    8.6000 C   0  0  0  0  0  0  0  0  0  0  0  0
   27.8440   33.6340    9.6230 N   0  0  0  0  0  0  0  0  0  0  0  0
  1  2  1  0  0  0  0
  3  2  1  0  0  0  0
  4  3  1  0  0  0  0
  5  4  1  0  0  0  0
  5  6  1  0  0  0  0
M  END
>  <EGIN_R>
ES LYS A 135

>  <REMARK>
  4 active torsions:
  status: ('A' for Active; 'I' for Inactive)
    5  A    between atoms: CA   and  CB  
    6  A    between atoms: CB   and  CG  
    7  A    between atoms: CG   and  CD  
    8  A    between atoms: CD   and  CE  

$$$$
