ligand_4_pose_5_2HRL.pdbqt
 OpenBabel07062320523D

 52 53  0  0  1  0  0  0  0  0999 V2000
   26.4530   29.1180   18.7720 N   0  0  0  0  0  0  0  0  0  0  0  0
   27.1300   29.6120   17.6400 C   0  0  0  0  0  0  0  0  0  0  0  0
   27.5190   28.8490   16.7330 O   0  0  0  0  0  0  0  0  0  0  0  0
   26.1360   29.8130   19.5010 H   0  0  0  0  0  0  0  0  0  0  0  0
   26.1840   27.7350   18.9560 C   0  0  0  0  0  0  0  0  0  0  0  0
   26.3930   27.2340   20.3850 C   0  0  2  0  0  0  0  0  0  0  0  0
   27.9050   27.0110   20.4590 C   0  0  2  0  0  0  0  0  0  0  0  0
   28.6250   28.1120   21.1700 C   0  0  2  0  0  0  0  0  0  0  0  0
   30.5780   29.2170   20.5870 C   0  0  2  0  0  0  0  0  0  0  0  0
   30.9700   29.3770   22.0130 C   0  0  0  0  0  0  0  0  0  0  0  0
   29.2800   28.9160   20.3000 O   0  0  0  0  0  0  0  0  0  0  0  0
   30.2890   28.4400   22.9870 C   0  0  1  0  0  0  0  0  0  0  0  0
   29.5560   27.4270   22.1580 C   0  0  1  0  0  0  0  0  0  0  0  0
   31.4740   28.3240   19.9450 O   0  0  0  0  0  0  0  0  0  0  0  0
   31.7520   27.5800   20.5100 H   0  0  0  0  0  0  0  0  0  0  0  0
   30.8260   30.5540   19.9320 C   0  0  0  0  0  0  0  0  0  0  0  0
   31.4120   31.4360   20.5950 O   0  0  0  0  0  0  0  0  0  0  0  0
   30.4390   30.8420   18.6300 O   0  0  0  0  0  0  0  0  0  0  0  0
   31.0640   31.2000   17.9110 H   0  0  0  0  0  0  0  0  0  0  0  0
   31.3060   27.7740   23.7390 O   0  0  0  0  0  0  0  0  0  0  0  0
   32.0360   28.3960   23.9690 H   0  0  0  0  0  0  0  0  0  0  0  0
   28.8990   26.3630   22.8110 N   0  0  0  0  0  0  0  0  0  0  0  0
   27.9610   26.5040   23.8630 C   0  0  0  0  0  0  0  0  0  0  0  0
   29.1110   25.3530   22.5050 H   0  0  0  0  0  0  0  0  0  0  0  0
   27.2880   25.3830   24.5290 C   0  0  0  0  0  0  0  0  0  0  0  0
   27.7190   27.7320   24.2310 O   0  0  0  0  0  0  0  0  0  0  0  0
   28.3090   26.8550   19.1300 O   0  0  0  0  0  0  0  0  0  0  0  0
   29.0760   26.2230   19.1300 H   0  0  0  0  0  0  0  0  0  0  0  0
   25.7380   26.0810   20.6730 O   0  0  0  0  0  0  0  0  0  0  0  0
   24.8500   26.0370   20.3250 H   0  0  0  0  0  0  0  0  0  0  0  0
   27.3850   30.9780   17.5000 O   0  0  0  0  0  0  0  0  0  0  0  0
   27.4910   31.4940   16.1820 C   0  0  0  0  0  0  0  0  0  0  0  0
   28.9070   31.9160   16.0330 C   0  0  0  0  0  0  0  0  0  0  0  0
   29.3640   33.2120   16.3010 C   0  0  0  0  0  0  0  0  0  0  0  0
   29.9850   31.1710   15.7470 N   0  0  0  0  0  0  0  0  0  0  0  0
   30.7020   33.1550   16.1630 N   0  0  0  0  0  0  0  0  0  0  0  0
   31.0180   31.9650   15.8470 N   0  0  0  0  0  0  0  0  0  0  0  0
   31.5690   34.2280   16.4770 C   0  0  0  0  0  0  0  0  0  0  0  0
   32.2120   34.8920   15.5030 C   0  0  0  0  0  0  0  0  0  0  0  0
   31.8800   34.4710   17.8230 C   0  0  0  0  0  0  0  0  0  0  0  0
   33.1900   35.8240   15.8490 C   0  0  0  0  0  0  0  0  0  0  0  0
   32.8200   35.3670   18.1750 C   0  0  0  0  0  0  0  0  0  0  0  0
   33.5030   36.0700   17.1930 C   0  0  0  0  0  0  0  0  0  0  0  0
   31.8180   34.7610   14.1150 C   0  0  0  0  0  0  0  0  0  0  0  0
   32.8670   35.3010   13.1540 C   0  0  0  0  0  0  0  0  0  0  0  0
   30.6870   35.8640   13.9050 C   0  0  0  0  0  0  0  0  0  0  0  0
   29.8670   25.5550   16.9770 C   0  0  0  0  0  0  0  0  0  0  0  0
   28.3450   25.7220   17.0260 C   0  0  0  0  0  0  0  0  0  0  0  0
   27.5990   24.4330   16.7190 C   0  0  0  0  0  0  0  0  0  0  0  0
   26.9940   23.8210   17.9530 C   0  0  0  0  0  0  0  0  0  0  0  0
   25.5730   23.3590   17.6470 C   0  0  0  0  0  0  0  0  0  0  0  0
   24.8220   24.4230   16.9390 N   0  0  0  0  0  0  0  0  0  0  0  0
  1  5  1  0  0  0  0
  1  4  1  0  0  0  0
  2  1  1  0  0  0  0
  3  2  2  0  0  0  0
  6  5  1  6  0  0  0
  6  7  1  0  0  0  0
  6 29  1  0  0  0  0
  7 27  1  6  0  0  0
  8  7  1  6  0  0  0
  8 13  1  0  0  0  0
  9 16  1  6  0  0  0
  9 10  1  0  0  0  0
 10 12  1  0  0  0  0
 11  9  1  0  0  0  0
 11  8  1  0  0  0  0
 12 20  1  1  0  0  0
 13 22  1  1  0  0  0
 13 12  1  0  0  0  0
 14 15  1  0  0  0  0
 14  9  1  0  0  0  0
 16 17  2  0  0  0  0
 18 16  1  0  0  0  0
 19 18  1  0  0  0  0
 20 21  1  0  0  0  0
 22 23  1  0  0  0  0
 23 26  2  0  0  0  0
 23 25  1  0  0  0  0
 24 22  1  0  0  0  0
 27 28  1  0  0  0  0
 30 29  1  0  0  0  0
 31  2  1  0  0  0  0
 32 31  1  0  0  0  0
 33 32  1  0  0  0  0
 33 34  2  0  0  0  0
 35 37  2  0  0  0  0
 35 33  1  0  0  0  0
 36 34  1  0  0  0  0
 36 38  1  0  0  0  0
 37 36  1  0  0  0  0
 38 40  2  0  0  0  0
 39 41  2  0  0  0  0
 39 38  1  0  0  0  0
 40 42  1  0  0  0  0
 41 43  1  0  0  0  0
 43 42  2  0  0  0  0
 44 39  1  0  0  0  0
 45 44  1  0  0  0  0
 46 44  1  0  0  0  0
 47 48  1  0  0  0  0
 49 48  1  0  0  0  0
 49 50  1  0  0  0  0
 51 50  1  0  0  0  0
 52 51  1  0  0  0  0
M  END
>  <REMARK>
 VINA RESULT:    -4.280      6.465     12.758
 INTER + INTRA:         -14.894
 INTER:                  -9.068
 INTRA:                  -5.826
 UNBOUND:                -7.237
 SMILES CC(=O)N[C@@H]1[C@@H](O)C[C@](O)(C(=O)O)O[C@H]1C(O)[C@H](O)CNC(=O)OCc1cn(-c2ccccc2C(C)C)nn1
 SMILES IDX 21 1 22 2 23 3 20 5 18 6 16 7 15 8 9 9 8 10 14 11 6 12 5 13
 SMILES IDX 10 14 11 16 12 17 13 18 7 20 4 22 2 23 1 25 3 26 17 27 19 29
 SMILES IDX 24 31 25 32 26 33 27 34 39 35 28 36 38 37 29 38 34 39 30 40
 SMILES IDX 33 41 31 42 32 43 35 44 36 45 37 46
 H PARENT 21 4 10 15 13 19 7 21 4 24 17 28 19 30
 Flexibility Score: inf
  4 active torsions:
  status: ('A' for Active; 'I' for Inactive)
    1  A    between atoms: CA   and  CB  
    2  A    between atoms: CB   and  CG  
    3  A    between atoms: CG   and  CD  
    4  A    between atoms: CD   and  CE  

>  <TORSDO>
F 16

>  <BEGIN_>
RES LYS A 131

$$$$
ligand_4_pose_5_2HRL.pdbqt
 OpenBabel07062320523D

  6  5  0  0  0  0  0  0  0  0999 V2000
   33.1930   34.6630    9.2900 C   0  0  0  0  0  0  0  0  0  0  0  0
   32.0600   35.3600   10.0340 C   0  0  0  0  0  0  0  0  0  0  0  0
   30.7150   34.7140    9.8250 C   0  0  0  0  0  0  0  0  0  0  0  0
   30.4470   34.4990    8.3430 C   0  0  0  0  0  0  0  0  0  0  0  0
   29.0030   34.8220    8.0100 C   0  0  0  0  0  0  0  0  0  0  0  0
   28.9010   35.5430    6.7110 N   0  0  0  0  0  0  0  0  0  0  0  0
  1  2  1  0  0  0  0
  3  2  1  0  0  0  0
  4  3  1  0  0  0  0
  5  4  1  0  0  0  0
  6  5  1  0  0  0  0
M  END
>  <EGIN_R>
ES LYS A 135

>  <REMARK>
  4 active torsions:
  status: ('A' for Active; 'I' for Inactive)
    5  A    between atoms: CA   and  CB  
    6  A    between atoms: CB   and  CG  
    7  A    between atoms: CG   and  CD  
    8  A    between atoms: CD   and  CE  

$$$$
