ligand_92_pose_7_2HRL.pdbqt
 OpenBabel07062320523D

 59 61  0  0  1  0  0  0  0  0999 V2000
   27.7610   28.8080   17.9730 N   0  0  0  0  0  0  0  0  0  0  0  0
   27.1690   29.9420   17.3740 C   0  0  0  0  0  0  0  0  0  0  0  0
   25.9110   30.1200   17.5130 O   0  0  0  0  0  0  0  0  0  0  0  0
   28.7790   28.6590   17.8650 H   0  0  0  0  0  0  0  0  0  0  0  0
   26.9880   27.8600   18.7290 C   0  0  0  0  0  0  0  0  0  0  0  0
   27.4630   27.7240   20.1540 C   0  0  2  0  0  0  0  0  0  0  0  0
   28.9360   27.9840   20.2880 C   0  0  1  0  0  0  0  0  0  0  0  0
   29.1970   29.1410   21.2690 C   0  0  2  0  0  0  0  0  0  0  0  0
   30.1050   30.8260   19.8890 C   0  0  2  0  0  0  0  0  0  0  0  0
   31.3360   30.8620   20.7730 C   0  0  0  0  0  0  0  0  0  0  0  0
   29.0610   30.2970   20.5630 O   0  0  0  0  0  0  0  0  0  0  0  0
   31.6320   29.4240   21.1220 C   0  0  1  0  0  0  0  0  0  0  0  0
   30.4850   28.9050   21.9540 C   0  0  1  0  0  0  0  0  0  0  0  0
   30.4360   29.9910   18.8140 O   0  0  0  0  0  0  0  0  0  0  0  0
   31.3970   29.9300   18.6580 H   0  0  0  0  0  0  0  0  0  0  0  0
   29.8160   32.1700   19.3250 C   0  0  0  0  0  0  0  0  0  0  0  0
   30.7480   32.9570   19.1080 O   0  0  0  0  0  0  0  0  0  0  0  0
   28.5200   32.5550   19.0410 O   0  0  0  0  0  0  0  0  0  0  0  0
   28.0750   33.3110   19.5810 H   0  0  0  0  0  0  0  0  0  0  0  0
   31.8420   28.6870   19.9620 O   0  0  0  0  0  0  0  0  0  0  0  0
   30.9850   28.2140   19.7520 H   0  0  0  0  0  0  0  0  0  0  0  0
   30.6100   29.4690   23.2600 N   0  0  0  0  0  0  0  0  0  0  0  0
   31.1630   28.7120   24.3160 C   0  0  0  0  0  0  0  0  0  0  0  0
   30.2940   30.4350   23.4450 H   0  0  0  0  0  0  0  0  0  0  0  0
   31.3290   29.2170   25.7020 C   0  0  0  0  0  0  0  0  0  0  0  0
   31.5300   27.5560   24.0680 O   0  0  0  0  0  0  0  0  0  0  0  0
   29.6450   26.8400   20.7210 O   0  0  0  0  0  0  0  0  0  0  0  0
   28.9970   26.2280   21.1160 H   0  0  0  0  0  0  0  0  0  0  0  0
   27.1400   26.4020   20.5300 O   0  0  0  0  0  0  0  0  0  0  0  0
   27.8570   26.1080   21.1440 H   0  0  0  0  0  0  0  0  0  0  0  0
   27.8690   30.8770   16.6400 O   0  0  0  0  0  0  0  0  0  0  0  0
   28.9030   30.4990   15.7200 C   0  0  0  0  0  0  0  0  0  0  0  0
   29.7930   31.6900   15.5840 C   0  0  0  0  0  0  0  0  0  0  0  0
   29.4310   32.9570   15.1210 C   0  0  0  0  0  0  0  0  0  0  0  0
   31.1070   31.8030   15.8710 N   0  0  0  0  0  0  0  0  0  0  0  0
   30.5050   33.7620   15.1420 N   0  0  0  0  0  0  0  0  0  0  0  0
   31.4960   33.0250   15.6030 N   0  0  0  0  0  0  0  0  0  0  0  0
   30.5150   35.1260   14.7410 C   0  0  0  0  0  0  0  0  0  0  0  0
   31.0540   36.1250   15.5180 C   0  0  0  0  0  0  0  0  0  0  0  0
   29.9670   35.4830   13.5280 C   0  0  0  0  0  0  0  0  0  0  0  0
   31.0520   37.4570   15.1060 C   0  0  0  0  0  0  0  0  0  0  0  0
   29.9640   36.7980   13.1180 C   0  0  0  0  0  0  0  0  0  0  0  0
   30.5090   37.8240   13.8970 C   0  0  0  0  0  0  0  0  0  0  0  0
   30.4950   39.4700   13.3350 S   0  0  0  0  0  0  0  0  0  0  0  0
   30.8880   40.3430   14.5200 O   0  0  0  0  0  0  0  0  0  0  0  0
   29.0870   39.8250   13.0000 O   0  0  0  0  0  0  0  0  0  0  0  0
   31.5470   39.7820   12.0380 N   0  0  0  0  0  0  0  0  0  0  0  0
   32.4040   40.3670   12.2360 H   0  0  0  0  0  0  0  0  0  0  0  0
   31.4100   39.3480   10.7100 C   0  0  0  0  0  0  0  0  0  0  0  0
   30.9120   38.4630   10.0330 N   0  0  0  0  0  0  0  0  0  0  0  0
   32.2040   40.3630    9.3280 S   0  0  0  0  0  0  0  0  0  0  0  0
   30.9460   38.3100    8.7480 C   0  0  0  0  0  0  0  0  0  0  0  0
   31.6050   39.2170    7.9920 C   0  0  0  0  0  0  0  0  0  0  0  0
   29.8670   25.5550   16.9770 C   0  0  0  0  0  0  0  0  0  0  0  0
   28.3450   25.7220   17.0260 C   0  0  0  0  0  0  0  0  0  0  0  0
   27.5990   24.4260   16.7480 C   0  0  0  0  0  0  0  0  0  0  0  0
   26.5960   24.1080   17.8210 C   0  0  0  0  0  0  0  0  0  0  0  0
   25.1880   24.3740   17.2980 C   0  0  0  0  0  0  0  0  0  0  0  0
   24.4040   23.1170   17.2550 N   0  0  0  0  0  0  0  0  0  0  0  0
  1  5  1  0  0  0  0
  2  3  2  0  0  0  0
  2  1  1  0  0  0  0
  4  1  1  0  0  0  0
  6  5  1  6  0  0  0
  6  7  1  0  0  0  0
  6 29  1  0  0  0  0
  7 27  1  1  0  0  0
  8  7  1  6  0  0  0
  8 13  1  0  0  0  0
  9 14  1  6  0  0  0
  9 11  1  0  0  0  0
  9 10  1  0  0  0  0
 10 12  1  0  0  0  0
 11  8  1  0  0  0  0
 12 20  1  6  0  0  0
 12 13  1  0  0  0  0
 13 22  1  1  0  0  0
 15 14  1  0  0  0  0
 16  9  1  0  0  0  0
 17 16  2  0  0  0  0
 18 16  1  0  0  0  0
 18 19  1  0  0  0  0
 21 20  1  0  0  0  0
 22 24  1  0  0  0  0
 22 23  1  0  0  0  0
 23 25  1  0  0  0  0
 26 23  2  0  0  0  0
 27 28  1  0  0  0  0
 29 30  1  0  0  0  0
 31  2  1  0  0  0  0
 32 31  1  0  0  0  0
 33 32  1  0  0  0  0
 33 35  1  0  0  0  0
 34 36  1  0  0  0  0
 34 33  2  0  0  0  0
 36 37  1  0  0  0  0
 37 35  2  0  0  0  0
 38 36  1  0  0  0  0
 38 39  2  0  0  0  0
 40 38  1  0  0  0  0
 41 39  1  0  0  0  0
 42 40  2  0  0  0  0
 42 43  1  0  0  0  0
 43 41  2  0  0  0  0
 44 43  1  0  0  0  0
 44 45  2  0  0  0  0
 46 44  2  0  0  0  0
 47 48  1  0  0  0  0
 47 44  1  0  0  0  0
 49 47  1  0  0  0  0
 50 49  2  0  0  0  0
 51 49  1  0  0  0  0
 52 50  1  0  0  0  0
 53 52  2  0  0  0  0
 53 51  1  0  0  0  0
 54 55  1  0  0  0  0
 56 55  1  0  0  0  0
 56 57  1  0  0  0  0
 58 57  1  0  0  0  0
 59 58  1  0  0  0  0
M  END
>  <REMARK>
 VINA RESULT:    -5.082      2.878      4.886
 INTER + INTRA:         -16.095
 INTER:                  -9.678
 INTRA:                  -6.417
 UNBOUND:                -6.408
 SMILES CC(=O)N[C@@H]1[C@@H](O)C[C@](O)(C(=O)O)O[C@H]1C(O)[C@H](O)CNC(=O)OCc1cn(-c2ccc(S(=O)(=O)Nc3nccs3)cc2)nn1
 SMILES IDX 21 1 22 2 23 3 20 5 18 6 16 7 15 8 9 9 8 10 14 11 6 12 5 13
 SMILES IDX 10 14 11 16 12 17 13 18 7 20 4 22 2 23 1 25 3 26 17 27 19 29
 SMILES IDX 24 31 25 32 26 33 27 34 45 35 28 36 44 37 29 38 30 39 43 40
 SMILES IDX 31 41 42 42 32 43 33 44 34 45 35 46 36 47 37 49 38 50 41 51
 SMILES IDX 39 52 40 53
 H PARENT 21 4 10 15 13 19 7 21 4 24 17 28 19 30 36 48
 Flexibility Score: inf
  4 active torsions:
  status: ('A' for Active; 'I' for Inactive)
    1  A    between atoms: CA   and  CB  
    2  A    between atoms: CB   and  CG  
    3  A    between atoms: CG   and  CD  
    4  A    between atoms: CD   and  CE  

>  <TORSDO>
F 18

>  <BEGIN_>
RES LYS A 131

$$$$
ligand_92_pose_7_2HRL.pdbqt
 OpenBabel07062320523D

  6  5  0  0  0  0  0  0  0  0999 V2000
   33.1930   34.6630    9.2900 C   0  0  0  0  0  0  0  0  0  0  0  0
   32.0600   35.3600   10.0340 C   0  0  0  0  0  0  0  0  0  0  0  0
   30.7100   34.7340    9.7980 C   0  0  0  0  0  0  0  0  0  0  0  0
   30.4560   34.5500    8.3100 C   0  0  0  0  0  0  0  0  0  0  0  0
   29.0080   34.8530    7.9760 C   0  0  0  0  0  0  0  0  0  0  0  0
   28.8970   35.5830    6.6820 N   0  0  0  0  0  0  0  0  0  0  0  0
  1  2  1  0  0  0  0
  3  2  1  0  0  0  0
  4  3  1  0  0  0  0
  5  4  1  0  0  0  0
  6  5  1  0  0  0  0
M  END
>  <EGIN_R>
ES LYS A 135

>  <REMARK>
  4 active torsions:
  status: ('A' for Active; 'I' for Inactive)
    5  A    between atoms: CA   and  CB  
    6  A    between atoms: CB   and  CG  
    7  A    between atoms: CG   and  CD  
    8  A    between atoms: CD   and  CE  

$$$$
