ligand_40_pose_6_2HRL.pdbqt
 OpenBabel07062320523D

 50 51  0  0  1  0  0  0  0  0999 V2000
   26.9610   28.4210   20.6380 C   0  0  0  0  0  0  0  0  0  0  0  0
   28.2780   28.0910   20.0670 C   0  0  2  0  0  0  0  0  0  0  0  0
   29.4730   28.0240   20.9630 C   0  0  2  0  0  0  0  0  0  0  0  0
   30.3940   29.2020   20.9500 C   0  0  2  0  0  0  0  0  0  0  0  0
   31.8590   28.6730   22.7010 C   0  0  2  0  0  0  0  0  0  0  0  0
   31.5490   29.9480   23.4640 C   0  0  0  0  0  0  0  0  0  0  0  0
   31.6640   28.7680   21.3600 O   0  0  0  0  0  0  0  0  0  0  0  0
   30.1690   30.4430   23.0600 C   0  0  1  0  0  0  0  0  0  0  0  0
   29.9930   30.4730   21.5770 C   0  0  1  0  0  0  0  0  0  0  0  0
   31.1720   27.6590   23.3250 O   0  0  0  0  0  0  0  0  0  0  0  0
   30.6920   27.9320   24.1480 H   0  0  0  0  0  0  0  0  0  0  0  0
   33.3220   28.4380   22.9110 C   0  0  0  0  0  0  0  0  0  0  0  0
   34.1440   29.3940   23.0340 O   0  0  0  0  0  0  0  0  0  0  0  0
   33.8120   27.1500   22.9730 O   0  0  0  0  0  0  0  0  0  0  0  0
   34.3870   26.8730   23.7730 H   0  0  0  0  0  0  0  0  0  0  0  0
   29.2970   29.4800   23.5710 O   0  0  0  0  0  0  0  0  0  0  0  0
   29.7840   28.7580   24.0450 H   0  0  0  0  0  0  0  0  0  0  0  0
   30.7530   31.5200   20.9200 N   0  0  0  0  0  0  0  0  0  0  0  0
   30.3310   32.1620   19.7440 C   0  0  0  0  0  0  0  0  0  0  0  0
   31.6500   31.7760   21.3810 H   0  0  0  0  0  0  0  0  0  0  0  0
   31.0800   33.2290   19.0540 C   0  0  0  0  0  0  0  0  0  0  0  0
   29.2420   31.7820   19.2730 O   0  0  0  0  0  0  0  0  0  0  0  0
   30.3330   27.0240   20.3090 O   0  0  0  0  0  0  0  0  0  0  0  0
   29.7230   26.3220   19.9590 H   0  0  0  0  0  0  0  0  0  0  0  0
   28.5120   28.7460   18.8680 O   0  0  0  0  0  0  0  0  0  0  0  0
   29.0190   28.1650   18.2210 H   0  0  0  0  0  0  0  0  0  0  0  0
   25.9410   28.8030   19.6570 N   0  0  0  0  0  0  0  0  0  0  0  0
   25.5590   30.1500   19.4660 C   0  0  0  0  0  0  0  0  0  0  0  0
   25.4440   28.0920   19.0610 H   0  0  0  0  0  0  0  0  0  0  0  0
   26.0900   31.0410   20.1380 O   0  0  0  0  0  0  0  0  0  0  0  0
   24.5910   30.5360   18.5380 O   0  0  0  0  0  0  0  0  0  0  0  0
   24.7510   30.1780   17.1840 C   0  0  0  0  0  0  0  0  0  0  0  0
   26.1470   30.2230   16.7370 C   0  0  0  0  0  0  0  0  0  0  0  0
   26.8330   31.3930   16.4850 C   0  0  0  0  0  0  0  0  0  0  0  0
   27.0330   29.2400   16.4800 N   0  0  0  0  0  0  0  0  0  0  0  0
   28.0910   31.1090   16.0890 N   0  0  0  0  0  0  0  0  0  0  0  0
   28.1760   29.7960   16.0980 N   0  0  0  0  0  0  0  0  0  0  0  0
   29.1440   32.0010   15.7270 C   0  0  0  0  0  0  0  0  0  0  0  0
   30.4660   31.6110   15.8110 C   0  0  0  0  0  0  0  0  0  0  0  0
   28.8990   33.2830   15.2820 C   0  0  0  0  0  0  0  0  0  0  0  0
   31.4960   32.4630   15.4640 C   0  0  0  0  0  0  0  0  0  0  0  0
   29.9230   34.1390   14.9340 C   0  0  0  0  0  0  0  0  0  0  0  0
   31.2410   33.7430   15.0190 C   0  0  0  0  0  0  0  0  0  0  0  0
   32.3150   34.6960   14.6350 C   0  0  0  0  0  0  0  0  0  0  0  0
   29.8670   25.5550   16.9770 C   0  0  0  0  0  0  0  0  0  0  0  0
   28.3450   25.7220   17.0260 C   0  0  0  0  0  0  0  0  0  0  0  0
   27.6040   24.3940   16.9940 C   0  0  0  0  0  0  0  0  0  0  0  0
   26.1250   24.5660   17.2080 C   0  0  0  0  0  0  0  0  0  0  0  0
   25.7450   24.0270   18.5840 C   0  0  0  0  0  0  0  0  0  0  0  0
   25.6760   25.1300   19.5720 N   0  0  0  0  0  0  0  0  0  0  0  0
  2  1  1  1  0  0  0
  2  3  1  0  0  0  0
  3 23  1  6  0  0  0
  4  3  1  1  0  0  0
  4  7  1  0  0  0  0
  4  9  1  0  0  0  0
  5 12  1  1  0  0  0
  5 10  1  0  0  0  0
  5  6  1  0  0  0  0
  7  5  1  0  0  0  0
  8  6  1  0  0  0  0
  8 16  1  1  0  0  0
  9 18  1  6  0  0  0
  9  8  1  0  0  0  0
 10 11  1  0  0  0  0
 12 14  1  0  0  0  0
 12 13  2  0  0  0  0
 14 15  1  0  0  0  0
 16 17  1  0  0  0  0
 18 20  1  0  0  0  0
 19 18  1  0  0  0  0
 21 19  1  0  0  0  0
 22 19  2  0  0  0  0
 24 23  1  0  0  0  0
 25  2  1  0  0  0  0
 26 25  1  0  0  0  0
 27  1  1  0  0  0  0
 28 27  1  0  0  0  0
 28 30  2  0  0  0  0
 29 27  1  0  0  0  0
 31 28  1  0  0  0  0
 32 31  1  0  0  0  0
 33 32  1  0  0  0  0
 34 33  2  0  0  0  0
 35 33  1  0  0  0  0
 36 37  1  0  0  0  0
 36 34  1  0  0  0  0
 37 35  2  0  0  0  0
 38 39  1  0  0  0  0
 38 36  1  0  0  0  0
 40 38  2  0  0  0  0
 41 39  2  0  0  0  0
 42 43  2  0  0  0  0
 42 40  1  0  0  0  0
 43 41  1  0  0  0  0
 44 43  1  0  0  0  0
 45 46  1  0  0  0  0
 47 46  1  0  0  0  0
 47 48  1  0  0  0  0
 48 49  1  0  0  0  0
 49 50  1  0  0  0  0
M  END
>  <REMARK>
 VINA RESULT:    -5.286      3.547      6.467
 INTER + INTRA:         -14.161
 INTER:                  -8.210
 INTRA:                  -5.950
 UNBOUND:                -5.012
 SMILES CC(=O)N[C@@H]1[C@@H](O)C[C@](O)(C(=O)O)O[C@H]1C(O)[C@H](O)CNC(=O)OCc1cn(-c2ccc(C)cc2)nn1
 SMILES IDX 20 1 18 2 16 3 15 4 9 5 8 6 14 7 6 8 5 9 10 10 11 12 12 13
 SMILES IDX 13 14 7 16 4 18 2 19 1 21 3 22 17 23 19 25 21 27 22 28 23 30
 SMILES IDX 24 31 25 32 26 33 27 34 37 35 28 36 36 37 29 38 30 39 35 40
 SMILES IDX 31 41 34 42 32 43 33 44
 H PARENT 10 11 13 15 7 17 4 20 17 24 19 26 21 29
 Flexibility Score: inf
  4 active torsions:
  status: ('A' for Active; 'I' for Inactive)
    1  A    between atoms: CA   and  CB  
    2  A    between atoms: CB   and  CG  
    3  A    between atoms: CG   and  CD  
    4  A    between atoms: CD   and  CE  

>  <TORSDO>
F 15

>  <BEGIN_>
RES LYS A 131

$$$$
ligand_40_pose_6_2HRL.pdbqt
 OpenBabel07062320523D

  6  5  0  0  0  0  0  0  0  0999 V2000
   33.1930   34.6630    9.2900 C   0  0  0  0  0  0  0  0  0  0  0  0
   32.0600   35.3600   10.0340 C   0  0  0  0  0  0  0  0  0  0  0  0
   30.7330   34.6570    9.9070 C   0  0  0  0  0  0  0  0  0  0  0  0
   30.3300   34.5310    8.4460 C   0  0  0  0  0  0  0  0  0  0  0  0
   28.8210   34.5940    8.3030 C   0  0  0  0  0  0  0  0  0  0  0  0
   28.1460   33.8930    9.4310 N   0  0  0  0  0  0  0  0  0  0  0  0
  1  2  1  0  0  0  0
  3  2  1  0  0  0  0
  4  3  1  0  0  0  0
  5  4  1  0  0  0  0
  5  6  1  0  0  0  0
M  END
>  <EGIN_R>
ES LYS A 135

>  <REMARK>
  4 active torsions:
  status: ('A' for Active; 'I' for Inactive)
    5  A    between atoms: CA   and  CB  
    6  A    between atoms: CB   and  CG  
    7  A    between atoms: CG   and  CD  
    8  A    between atoms: CD   and  CE  

$$$$
