ligand_78_pose_3_2HRL.pdbqt
 OpenBabel07062320523D

 53 54  0  0  1  0  0  0  0  0999 V2000
   27.7910   36.2910   11.8460 N   0  0  0  0  0  0  0  0  0  0  0  0
   26.6800   35.7110   11.1340 C   0  0  0  0  0  0  0  0  0  0  0  0
   26.2910   36.2510   10.0880 O   0  0  0  0  0  0  0  0  0  0  0  0
   28.0570   35.7760   12.7070 H   0  0  0  0  0  0  0  0  0  0  0  0
   28.4420   37.4880   11.3450 C   0  0  0  0  0  0  0  0  0  0  0  0
   29.3100   38.1410   12.3670 C   0  0  2  0  0  0  0  0  0  0  0  0
   30.6360   37.4870   12.5600 C   0  0  2  0  0  0  0  0  0  0  0  0
   30.9800   37.0540   13.9390 C   0  0  2  0  0  0  0  0  0  0  0  0
   32.5780   35.4840   13.2650 C   0  0  2  0  0  0  0  0  0  0  0  0
   31.4940   34.4630   13.1520 C   0  0  0  0  0  0  0  0  0  0  0  0
   32.2980   36.6080   14.0010 O   0  0  0  0  0  0  0  0  0  0  0  0
   30.3010   34.6540   14.0030 C   0  0  1  0  0  0  0  0  0  0  0  0
   30.1620   36.0230   14.6090 C   0  0  1  0  0  0  0  0  0  0  0  0
   32.9990   35.9210   12.0080 O   0  0  0  0  0  0  0  0  0  0  0  0
   33.3430   36.8280   11.9960 H   0  0  0  0  0  0  0  0  0  0  0  0
   33.7590   34.8540   13.9120 C   0  0  0  0  0  0  0  0  0  0  0  0
   34.0370   35.1490   15.0940 O   0  0  0  0  0  0  0  0  0  0  0  0
   34.5820   33.9420   13.2640 O   0  0  0  0  0  0  0  0  0  0  0  0
   35.5910   33.9060   13.4640 H   0  0  0  0  0  0  0  0  0  0  0  0
   29.1610   34.3070   13.2800 O   0  0  0  0  0  0  0  0  0  0  0  0
   29.2560   34.4590   12.3220 H   0  0  0  0  0  0  0  0  0  0  0  0
   30.5150   36.0140   16.0320 N   0  0  0  0  0  0  0  0  0  0  0  0
   29.7860   36.7560   16.9860 C   0  0  0  0  0  0  0  0  0  0  0  0
   31.3220   35.4500   16.3610 H   0  0  0  0  0  0  0  0  0  0  0  0
   30.1320   36.7580   18.4390 C   0  0  0  0  0  0  0  0  0  0  0  0
   28.8130   37.4310   16.5680 O   0  0  0  0  0  0  0  0  0  0  0  0
   31.5610   38.6030   12.3580 O   0  0  0  0  0  0  0  0  0  0  0  0
   32.4520   38.2190   12.4350 H   0  0  0  0  0  0  0  0  0  0  0  0
   28.6910   38.4880   13.5510 O   0  0  0  0  0  0  0  0  0  0  0  0
   29.3350   38.6860   14.2720 H   0  0  0  0  0  0  0  0  0  0  0  0
   26.0480   34.5730   11.5960 O   0  0  0  0  0  0  0  0  0  0  0  0
   25.1710   34.5820   12.7080 C   0  0  0  0  0  0  0  0  0  0  0  0
   25.8500   34.1620   13.9420 C   0  0  0  0  0  0  0  0  0  0  0  0
   25.8290   32.9680   14.6050 C   0  0  0  0  0  0  0  0  0  0  0  0
   26.6620   34.9600   14.6670 N   0  0  0  0  0  0  0  0  0  0  0  0
   26.6200   33.0740   15.7020 N   0  0  0  0  0  0  0  0  0  0  0  0
   27.1140   34.3010   15.7120 N   0  0  0  0  0  0  0  0  0  0  0  0
   26.8510   32.0180   16.6520 C   0  0  0  0  0  0  0  0  0  0  0  0
   28.4580   31.2820   16.3870 S   0  0  0  0  0  0  0  0  0  0  0  0
   29.0210   31.8520   15.1100 O   0  0  0  0  0  0  0  0  0  0  0  0
   28.2670   29.8180   16.2480 O   0  0  0  0  0  0  0  0  0  0  0  0
   29.4860   31.6810   17.7510 C   0  0  0  0  0  0  0  0  0  0  0  0
   30.1600   32.8970   17.7250 C   0  0  0  0  0  0  0  0  0  0  0  0
   29.6110   30.8080   18.8050 C   0  0  0  0  0  0  0  0  0  0  0  0
   30.9640   33.2080   18.7950 C   0  0  0  0  0  0  0  0  0  0  0  0
   30.4310   31.1670   19.8530 C   0  0  0  0  0  0  0  0  0  0  0  0
   31.1210   32.3540   19.8830 C   0  0  0  0  0  0  0  0  0  0  0  0
   29.8670   25.5550   16.9770 C   0  0  0  0  0  0  0  0  0  0  0  0
   28.3450   25.7220   17.0260 C   0  0  0  0  0  0  0  0  0  0  0  0
   27.6010   24.4010   16.9060 C   0  0  0  0  0  0  0  0  0  0  0  0
   26.5350   24.2540   17.9550 C   0  0  0  0  0  0  0  0  0  0  0  0
   25.2230   23.8450   17.2940 C   0  0  0  0  0  0  0  0  0  0  0  0
   24.8950   22.4360   17.6170 N   0  0  0  0  0  0  0  0  0  0  0  0
  1  4  1  0  0  0  0
  2 31  1  0  0  0  0
  2  1  1  0  0  0  0
  3  2  2  0  0  0  0
  5  1  1  0  0  0  0
  6  5  1  1  0  0  0
  6  7  1  0  0  0  0
  6 29  1  0  0  0  0
  7 27  1  1  0  0  0
  8  7  1  6  0  0  0
  8 11  1  0  0  0  0
  8 13  1  0  0  0  0
  9 14  1  6  0  0  0
  9 16  1  0  0  0  0
  9 11  1  0  0  0  0
 10  9  1  0  0  0  0
 10 12  1  0  0  0  0
 12 20  1  6  0  0  0
 12 13  1  0  0  0  0
 13 22  1  1  0  0  0
 15 14  1  0  0  0  0
 16 17  2  0  0  0  0
 18 19  1  0  0  0  0
 18 16  1  0  0  0  0
 21 20  1  0  0  0  0
 22 24  1  0  0  0  0
 22 23  1  0  0  0  0
 23 25  1  0  0  0  0
 26 23  2  0  0  0  0
 27 28  1  0  0  0  0
 29 30  1  0  0  0  0
 31 32  1  0  0  0  0
 32 33  1  0  0  0  0
 33 34  2  0  0  0  0
 33 35  1  0  0  0  0
 34 36  1  0  0  0  0
 35 37  2  0  0  0  0
 36 37  1  0  0  0  0
 36 38  1  0  0  0  0
 39 38  1  0  0  0  0
 39 42  1  0  0  0  0
 40 39  2  0  0  0  0
 41 39  2  0  0  0  0
 42 44  1  0  0  0  0
 43 42  2  0  0  0  0
 43 45  1  0  0  0  0
 44 46  2  0  0  0  0
 45 47  2  0  0  0  0
 46 47  1  0  0  0  0
 48 49  1  0  0  0  0
 50 49  1  0  0  0  0
 50 51  1  0  0  0  0
 52 53  1  0  0  0  0
 52 51  1  0  0  0  0
M  END
>  <REMARK>
 VINA RESULT:    -5.603      3.647      8.767
 INTER + INTRA:         -15.364
 INTER:                  -8.254
 INTRA:                  -7.110
 UNBOUND:                -5.011
 SMILES CC(=O)N[C@@H]1[C@@H](O)C[C@](O)(C(=O)O)O[C@H]1C(O)[C@H](O)CNC(=O)OCc1cn(CS(=O)(=O)c2ccccc2)nn1
 SMILES IDX 21 1 22 2 23 3 20 5 18 6 16 7 15 8 9 9 8 10 14 11 6 12 5 13
 SMILES IDX 10 14 11 16 12 17 13 18 7 20 4 22 2 23 1 25 3 26 17 27 19 29
 SMILES IDX 24 31 25 32 26 33 27 34 40 35 28 36 39 37 29 38 30 39 31 40
 SMILES IDX 32 41 33 42 34 43 38 44 35 45 37 46 36 47
 H PARENT 21 4 10 15 13 19 7 21 4 24 17 28 19 30
 Flexibility Score: inf
  4 active torsions:
  status: ('A' for Active; 'I' for Inactive)
    1  A    between atoms: CA   and  CB  
    2  A    between atoms: CB   and  CG  
    3  A    between atoms: CG   and  CD  
    4  A    between atoms: CD   and  CE  

>  <TORSDO>
F 17

>  <BEGIN_>
RES LYS A 131

$$$$
ligand_78_pose_3_2HRL.pdbqt
 OpenBabel07062320523D

  6  5  0  0  0  0  0  0  0  0999 V2000
   33.1930   34.6630    9.2900 C   0  0  0  0  0  0  0  0  0  0  0  0
   32.0600   35.3600   10.0340 C   0  0  0  0  0  0  0  0  0  0  0  0
   30.8590   35.6460    9.1710 C   0  0  0  0  0  0  0  0  0  0  0  0
   30.3530   34.3710    8.5140 C   0  0  0  0  0  0  0  0  0  0  0  0
   28.8380   34.3640    8.4590 C   0  0  0  0  0  0  0  0  0  0  0  0
   28.3380   35.1900    7.3250 N   0  0  0  0  0  0  0  0  0  0  0  0
  1  2  1  0  0  0  0
  3  2  1  0  0  0  0
  4  3  1  0  0  0  0
  5  4  1  0  0  0  0
  6  5  1  0  0  0  0
M  END
>  <EGIN_R>
ES LYS A 135

>  <REMARK>
  4 active torsions:
  status: ('A' for Active; 'I' for Inactive)
    5  A    between atoms: CA   and  CB  
    6  A    between atoms: CB   and  CG  
    7  A    between atoms: CG   and  CD  
    8  A    between atoms: CD   and  CE  

$$$$
