ligand_0_pose_9_2HRL.pdbqt
 OpenBabel07062320523D

 54 55  0  0  1  0  0  0  0  0999 V2000
   25.4530   37.0930   15.2720 N   0  0  0  0  0  0  0  0  0  0  0  0
   24.1590   37.0420   14.6900 C   0  0  0  0  0  0  0  0  0  0  0  0
   23.6300   35.9340   14.4900 O   0  0  0  0  0  0  0  0  0  0  0  0
   25.8460   38.0680   15.4150 H   0  0  0  0  0  0  0  0  0  0  0  0
   26.2260   35.9400   15.6630 C   0  0  0  0  0  0  0  0  0  0  0  0
   27.5960   35.9100   15.0070 C   0  0  2  0  0  0  0  0  0  0  0  0
   28.7030   35.9480   16.0180 C   0  0  1  0  0  0  0  0  0  0  0  0
   29.9440   35.2520   15.6080 C   0  0  2  0  0  0  0  0  0  0  0  0
   31.2680   35.0370   13.6900 C   0  0  2  0  0  0  0  0  0  0  0  0
   32.1800   34.3510   14.6640 C   0  0  0  0  0  0  0  0  0  0  0  0
   30.1650   35.6000   14.2480 O   0  0  0  0  0  0  0  0  0  0  0  0
   31.4910   33.4030   15.5850 C   0  0  1  0  0  0  0  0  0  0  0  0
   30.0170   33.7810   15.6770 C   0  0  1  0  0  0  0  0  0  0  0  0
   30.9490   34.1380   12.6450 O   0  0  0  0  0  0  0  0  0  0  0  0
   31.7450   34.0920   12.0380 H   0  0  0  0  0  0  0  0  0  0  0  0
   32.0630   36.1250   13.0510 C   0  0  0  0  0  0  0  0  0  0  0  0
   31.8670   37.3160   13.4420 O   0  0  0  0  0  0  0  0  0  0  0  0
   32.9980   35.9100   12.0610 O   0  0  0  0  0  0  0  0  0  0  0  0
   33.8770   36.4030   12.0580 H   0  0  0  0  0  0  0  0  0  0  0  0
   31.6540   32.1110   15.1100 O   0  0  0  0  0  0  0  0  0  0  0  0
   31.8500   32.0670   14.1410 H   0  0  0  0  0  0  0  0  0  0  0  0
   29.3370   33.1010   16.7110 N   0  0  0  0  0  0  0  0  0  0  0  0
   28.7350   31.8400   16.5150 C   0  0  0  0  0  0  0  0  0  0  0  0
   29.2770   33.5050   17.6670 H   0  0  0  0  0  0  0  0  0  0  0  0
   28.0130   31.0850   17.5600 C   0  0  0  0  0  0  0  0  0  0  0  0
   28.8200   31.3260   15.3780 O   0  0  0  0  0  0  0  0  0  0  0  0
   28.8380   37.1310   16.7050 O   0  0  0  0  0  0  0  0  0  0  0  0
   29.7940   37.2530   16.9890 H   0  0  0  0  0  0  0  0  0  0  0  0
   27.7020   36.7940   13.9700 O   0  0  0  0  0  0  0  0  0  0  0  0
   28.5460   36.6540   13.4600 H   0  0  0  0  0  0  0  0  0  0  0  0
   23.4580   38.1890   14.3350 O   0  0  0  0  0  0  0  0  0  0  0  0
   23.3300   38.6080   12.9870 C   0  0  0  0  0  0  0  0  0  0  0  0
   24.5620   38.2590   12.2160 C   0  0  0  0  0  0  0  0  0  0  0  0
   24.6200   37.3780   11.1520 C   0  0  0  0  0  0  0  0  0  0  0  0
   25.8100   38.7150   12.3970 N   0  0  0  0  0  0  0  0  0  0  0  0
   25.9180   37.3360   10.7270 N   0  0  0  0  0  0  0  0  0  0  0  0
   26.5990   38.1420   11.4880 N   0  0  0  0  0  0  0  0  0  0  0  0
   26.3990   36.5310    9.6450 C   0  0  0  0  0  0  0  0  0  0  0  0
   26.9180   35.2740    9.8450 C   0  0  0  0  0  0  0  0  0  0  0  0
   26.3290   37.0590    8.3600 C   0  0  0  0  0  0  0  0  0  0  0  0
   27.3670   34.5490    8.7360 C   0  0  0  0  0  0  0  0  0  0  0  0
   26.7760   36.3320    7.2830 C   0  0  0  0  0  0  0  0  0  0  0  0
   27.2940   35.0790    7.4830 C   0  0  0  0  0  0  0  0  0  0  0  0
   27.0190   34.6630   11.1620 C   0  0  0  0  0  0  0  0  0  0  0  0
   25.9690   34.1180   11.6350 O   0  0  0  0  0  0  0  0  0  0  0  0
   28.2200   34.6550   11.9200 N   0  0  0  0  0  0  0  0  0  0  0  0
   29.0320   34.0700   11.6680 H   0  0  0  0  0  0  0  0  0  0  0  0
   28.2400   35.2840   12.7780 H   0  0  0  0  0  0  0  0  0  0  0  0
   29.8670   25.5550   16.9770 C   0  0  0  0  0  0  0  0  0  0  0  0
   28.3450   25.7220   17.0260 C   0  0  0  0  0  0  0  0  0  0  0  0
   27.5990   24.4420   16.6830 C   0  0  0  0  0  0  0  0  0  0  0  0
   27.0150   23.7820   17.9020 C   0  0  0  0  0  0  0  0  0  0  0  0
   25.6180   24.3370   18.1600 C   0  0  0  0  0  0  0  0  0  0  0  0
   25.5950   25.1200   19.4180 N   0  0  0  0  0  0  0  0  0  0  0  0
  1  4  1  0  0  0  0
  1  5  1  0  0  0  0
  2  1  1  0  0  0  0
  3  2  2  0  0  0  0
  6  5  1  1  0  0  0
  6  7  1  0  0  0  0
  7 27  1  6  0  0  0
  8 13  1  0  0  0  0
  8  7  1  6  0  0  0
  9 14  1  6  0  0  0
  9 11  1  0  0  0  0
  9 10  1  0  0  0  0
 10 12  1  0  0  0  0
 11  8  1  0  0  0  0
 12 20  1  6  0  0  0
 12 13  1  0  0  0  0
 13 22  1  1  0  0  0
 15 14  1  0  0  0  0
 16 17  2  0  0  0  0
 16  9  1  0  0  0  0
 18 16  1  0  0  0  0
 19 18  1  0  0  0  0
 21 20  1  0  0  0  0
 22 24  1  0  0  0  0
 23 22  1  0  0  0  0
 23 25  1  0  0  0  0
 26 23  2  0  0  0  0
 27 28  1  0  0  0  0
 29  6  1  0  0  0  0
 30 29  1  0  0  0  0
 31  2  1  0  0  0  0
 32 31  1  0  0  0  0
 33 35  1  0  0  0  0
 33 32  1  0  0  0  0
 34 33  2  0  0  0  0
 36 34  1  0  0  0  0
 36 37  1  0  0  0  0
 37 35  2  0  0  0  0
 38 39  1  0  0  0  0
 38 36  1  0  0  0  0
 39 44  1  0  0  0  0
 40 38  2  0  0  0  0
 41 39  2  0  0  0  0
 42 43  2  0  0  0  0
 42 40  1  0  0  0  0
 43 41  1  0  0  0  0
 44 45  2  0  0  0  0
 44 46  1  0  0  0  0
 46 48  1  0  0  0  0
 47 46  1  0  0  0  0
 49 50  1  0  0  0  0
 51 50  1  0  0  0  0
 51 52  1  0  0  0  0
 52 53  1  0  0  0  0
 53 54  1  0  0  0  0
M  END
>  <REMARK>
 VINA RESULT:    -5.274      4.725      8.512
 INTER + INTRA:         -14.850
 INTER:                  -9.260
 INTRA:                  -5.591
 UNBOUND:                -5.414
 SMILES CC(=O)N[C@@H]1[C@@H](O)C[C@](O)(C(=O)O)O[C@H]1C(O)[C@H](O)CNC(=O)OCc1cn(-c2ccccc2C(N)=O)nn1
 SMILES IDX 21 1 22 2 23 3 20 5 18 6 16 7 15 8 9 9 8 10 14 11 6 12 5 13
 SMILES IDX 10 14 11 16 12 17 13 18 7 20 4 22 2 23 1 25 3 26 17 27 19 29
 SMILES IDX 24 31 25 32 26 33 27 34 39 35 28 36 38 37 29 38 34 39 30 40
 SMILES IDX 33 41 31 42 32 43 35 44 37 45 36 46
 H PARENT 21 4 10 15 13 19 7 21 4 24 17 28 19 30 36 47 36 48
 Flexibility Score: inf
  4 active torsions:
  status: ('A' for Active; 'I' for Inactive)
    1  A    between atoms: CA   and  CB  
    2  A    between atoms: CB   and  CG  
    3  A    between atoms: CG   and  CD  
    4  A    between atoms: CD   and  CE  

>  <TORSDO>
F 16

>  <BEGIN_>
RES LYS A 131

$$$$
ligand_0_pose_9_2HRL.pdbqt
 OpenBabel07062320523D

  6  5  0  0  0  0  0  0  0  0999 V2000
   33.1930   34.6630    9.2900 C   0  0  0  0  0  0  0  0  0  0  0  0
   32.0600   35.3600   10.0340 C   0  0  0  0  0  0  0  0  0  0  0  0
   30.7590   35.3730    9.2740 C   0  0  0  0  0  0  0  0  0  0  0  0
   30.3220   36.8010    8.9830 C   0  0  0  0  0  0  0  0  0  0  0  0
   29.9730   37.5240   10.2700 C   0  0  0  0  0  0  0  0  0  0  0  0
   29.7200   38.9700   10.0220 N   0  0  0  0  0  0  0  0  0  0  0  0
  1  2  1  0  0  0  0
  3  2  1  0  0  0  0
  4  3  1  0  0  0  0
  4  5  1  0  0  0  0
  6  5  1  0  0  0  0
M  END
>  <EGIN_R>
ES LYS A 135

>  <REMARK>
  4 active torsions:
  status: ('A' for Active; 'I' for Inactive)
    5  A    between atoms: CA   and  CB  
    6  A    between atoms: CB   and  CG  
    7  A    between atoms: CG   and  CD  
    8  A    between atoms: CD   and  CE  

$$$$
