ligand_34_pose_3_2HRL.pdbqt
 OpenBabel07062320523D

 69 73  0  0  1  0  0  0  0  0999 V2000
   32.2910   29.2490   22.9020 N   0  0  0  0  0  0  0  0  0  0  0  0
   33.5150   29.9860   23.0560 C   0  0  0  0  0  0  0  0  0  0  0  0
   34.5440   29.4970   22.5140 O   0  0  0  0  0  0  0  0  0  0  0  0
   31.4150   29.6040   23.3270 H   0  0  0  0  0  0  0  0  0  0  0  0
   32.2530   28.0110   22.1620 C   0  0  0  0  0  0  0  0  0  0  0  0
   31.7340   28.2760   20.7880 C   0  0  2  0  0  0  0  0  0  0  0  0
   30.2110   28.3970   20.7660 C   0  0  2  0  0  0  0  0  0  0  0  0
   29.7980   29.8400   20.5210 C   0  0  2  0  0  0  0  0  0  0  0  0
   29.0890   31.1180   22.3350 C   0  0  2  0  0  0  0  0  0  0  0  0
   28.2990   32.0520   21.4460 C   0  0  0  0  0  0  0  0  0  0  0  0
   30.1290   30.5640   21.6310 O   0  0  0  0  0  0  0  0  0  0  0  0
   27.8210   31.3490   20.2280 C   0  0  1  0  0  0  0  0  0  0  0  0
   28.3850   29.9590   20.0670 C   0  0  1  0  0  0  0  0  0  0  0  0
   28.2130   30.2090   22.8700 O   0  0  0  0  0  0  0  0  0  0  0  0
   28.5890   29.6400   23.5650 H   0  0  0  0  0  0  0  0  0  0  0  0
   29.6680   31.9460   23.4210 C   0  0  0  0  0  0  0  0  0  0  0  0
   30.3870   31.4120   24.3020 O   0  0  0  0  0  0  0  0  0  0  0  0
   29.4570   33.3120   23.5230 O   0  0  0  0  0  0  0  0  0  0  0  0
   29.2490   33.8890   22.6940 H   0  0  0  0  0  0  0  0  0  0  0  0
   26.4320   31.2540   20.1910 O   0  0  0  0  0  0  0  0  0  0  0  0
   25.9770   32.1250   20.1890 H   0  0  0  0  0  0  0  0  0  0  0  0
   28.2880   29.6510   18.6330 N   0  0  0  0  0  0  0  0  0  0  0  0
   27.2840   28.8370   18.0790 C   0  0  0  0  0  0  0  0  0  0  0  0
   29.0140   30.0740   18.0100 H   0  0  0  0  0  0  0  0  0  0  0  0
   27.2530   28.5730   16.6230 C   0  0  0  0  0  0  0  0  0  0  0  0
   26.4260   28.3530   18.8890 O   0  0  0  0  0  0  0  0  0  0  0  0
   29.7750   27.9580   22.0210 O   0  0  0  0  0  0  0  0  0  0  0  0
   30.5920   27.8490   22.5780 H   0  0  0  0  0  0  0  0  0  0  0  0
   32.1660   27.3170   19.8740 O   0  0  0  0  0  0  0  0  0  0  0  0
   32.5860   27.7180   19.0760 H   0  0  0  0  0  0  0  0  0  0  0  0
   33.6000   31.1600   23.7430 O   0  0  0  0  0  0  0  0  0  0  0  0
   34.1690   32.3130   23.1700 C   0  0  0  0  0  0  0  0  0  0  0  0
   33.1170   33.0570   22.4500 C   0  0  0  0  0  0  0  0  0  0  0  0
   32.6190   32.7860   21.1730 C   0  0  0  0  0  0  0  0  0  0  0  0
   32.4410   34.1360   22.8690 N   0  0  0  0  0  0  0  0  0  0  0  0
   31.6740   33.6970   20.8750 N   0  0  0  0  0  0  0  0  0  0  0  0
   31.5910   34.4960   21.9170 N   0  0  0  0  0  0  0  0  0  0  0  0
   30.9620   33.7190   19.6480 C   0  0  0  0  0  0  0  0  0  0  0  0
   31.1420   32.8390   18.6230 C   0  0  0  0  0  0  0  0  0  0  0  0
   30.0040   34.7210   19.4710 C   0  0  0  0  0  0  0  0  0  0  0  0
   30.4210   32.9020   17.4350 C   0  0  0  0  0  0  0  0  0  0  0  0
   29.2810   34.8030   18.3130 C   0  0  0  0  0  0  0  0  0  0  0  0
   29.4920   33.8850   17.2850 C   0  0  0  0  0  0  0  0  0  0  0  0
   30.6410   31.9400   16.3580 C   0  0  0  0  0  0  0  0  0  0  0  0
   31.4910   32.1630   15.4390 O   0  0  0  0  0  0  0  0  0  0  0  0
   29.9320   30.7700   16.3170 O   0  0  0  0  0  0  0  0  0  0  0  0
   28.6750   34.0570   16.0940 C   0  0  0  0  0  0  0  0  0  0  0  0
   27.4540   33.4520   15.8920 C   0  0  0  0  0  0  0  0  0  0  0  0
   29.1460   34.8860   15.0890 C   0  0  0  0  0  0  0  0  0  0  0  0
   26.9510   32.6180   16.8720 C   0  0  0  0  0  0  0  0  0  0  0  0
   26.7190   33.6590   14.7310 C   0  0  0  0  0  0  0  0  0  0  0  0
   28.3390   35.0710   13.8930 C   0  0  0  0  0  0  0  0  0  0  0  0
   30.3540   35.5380   15.1900 C   0  0  0  0  0  0  0  0  0  0  0  0
   25.7250   31.9860   16.7160 C   0  0  0  0  0  0  0  0  0  0  0  0
   25.5000   33.0470   14.5470 C   0  0  0  0  0  0  0  0  0  0  0  0
   27.1700   34.4440   13.7830 O   0  0  0  0  0  0  0  0  0  0  0  0
   28.7940   35.8850   12.8980 C   0  0  0  0  0  0  0  0  0  0  0  0
   30.7670   36.3430   14.1660 C   0  0  0  0  0  0  0  0  0  0  0  0
   25.0180   32.2110   15.5520 C   0  0  0  0  0  0  0  0  0  0  0  0
   30.0070   36.5280   13.0210 C   0  0  0  0  0  0  0  0  0  0  0  0
   30.4310   37.2820   12.1050 O   0  0  0  0  0  0  0  0  0  0  0  0
   23.7950   31.5840   15.3860 O   0  0  0  0  0  0  0  0  0  0  0  0
   23.4950   30.7850   15.9120 H   0  0  0  0  0  0  0  0  0  0  0  0
   29.8670   25.5550   16.9770 C   0  0  0  0  0  0  0  0  0  0  0  0
   28.3450   25.7220   17.0260 C   0  0  0  0  0  0  0  0  0  0  0  0
   27.6010   24.4020   16.8940 C   0  0  0  0  0  0  0  0  0  0  0  0
   26.5870   24.2120   17.9870 C   0  0  0  0  0  0  0  0  0  0  0  0
   25.3190   24.9870   17.6450 C   0  0  0  0  0  0  0  0  0  0  0  0
   24.4100   24.1580   16.8180 N   0  0  0  0  0  0  0  0  0  0  0  0
  1  2  1  0  0  0  0
  1  4  1  0  0  0  0
  2 31  1  0  0  0  0
  3  2  2  0  0  0  0
  5  1  1  0  0  0  0
  6  5  1  1  0  0  0
  7  6  1  0  0  0  0
  7 27  1  1  0  0  0
  8  7  1  1  0  0  0
  8 11  1  0  0  0  0
  9 14  1  1  0  0  0
  9 16  1  0  0  0  0
 10  9  1  0  0  0  0
 11  9  1  0  0  0  0
 12 20  1  1  0  0  0
 12 10  1  0  0  0  0
 13 22  1  6  0  0  0
 13 12  1  0  0  0  0
 13  8  1  0  0  0  0
 14 15  1  0  0  0  0
 16 18  1  0  0  0  0
 16 17  2  0  0  0  0
 19 18  1  0  0  0  0
 21 20  1  0  0  0  0
 23 22  1  0  0  0  0
 23 26  2  0  0  0  0
 24 22  1  0  0  0  0
 25 23  1  0  0  0  0
 27 28  1  0  0  0  0
 29  6  1  0  0  0  0
 30 29  1  0  0  0  0
 32 31  1  0  0  0  0
 33 35  1  0  0  0  0
 33 32  1  0  0  0  0
 34 33  2  0  0  0  0
 36 34  1  0  0  0  0
 36 37  1  0  0  0  0
 37 35  2  0  0  0  0
 38 36  1  0  0  0  0
 39 38  2  0  0  0  0
 40 38  1  0  0  0  0
 41 39  1  0  0  0  0
 42 40  2  0  0  0  0
 43 41  2  0  0  0  0
 43 42  1  0  0  0  0
 44 41  1  0  0  0  0
 45 44  2  0  0  0  0
 46 44  1  0  0  0  0
 47 43  1  0  0  0  0
 48 47  1  0  0  0  0
 48 50  2  0  0  0  0
 49 53  1  0  0  0  0
 49 47  2  0  0  0  0
 51 48  1  0  0  0  0
 52 49  1  0  0  0  0
 54 50  1  0  0  0  0
 55 51  2  0  0  0  0
 55 59  1  0  0  0  0
 56 52  1  0  0  0  0
 56 51  1  0  0  0  0
 57 60  1  0  0  0  0
 57 52  2  0  0  0  0
 58 53  2  0  0  0  0
 59 54  2  0  0  0  0
 60 58  1  0  0  0  0
 61 60  2  0  0  0  0
 62 59  1  0  0  0  0
 62 63  1  0  0  0  0
 64 65  1  0  0  0  0
 66 65  1  0  0  0  0
 66 67  1  0  0  0  0
 68 67  1  0  0  0  0
 69 68  1  0  0  0  0
M  END
>  <REMARK>
 VINA RESULT:    -5.591      3.470      7.518
 INTER + INTRA:         -18.211
 INTER:                  -8.575
 INTRA:                  -9.636
 UNBOUND:                -7.717
 SMILES CC(=O)N[C@@H]1[C@@H](O)C[C@](O)(C(=O)O)O[C@H]1C(O)[C@H](O)CNC(=O)OCc1cn(-c2ccc(-c3c4ccc(=O)cc-4oc4cc(O)ccc34)c(C(=O)[O-])c2)nn1
 SMILES IDX 21 1 22 2 23 3 20 5 18 6 16 7 15 8 9 9 8 10 14 11 6 12 5 13
 SMILES IDX 10 14 11 16 12 17 13 18 7 20 4 22 2 23 1 25 3 26 17 27 19 29
 SMILES IDX 24 31 25 32 26 33 27 34 55 35 28 36 54 37 29 38 53 39 30 40
 SMILES IDX 49 41 31 42 32 43 50 44 51 45 52 46 33 47 48 48 34 49 47 50
 SMILES IDX 42 51 40 52 35 53 46 54 43 55 41 56 39 57 36 58 44 59 37 60
 SMILES IDX 38 61 45 62
 H PARENT 21 4 10 15 13 19 7 21 4 24 17 28 19 30 45 63
 Flexibility Score: inf
  4 active torsions:
  status: ('A' for Active; 'I' for Inactive)
    1  A    between atoms: CA   and  CB  
    2  A    between atoms: CB   and  CG  
    3  A    between atoms: CG   and  CD  
    4  A    between atoms: CD   and  CE  

>  <TORSDO>
F 18

>  <BEGIN_>
RES LYS A 131

$$$$
ligand_34_pose_3_2HRL.pdbqt
 OpenBabel07062320523D

  6  5  0  0  0  0  0  0  0  0999 V2000
   33.1930   34.6630    9.2900 C   0  0  0  0  0  0  0  0  0  0  0  0
   32.0600   35.3600   10.0340 C   0  0  0  0  0  0  0  0  0  0  0  0
   30.8500   35.6270    9.1760 C   0  0  0  0  0  0  0  0  0  0  0  0
   30.2410   34.3230    8.6860 C   0  0  0  0  0  0  0  0  0  0  0  0
   28.9230   34.0550    9.3880 C   0  0  0  0  0  0  0  0  0  0  0  0
   27.7690   34.4230    8.5210 N   0  0  0  0  0  0  0  0  0  0  0  0
  1  2  1  0  0  0  0
  3  2  1  0  0  0  0
  4  3  1  0  0  0  0
  4  5  1  0  0  0  0
  6  5  1  0  0  0  0
M  END
>  <EGIN_R>
ES LYS A 135

>  <REMARK>
  4 active torsions:
  status: ('A' for Active; 'I' for Inactive)
    5  A    between atoms: CA   and  CB  
    6  A    between atoms: CB   and  CG  
    7  A    between atoms: CG   and  CD  
    8  A    between atoms: CD   and  CE  

$$$$
