ligand_34_pose_6_2HRL.pdbqt
 OpenBabel07062320523D

 69 73  0  0  1  0  0  0  0  0999 V2000
   30.5580   38.9940   10.9400 N   0  0  0  0  0  0  0  0  0  0  0  0
   30.9710   39.4780    9.6520 C   0  0  0  0  0  0  0  0  0  0  0  0
   32.1920   39.7690    9.5200 O   0  0  0  0  0  0  0  0  0  0  0  0
   29.5660   38.7410   11.1060 H   0  0  0  0  0  0  0  0  0  0  0  0
   31.5020   38.8510   12.0220 C   0  0  0  0  0  0  0  0  0  0  0  0
   31.3670   37.4880   12.6160 C   0  0  2  0  0  0  0  0  0  0  0  0
   31.4560   37.5170   14.1410 C   0  0  2  0  0  0  0  0  0  0  0  0
   30.3930   36.6160   14.7500 C   0  0  2  0  0  0  0  0  0  0  0  0
   30.6750   34.3080   14.6070 C   0  0  2  0  0  0  0  0  0  0  0  0
   29.1900   34.0570   14.7510 C   0  0  0  0  0  0  0  0  0  0  0  0
   31.0140   35.4910   15.2140 O   0  0  0  0  0  0  0  0  0  0  0  0
   28.4040   35.1940   14.2080 C   0  0  1  0  0  0  0  0  0  0  0  0
   29.2440   36.3900   13.8320 C   0  0  1  0  0  0  0  0  0  0  0  0
   30.9820   34.2420   13.2720 O   0  0  0  0  0  0  0  0  0  0  0  0
   30.4660   34.8430   12.7050 H   0  0  0  0  0  0  0  0  0  0  0  0
   31.3670   33.2140   15.3300 C   0  0  0  0  0  0  0  0  0  0  0  0
   31.9490   33.4500   16.4170 O   0  0  0  0  0  0  0  0  0  0  0  0
   31.4110   31.9100   14.8630 O   0  0  0  0  0  0  0  0  0  0  0  0
   30.5890   31.4650   14.4270 H   0  0  0  0  0  0  0  0  0  0  0  0
   27.6560   34.8280   13.0920 O   0  0  0  0  0  0  0  0  0  0  0  0
   28.1620   34.3050   12.4320 H   0  0  0  0  0  0  0  0  0  0  0  0
   28.3340   37.5440   13.8660 N   0  0  0  0  0  0  0  0  0  0  0  0
   27.7110   38.0770   12.7230 C   0  0  0  0  0  0  0  0  0  0  0  0
   28.1560   37.9750   14.8020 H   0  0  0  0  0  0  0  0  0  0  0  0
   26.8070   39.2440   12.8400 C   0  0  0  0  0  0  0  0  0  0  0  0
   27.9670   37.5070   11.6120 O   0  0  0  0  0  0  0  0  0  0  0  0
   31.2510   38.8510   14.5090 O   0  0  0  0  0  0  0  0  0  0  0  0
   31.4010   38.8970   15.4910 H   0  0  0  0  0  0  0  0  0  0  0  0
   32.2930   36.5940   12.0840 O   0  0  0  0  0  0  0  0  0  0  0  0
   31.8830   35.7360   11.8230 H   0  0  0  0  0  0  0  0  0  0  0  0
   30.1180   39.6290    8.6010 O   0  0  0  0  0  0  0  0  0  0  0  0
   30.2250   38.8370    7.4410 C   0  0  0  0  0  0  0  0  0  0  0  0
   28.9970   38.0320    7.2970 C   0  0  0  0  0  0  0  0  0  0  0  0
   27.8930   38.0210    8.1530 C   0  0  0  0  0  0  0  0  0  0  0  0
   28.7020   37.1510    6.3310 N   0  0  0  0  0  0  0  0  0  0  0  0
   26.9850   37.1490    7.6770 N   0  0  0  0  0  0  0  0  0  0  0  0
   27.5020   36.6410    6.5780 N   0  0  0  0  0  0  0  0  0  0  0  0
   25.7410   36.8850    8.3060 C   0  0  0  0  0  0  0  0  0  0  0  0
   24.7870   37.8200    8.5750 C   0  0  0  0  0  0  0  0  0  0  0  0
   25.4700   35.5670    8.6840 C   0  0  0  0  0  0  0  0  0  0  0  0
   23.5810   37.5150    9.1970 C   0  0  0  0  0  0  0  0  0  0  0  0
   24.2910   35.2420    9.2960 C   0  0  0  0  0  0  0  0  0  0  0  0
   23.3370   36.2250    9.5550 C   0  0  0  0  0  0  0  0  0  0  0  0
   22.5810   38.5450    9.4680 C   0  0  0  0  0  0  0  0  0  0  0  0
   22.5620   39.1690   10.5760 O   0  0  0  0  0  0  0  0  0  0  0  0
   21.6390   38.8620    8.5280 O   0  0  0  0  0  0  0  0  0  0  0  0
   22.1180   35.7790   10.2110 C   0  0  0  0  0  0  0  0  0  0  0  0
   20.9690   35.4070    9.5480 C   0  0  0  0  0  0  0  0  0  0  0  0
   22.1010   35.7180   11.5940 C   0  0  0  0  0  0  0  0  0  0  0  0
   20.9470   35.4550    8.1680 C   0  0  0  0  0  0  0  0  0  0  0  0
   19.8350   34.9860   10.2320 C   0  0  0  0  0  0  0  0  0  0  0  0
   20.8900   35.2700   12.2640 C   0  0  0  0  0  0  0  0  0  0  0  0
   23.1960   36.0680   12.3520 C   0  0  0  0  0  0  0  0  0  0  0  0
   19.8140   35.0890    7.4550 C   0  0  0  0  0  0  0  0  0  0  0  0
   18.6960   34.6180    9.5540 C   0  0  0  0  0  0  0  0  0  0  0  0
   19.8250   34.9300   11.5420 O   0  0  0  0  0  0  0  0  0  0  0  0
   20.8630   35.2060   13.6260 C   0  0  0  0  0  0  0  0  0  0  0  0
   23.1200   35.9870   13.7130 C   0  0  0  0  0  0  0  0  0  0  0  0
   18.7030   34.6760    8.1630 C   0  0  0  0  0  0  0  0  0  0  0  0
   21.9720   35.5610   14.3640 C   0  0  0  0  0  0  0  0  0  0  0  0
   21.9520   35.5030   15.6220 O   0  0  0  0  0  0  0  0  0  0  0  0
   17.5670   34.3110    7.4610 O   0  0  0  0  0  0  0  0  0  0  0  0
   17.5200   34.2370    6.4620 H   0  0  0  0  0  0  0  0  0  0  0  0
   29.8670   25.5550   16.9770 C   0  0  0  0  0  0  0  0  0  0  0  0
   28.3450   25.7220   17.0260 C   0  0  0  0  0  0  0  0  0  0  0  0
   27.6020   24.3990   16.9230 C   0  0  0  0  0  0  0  0  0  0  0  0
   26.5140   24.2780   17.9530 C   0  0  0  0  0  0  0  0  0  0  0  0
   25.2320   23.7920   17.2860 C   0  0  0  0  0  0  0  0  0  0  0  0
   24.2460   24.8950   17.1890 N   0  0  0  0  0  0  0  0  0  0  0  0
  1  4  1  0  0  0  0
  1  5  1  0  0  0  0
  2  1  1  0  0  0  0
  3  2  2  0  0  0  0
  6  5  1  6  0  0  0
  6  7  1  0  0  0  0
  7 27  1  1  0  0  0
  8  7  1  6  0  0  0
  8 11  1  0  0  0  0
  9 14  1  6  0  0  0
  9 10  1  0  0  0  0
  9 11  1  0  0  0  0
  9 16  1  0  0  0  0
 12 20  1  6  0  0  0
 12 10  1  0  0  0  0
 13 22  1  1  0  0  0
 13 12  1  0  0  0  0
 13  8  1  0  0  0  0
 15 14  1  0  0  0  0
 16 17  2  0  0  0  0
 18 16  1  0  0  0  0
 19 18  1  0  0  0  0
 21 20  1  0  0  0  0
 22 24  1  0  0  0  0
 23 25  1  0  0  0  0
 23 22  1  0  0  0  0
 26 23  2  0  0  0  0
 27 28  1  0  0  0  0
 29  6  1  0  0  0  0
 30 29  1  0  0  0  0
 31  2  1  0  0  0  0
 32 31  1  0  0  0  0
 33 32  1  0  0  0  0
 33 34  2  0  0  0  0
 35 37  2  0  0  0  0
 35 33  1  0  0  0  0
 36 34  1  0  0  0  0
 36 38  1  0  0  0  0
 37 36  1  0  0  0  0
 38 39  2  0  0  0  0
 38 40  1  0  0  0  0
 39 41  1  0  0  0  0
 40 42  2  0  0  0  0
 41 44  1  0  0  0  0
 41 43  2  0  0  0  0
 42 43  1  0  0  0  0
 43 47  1  0  0  0  0
 44 45  1  0  0  0  0
 46 44  2  0  0  0  0
 47 49  2  0  0  0  0
 48 47  1  0  0  0  0
 48 51  1  0  0  0  0
 49 52  1  0  0  0  0
 49 53  1  0  0  0  0
 50 48  2  0  0  0  0
 51 56  1  0  0  0  0
 52 57  2  0  0  0  0
 53 58  2  0  0  0  0
 54 59  2  0  0  0  0
 54 50  1  0  0  0  0
 55 51  2  0  0  0  0
 56 52  1  0  0  0  0
 57 60  1  0  0  0  0
 58 60  1  0  0  0  0
 59 55  1  0  0  0  0
 60 61  2  0  0  0  0
 62 59  1  0  0  0  0
 63 62  1  0  0  0  0
 64 65  1  0  0  0  0
 66 65  1  0  0  0  0
 66 67  1  0  0  0  0
 68 67  1  0  0  0  0
 69 68  1  0  0  0  0
M  END
>  <REMARK>
 VINA RESULT:    -5.486      3.138      5.357
 INTER + INTRA:         -18.014
 INTER:                 -11.395
 INTRA:                  -6.619
 UNBOUND:                -7.717
 SMILES CC(=O)N[C@@H]1[C@@H](O)C[C@](O)(C(=O)O)O[C@H]1C(O)[C@H](O)CNC(=O)OCc1cn(-c2ccc(-c3c4ccc(=O)cc-4oc4cc(O)ccc34)c(C(=O)[O-])c2)nn1
 SMILES IDX 21 1 22 2 23 3 20 5 18 6 16 7 15 8 9 9 8 10 14 11 6 12 5 13
 SMILES IDX 10 14 11 16 12 17 13 18 7 20 4 22 2 23 1 25 3 26 17 27 19 29
 SMILES IDX 24 31 25 32 26 33 27 34 55 35 28 36 54 37 29 38 53 39 30 40
 SMILES IDX 49 41 31 42 32 43 50 44 51 45 52 46 33 47 48 48 34 49 47 50
 SMILES IDX 42 51 40 52 35 53 46 54 43 55 41 56 39 57 36 58 44 59 37 60
 SMILES IDX 38 61 45 62
 H PARENT 21 4 10 15 13 19 7 21 4 24 17 28 19 30 45 63
 Flexibility Score: inf
  4 active torsions:
  status: ('A' for Active; 'I' for Inactive)
    1  A    between atoms: CA   and  CB  
    2  A    between atoms: CB   and  CG  
    3  A    between atoms: CG   and  CD  
    4  A    between atoms: CD   and  CE  

>  <TORSDO>
F 18

>  <BEGIN_>
RES LYS A 131

$$$$
ligand_34_pose_6_2HRL.pdbqt
 OpenBabel07062320523D

  6  5  0  0  0  0  0  0  0  0999 V2000
   33.1930   34.6630    9.2900 C   0  0  0  0  0  0  0  0  0  0  0  0
   32.0600   35.3600   10.0340 C   0  0  0  0  0  0  0  0  0  0  0  0
   30.8880   35.7120    9.1540 C   0  0  0  0  0  0  0  0  0  0  0  0
   30.4580   34.5100    8.3280 C   0  0  0  0  0  0  0  0  0  0  0  0
   29.0310   34.1190    8.6610 C   0  0  0  0  0  0  0  0  0  0  0  0
   28.6130   34.6810    9.9750 N   0  0  0  0  0  0  0  0  0  0  0  0
  1  2  1  0  0  0  0
  3  2  1  0  0  0  0
  4  5  1  0  0  0  0
  4  3  1  0  0  0  0
  5  6  1  0  0  0  0
M  END
>  <EGIN_R>
ES LYS A 135

>  <REMARK>
  4 active torsions:
  status: ('A' for Active; 'I' for Inactive)
    5  A    between atoms: CA   and  CB  
    6  A    between atoms: CB   and  CG  
    7  A    between atoms: CG   and  CD  
    8  A    between atoms: CD   and  CE  

$$$$
