ligand_39_pose_3_2HRL.pdbqt
 OpenBabel07062320523D

 51 52  0  0  1  0  0  0  0  0999 V2000
   28.9960   30.9520   17.8400 N   0  0  0  0  0  0  0  0  0  0  0  0
   28.0080   31.0560   18.8250 C   0  0  0  0  0  0  0  0  0  0  0  0
   28.2840   31.6310   19.9140 O   0  0  0  0  0  0  0  0  0  0  0  0
   28.7250   30.4640   16.9410 H   0  0  0  0  0  0  0  0  0  0  0  0
   30.3460   31.4560   17.9620 C   0  0  0  0  0  0  0  0  0  0  0  0
   30.5050   32.6850   17.0930 C   0  0  2  0  0  0  0  0  0  0  0  0
   31.0490   32.3270   15.7270 C   0  0  2  0  0  0  0  0  0  0  0  0
   31.4220   33.5560   14.9220 C   0  0  2  0  0  0  0  0  0  0  0  0
   33.1000   35.1730   14.8180 C   0  0  2  0  0  0  0  0  0  0  0  0
   32.1220   36.2840   14.8920 C   0  0  0  0  0  0  0  0  0  0  0  0
   32.5860   34.0430   15.4340 O   0  0  0  0  0  0  0  0  0  0  0  0
   30.7220   35.9460   15.2280 C   0  0  1  0  0  0  0  0  0  0  0  0
   30.2940   34.5480   14.8850 C   0  0  1  0  0  0  0  0  0  0  0  0
   34.2390   35.5210   15.5880 O   0  0  0  0  0  0  0  0  0  0  0  0
   34.9030   34.7820   15.5980 H   0  0  0  0  0  0  0  0  0  0  0  0
   33.5520   34.9360   13.4450 C   0  0  0  0  0  0  0  0  0  0  0  0
   33.0990   35.5640   12.4490 O   0  0  0  0  0  0  0  0  0  0  0  0
   34.5260   33.9770   13.2070 O   0  0  0  0  0  0  0  0  0  0  0  0
   35.4840   34.2090   12.9750 H   0  0  0  0  0  0  0  0  0  0  0  0
   30.4610   36.2290   16.5820 O   0  0  0  0  0  0  0  0  0  0  0  0
   31.1830   36.8850   16.8420 H   0  0  0  0  0  0  0  0  0  0  0  0
   29.5640   34.5090   13.6370 N   0  0  0  0  0  0  0  0  0  0  0  0
   28.1970   34.8690   13.5380 C   0  0  0  0  0  0  0  0  0  0  0  0
   30.0500   34.2060   12.7700 H   0  0  0  0  0  0  0  0  0  0  0  0
   27.4300   34.8340   12.2600 C   0  0  0  0  0  0  0  0  0  0  0  0
   27.6220   35.2390   14.6170 O   0  0  0  0  0  0  0  0  0  0  0  0
   30.1410   31.5150   15.0550 O   0  0  0  0  0  0  0  0  0  0  0  0
   30.3820   30.5540   15.2310 H   0  0  0  0  0  0  0  0  0  0  0  0
   31.4240   33.5110   17.7830 O   0  0  0  0  0  0  0  0  0  0  0  0
   31.1250   34.4340   17.8260 H   0  0  0  0  0  0  0  0  0  0  0  0
   26.7170   30.5670   18.6980 O   0  0  0  0  0  0  0  0  0  0  0  0
   26.3650   29.7650   17.5840 C   0  0  0  0  0  0  0  0  0  0  0  0
   25.6200   30.5400   16.5700 C   0  0  0  0  0  0  0  0  0  0  0  0
   25.5270   30.2620   15.1980 C   0  0  0  0  0  0  0  0  0  0  0  0
   24.8910   31.6520   16.7190 N   0  0  0  0  0  0  0  0  0  0  0  0
   24.7830   31.1640   14.5820 N   0  0  0  0  0  0  0  0  0  0  0  0
   24.3970   32.0220   15.5570 N   0  0  0  0  0  0  0  0  0  0  0  0
   24.3720   31.3720   13.2140 C   0  0  0  0  0  0  0  0  0  0  0  0
   23.0870   30.7950   12.8420 C   0  0  0  0  0  0  0  0  0  0  0  0
   22.9530   29.4220   12.6190 C   0  0  0  0  0  0  0  0  0  0  0  0
   21.9560   31.5500   12.7240 C   0  0  0  0  0  0  0  0  0  0  0  0
   21.7320   28.8930   12.3030 C   0  0  0  0  0  0  0  0  0  0  0  0
   20.7240   31.0110   12.4030 C   0  0  0  0  0  0  0  0  0  0  0  0
   22.0090   33.4650   12.9550 Br  0  0  0  0  0  0  0  0  0  0  0  0
   20.6000   29.6610   12.1870 C   0  0  0  0  0  0  0  0  0  0  0  0
   29.8670   25.5550   16.9770 C   0  0  0  0  0  0  0  0  0  0  0  0
   28.3450   25.7220   17.0260 C   0  0  0  0  0  0  0  0  0  0  0  0
   27.6020   24.3970   16.9430 C   0  0  0  0  0  0  0  0  0  0  0  0
   26.1510   24.5380   17.3090 C   0  0  0  0  0  0  0  0  0  0  0  0
   25.7610   23.4270   18.2800 C   0  0  0  0  0  0  0  0  0  0  0  0
   24.9450   22.4000   17.5910 N   0  0  0  0  0  0  0  0  0  0  0  0
  1  5  1  0  0  0  0
  1  2  1  0  0  0  0
  2  3  2  0  0  0  0
  4  1  1  0  0  0  0
  6 29  1  0  0  0  0
  6  5  1  1  0  0  0
  7 27  1  6  0  0  0
  7  6  1  0  0  0  0
  8 11  1  0  0  0  0
  8  7  1  1  0  0  0
  9 16  1  6  0  0  0
  9 10  1  0  0  0  0
  9 11  1  0  0  0  0
  9 14  1  0  0  0  0
 10 12  1  0  0  0  0
 12 20  1  1  0  0  0
 13 22  1  6  0  0  0
 13  8  1  0  0  0  0
 13 12  1  0  0  0  0
 14 15  1  0  0  0  0
 17 16  2  0  0  0  0
 18 16  1  0  0  0  0
 19 18  1  0  0  0  0
 20 21  1  0  0  0  0
 23 22  1  0  0  0  0
 23 26  2  0  0  0  0
 24 22  1  0  0  0  0
 25 23  1  0  0  0  0
 27 28  1  0  0  0  0
 29 30  1  0  0  0  0
 31  2  1  0  0  0  0
 32 31  1  0  0  0  0
 33 35  1  0  0  0  0
 33 32  1  0  0  0  0
 34 33  2  0  0  0  0
 36 34  1  0  0  0  0
 36 37  1  0  0  0  0
 37 35  2  0  0  0  0
 38 36  1  0  0  0  0
 39 38  1  0  0  0  0
 40 39  2  0  0  0  0
 41 39  1  0  0  0  0
 41 44  1  0  0  0  0
 42 40  1  0  0  0  0
 43 41  2  0  0  0  0
 45 42  2  0  0  0  0
 45 43  1  0  0  0  0
 46 47  1  0  0  0  0
 48 47  1  0  0  0  0
 48 49  1  0  0  0  0
 49 50  1  0  0  0  0
 51 50  1  0  0  0  0
M  END
>  <REMARK>
 VINA RESULT:    -4.387      3.882      7.100
 INTER + INTRA:         -15.275
 INTER:                 -10.016
 INTRA:                  -5.259
 UNBOUND:                -7.426
 SMILES CC(=O)N[C@@H]1[C@@H](O)C[C@](O)(C(=O)O)O[C@H]1C(O)[C@H](O)CNC(=O)OCc1cn(Cc2ccccc2Br)nn1
 SMILES IDX 21 1 22 2 23 3 20 5 18 6 16 7 15 8 9 9 8 10 14 11 6 12 5 13
 SMILES IDX 10 14 11 16 12 17 13 18 7 20 4 22 2 23 1 25 3 26 17 27 19 29
 SMILES IDX 24 31 25 32 26 33 27 34 38 35 28 36 37 37 29 38 30 39 31 40
 SMILES IDX 35 41 32 42 34 43 36 44 33 45
 H PARENT 21 4 10 15 13 19 7 21 4 24 17 28 19 30
 Flexibility Score: inf
  4 active torsions:
  status: ('A' for Active; 'I' for Inactive)
    1  A    between atoms: CA   and  CB  
    2  A    between atoms: CB   and  CG  
    3  A    between atoms: CG   and  CD  
    4  A    between atoms: CD   and  CE  

>  <TORSDO>
F 16

>  <BEGIN_>
RES LYS A 131

$$$$
ligand_39_pose_3_2HRL.pdbqt
 OpenBabel07062320523D

  6  5  0  0  0  0  0  0  0  0999 V2000
   33.1930   34.6630    9.2900 C   0  0  0  0  0  0  0  0  0  0  0  0
   32.0600   35.3600   10.0340 C   0  0  0  0  0  0  0  0  0  0  0  0
   30.7330   34.6560    9.9070 C   0  0  0  0  0  0  0  0  0  0  0  0
   30.3090   34.5690    8.4500 C   0  0  0  0  0  0  0  0  0  0  0  0
   28.8010   34.4480    8.3400 C   0  0  0  0  0  0  0  0  0  0  0  0
   28.2350   35.5420    7.5030 N   0  0  0  0  0  0  0  0  0  0  0  0
  1  2  1  0  0  0  0
  3  2  1  0  0  0  0
  4  3  1  0  0  0  0
  5  4  1  0  0  0  0
  6  5  1  0  0  0  0
M  END
>  <EGIN_R>
ES LYS A 135

>  <REMARK>
  4 active torsions:
  status: ('A' for Active; 'I' for Inactive)
    5  A    between atoms: CA   and  CB  
    6  A    between atoms: CB   and  CG  
    7  A    between atoms: CG   and  CD  
    8  A    between atoms: CD   and  CE  

$$$$
