ligand_38_pose_19_2HRL.pdbqt
 OpenBabel07062320523D

 51 52  0  0  1  0  0  0  0  0999 V2000
   25.2400   33.2530   15.9030 N   0  0  0  0  0  0  0  0  0  0  0  0
   25.4540   32.5360   14.7010 C   0  0  0  0  0  0  0  0  0  0  0  0
   25.5140   31.2630   14.7060 O   0  0  0  0  0  0  0  0  0  0  0  0
   25.1980   34.2920   15.8530 H   0  0  0  0  0  0  0  0  0  0  0  0
   25.0960   32.4850   17.1100 C   0  0  0  0  0  0  0  0  0  0  0  0
   26.1260   32.9120   18.1670 C   0  0  2  0  0  0  0  0  0  0  0  0
   27.0450   31.7520   18.3240 C   0  0  2  0  0  0  0  0  0  0  0  0
   28.4680   31.9710   17.9010 C   0  0  2  0  0  0  0  0  0  0  0  0
   29.5660   33.2620   16.2930 C   0  0  2  0  0  0  0  0  0  0  0  0
   30.6230   32.1750   16.2410 C   0  0  0  0  0  0  0  0  0  0  0  0
   28.3770   32.7320   16.7290 O   0  0  0  0  0  0  0  0  0  0  0  0
   29.9930   30.8000   16.3930 C   0  0  1  0  0  0  0  0  0  0  0  0
   29.3130   30.7640   17.7750 C   0  0  1  0  0  0  0  0  0  0  0  0
   29.3430   33.6270   14.9480 O   0  0  0  0  0  0  0  0  0  0  0  0
   28.7880   32.9750   14.4790 H   0  0  0  0  0  0  0  0  0  0  0  0
   30.0220   34.4580   17.0050 C   0  0  0  0  0  0  0  0  0  0  0  0
   31.1070   34.4450   17.6330 O   0  0  0  0  0  0  0  0  0  0  0  0
   29.3030   35.6440   17.0260 O   0  0  0  0  0  0  0  0  0  0  0  0
   29.4490   36.2940   17.7740 H   0  0  0  0  0  0  0  0  0  0  0  0
   29.1160   30.5280   15.3760 O   0  0  0  0  0  0  0  0  0  0  0  0
   29.0200   31.3540   14.8050 H   0  0  0  0  0  0  0  0  0  0  0  0
   30.4370   30.7890   18.7200 N   0  0  0  0  0  0  0  0  0  0  0  0
   30.4020   30.0540   19.9350 C   0  0  0  0  0  0  0  0  0  0  0  0
   31.3040   31.3430   18.5450 H   0  0  0  0  0  0  0  0  0  0  0  0
   31.5660   30.0970   20.8910 C   0  0  0  0  0  0  0  0  0  0  0  0
   29.4230   29.3580   20.2510 O   0  0  0  0  0  0  0  0  0  0  0  0
   26.5560   30.7510   17.4420 O   0  0  0  0  0  0  0  0  0  0  0  0
   26.2460   31.2580   16.6390 H   0  0  0  0  0  0  0  0  0  0  0  0
   25.3880   33.2210   19.3060 O   0  0  0  0  0  0  0  0  0  0  0  0
   24.4340   33.1970   19.0740 H   0  0  0  0  0  0  0  0  0  0  0  0
   25.6100   33.1510   13.4680 O   0  0  0  0  0  0  0  0  0  0  0  0
   25.4210   34.5380   13.2540 C   0  0  0  0  0  0  0  0  0  0  0  0
   26.6570   35.3070   13.5570 C   0  0  0  0  0  0  0  0  0  0  0  0
   27.6520   35.6660   12.6400 C   0  0  0  0  0  0  0  0  0  0  0  0
   27.0770   35.8080   14.7330 N   0  0  0  0  0  0  0  0  0  0  0  0
   28.6000   36.3490   13.2900 N   0  0  0  0  0  0  0  0  0  0  0  0
   28.2290   36.4220   14.5540 N   0  0  0  0  0  0  0  0  0  0  0  0
   29.8200   36.9220   12.7650 C   0  0  0  0  0  0  0  0  0  0  0  0
   30.9810   36.4950   13.5870 C   0  0  0  0  0  0  0  0  0  0  0  0
   31.6490   35.3200   13.3210 C   0  0  0  0  0  0  0  0  0  0  0  0
   31.4070   37.2720   14.6280 C   0  0  0  0  0  0  0  0  0  0  0  0
   32.7420   34.9160   14.0940 C   0  0  0  0  0  0  0  0  0  0  0  0
   32.4960   36.8800   15.4060 C   0  0  0  0  0  0  0  0  0  0  0  0
   33.1640   35.6970   15.1340 C   0  0  0  0  0  0  0  0  0  0  0  0
   33.0580   37.9860   16.8430 Br  0  0  0  0  0  0  0  0  0  0  0  0
   29.8670   25.5550   16.9770 C   0  0  0  0  0  0  0  0  0  0  0  0
   28.3450   25.7220   17.0260 C   0  0  0  0  0  0  0  0  0  0  0  0
   27.6020   24.3990   16.9210 C   0  0  0  0  0  0  0  0  0  0  0  0
   26.1510   24.5340   17.2910 C   0  0  0  0  0  0  0  0  0  0  0  0
   26.0310   25.2830   18.6140 C   0  0  0  0  0  0  0  0  0  0  0  0
   25.0100   26.3520   18.5140 N   0  0  0  0  0  0  0  0  0  0  0  0
  1  5  1  0  0  0  0
  2  3  2  0  0  0  0
  2  1  1  0  0  0  0
  4  1  1  0  0  0  0
  6  5  1  6  0  0  0
  6  7  1  0  0  0  0
  6 29  1  0  0  0  0
  7 27  1  6  0  0  0
  8  7  1  6  0  0  0
  9 14  1  6  0  0  0
  9 11  1  0  0  0  0
  9 16  1  0  0  0  0
 10  9  1  0  0  0  0
 10 12  1  0  0  0  0
 11  8  1  0  0  0  0
 12 20  1  6  0  0  0
 12 13  1  0  0  0  0
 13  8  1  0  0  0  0
 13 22  1  1  0  0  0
 15 14  1  0  0  0  0
 16 18  1  0  0  0  0
 16 17  2  0  0  0  0
 18 19  1  0  0  0  0
 21 20  1  0  0  0  0
 22 23  1  0  0  0  0
 23 26  2  0  0  0  0
 23 25  1  0  0  0  0
 24 22  1  0  0  0  0
 28 27  1  0  0  0  0
 30 29  1  0  0  0  0
 31  2  1  0  0  0  0
 32 31  1  0  0  0  0
 32 33  1  0  0  0  0
 33 35  1  0  0  0  0
 34 36  1  0  0  0  0
 34 33  2  0  0  0  0
 36 37  1  0  0  0  0
 37 35  2  0  0  0  0
 38 36  1  0  0  0  0
 38 39  1  0  0  0  0
 39 41  1  0  0  0  0
 40 39  2  0  0  0  0
 40 42  1  0  0  0  0
 41 43  2  0  0  0  0
 42 44  2  0  0  0  0
 43 45  1  0  0  0  0
 44 43  1  0  0  0  0
 46 47  1  0  0  0  0
 48 47  1  0  0  0  0
 48 49  1  0  0  0  0
 49 50  1  0  0  0  0
 51 50  1  0  0  0  0
M  END
>  <REMARK>
 VINA RESULT:    -4.467      3.686      7.223
 INTER + INTRA:         -14.286
 INTER:                  -6.938
 INTRA:                  -7.348
 UNBOUND:                -6.295
 SMILES CC(=O)N[C@@H]1[C@@H](O)C[C@](O)(C(=O)O)O[C@H]1C(O)[C@H](O)CNC(=O)OCc1cn(Cc2cccc(Br)c2)nn1
 SMILES IDX 21 1 22 2 23 3 20 5 18 6 16 7 15 8 9 9 8 10 14 11 6 12 5 13
 SMILES IDX 10 14 11 16 12 17 13 18 7 20 4 22 2 23 1 25 3 26 17 27 19 29
 SMILES IDX 24 31 25 32 26 33 27 34 38 35 28 36 37 37 29 38 30 39 31 40
 SMILES IDX 36 41 32 42 34 43 33 44 35 45
 H PARENT 21 4 10 15 13 19 7 21 4 24 17 28 19 30
 Flexibility Score: inf
  4 active torsions:
  status: ('A' for Active; 'I' for Inactive)
    1  A    between atoms: CA   and  CB  
    2  A    between atoms: CB   and  CG  
    3  A    between atoms: CG   and  CD  
    4  A    between atoms: CD   and  CE  

>  <TORSDO>
F 16

>  <BEGIN_>
RES LYS A 131

$$$$
ligand_38_pose_19_2HRL.pdbqt
 OpenBabel07062320523D

  6  5  0  0  0  0  0  0  0  0999 V2000
   33.1930   34.6630    9.2900 C   0  0  0  0  0  0  0  0  0  0  0  0
   32.0600   35.3600   10.0340 C   0  0  0  0  0  0  0  0  0  0  0  0
   30.7130   34.7210    9.8150 C   0  0  0  0  0  0  0  0  0  0  0  0
   30.4710   34.4740    8.3340 C   0  0  0  0  0  0  0  0  0  0  0  0
   29.0270   34.7670    7.9740 C   0  0  0  0  0  0  0  0  0  0  0  0
   28.9410   35.7620    6.8700 N   0  0  0  0  0  0  0  0  0  0  0  0
  1  2  1  0  0  0  0
  3  2  1  0  0  0  0
  4  3  1  0  0  0  0
  5  4  1  0  0  0  0
  6  5  1  0  0  0  0
M  END
>  <EGIN_R>
ES LYS A 135

>  <REMARK>
  4 active torsions:
  status: ('A' for Active; 'I' for Inactive)
    5  A    between atoms: CA   and  CB  
    6  A    between atoms: CB   and  CG  
    7  A    between atoms: CG   and  CD  
    8  A    between atoms: CD   and  CE  

$$$$
