ligand_52_pose_13_2HRL.pdbqt
 OpenBabel07062320523D

 49 50  0  0  1  0  0  0  0  0999 V2000
   29.6870   31.5320   20.1470 C   0  0  0  0  0  0  0  0  0  0  0  0
   30.6730   31.8790   19.0920 C   0  0  2  0  0  0  0  0  0  0  0  0
   30.9690   33.3280   19.0010 C   0  0  2  0  0  0  0  0  0  0  0  0
   30.9210   33.9790   17.6630 C   0  0  2  0  0  0  0  0  0  0  0  0
   31.3590   33.8280   15.4440 C   0  0  2  0  0  0  0  0  0  0  0  0
   31.0640   35.2750   15.2640 C   0  0  0  0  0  0  0  0  0  0  0  0
   31.7200   33.4250   16.7160 O   0  0  0  0  0  0  0  0  0  0  0  0
   30.4740   35.9950   16.4250 C   0  0  1  0  0  0  0  0  0  0  0  0
   31.1270   35.4660   17.7350 C   0  0  1  0  0  0  0  0  0  0  0  0
   32.5130   33.5780   14.6350 O   0  0  0  0  0  0  0  0  0  0  0  0
   32.8670   32.7260   14.9800 H   0  0  0  0  0  0  0  0  0  0  0  0
   30.3000   32.9480   14.9000 C   0  0  0  0  0  0  0  0  0  0  0  0
   29.3400   33.4510   14.2650 O   0  0  0  0  0  0  0  0  0  0  0  0
   30.2740   31.5660   15.0340 O   0  0  0  0  0  0  0  0  0  0  0  0
   31.1890   31.1040   15.0630 H   0  0  0  0  0  0  0  0  0  0  0  0
   30.7950   37.3520   16.3870 O   0  0  0  0  0  0  0  0  0  0  0  0
   31.5150   37.5380   17.0390 H   0  0  0  0  0  0  0  0  0  0  0  0
   30.3160   35.9970   18.7970 N   0  0  0  0  0  0  0  0  0  0  0  0
   30.6850   37.1030   19.5950 C   0  0  0  0  0  0  0  0  0  0  0  0
   29.3850   35.5450   19.0030 H   0  0  0  0  0  0  0  0  0  0  0  0
   29.7790   37.5750   20.6670 C   0  0  0  0  0  0  0  0  0  0  0  0
   31.7790   37.6750   19.3870 O   0  0  0  0  0  0  0  0  0  0  0  0
   31.9880   33.7610   19.8280 O   0  0  0  0  0  0  0  0  0  0  0  0
   31.7530   34.4130   20.5050 H   0  0  0  0  0  0  0  0  0  0  0  0
   30.1660   31.5010   17.8240 O   0  0  0  0  0  0  0  0  0  0  0  0
   29.7470   30.6240   17.9350 H   0  0  0  0  0  0  0  0  0  0  0  0
   28.5590   30.7460   19.7450 N   0  0  0  0  0  0  0  0  0  0  0  0
   28.4330   29.3670   19.8630 C   0  0  0  0  0  0  0  0  0  0  0  0
   27.7280   31.2570   19.3140 H   0  0  0  0  0  0  0  0  0  0  0  0
   29.3370   28.6700   20.3410 O   0  0  0  0  0  0  0  0  0  0  0  0
   27.2840   28.6670   19.4530 O   0  0  0  0  0  0  0  0  0  0  0  0
   27.2140   28.0880   18.1700 C   0  0  0  0  0  0  0  0  0  0  0  0
   27.1230   29.1100   17.1120 C   0  0  0  0  0  0  0  0  0  0  0  0
   25.9320   29.4540   16.4930 C   0  0  0  0  0  0  0  0  0  0  0  0
   28.0540   29.8760   16.5440 N   0  0  0  0  0  0  0  0  0  0  0  0
   26.1810   30.4080   15.5790 N   0  0  0  0  0  0  0  0  0  0  0  0
   27.4650   30.6530   15.6220 N   0  0  0  0  0  0  0  0  0  0  0  0
   25.2340   31.0470   14.7160 C   0  0  0  0  0  0  0  0  0  0  0  0
   24.3790   30.3120   13.9140 C   0  0  0  0  0  0  0  0  0  0  0  0
   25.1630   32.4250   14.6740 C   0  0  0  0  0  0  0  0  0  0  0  0
   23.4730   30.9810   13.0890 C   0  0  0  0  0  0  0  0  0  0  0  0
   24.2700   33.0510   13.8580 N   0  0  0  0  0  0  0  0  0  0  0  0
   23.4260   32.3630   13.0680 C   0  0  0  0  0  0  0  0  0  0  0  0
   29.8670   25.5550   16.9770 C   0  0  0  0  0  0  0  0  0  0  0  0
   28.3450   25.7220   17.0260 C   0  0  0  0  0  0  0  0  0  0  0  0
   27.6020   24.4000   16.9120 C   0  0  0  0  0  0  0  0  0  0  0  0
   26.1540   24.5290   17.2990 C   0  0  0  0  0  0  0  0  0  0  0  0
   25.8490   23.5780   18.4510 C   0  0  0  0  0  0  0  0  0  0  0  0
   25.5040   24.3390   19.6750 N   0  0  0  0  0  0  0  0  0  0  0  0
  2  1  1  1  0  0  0
  3  2  1  0  0  0  0
  3 23  1  6  0  0  0
  4  9  1  0  0  0  0
  4  3  1  1  0  0  0
  5 10  1  6  0  0  0
  5  7  1  0  0  0  0
  6  5  1  0  0  0  0
  6  8  1  0  0  0  0
  7  4  1  0  0  0  0
  8 16  1  6  0  0  0
  8  9  1  0  0  0  0
  9 18  1  1  0  0  0
 10 11  1  0  0  0  0
 12 14  1  0  0  0  0
 12  5  1  0  0  0  0
 13 12  2  0  0  0  0
 14 15  1  0  0  0  0
 16 17  1  0  0  0  0
 18 20  1  0  0  0  0
 18 19  1  0  0  0  0
 19 21  1  0  0  0  0
 22 19  2  0  0  0  0
 23 24  1  0  0  0  0
 25 26  1  0  0  0  0
 25  2  1  0  0  0  0
 27 28  1  0  0  0  0
 27  1  1  0  0  0  0
 28 30  2  0  0  0  0
 29 27  1  0  0  0  0
 31 28  1  0  0  0  0
 32 31  1  0  0  0  0
 33 32  1  0  0  0  0
 34 33  2  0  0  0  0
 35 33  1  0  0  0  0
 36 37  1  0  0  0  0
 36 34  1  0  0  0  0
 37 35  2  0  0  0  0
 38 36  1  0  0  0  0
 39 38  2  0  0  0  0
 40 38  1  0  0  0  0
 41 39  1  0  0  0  0
 42 40  2  0  0  0  0
 43 41  2  0  0  0  0
 43 42  1  0  0  0  0
 44 45  1  0  0  0  0
 46 45  1  0  0  0  0
 46 47  1  0  0  0  0
 47 48  1  0  0  0  0
 48 49  1  0  0  0  0
M  END
>  <REMARK>
 VINA RESULT:    -4.848      3.114      5.659
 INTER + INTRA:         -13.555
 INTER:                  -7.338
 INTRA:                  -6.217
 UNBOUND:                -5.164
 SMILES CC(=O)N[C@@H]1[C@@H](O)C[C@](O)(C(=O)O)O[C@H]1C(O)[C@H](O)CNC(=O)OCc1cn(-c2cccnc2)nn1
 SMILES IDX 20 1 18 2 16 3 15 4 9 5 8 6 14 7 6 8 5 9 10 10 11 12 12 13
 SMILES IDX 13 14 7 16 4 18 2 19 1 21 3 22 17 23 19 25 21 27 22 28 23 30
 SMILES IDX 24 31 25 32 26 33 27 34 36 35 28 36 35 37 29 38 30 39 34 40
 SMILES IDX 31 41 33 42 32 43
 H PARENT 10 11 13 15 7 17 4 20 17 24 19 26 21 29
 Flexibility Score: inf
  4 active torsions:
  status: ('A' for Active; 'I' for Inactive)
    1  A    between atoms: CA   and  CB  
    2  A    between atoms: CB   and  CG  
    3  A    between atoms: CG   and  CD  
    4  A    between atoms: CD   and  CE  

>  <TORSDO>
F 15

>  <BEGIN_>
RES LYS A 131

$$$$
ligand_52_pose_13_2HRL.pdbqt
 OpenBabel07062320523D

  6  5  0  0  0  0  0  0  0  0999 V2000
   33.1930   34.6630    9.2900 C   0  0  0  0  0  0  0  0  0  0  0  0
   32.0600   35.3600   10.0340 C   0  0  0  0  0  0  0  0  0  0  0  0
   30.7110   34.7300    9.8030 C   0  0  0  0  0  0  0  0  0  0  0  0
   30.4590   34.5310    8.3170 C   0  0  0  0  0  0  0  0  0  0  0  0
   29.0200   34.8650    7.9710 C   0  0  0  0  0  0  0  0  0  0  0  0
   28.9270   35.5200    6.6360 N   0  0  0  0  0  0  0  0  0  0  0  0
  1  2  1  0  0  0  0
  3  2  1  0  0  0  0
  4  3  1  0  0  0  0
  5  4  1  0  0  0  0
  6  5  1  0  0  0  0
M  END
>  <EGIN_R>
ES LYS A 135

>  <REMARK>
  4 active torsions:
  status: ('A' for Active; 'I' for Inactive)
    5  A    between atoms: CA   and  CB  
    6  A    between atoms: CB   and  CG  
    7  A    between atoms: CG   and  CD  
    8  A    between atoms: CD   and  CE  

$$$$
