ligand_58_pose_19_2HRL.pdbqt
 OpenBabel07062320523D

 56 58  0  0  1  0  0  0  0  0999 V2000
   20.1040   40.2080    8.0210 N   0  0  0  0  0  0  0  0  0  0  0  0
   20.6690   41.2890    7.3100 C   0  0  0  0  0  0  0  0  0  0  0  0
   19.9320   42.1810    6.8280 O   0  0  0  0  0  0  0  0  0  0  0  0
   20.7430   39.4830    8.4060 H   0  0  0  0  0  0  0  0  0  0  0  0
   18.6930   40.0960    8.2180 C   0  0  0  0  0  0  0  0  0  0  0  0
   18.3070   38.6170    8.1810 C   0  0  2  0  0  0  0  0  0  0  0  0
   19.3310   37.9070    9.0520 C   0  0  2  0  0  0  0  0  0  0  0  0
   18.9900   36.4840    9.3920 C   0  0  2  0  0  0  0  0  0  0  0  0
   21.1030   35.6920   10.0660 C   0  0  2  0  0  0  0  0  0  0  0  0
   21.2200   34.8520    8.8130 C   0  0  0  0  0  0  0  0  0  0  0  0
   19.8530   36.0930   10.3970 O   0  0  0  0  0  0  0  0  0  0  0  0
   20.3810   35.3670    7.6830 C   0  0  1  0  0  0  0  0  0  0  0  0
   18.9970   35.5890    8.2160 C   0  0  1  0  0  0  0  0  0  0  0  0
   21.8840   36.8250    9.8300 O   0  0  0  0  0  0  0  0  0  0  0  0
   22.8360   36.5250    9.8610 H   0  0  0  0  0  0  0  0  0  0  0  0
   21.7670   34.9460   11.1960 C   0  0  0  0  0  0  0  0  0  0  0  0
   22.7790   35.3820   11.7520 O   0  0  0  0  0  0  0  0  0  0  0  0
   21.2130   33.7540   11.6020 O   0  0  0  0  0  0  0  0  0  0  0  0
   20.9750   33.6260   12.5920 H   0  0  0  0  0  0  0  0  0  0  0  0
   20.9800   36.4810    7.1680 O   0  0  0  0  0  0  0  0  0  0  0  0
   21.5280   36.9520    7.8540 H   0  0  0  0  0  0  0  0  0  0  0  0
   18.4540   34.2590    8.5590 N   0  0  0  0  0  0  0  0  0  0  0  0
   17.1400   33.8810    8.2340 C   0  0  0  0  0  0  0  0  0  0  0  0
   19.0780   33.5920    9.0600 H   0  0  0  0  0  0  0  0  0  0  0  0
   16.6330   32.5320    8.5970 C   0  0  0  0  0  0  0  0  0  0  0  0
   16.3740   34.6800    7.6300 O   0  0  0  0  0  0  0  0  0  0  0  0
   19.3220   38.6570   10.2860 O   0  0  0  0  0  0  0  0  0  0  0  0
   19.8510   38.2100   10.9640 H   0  0  0  0  0  0  0  0  0  0  0  0
   18.4020   38.2480    6.8470 O   0  0  0  0  0  0  0  0  0  0  0  0
   17.7490   38.6960    6.2740 H   0  0  0  0  0  0  0  0  0  0  0  0
   22.0410   41.4040    7.1190 O   0  0  0  0  0  0  0  0  0  0  0  0
   22.9020   41.0540    8.1680 C   0  0  0  0  0  0  0  0  0  0  0  0
   23.4390   39.6910    7.9180 C   0  0  0  0  0  0  0  0  0  0  0  0
   24.7900   39.3760    7.7490 C   0  0  0  0  0  0  0  0  0  0  0  0
   22.8060   38.5120    7.7960 N   0  0  0  0  0  0  0  0  0  0  0  0
   24.9060   38.0630    7.5400 N   0  0  0  0  0  0  0  0  0  0  0  0
   23.7010   37.5570    7.5710 N   0  0  0  0  0  0  0  0  0  0  0  0
   26.1220   37.2960    7.3150 C   0  0  0  0  0  0  0  0  0  0  0  0
   27.2440   38.1610    6.9490 C   0  0  0  0  0  0  0  0  0  0  0  0
   27.6850   38.2880    5.6260 C   0  0  0  0  0  0  0  0  0  0  0  0
   27.8910   38.9000    7.9190 C   0  0  0  0  0  0  0  0  0  0  0  0
   28.7330   39.1240    5.3080 C   0  0  0  0  0  0  0  0  0  0  0  0
   28.9380   39.7300    7.5740 C   0  0  0  0  0  0  0  0  0  0  0  0
   29.3830   39.8640    6.2750 C   0  0  0  0  0  0  0  0  0  0  0  0
   26.3840   36.2960    8.3520 C   0  0  0  0  0  0  0  0  0  0  0  0
   26.9680   35.0600    8.0200 C   0  0  0  0  0  0  0  0  0  0  0  0
   26.0720   36.5500    9.6660 C   0  0  0  0  0  0  0  0  0  0  0  0
   27.2220   34.1240    8.9890 C   0  0  0  0  0  0  0  0  0  0  0  0
   26.3350   35.5860   10.6460 C   0  0  0  0  0  0  0  0  0  0  0  0
   26.9070   34.3830   10.3040 C   0  0  0  0  0  0  0  0  0  0  0  0
   29.8670   25.5550   16.9770 C   0  0  0  0  0  0  0  0  0  0  0  0
   28.3450   25.7220   17.0260 C   0  0  0  0  0  0  0  0  0  0  0  0
   27.6050   24.3930   17.0300 C   0  0  0  0  0  0  0  0  0  0  0  0
   26.2600   24.4960   17.6960 C   0  0  0  0  0  0  0  0  0  0  0  0
   25.8220   23.1160   18.1740 C   0  0  0  0  0  0  0  0  0  0  0  0
   24.7250   22.5960   17.3240 N   0  0  0  0  0  0  0  0  0  0  0  0
  1  5  1  0  0  0  0
  1  4  1  0  0  0  0
  2  1  1  0  0  0  0
  3  2  2  0  0  0  0
  6  5  1  6  0  0  0
  6  7  1  0  0  0  0
  7 27  1  1  0  0  0
  8  7  1  6  0  0  0
  8 11  1  0  0  0  0
  9 14  1  6  0  0  0
  9 11  1  0  0  0  0
  9 16  1  0  0  0  0
 10  9  1  0  0  0  0
 12 20  1  1  0  0  0
 12 13  1  0  0  0  0
 12 10  1  0  0  0  0
 13 22  1  1  0  0  0
 13  8  1  0  0  0  0
 14 15  1  0  0  0  0
 16 18  1  0  0  0  0
 16 17  2  0  0  0  0
 18 19  1  0  0  0  0
 20 21  1  0  0  0  0
 22 24  1  0  0  0  0
 23 22  1  0  0  0  0
 23 25  1  0  0  0  0
 26 23  2  0  0  0  0
 27 28  1  0  0  0  0
 29  6  1  0  0  0  0
 30 29  1  0  0  0  0
 31  2  1  0  0  0  0
 31 32  1  0  0  0  0
 33 32  1  0  0  0  0
 34 33  2  0  0  0  0
 35 33  1  0  0  0  0
 36 37  1  0  0  0  0
 36 34  1  0  0  0  0
 37 35  2  0  0  0  0
 38 36  1  0  0  0  0
 38 45  1  0  0  0  0
 39 38  1  0  0  0  0
 39 41  2  0  0  0  0
 40 39  1  0  0  0  0
 42 40  2  0  0  0  0
 42 44  1  0  0  0  0
 43 41  1  0  0  0  0
 44 43  2  0  0  0  0
 45 47  1  0  0  0  0
 46 45  2  0  0  0  0
 46 48  1  0  0  0  0
 47 49  2  0  0  0  0
 48 50  2  0  0  0  0
 50 49  1  0  0  0  0
 51 52  1  0  0  0  0
 52 53  1  0  0  0  0
 53 54  1  0  0  0  0
 54 55  1  0  0  0  0
 56 55  1  0  0  0  0
M  END
>  <REMARK>
 VINA RESULT:    -5.388      5.698     10.206
 INTER + INTRA:         -15.446
 INTER:                  -9.956
 INTRA:                  -5.490
 UNBOUND:                -5.490
 SMILES CC(=O)N[C@@H]1[C@@H](O)C[C@](O)(C(=O)O)O[C@H]1C(O)[C@H](O)CNC(=O)OCc1cn(C(c2ccccc2)c2ccccc2)nn1
 SMILES IDX 21 1 22 2 23 3 20 5 18 6 16 7 15 8 9 9 8 10 14 11 6 12 5 13
 SMILES IDX 10 14 11 16 12 17 13 18 7 20 4 22 2 23 1 25 3 26 17 27 19 29
 SMILES IDX 24 31 25 32 26 33 27 34 43 35 28 36 42 37 29 38 30 39 31 40
 SMILES IDX 35 41 32 42 34 43 33 44 36 45 37 46 41 47 38 48 40 49 39 50
 H PARENT 21 4 10 15 13 19 7 21 4 24 17 28 19 30
 Flexibility Score: inf
  4 active torsions:
  status: ('A' for Active; 'I' for Inactive)
    1  A    between atoms: CA   and  CB  
    2  A    between atoms: CB   and  CG  
    3  A    between atoms: CG   and  CD  
    4  A    between atoms: CD   and  CE  

>  <TORSDO>
F 17

>  <BEGIN_>
RES LYS A 131

$$$$
ligand_58_pose_19_2HRL.pdbqt
 OpenBabel07062320523D

  6  5  0  0  0  0  0  0  0  0999 V2000
   33.1930   34.6630    9.2900 C   0  0  0  0  0  0  0  0  0  0  0  0
   32.0600   35.3600   10.0340 C   0  0  0  0  0  0  0  0  0  0  0  0
   30.7310   35.2690    9.3290 C   0  0  0  0  0  0  0  0  0  0  0  0
   30.0470   36.6270    9.2970 C   0  0  0  0  0  0  0  0  0  0  0  0
   29.7530   37.1090   10.7050 C   0  0  0  0  0  0  0  0  0  0  0  0
   30.2300   38.5060   10.9040 N   0  0  0  0  0  0  0  0  0  0  0  0
  1  2  1  0  0  0  0
  3  2  1  0  0  0  0
  4  3  1  0  0  0  0
  4  5  1  0  0  0  0
  5  6  1  0  0  0  0
M  END
>  <EGIN_R>
ES LYS A 135

>  <REMARK>
  4 active torsions:
  status: ('A' for Active; 'I' for Inactive)
    5  A    between atoms: CA   and  CB  
    6  A    between atoms: CB   and  CG  
    7  A    between atoms: CG   and  CD  
    8  A    between atoms: CD   and  CE  

$$$$
