ligand_66_pose_17_2HRL.pdbqt
 OpenBabel07062320523D

 52 53  0  0  1  0  0  0  0  0999 V2000
   25.8250   28.6280   19.0750 N   0  0  0  0  0  0  0  0  0  0  0  0
   26.1470   28.7020   17.7150 C   0  0  0  0  0  0  0  0  0  0  0  0
   26.8870   27.8470   17.1860 O   0  0  0  0  0  0  0  0  0  0  0  0
   25.1850   29.3890   19.4530 H   0  0  0  0  0  0  0  0  0  0  0  0
   26.3060   27.5990   19.9590 C   0  0  0  0  0  0  0  0  0  0  0  0
   27.7530   27.7680   20.3270 C   0  0  2  0  0  0  0  0  0  0  0  0
   28.2590   29.1580   20.3360 C   0  0  2  0  0  0  0  0  0  0  0  0
   29.6190   29.3520   21.0260 C   0  0  2  0  0  0  0  0  0  0  0  0
   31.1900   28.2170   22.2230 C   0  0  2  0  0  0  0  0  0  0  0  0
   30.9540   29.0910   23.4380 C   0  0  0  0  0  0  0  0  0  0  0  0
   30.0190   28.1720   21.5130 O   0  0  0  0  0  0  0  0  0  0  0  0
   30.6010   30.4980   23.0370 C   0  0  1  0  0  0  0  0  0  0  0  0
   29.6300   30.5520   21.8940 C   0  0  1  0  0  0  0  0  0  0  0  0
   31.5010   26.9150   22.6900 O   0  0  0  0  0  0  0  0  0  0  0  0
   30.6120   26.4650   22.7660 H   0  0  0  0  0  0  0  0  0  0  0  0
   32.3760   28.6910   21.5020 C   0  0  0  0  0  0  0  0  0  0  0  0
   33.3080   29.2970   22.0790 O   0  0  0  0  0  0  0  0  0  0  0  0
   32.5620   28.5090   20.1160 O   0  0  0  0  0  0  0  0  0  0  0  0
   31.9070   27.8570   19.6770 H   0  0  0  0  0  0  0  0  0  0  0  0
   30.0660   31.1330   24.1570 O   0  0  0  0  0  0  0  0  0  0  0  0
   30.7550   31.5190   24.7360 H   0  0  0  0  0  0  0  0  0  0  0  0
   29.8870   31.7510   21.1210 N   0  0  0  0  0  0  0  0  0  0  0  0
   29.3040   33.0270   21.4570 C   0  0  0  0  0  0  0  0  0  0  0  0
   30.5030   31.7850   20.2700 H   0  0  0  0  0  0  0  0  0  0  0  0
   29.5970   34.2380   20.6270 C   0  0  0  0  0  0  0  0  0  0  0  0
   28.5500   33.1290   22.4450 O   0  0  0  0  0  0  0  0  0  0  0  0
   27.3820   30.0600   20.9410 O   0  0  0  0  0  0  0  0  0  0  0  0
   27.4100   30.9590   20.5300 H   0  0  0  0  0  0  0  0  0  0  0  0
   28.4960   26.8610   19.5730 O   0  0  0  0  0  0  0  0  0  0  0  0
   28.5910   26.0320   20.1040 H   0  0  0  0  0  0  0  0  0  0  0  0
   25.6720   29.7150   16.8820 O   0  0  0  0  0  0  0  0  0  0  0  0
   25.8770   31.0510   17.2660 C   0  0  0  0  0  0  0  0  0  0  0  0
   27.3280   31.3250   17.2880 C   0  0  0  0  0  0  0  0  0  0  0  0
   28.2460   31.1390   16.2780 C   0  0  0  0  0  0  0  0  0  0  0  0
   28.0210   31.8200   18.3300 N   0  0  0  0  0  0  0  0  0  0  0  0
   29.4550   31.5230   16.7280 N   0  0  0  0  0  0  0  0  0  0  0  0
   29.2710   31.9290   17.9790 N   0  0  0  0  0  0  0  0  0  0  0  0
   30.7350   31.5400   16.0730 C   0  0  0  0  0  0  0  0  0  0  0  0
   30.9480   32.8440   15.3610 C   0  0  0  0  0  0  0  0  0  0  0  0
   32.0580   33.6070   15.6460 C   0  0  0  0  0  0  0  0  0  0  0  0
   30.0660   33.3040   14.4200 C   0  0  0  0  0  0  0  0  0  0  0  0
   32.2670   34.8210   14.9810 C   0  0  0  0  0  0  0  0  0  0  0  0
   30.2400   34.4940   13.7440 C   0  0  0  0  0  0  0  0  0  0  0  0
   31.3500   35.2550   14.0290 C   0  0  0  0  0  0  0  0  0  0  0  0
   29.3320   34.9950   12.7560 C   0  0  0  0  0  0  0  0  0  0  0  0
   28.5870   35.4170   11.9620 N   0  0  0  0  0  0  0  0  0  0  0  0
   29.8670   25.5550   16.9770 C   0  0  0  0  0  0  0  0  0  0  0  0
   28.3450   25.7220   17.0260 C   0  0  0  0  0  0  0  0  0  0  0  0
   27.6010   24.4030   16.8820 C   0  0  0  0  0  0  0  0  0  0  0  0
   26.1640   24.5140   17.3110 C   0  0  0  0  0  0  0  0  0  0  0  0
   25.6100   23.1220   17.5990 C   0  0  0  0  0  0  0  0  0  0  0  0
   24.2140   23.0090   17.1160 N   0  0  0  0  0  0  0  0  0  0  0  0
  1  4  1  0  0  0  0
  1  5  1  0  0  0  0
  2  1  1  0  0  0  0
  3  2  2  0  0  0  0
  6  5  1  6  0  0  0
  6  7  1  0  0  0  0
  7 27  1  1  0  0  0
  8  7  1  1  0  0  0
  8 11  1  0  0  0  0
  8 13  1  0  0  0  0
  9 16  1  6  0  0  0
  9 14  1  0  0  0  0
  9 10  1  0  0  0  0
 11  9  1  0  0  0  0
 12 10  1  0  0  0  0
 12 20  1  1  0  0  0
 13 22  1  6  0  0  0
 13 12  1  0  0  0  0
 14 15  1  0  0  0  0
 16 17  2  0  0  0  0
 18 16  1  0  0  0  0
 19 18  1  0  0  0  0
 20 21  1  0  0  0  0
 22 23  1  0  0  0  0
 23 26  2  0  0  0  0
 24 22  1  0  0  0  0
 25 23  1  0  0  0  0
 28 27  1  0  0  0  0
 29 30  1  0  0  0  0
 29  6  1  0  0  0  0
 31 32  1  0  0  0  0
 31  2  1  0  0  0  0
 32 33  1  0  0  0  0
 33 35  1  0  0  0  0
 34 36  1  0  0  0  0
 34 33  2  0  0  0  0
 36 37  1  0  0  0  0
 37 35  2  0  0  0  0
 38 36  1  0  0  0  0
 39 40  1  0  0  0  0
 39 38  1  0  0  0  0
 41 39  2  0  0  0  0
 42 40  2  0  0  0  0
 43 44  2  0  0  0  0
 43 41  1  0  0  0  0
 44 42  1  0  0  0  0
 45 43  1  0  0  0  0
 46 45  3  0  0  0  0
 47 48  1  0  0  0  0
 49 48  1  0  0  0  0
 49 50  1  0  0  0  0
 50 51  1  0  0  0  0
 52 51  1  0  0  0  0
M  END
>  <REMARK>
 VINA RESULT:    -4.861      4.454      7.444
 INTER + INTRA:         -14.194
 INTER:                  -8.023
 INTRA:                  -6.171
 UNBOUND:                -5.212
 SMILES CC(=O)N[C@@H]1[C@@H](O)C[C@](O)(C(=O)O)O[C@H]1C(O)[C@H](O)CNC(=O)OCc1cn(Cc2cccc(C#N)c2)nn1
 SMILES IDX 21 1 22 2 23 3 20 5 18 6 16 7 15 8 9 9 8 10 14 11 6 12 5 13
 SMILES IDX 10 14 11 16 12 17 13 18 7 20 4 22 2 23 1 25 3 26 17 27 19 29
 SMILES IDX 24 31 25 32 26 33 27 34 39 35 28 36 38 37 29 38 30 39 31 40
 SMILES IDX 37 41 32 42 34 43 33 44 35 45 36 46
 H PARENT 21 4 10 15 13 19 7 21 4 24 17 28 19 30
 Flexibility Score: inf
  4 active torsions:
  status: ('A' for Active; 'I' for Inactive)
    1  A    between atoms: CA   and  CB  
    2  A    between atoms: CB   and  CG  
    3  A    between atoms: CG   and  CD  
    4  A    between atoms: CD   and  CE  

>  <TORSDO>
F 17

>  <BEGIN_>
RES LYS A 131

$$$$
ligand_66_pose_17_2HRL.pdbqt
 OpenBabel07062320523D

  6  5  0  0  0  0  0  0  0  0999 V2000
   33.1930   34.6630    9.2900 C   0  0  0  0  0  0  0  0  0  0  0  0
   32.0600   35.3600   10.0340 C   0  0  0  0  0  0  0  0  0  0  0  0
   30.8670   35.6640    9.1660 C   0  0  0  0  0  0  0  0  0  0  0  0
   30.2260   34.3790    8.6640 C   0  0  0  0  0  0  0  0  0  0  0  0
   28.8960   34.6720    7.9960 C   0  0  0  0  0  0  0  0  0  0  0  0
   27.7590   34.2090    8.8390 N   0  0  0  0  0  0  0  0  0  0  0  0
  1  2  1  0  0  0  0
  3  2  1  0  0  0  0
  4  3  1  0  0  0  0
  5  4  1  0  0  0  0
  5  6  1  0  0  0  0
M  END
>  <EGIN_R>
ES LYS A 135

>  <REMARK>
  4 active torsions:
  status: ('A' for Active; 'I' for Inactive)
    5  A    between atoms: CA   and  CB  
    6  A    between atoms: CB   and  CG  
    7  A    between atoms: CG   and  CD  
    8  A    between atoms: CD   and  CE  

$$$$
