ligand_89_pose_7_2HRL.pdbqt
 OpenBabel07062320523D

 60 63  0  0  1  0  0  0  0  0999 V2000
   21.2750   34.8790   10.1300 N   0  0  0  0  0  0  0  0  0  0  0  0
   21.3580   35.1030   11.5040 C   0  0  0  0  0  0  0  0  0  0  0  0
   21.3330   36.2200   12.0230 O   0  0  0  0  0  0  0  0  0  0  0  0
   21.2770   33.8280    9.8220 H   0  0  0  0  0  0  0  0  0  0  0  0
   21.1900   35.8590    9.1160 C   0  0  0  0  0  0  0  0  0  0  0  0
   22.4090   36.1340    8.3540 C   0  0  2  0  0  0  0  0  0  0  0  0
   23.6400   36.6650    8.9650 C   0  0  1  0  0  0  0  0  0  0  0  0
   24.1890   37.7180    7.9580 C   0  0  2  0  0  0  0  0  0  0  0  0
   26.3680   36.9840    7.4760 C   0  0  2  0  0  0  0  0  0  0  0  0
   26.9210   38.2770    7.9760 C   0  0  0  0  0  0  0  0  0  0  0  0
   25.0590   37.1010    7.1390 O   0  0  0  0  0  0  0  0  0  0  0  0
   26.0840   38.9410    9.0400 C   0  0  1  0  0  0  0  0  0  0  0  0
   24.6190   38.9490    8.6650 C   0  0  1  0  0  0  0  0  0  0  0  0
   26.4800   35.9910    8.4820 O   0  0  0  0  0  0  0  0  0  0  0  0
   25.5920   35.5430    8.4990 H   0  0  0  0  0  0  0  0  0  0  0  0
   27.2220   36.5830    6.3080 C   0  0  0  0  0  0  0  0  0  0  0  0
   27.8690   35.5290    6.3560 O   0  0  0  0  0  0  0  0  0  0  0  0
   27.2810   37.3850    5.1940 O   0  0  0  0  0  0  0  0  0  0  0  0
   26.4230   37.7310    4.7540 H   0  0  0  0  0  0  0  0  0  0  0  0
   26.2600   38.3620   10.2980 O   0  0  0  0  0  0  0  0  0  0  0  0
   25.9890   37.4120   10.2620 H   0  0  0  0  0  0  0  0  0  0  0  0
   24.3970   40.1520    7.8520 N   0  0  0  0  0  0  0  0  0  0  0  0
   23.1090   40.6360    7.5470 C   0  0  0  0  0  0  0  0  0  0  0  0
   25.2170   40.6990    7.4640 H   0  0  0  0  0  0  0  0  0  0  0  0
   22.8890   41.8540    6.7240 C   0  0  0  0  0  0  0  0  0  0  0  0
   22.0850   40.0270    7.9810 O   0  0  0  0  0  0  0  0  0  0  0  0
   23.4680   37.2950   10.2000 O   0  0  0  0  0  0  0  0  0  0  0  0
   24.3630   37.4800   10.6240 H   0  0  0  0  0  0  0  0  0  0  0  0
   22.0030   37.0200    7.2850 O   0  0  0  0  0  0  0  0  0  0  0  0
   22.0240   37.9460    7.5830 H   0  0  0  0  0  0  0  0  0  0  0  0
   21.4810   34.0220   12.4060 O   0  0  0  0  0  0  0  0  0  0  0  0
   22.6250   33.2180   12.4370 C   0  0  0  0  0  0  0  0  0  0  0  0
   23.7570   33.9810   13.0190 C   0  0  0  0  0  0  0  0  0  0  0  0
   25.0310   34.1320   12.4790 C   0  0  0  0  0  0  0  0  0  0  0  0
   23.7970   34.6820   14.1670 N   0  0  0  0  0  0  0  0  0  0  0  0
   25.7960   34.9070   13.2990 N   0  0  0  0  0  0  0  0  0  0  0  0
   25.0000   35.2060   14.2930 N   0  0  0  0  0  0  0  0  0  0  0  0
   27.1500   35.2490   13.0210 C   0  0  0  0  0  0  0  0  0  0  0  0
   27.5690   36.1100   12.0460 N   0  0  0  0  0  0  0  0  0  0  0  0
   28.2940   34.8170   13.6400 C   0  0  0  0  0  0  0  0  0  0  0  0
   28.9060   36.1850   12.0850 C   0  0  0  0  0  0  0  0  0  0  0  0
   29.3910   35.3950   13.0610 N   0  0  0  0  0  0  0  0  0  0  0  0
   28.5100   33.9600   14.6730 C   0  0  0  0  0  0  0  0  0  0  0  0
   30.6430   35.1390   13.4830 C   0  0  0  0  0  0  0  0  0  0  0  0
   29.7300   33.6780   15.1220 N   0  0  0  0  0  0  0  0  0  0  0  0
   27.5520   33.3900   15.2530 O   0  0  0  0  0  0  0  0  0  0  0  0
   31.7240   35.7410   12.8740 C   0  0  0  0  0  0  0  0  0  0  0  0
   30.7970   34.2610   14.5350 C   0  0  0  0  0  0  0  0  0  0  0  0
   33.0240   35.4960   13.2870 C   0  0  0  0  0  0  0  0  0  0  0  0
   32.1070   34.0320   14.9300 C   0  0  0  0  0  0  0  0  0  0  0  0
   33.1990   34.6280   14.3290 C   0  0  0  0  0  0  0  0  0  0  0  0
   30.0290   32.7800   16.2150 C   0  0  0  0  0  0  0  0  0  0  0  0
   29.6270   31.3890   15.7730 C   0  0  0  0  0  0  0  0  0  0  0  0
   29.3020   33.0800   17.4870 C   0  0  0  0  0  0  0  0  0  0  0  0
   29.8670   25.5550   16.9770 C   0  0  0  0  0  0  0  0  0  0  0  0
   28.3450   25.7220   17.0260 C   0  0  0  0  0  0  0  0  0  0  0  0
   27.6020   24.3970   16.9500 C   0  0  0  0  0  0  0  0  0  0  0  0
   26.1540   24.5360   17.3300 C   0  0  0  0  0  0  0  0  0  0  0  0
   25.5310   23.1520   17.4790 C   0  0  0  0  0  0  0  0  0  0  0  0
   24.1050   23.1790   17.0800 N   0  0  0  0  0  0  0  0  0  0  0  0
  1  2  1  0  0  0  0
  2  3  2  0  0  0  0
  2 31  1  0  0  0  0
  4  1  1  0  0  0  0
  5  1  1  0  0  0  0
  6  7  1  0  0  0  0
  6  5  1  1  0  0  0
  7 27  1  1  0  0  0
  8 13  1  0  0  0  0
  8  7  1  1  0  0  0
  9 16  1  6  0  0  0
  9 10  1  0  0  0  0
  9 14  1  0  0  0  0
 10 12  1  0  0  0  0
 11  9  1  0  0  0  0
 11  8  1  0  0  0  0
 12 20  1  1  0  0  0
 13 22  1  6  0  0  0
 13 12  1  0  0  0  0
 14 15  1  0  0  0  0
 16 17  2  0  0  0  0
 18 16  1  0  0  0  0
 19 18  1  0  0  0  0
 21 20  1  0  0  0  0
 23 22  1  0  0  0  0
 23 26  2  0  0  0  0
 24 22  1  0  0  0  0
 25 23  1  0  0  0  0
 27 28  1  0  0  0  0
 29 30  1  0  0  0  0
 29  6  1  0  0  0  0
 31 32  1  0  0  0  0
 32 33  1  0  0  0  0
 33 35  1  0  0  0  0
 34 33  2  0  0  0  0
 34 36  1  0  0  0  0
 35 37  2  0  0  0  0
 36 37  1  0  0  0  0
 38 36  1  0  0  0  0
 38 40  2  0  0  0  0
 39 41  2  0  0  0  0
 39 38  1  0  0  0  0
 40 43  1  0  0  0  0
 41 42  1  0  0  0  0
 42 44  1  0  0  0  0
 42 40  1  0  0  0  0
 43 45  1  0  0  0  0
 43 46  2  0  0  0  0
 44 48  2  0  0  0  0
 45 52  1  0  0  0  0
 47 49  2  0  0  0  0
 47 44  1  0  0  0  0
 48 50  1  0  0  0  0
 48 45  1  0  0  0  0
 49 51  1  0  0  0  0
 51 50  2  0  0  0  0
 52 54  1  0  0  0  0
 53 52  1  0  0  0  0
 55 56  1  0  0  0  0
 57 56  1  0  0  0  0
 57 58  1  0  0  0  0
 58 59  1  0  0  0  0
 60 59  1  0  0  0  0
M  END
>  <REMARK>
 VINA RESULT:    -4.683      4.983     11.625
 INTER + INTRA:         -15.488
 INTER:                 -10.264
 INTRA:                  -5.224
 UNBOUND:                -7.109
 SMILES CC(=O)N[C@@H]1[C@@H](O)C[C@](O)(C(=O)O)O[C@H]1C(O)[C@H](O)CNC(=O)OCc1cn(-c2ncn3c2c(=O)n(C(C)C)c2ccccc23)nn1
 SMILES IDX 21 1 22 2 23 3 20 5 18 6 16 7 15 8 9 9 8 10 14 11 6 12 5 13
 SMILES IDX 10 14 11 16 12 17 13 18 7 20 4 22 2 23 1 25 3 26 17 27 19 29
 SMILES IDX 24 31 25 32 26 33 27 34 47 35 28 36 46 37 29 38 30 39 33 40
 SMILES IDX 31 41 32 42 34 43 45 44 36 45 35 46 44 47 40 48 43 49 41 50
 SMILES IDX 42 51 37 52 38 53 39 54
 H PARENT 21 4 10 15 13 19 7 21 4 24 17 28 19 30
 Flexibility Score: inf
  4 active torsions:
  status: ('A' for Active; 'I' for Inactive)
    1  A    between atoms: CA   and  CB  
    2  A    between atoms: CB   and  CG  
    3  A    between atoms: CG   and  CD  
    4  A    between atoms: CD   and  CE  

>  <TORSDO>
F 16

>  <BEGIN_>
RES LYS A 131

$$$$
ligand_89_pose_7_2HRL.pdbqt
 OpenBabel07062320523D

  6  5  0  0  0  0  0  0  0  0999 V2000
   33.1930   34.6630    9.2900 C   0  0  0  0  0  0  0  0  0  0  0  0
   32.0600   35.3600   10.0340 C   0  0  0  0  0  0  0  0  0  0  0  0
   30.9490   35.8340    9.1330 C   0  0  0  0  0  0  0  0  0  0  0  0
   30.2400   34.6530    8.4880 C   0  0  0  0  0  0  0  0  0  0  0  0
   29.7240   33.6990    9.5470 C   0  0  0  0  0  0  0  0  0  0  0  0
   28.2350   33.6700    9.5630 N   0  0  0  0  0  0  0  0  0  0  0  0
  1  2  1  0  0  0  0
  3  2  1  0  0  0  0
  4  3  1  0  0  0  0
  4  5  1  0  0  0  0
  5  6  1  0  0  0  0
M  END
>  <EGIN_R>
ES LYS A 135

>  <REMARK>
  4 active torsions:
  status: ('A' for Active; 'I' for Inactive)
    5  A    between atoms: CA   and  CB  
    6  A    between atoms: CB   and  CG  
    7  A    between atoms: CG   and  CD  
    8  A    between atoms: CD   and  CE  

$$$$
