ligand_43_pose_17_2HRL.pdbqt
 OpenBabel07062320523D

 49 49  0  0  1  0  0  0  0  0999 V2000
   29.4410   32.1910   18.8420 O   0  0  0  0  0  0  0  0  0  0  0  0
   29.5640   30.9300   19.3940 C   0  0  0  0  0  0  0  0  0  0  0  0
   28.3560   30.2710   19.7970 N   0  0  0  0  0  0  0  0  0  0  0  0
   27.4530   30.7650   19.6570 H   0  0  0  0  0  0  0  0  0  0  0  0
   30.6970   30.3690   19.5420 O   0  0  0  0  0  0  0  0  0  0  0  0
   28.3670   28.9710   20.3770 C   0  0  0  0  0  0  0  0  0  0  0  0
   28.1250   27.8450   19.3690 C   0  0  2  0  0  0  0  0  0  0  0  0
   26.6420   27.8520   19.0950 C   0  0  2  0  0  0  0  0  0  0  0  0
   26.2730   28.4080   17.7590 C   0  0  2  0  0  0  0  0  0  0  0  0
   26.6080   30.4430   16.6940 C   0  0  2  0  0  0  0  0  0  0  0  0
   25.5290   29.9460   15.7550 C   0  0  0  0  0  0  0  0  0  0  0  0
   27.1610   29.3820   17.3890 O   0  0  0  0  0  0  0  0  0  0  0  0
   24.3470   29.5350   16.6030 C   0  0  1  0  0  0  0  0  0  0  0  0
   24.8500   28.9640   17.9080 C   0  0  1  0  0  0  0  0  0  0  0  0
   26.1200   31.4350   17.5390 O   0  0  0  0  0  0  0  0  0  0  0  0
   25.9600   32.2630   17.0340 H   0  0  0  0  0  0  0  0  0  0  0  0
   27.6570   31.0690   15.8500 C   0  0  0  0  0  0  0  0  0  0  0  0
   27.5760   32.2580   15.4470 O   0  0  0  0  0  0  0  0  0  0  0  0
   28.8080   30.3690   15.4500 O   0  0  0  0  0  0  0  0  0  0  0  0
   29.0340   29.5160   15.9550 H   0  0  0  0  0  0  0  0  0  0  0  0
   23.5940   30.6560   16.8970 O   0  0  0  0  0  0  0  0  0  0  0  0
   23.1680   30.5500   17.7830 H   0  0  0  0  0  0  0  0  0  0  0  0
   24.0040   27.8840   18.3840 N   0  0  0  0  0  0  0  0  0  0  0  0
   22.8350   28.0960   19.1670 C   0  0  0  0  0  0  0  0  0  0  0  0
   24.2200   26.8700   18.1660 H   0  0  0  0  0  0  0  0  0  0  0  0
   21.9730   26.9760   19.6520 C   0  0  0  0  0  0  0  0  0  0  0  0
   22.5490   29.2930   19.4450 O   0  0  0  0  0  0  0  0  0  0  0  0
   26.0550   28.5610   20.1560 O   0  0  0  0  0  0  0  0  0  0  0  0
   25.8570   29.4980   19.9060 H   0  0  0  0  0  0  0  0  0  0  0  0
   28.6040   26.6370   19.8310 O   0  0  0  0  0  0  0  0  0  0  0  0
   29.5230   26.4300   19.5920 H   0  0  0  0  0  0  0  0  0  0  0  0
   30.5830   32.9480   18.5390 C   0  0  0  0  0  0  0  0  0  0  0  0
   30.6970   32.9770   17.0440 C   0  0  0  0  0  0  0  0  0  0  0  0
   30.3610   34.0730   16.2660 C   0  0  0  0  0  0  0  0  0  0  0  0
   31.1120   32.0390   16.1920 N   0  0  0  0  0  0  0  0  0  0  0  0
   30.5810   33.7640   14.9810 N   0  0  0  0  0  0  0  0  0  0  0  0
   31.0350   32.5260   14.9660 N   0  0  0  0  0  0  0  0  0  0  0  0
   30.3830   34.5730   13.7870 C   0  0  0  0  0  0  0  0  0  0  0  0
   29.1600   35.4350   13.9500 C   0  0  0  0  0  0  0  0  0  0  0  0
   28.4880   35.6940   12.6250 C   0  0  0  0  0  0  0  0  0  0  0  0
   27.3520   34.7400   12.3610 C   0  0  0  0  0  0  0  0  0  0  0  0
   27.1580   34.5710   10.9030 C   0  0  0  0  0  0  0  0  0  0  0  0
   26.5140   35.4460   10.1640 C   0  0  0  0  0  0  0  0  0  0  0  0
   29.8670   25.5550   16.9770 C   0  0  0  0  0  0  0  0  0  0  0  0
   28.3450   25.7220   17.0260 C   0  0  0  0  0  0  0  0  0  0  0  0
   27.6020   24.3980   16.9340 C   0  0  0  0  0  0  0  0  0  0  0  0
   26.1560   24.5310   17.3250 C   0  0  0  0  0  0  0  0  0  0  0  0
   25.9910   24.1660   18.7960 C   0  0  0  0  0  0  0  0  0  0  0  0
   25.1870   22.9290   18.9360 N   0  0  0  0  0  0  0  0  0  0  0  0
  1  2  1  0  0  0  0
  2  5  2  0  0  0  0
  2  3  1  0  0  0  0
  3  6  1  0  0  0  0
  4  3  1  0  0  0  0
  7 30  1  0  0  0  0
  7  6  1  1  0  0  0
  8  7  1  0  0  0  0
  8 28  1  1  0  0  0
  9 14  1  0  0  0  0
  9  8  1  1  0  0  0
 10 17  1  6  0  0  0
 10 12  1  0  0  0  0
 10 15  1  0  0  0  0
 11 13  1  0  0  0  0
 11 10  1  0  0  0  0
 12  9  1  0  0  0  0
 13 21  1  1  0  0  0
 13 14  1  0  0  0  0
 14 23  1  6  0  0  0
 16 15  1  0  0  0  0
 18 17  2  0  0  0  0
 19 17  1  0  0  0  0
 19 20  1  0  0  0  0
 21 22  1  0  0  0  0
 23 24  1  0  0  0  0
 24 27  2  0  0  0  0
 24 26  1  0  0  0  0
 25 23  1  0  0  0  0
 29 28  1  0  0  0  0
 31 30  1  0  0  0  0
 32  1  1  0  0  0  0
 33 32  1  0  0  0  0
 34 33  2  0  0  0  0
 35 33  1  0  0  0  0
 36 34  1  0  0  0  0
 37 36  1  0  0  0  0
 37 35  2  0  0  0  0
 38 39  1  0  0  0  0
 38 36  1  0  0  0  0
 40 39  1  0  0  0  0
 41 40  1  0  0  0  0
 42 41  1  0  0  0  0
 43 42  2  0  0  0  0
 44 45  1  0  0  0  0
 46 45  1  0  0  0  0
 46 47  1  0  0  0  0
 47 48  1  0  0  0  0
 48 49  1  0  0  0  0
M  END
>  <REMARK>
 VINA RESULT:    -4.703      4.271      6.734
 INTER + INTRA:         -14.024
 INTER:                  -7.646
 INTRA:                  -6.379
 UNBOUND:                -4.785
 SMILES C=CCCCCn1cc(COC(=O)NC[C@@H](O)C(O)[C@@H]2O[C@@](O)(C(=O)O)C[C@H](O)[C@H]2NC(C)=O)nn1
 SMILES IDX 11 1 12 2 14 3 13 5 15 6 16 7 18 8 20 9 22 10 27 11 21 12
 SMILES IDX 28 13 30 14 23 15 24 17 25 18 26 19 29 21 31 23 32 24 33 26
 SMILES IDX 34 27 19 28 17 30 10 32 9 33 8 34 35 35 7 36 36 37 6 38 5 39
 SMILES IDX 4 40 3 41 2 42 1 43
 H PARENT 14 4 23 16 26 20 29 22 31 25 19 29 17 31
 Flexibility Score: inf
  4 active torsions:
  status: ('A' for Active; 'I' for Inactive)
    1  A    between atoms: CA   and  CB  
    2  A    between atoms: CB   and  CG  
    3  A    between atoms: CG   and  CD  
    4  A    between atoms: CD   and  CE  

>  <TORSDO>
F 19

>  <BEGIN_>
RES LYS A 131

$$$$
ligand_43_pose_17_2HRL.pdbqt
 OpenBabel07062320523D

  6  5  0  0  0  0  0  0  0  0999 V2000
   33.1930   34.6630    9.2900 C   0  0  0  0  0  0  0  0  0  0  0  0
   32.0600   35.3600   10.0340 C   0  0  0  0  0  0  0  0  0  0  0  0
   30.7010   34.7780    9.7430 C   0  0  0  0  0  0  0  0  0  0  0  0
   30.5670   34.4360    8.2670 C   0  0  0  0  0  0  0  0  0  0  0  0
   29.3260   35.0810    7.6810 C   0  0  0  0  0  0  0  0  0  0  0  0
   29.2820   36.5380    7.9890 N   0  0  0  0  0  0  0  0  0  0  0  0
  1  2  1  0  0  0  0
  3  2  1  0  0  0  0
  4  3  1  0  0  0  0
  5  6  1  0  0  0  0
  5  4  1  0  0  0  0
M  END
>  <EGIN_R>
ES LYS A 135

>  <REMARK>
  4 active torsions:
  status: ('A' for Active; 'I' for Inactive)
    5  A    between atoms: CA   and  CB  
    6  A    between atoms: CB   and  CG  
    7  A    between atoms: CG   and  CD  
    8  A    between atoms: CD   and  CE  

$$$$
