ligand_31_pose_1_2HRL.pdbqt
 OpenBabel07062320523D

 57 58  0  0  1  0  0  0  0  0999 V2000
   28.0440   32.7930   22.0140 O   0  0  0  0  0  0  0  0  0  0  0  0
   27.3750   33.5700   21.0750 C   0  0  0  0  0  0  0  0  0  0  0  0
   27.7630   33.7060   19.7350 N   0  0  0  0  0  0  0  0  0  0  0  0
   28.5960   33.2100   19.3880 H   0  0  0  0  0  0  0  0  0  0  0  0
   26.3510   34.1910   21.4650 O   0  0  0  0  0  0  0  0  0  0  0  0
   26.9830   34.5540   18.8280 C   0  0  0  0  0  0  0  0  0  0  0  0
   26.5620   33.7340   17.6380 C   0  0  2  0  0  0  0  0  0  0  0  0
   27.0920   34.2850   16.3430 C   0  0  1  0  0  0  0  0  0  0  0  0
   28.2110   33.4610   15.7750 C   0  0  2  0  0  0  0  0  0  0  0  0
   29.9240   32.0680   16.5380 C   0  0  2  0  0  0  0  0  0  0  0  0
   30.7320   32.3200   15.3070 C   0  0  0  0  0  0  0  0  0  0  0  0
   29.0080   33.0210   16.8470 O   0  0  0  0  0  0  0  0  0  0  0  0
   30.1070   33.1960   14.2980 C   0  0  1  0  0  0  0  0  0  0  0  0
   29.1670   34.2270   14.8940 C   0  0  1  0  0  0  0  0  0  0  0  0
   30.8600   32.0600   17.6050 O   0  0  0  0  0  0  0  0  0  0  0  0
   31.2130   32.9700   17.7680 H   0  0  0  0  0  0  0  0  0  0  0  0
   29.2780   30.7320   16.5410 C   0  0  0  0  0  0  0  0  0  0  0  0
   28.9240   30.1660   15.4680 O   0  0  0  0  0  0  0  0  0  0  0  0
   29.0190   30.0260   17.7100 O   0  0  0  0  0  0  0  0  0  0  0  0
   29.7880   29.6700   18.2680 H   0  0  0  0  0  0  0  0  0  0  0  0
   31.1070   33.8480   13.5460 O   0  0  0  0  0  0  0  0  0  0  0  0
   30.8360   33.9750   12.6140 H   0  0  0  0  0  0  0  0  0  0  0  0
   28.5710   35.0180   13.8730 N   0  0  0  0  0  0  0  0  0  0  0  0
   29.0980   36.3210   13.6160 C   0  0  0  0  0  0  0  0  0  0  0  0
   27.7710   34.7140   13.2790 H   0  0  0  0  0  0  0  0  0  0  0  0
   28.5510   37.2190   12.5770 C   0  0  0  0  0  0  0  0  0  0  0  0
   30.0770   36.7460   14.2960 O   0  0  0  0  0  0  0  0  0  0  0  0
   26.1040   34.6050   15.4290 O   0  0  0  0  0  0  0  0  0  0  0  0
   25.4560   35.2770   15.7580 H   0  0  0  0  0  0  0  0  0  0  0  0
   25.1510   33.8830   17.5550 O   0  0  0  0  0  0  0  0  0  0  0  0
   24.9310   34.4900   18.3280 H   0  0  0  0  0  0  0  0  0  0  0  0
   29.4390   32.9040   22.2020 C   0  0  0  0  0  0  0  0  0  0  0  0
   30.0890   31.7580   21.5290 C   0  0  0  0  0  0  0  0  0  0  0  0
   30.8460   30.7780   22.1120 C   0  0  0  0  0  0  0  0  0  0  0  0
   30.0450   31.4810   20.2160 N   0  0  0  0  0  0  0  0  0  0  0  0
   31.2400   29.9350   21.1410 N   0  0  0  0  0  0  0  0  0  0  0  0
   30.7500   30.3660   19.9890 N   0  0  0  0  0  0  0  0  0  0  0  0
   32.0680   28.7360   21.2950 C   0  0  0  0  0  0  0  0  0  0  0  0
   31.1380   27.5650   21.4740 C   0  0  0  0  0  0  0  0  0  0  0  0
   30.2820   27.4530   20.3210 N   0  0  0  0  0  0  0  0  0  0  0  0
   28.8680   27.4420   20.3760 C   0  0  0  0  0  0  0  0  0  0  0  0
   30.7110   27.3730   19.3560 H   0  0  0  0  0  0  0  0  0  0  0  0
   28.3120   27.5390   21.5110 O   0  0  0  0  0  0  0  0  0  0  0  0
   28.1110   27.3250   19.1810 N   0  0  0  0  0  0  0  0  0  0  0  0
   28.5400   27.2440   18.2420 H   0  0  0  0  0  0  0  0  0  0  0  0
   26.6690   27.3170   19.2770 C   0  0  0  0  0  0  0  0  0  0  0  0
   26.1360   28.3890   18.4080 C   0  0  0  0  0  0  0  0  0  0  0  0
   25.3220   29.4210   18.8610 C   0  0  0  0  0  0  0  0  0  0  0  0
   26.3300   28.5380   17.1360 O   0  0  0  0  0  0  0  0  0  0  0  0
   25.0530   30.1900   17.7490 C   0  0  0  0  0  0  0  0  0  0  0  0
   25.7110   29.5900   16.6960 C   0  0  0  0  0  0  0  0  0  0  0  0
   29.8670   25.5550   16.9770 C   0  0  0  0  0  0  0  0  0  0  0  0
   28.3450   25.7220   17.0260 C   0  0  0  0  0  0  0  0  0  0  0  0
   27.5990   24.4300   16.7280 C   0  0  0  0  0  0  0  0  0  0  0  0
   26.9500   23.8550   17.9570 C   0  0  0  0  0  0  0  0  0  0  0  0
   25.5640   23.3270   17.6000 C   0  0  0  0  0  0  0  0  0  0  0  0
   24.7720   24.3720   16.9100 N   0  0  0  0  0  0  0  0  0  0  0  0
  1 32  1  0  0  0  0
  2  5  2  0  0  0  0
  2  1  1  0  0  0  0
  3  2  1  0  0  0  0
  4  3  1  0  0  0  0
  6  3  1  0  0  0  0
  7  6  1  1  0  0  0
  8 28  1  6  0  0  0
  8  7  1  0  0  0  0
  9  8  1  1  0  0  0
  9 12  1  0  0  0  0
 10 17  1  6  0  0  0
 10 12  1  0  0  0  0
 10 15  1  0  0  0  0
 11 10  1  0  0  0  0
 13 21  1  1  0  0  0
 13 14  1  0  0  0  0
 13 11  1  0  0  0  0
 14 23  1  6  0  0  0
 14  9  1  0  0  0  0
 15 16  1  0  0  0  0
 17 19  1  0  0  0  0
 18 17  2  0  0  0  0
 19 20  1  0  0  0  0
 22 21  1  0  0  0  0
 24 23  1  0  0  0  0
 24 27  2  0  0  0  0
 25 23  1  0  0  0  0
 26 24  1  0  0  0  0
 28 29  1  0  0  0  0
 30  7  1  0  0  0  0
 30 31  1  0  0  0  0
 33 34  2  0  0  0  0
 33 32  1  0  0  0  0
 35 33  1  0  0  0  0
 36 38  1  0  0  0  0
 36 34  1  0  0  0  0
 37 35  2  0  0  0  0
 37 36  1  0  0  0  0
 38 39  1  0  0  0  0
 40 41  1  0  0  0  0
 40 39  1  0  0  0  0
 41 43  2  0  0  0  0
 42 40  1  0  0  0  0
 44 46  1  0  0  0  0
 44 41  1  0  0  0  0
 45 44  1  0  0  0  0
 47 48  2  0  0  0  0
 47 46  1  0  0  0  0
 49 47  1  0  0  0  0
 50 48  1  0  0  0  0
 51 49  1  0  0  0  0
 51 50  2  0  0  0  0
 52 53  1  0  0  0  0
 54 53  1  0  0  0  0
 54 55  1  0  0  0  0
 56 55  1  0  0  0  0
 57 56  1  0  0  0  0
M  END
>  <REMARK>
 VINA RESULT:    -5.270      3.105      6.873
 INTER + INTRA:         -16.261
 INTER:                  -7.997
 INTRA:                  -8.265
 UNBOUND:                -5.909
 SMILES CC(=O)N[C@@H]1[C@@H](O)C[C@](O)(C(=O)O)O[C@H]1C(O)[C@H](O)CNC(=O)OCc1cn(CCNC(=O)NCc2ccco2)nn1
 SMILES IDX 24 1 22 2 21 3 23 5 20 6 18 7 16 8 15 9 9 10 8 11 14 12 6 13
 SMILES IDX 5 14 10 15 11 17 12 18 13 19 7 21 4 23 2 24 1 26 3 27 17 28
 SMILES IDX 19 30 25 32 26 33 27 34 42 35 28 36 41 37 29 38 30 39 31 40
 SMILES IDX 32 41 33 43 34 44 35 46 36 47 37 48 40 49 38 50 39 51
 H PARENT 21 4 10 16 13 20 7 22 4 25 17 29 19 31 31 42 34 45
 Flexibility Score: inf
  4 active torsions:
  status: ('A' for Active; 'I' for Inactive)
    1  A    between atoms: CA   and  CB  
    2  A    between atoms: CB   and  CG  
    3  A    between atoms: CG   and  CD  
    4  A    between atoms: CD   and  CE  

>  <TORSDO>
F 19

>  <BEGIN_>
RES LYS A 131

$$$$
ligand_31_pose_1_2HRL.pdbqt
 OpenBabel07062320523D

  6  5  0  0  0  0  0  0  0  0999 V2000
   33.1930   34.6630    9.2900 C   0  0  0  0  0  0  0  0  0  0  0  0
   32.0600   35.3600   10.0340 C   0  0  0  0  0  0  0  0  0  0  0  0
   30.7970   35.4920    9.2220 C   0  0  0  0  0  0  0  0  0  0  0  0
   30.1280   34.1380    9.0480 C   0  0  0  0  0  0  0  0  0  0  0  0
   28.6670   34.3090    8.6770 C   0  0  0  0  0  0  0  0  0  0  0  0
   27.7760   33.7560    9.7340 N   0  0  0  0  0  0  0  0  0  0  0  0
  1  2  1  0  0  0  0
  3  2  1  0  0  0  0
  4  3  1  0  0  0  0
  5  4  1  0  0  0  0
  5  6  1  0  0  0  0
M  END
>  <EGIN_R>
ES LYS A 135

>  <REMARK>
  4 active torsions:
  status: ('A' for Active; 'I' for Inactive)
    5  A    between atoms: CA   and  CB  
    6  A    between atoms: CB   and  CG  
    7  A    between atoms: CG   and  CD  
    8  A    between atoms: CD   and  CE  

$$$$
