ligand_35_pose_2_2HRL.pdbqt
 OpenBabel07062320523D

 49 49  0  0  1  0  0  0  0  0999 V2000
   28.2880   29.6150   18.0030 N   0  0  0  0  0  0  0  0  0  0  0  0
   27.9670   29.8230   16.6420 C   0  0  0  0  0  0  0  0  0  0  0  0
   26.8890   29.4090   16.1460 O   0  0  0  0  0  0  0  0  0  0  0  0
   29.1910   29.9770   18.3640 H   0  0  0  0  0  0  0  0  0  0  0  0
   27.4050   28.9230   18.8950 C   0  0  0  0  0  0  0  0  0  0  0  0
   28.1290   28.3210   20.1040 C   0  0  2  0  0  0  0  0  0  0  0  0
   29.1230   29.3280   20.5710 C   0  0  2  0  0  0  0  0  0  0  0  0
   29.8230   29.0300   21.8530 C   0  0  2  0  0  0  0  0  0  0  0  0
   31.7480   30.3080   21.5150 C   0  0  2  0  0  0  0  0  0  0  0  0
   32.2720   29.1610   20.7470 C   0  0  0  0  0  0  0  0  0  0  0  0
   30.5660   30.1520   22.1890 O   0  0  0  0  0  0  0  0  0  0  0  0
   31.9040   27.7980   21.2150 C   0  0  1  0  0  0  0  0  0  0  0  0
   30.5890   27.7660   21.9400 C   0  0  1  0  0  0  0  0  0  0  0  0
   31.5020   31.3370   20.5680 O   0  0  0  0  0  0  0  0  0  0  0  0
   30.5940   31.6680   20.7350 H   0  0  0  0  0  0  0  0  0  0  0  0
   32.8140   30.8270   22.4160 C   0  0  0  0  0  0  0  0  0  0  0  0
   32.5910   31.1000   23.6260 O   0  0  0  0  0  0  0  0  0  0  0  0
   34.1010   31.0280   21.9490 O   0  0  0  0  0  0  0  0  0  0  0  0
   34.8610   30.3730   22.1000 H   0  0  0  0  0  0  0  0  0  0  0  0
   31.8930   26.9570   20.0860 O   0  0  0  0  0  0  0  0  0  0  0  0
   32.8400   26.8020   19.8520 H   0  0  0  0  0  0  0  0  0  0  0  0
   30.8570   27.5430   23.3750 N   0  0  0  0  0  0  0  0  0  0  0  0
   30.0090   26.7300   24.1590 C   0  0  0  0  0  0  0  0  0  0  0  0
   31.6680   27.9720   23.8570 H   0  0  0  0  0  0  0  0  0  0  0  0
   30.2360   26.4780   25.5950 C   0  0  0  0  0  0  0  0  0  0  0  0
   28.9930   26.1740   23.6250 O   0  0  0  0  0  0  0  0  0  0  0  0
   28.3520   30.5030   20.8480 O   0  0  0  0  0  0  0  0  0  0  0  0
   28.8890   31.2410   20.4640 H   0  0  0  0  0  0  0  0  0  0  0  0
   28.7440   27.1720   19.6220 O   0  0  0  0  0  0  0  0  0  0  0  0
   29.7210   27.3340   19.6390 H   0  0  0  0  0  0  0  0  0  0  0  0
   28.8520   30.5090   15.7870 O   0  0  0  0  0  0  0  0  0  0  0  0
   30.0560   31.0620   16.2870 C   0  0  0  0  0  0  0  0  0  0  0  0
   30.3950   32.3270   15.5880 C   0  0  0  0  0  0  0  0  0  0  0  0
   31.5610   33.0780   15.7600 C   0  0  0  0  0  0  0  0  0  0  0  0
   29.6840   33.0120   14.6650 N   0  0  0  0  0  0  0  0  0  0  0  0
   31.5080   34.1480   14.9610 N   0  0  0  0  0  0  0  0  0  0  0  0
   30.3760   34.1020   14.3050 N   0  0  0  0  0  0  0  0  0  0  0  0
   32.5240   35.1980   14.8280 C   0  0  1  0  0  0  0  0  0  0  0  0
   33.2350   35.3970   16.1560 C   0  0  0  0  0  0  0  0  0  0  0  0
   33.4870   34.8960   13.7710 C   0  0  0  0  0  0  0  0  0  0  0  0
   34.6450   34.5240   14.0680 O   0  0  0  0  0  0  0  0  0  0  0  0
   33.2020   34.9960   12.4110 O   0  0  0  0  0  0  0  0  0  0  0  0
   33.7930   35.5380   11.7900 H   0  0  0  0  0  0  0  0  0  0  0  0
   29.8670   25.5550   16.9770 C   0  0  0  0  0  0  0  0  0  0  0  0
   28.3450   25.7220   17.0260 C   0  0  0  0  0  0  0  0  0  0  0  0
   27.6010   24.4010   16.9010 C   0  0  0  0  0  0  0  0  0  0  0  0
   26.1570   24.5240   17.3000 C   0  0  0  0  0  0  0  0  0  0  0  0
   25.7990   23.4010   18.2670 C   0  0  0  0  0  0  0  0  0  0  0  0
   24.8750   22.4370   17.6240 N   0  0  0  0  0  0  0  0  0  0  0  0
  1  4  1  0  0  0  0
  1  5  1  0  0  0  0
  2  1  1  0  0  0  0
  3  2  2  0  0  0  0
  6  5  1  6  0  0  0
  6  7  1  0  0  0  0
  7 27  1  1  0  0  0
  8  7  1  6  0  0  0
  8 13  1  0  0  0  0
  8 11  1  0  0  0  0
  9 14  1  6  0  0  0
  9 11  1  0  0  0  0
  9 16  1  0  0  0  0
 10 12  1  0  0  0  0
 10  9  1  0  0  0  0
 12 20  1  6  0  0  0
 12 13  1  0  0  0  0
 13 22  1  1  0  0  0
 14 15  1  0  0  0  0
 16 17  2  0  0  0  0
 18 19  1  0  0  0  0
 18 16  1  0  0  0  0
 21 20  1  0  0  0  0
 22 24  1  0  0  0  0
 22 23  1  0  0  0  0
 23 25  1  0  0  0  0
 26 23  2  0  0  0  0
 28 27  1  0  0  0  0
 29 30  1  0  0  0  0
 29  6  1  0  0  0  0
 31 32  1  0  0  0  0
 31  2  1  0  0  0  0
 33 34  2  0  0  0  0
 33 32  1  0  0  0  0
 35 33  1  0  0  0  0
 36 34  1  0  0  0  0
 37 35  2  0  0  0  0
 37 36  1  0  0  0  0
 38 36  1  0  0  0  0
 38 39  1  1  0  0  0
 40 41  2  0  0  0  0
 40 38  1  0  0  0  0
 42 40  1  0  0  0  0
 43 42  1  0  0  0  0
 44 45  1  0  0  0  0
 46 45  1  0  0  0  0
 46 47  1  0  0  0  0
 47 48  1  0  0  0  0
 49 48  1  0  0  0  0
M  END
>  <REMARK>
 VINA RESULT:    -5.145      3.135      7.427
 INTER + INTRA:         -14.080
 INTER:                  -9.383
 INTRA:                  -4.697
 UNBOUND:                -4.724
 SMILES CC(=O)N[C@@H]1[C@@H](O)C[C@](O)(C(=O)O)O[C@H]1C(O)[C@H](O)CNC(=O)OCc1cn([C@@H](C)C(=O)O)nn1
 SMILES IDX 21 1 22 2 23 3 20 5 18 6 16 7 15 8 9 9 8 10 14 11 6 12 5 13
 SMILES IDX 10 14 11 16 12 17 13 18 7 20 4 22 2 23 1 25 3 26 17 27 19 29
 SMILES IDX 24 31 25 32 26 33 27 34 35 35 28 36 34 37 29 38 30 39 31 40
 SMILES IDX 32 41 33 42
 H PARENT 21 4 10 15 13 19 7 21 4 24 17 28 19 30 33 43
 Flexibility Score: inf
  4 active torsions:
  status: ('A' for Active; 'I' for Inactive)
    1  A    between atoms: CA   and  CB  
    2  A    between atoms: CB   and  CG  
    3  A    between atoms: CG   and  CD  
    4  A    between atoms: CD   and  CE  

>  <TORSDO>
F 17

>  <BEGIN_>
RES LYS A 131

$$$$
ligand_35_pose_2_2HRL.pdbqt
 OpenBabel07062320523D

  6  5  0  0  0  0  0  0  0  0999 V2000
   33.1930   34.6630    9.2900 C   0  0  0  0  0  0  0  0  0  0  0  0
   32.0600   35.3600   10.0340 C   0  0  0  0  0  0  0  0  0  0  0  0
   30.7350   34.6530    9.9130 C   0  0  0  0  0  0  0  0  0  0  0  0
   30.3300   34.5180    8.4530 C   0  0  0  0  0  0  0  0  0  0  0  0
   28.8200   34.5480    8.3150 C   0  0  0  0  0  0  0  0  0  0  0  0
   28.1630   33.8240    9.4380 N   0  0  0  0  0  0  0  0  0  0  0  0
  1  2  1  0  0  0  0
  3  2  1  0  0  0  0
  4  3  1  0  0  0  0
  5  4  1  0  0  0  0
  5  6  1  0  0  0  0
M  END
>  <EGIN_R>
ES LYS A 135

>  <REMARK>
  4 active torsions:
  status: ('A' for Active; 'I' for Inactive)
    5  A    between atoms: CA   and  CB  
    6  A    between atoms: CB   and  CG  
    7  A    between atoms: CG   and  CD  
    8  A    between atoms: CD   and  CE  

$$$$
