ligand_13_pose_10_2HRL.pdbqt
 OpenBabel07062320523D

 49 49  0  0  1  0  0  0  0  0999 V2000
   26.9720   28.5560   17.8660 N   0  0  0  0  0  0  0  0  0  0  0  0
   26.6590   29.8820   17.4900 C   0  0  0  0  0  0  0  0  0  0  0  0
   25.8650   30.5840   18.1250 O   0  0  0  0  0  0  0  0  0  0  0  0
   27.6830   28.0840   17.2150 H   0  0  0  0  0  0  0  0  0  0  0  0
   26.4400   27.8420   18.9800 C   0  0  0  0  0  0  0  0  0  0  0  0
   27.3870   27.4840   20.0740 C   0  0  2  0  0  0  0  0  0  0  0  0
   28.0140   28.6490   20.7510 C   0  0  1  0  0  0  0  0  0  0  0  0
   29.4000   29.0130   20.2950 C   0  0  2  0  0  0  0  0  0  0  0  0
   30.9770   28.6450   21.9820 C   0  0  2  0  0  0  0  0  0  0  0  0
   31.9840   29.6390   21.4460 C   0  0  0  0  0  0  0  0  0  0  0  0
   30.2620   28.1320   20.9450 O   0  0  0  0  0  0  0  0  0  0  0  0
   31.3030   30.5920   20.5350 C   0  0  1  0  0  0  0  0  0  0  0  0
   29.7720   30.4480   20.5390 C   0  0  1  0  0  0  0  0  0  0  0  0
   30.2550   29.2970   22.9650 O   0  0  0  0  0  0  0  0  0  0  0  0
   29.6780   29.9620   22.5240 H   0  0  0  0  0  0  0  0  0  0  0  0
   31.7570   27.5480   22.5990 C   0  0  0  0  0  0  0  0  0  0  0  0
   31.5990   27.3110   23.8150 O   0  0  0  0  0  0  0  0  0  0  0  0
   32.6420   26.7940   21.8710 O   0  0  0  0  0  0  0  0  0  0  0  0
   33.6300   27.0380   21.7940 H   0  0  0  0  0  0  0  0  0  0  0  0
   31.6210   31.9250   20.7800 O   0  0  0  0  0  0  0  0  0  0  0  0
   31.7200   32.1410   21.7290 H   0  0  0  0  0  0  0  0  0  0  0  0
   29.3400   31.3050   19.4550 N   0  0  0  0  0  0  0  0  0  0  0  0
   28.4960   32.4220   19.5880 C   0  0  0  0  0  0  0  0  0  0  0  0
   29.6870   31.0710   18.4990 H   0  0  0  0  0  0  0  0  0  0  0  0
   28.0660   33.2880   18.4630 C   0  0  0  0  0  0  0  0  0  0  0  0
   28.0820   32.6960   20.7570 O   0  0  0  0  0  0  0  0  0  0  0  0
   27.1640   29.7280   20.7880 O   0  0  0  0  0  0  0  0  0  0  0  0
   27.4930   30.5280   20.3060 H   0  0  0  0  0  0  0  0  0  0  0  0
   28.4470   26.7480   19.5040 O   0  0  0  0  0  0  0  0  0  0  0  0
   29.2890   27.2910   19.5120 H   0  0  0  0  0  0  0  0  0  0  0  0
   27.2550   30.4670   16.3500 O   0  0  0  0  0  0  0  0  0  0  0  0
   28.4660   29.9620   15.8210 C   0  0  0  0  0  0  0  0  0  0  0  0
   29.4270   31.0960   15.7900 C   0  0  0  0  0  0  0  0  0  0  0  0
   29.3720   32.2340   15.0200 C   0  0  0  0  0  0  0  0  0  0  0  0
   30.5640   31.2330   16.5260 N   0  0  0  0  0  0  0  0  0  0  0  0
   30.4630   32.9900   15.3250 N   0  0  0  0  0  0  0  0  0  0  0  0
   31.1660   32.3520   16.2450 N   0  0  0  0  0  0  0  0  0  0  0  0
   30.8320   34.2720   14.7710 C   0  0  0  0  0  0  0  0  0  0  0  0
   31.8700   34.9210   15.5860 C   0  0  0  0  0  0  0  0  0  0  0  0
   33.0720   34.7630   15.2830 O   0  0  0  0  0  0  0  0  0  0  0  0
   31.4700   35.6950   16.6770 O   0  0  0  0  0  0  0  0  0  0  0  0
   32.4000   35.7590   17.7630 C   0  0  0  0  0  0  0  0  0  0  0  0
   32.0510   34.6590   18.7330 C   0  0  0  0  0  0  0  0  0  0  0  0
   29.8670   25.5550   16.9770 C   0  0  0  0  0  0  0  0  0  0  0  0
   28.3450   25.7220   17.0260 C   0  0  0  0  0  0  0  0  0  0  0  0
   27.6010   24.4030   16.8860 C   0  0  0  0  0  0  0  0  0  0  0  0
   26.5240   24.2470   17.9230 C   0  0  0  0  0  0  0  0  0  0  0  0
   25.1600   24.2170   17.2410 C   0  0  0  0  0  0  0  0  0  0  0  0
   24.0760   24.3600   18.2410 N   0  0  0  0  0  0  0  0  0  0  0  0
  1  5  1  0  0  0  0
  2  1  1  0  0  0  0
  2  3  2  0  0  0  0
  4  1  1  0  0  0  0
  6  5  1  6  0  0  0
  6  7  1  0  0  0  0
  7 27  1  6  0  0  0
  8 13  1  0  0  0  0
  8  7  1  1  0  0  0
  8 11  1  0  0  0  0
  9 16  1  1  0  0  0
  9 14  1  0  0  0  0
 10  9  1  0  0  0  0
 11  9  1  0  0  0  0
 12 13  1  0  0  0  0
 12 20  1  1  0  0  0
 12 10  1  0  0  0  0
 13 22  1  6  0  0  0
 15 14  1  0  0  0  0
 16 17  2  0  0  0  0
 18 16  1  0  0  0  0
 19 18  1  0  0  0  0
 20 21  1  0  0  0  0
 22 23  1  0  0  0  0
 23 26  2  0  0  0  0
 24 22  1  0  0  0  0
 25 23  1  0  0  0  0
 28 27  1  0  0  0  0
 29 30  1  0  0  0  0
 29  6  1  0  0  0  0
 31  2  1  0  0  0  0
 32 31  1  0  0  0  0
 33 32  1  0  0  0  0
 33 35  1  0  0  0  0
 34 36  1  0  0  0  0
 34 33  2  0  0  0  0
 36 37  1  0  0  0  0
 37 35  2  0  0  0  0
 38 36  1  0  0  0  0
 38 39  1  0  0  0  0
 39 41  1  0  0  0  0
 40 39  2  0  0  0  0
 41 42  1  0  0  0  0
 42 43  1  0  0  0  0
 44 45  1  0  0  0  0
 46 45  1  0  0  0  0
 46 47  1  0  0  0  0
 48 47  1  0  0  0  0
 48 49  1  0  0  0  0
M  END
>  <REMARK>
 VINA RESULT:    -4.123      2.262      6.719
 INTER + INTRA:         -13.809
 INTER:                  -7.475
 INTRA:                  -6.334
 UNBOUND:                -5.949
 SMILES CCOC(=O)Cn1cc(COC(=O)NC[C@@H](O)C(O)[C@@H]2O[C@@](O)(C(=O)O)C[C@H](O)[C@H]2NC(C)=O)nn1
 SMILES IDX 14 1 12 2 13 3 15 5 16 6 18 7 20 8 22 9 27 10 21 11 28 12
 SMILES IDX 30 13 23 14 24 16 25 17 26 18 29 20 31 22 32 23 33 25 34 26
 SMILES IDX 19 27 17 29 11 31 10 32 9 33 8 34 35 35 7 36 36 37 6 38 4 39
 SMILES IDX 5 40 3 41 2 42 1 43
 H PARENT 14 4 23 15 26 19 29 21 31 24 19 28 17 30
 Flexibility Score: inf
  4 active torsions:
  status: ('A' for Active; 'I' for Inactive)
    1  A    between atoms: CA   and  CB  
    2  A    between atoms: CB   and  CG  
    3  A    between atoms: CG   and  CD  
    4  A    between atoms: CD   and  CE  

>  <TORSDO>
F 18

>  <BEGIN_>
RES LYS A 131

$$$$
ligand_13_pose_10_2HRL.pdbqt
 OpenBabel07062320523D

  6  5  0  0  0  0  0  0  0  0999 V2000
   33.1930   34.6630    9.2900 C   0  0  0  0  0  0  0  0  0  0  0  0
   32.0600   35.3600   10.0340 C   0  0  0  0  0  0  0  0  0  0  0  0
   30.7880   35.4640    9.2330 C   0  0  0  0  0  0  0  0  0  0  0  0
   30.2200   34.0820    8.9470 C   0  0  0  0  0  0  0  0  0  0  0  0
   28.7170   34.0700    9.1530 C   0  0  0  0  0  0  0  0  0  0  0  0
   28.2660   35.2880    9.8820 N   0  0  0  0  0  0  0  0  0  0  0  0
  1  2  1  0  0  0  0
  3  2  1  0  0  0  0
  4  5  1  0  0  0  0
  4  3  1  0  0  0  0
  5  6  1  0  0  0  0
M  END
>  <EGIN_R>
ES LYS A 135

>  <REMARK>
  4 active torsions:
  status: ('A' for Active; 'I' for Inactive)
    5  A    between atoms: CA   and  CB  
    6  A    between atoms: CB   and  CG  
    7  A    between atoms: CG   and  CD  
    8  A    between atoms: CD   and  CE  

$$$$
