ligand_82_pose_4_2HRL.pdbqt
 OpenBabel07062320523D

 53 55  0  0  1  0  0  0  0  0999 V2000
   27.2480   37.1660    5.3100 N   0  0  0  0  0  0  0  0  0  0  0  0
   28.1350   38.2240    4.9110 C   0  0  0  0  0  0  0  0  0  0  0  0
   29.3270   38.1900    5.3110 O   0  0  0  0  0  0  0  0  0  0  0  0
   26.2590   37.1880    4.9810 H   0  0  0  0  0  0  0  0  0  0  0  0
   27.7370   36.0990    6.1560 C   0  0  0  0  0  0  0  0  0  0  0  0
   27.3240   36.3950    7.5700 C   0  0  2  0  0  0  0  0  0  0  0  0
   25.9750   37.0750    7.6440 C   0  0  1  0  0  0  0  0  0  0  0  0
   25.2440   36.4910    8.8300 C   0  0  2  0  0  0  0  0  0  0  0  0
   23.0090   37.0110    8.5100 C   0  0  2  0  0  0  0  0  0  0  0  0
   22.9100   37.8260    9.7810 C   0  0  0  0  0  0  0  0  0  0  0  0
   23.9850   36.0450    8.5500 O   0  0  0  0  0  0  0  0  0  0  0  0
   23.9820   37.3430   10.7260 C   0  0  1  0  0  0  0  0  0  0  0  0
   25.3040   37.4520    9.9950 C   0  0  1  0  0  0  0  0  0  0  0  0
   23.1440   37.8710    7.4160 O   0  0  0  0  0  0  0  0  0  0  0  0
   22.6560   38.7030    7.6650 H   0  0  0  0  0  0  0  0  0  0  0  0
   21.6990   36.3150    8.3450 C   0  0  0  0  0  0  0  0  0  0  0  0
   21.2340   35.6290    9.3180 O   0  0  0  0  0  0  0  0  0  0  0  0
   20.9590   36.3770    7.1840 O   0  0  0  0  0  0  0  0  0  0  0  0
   20.6900   37.2640    6.7660 H   0  0  0  0  0  0  0  0  0  0  0  0
   24.0540   38.1060   11.8760 O   0  0  0  0  0  0  0  0  0  0  0  0
   24.4600   37.5420   12.5820 H   0  0  0  0  0  0  0  0  0  0  0  0
   26.4200   37.2060   10.8710 N   0  0  0  0  0  0  0  0  0  0  0  0
   27.4910   38.1270   10.9940 C   0  0  0  0  0  0  0  0  0  0  0  0
   26.4240   36.3200   11.4230 H   0  0  0  0  0  0  0  0  0  0  0  0
   28.6050   37.7930   11.9230 C   0  0  0  0  0  0  0  0  0  0  0  0
   27.4930   39.1950   10.3320 O   0  0  0  0  0  0  0  0  0  0  0  0
   26.1210   38.4420    7.8680 O   0  0  0  0  0  0  0  0  0  0  0  0
   25.9470   38.9840    7.0810 H   0  0  0  0  0  0  0  0  0  0  0  0
   28.2920   37.2790    8.0930 O   0  0  0  0  0  0  0  0  0  0  0  0
   28.0300   37.5740    9.0100 H   0  0  0  0  0  0  0  0  0  0  0  0
   27.7430   39.2630    4.1130 O   0  0  0  0  0  0  0  0  0  0  0  0
   26.8750   40.3020    4.5320 C   0  0  0  0  0  0  0  0  0  0  0  0
   27.3610   40.8930    5.7950 C   0  0  0  0  0  0  0  0  0  0  0  0
   28.5950   41.4310    6.0750 C   0  0  0  0  0  0  0  0  0  0  0  0
   26.6470   41.0070    6.9250 N   0  0  0  0  0  0  0  0  0  0  0  0
   28.6090   41.8630    7.3710 N   0  0  0  0  0  0  0  0  0  0  0  0
   27.4070   41.5880    7.8560 N   0  0  0  0  0  0  0  0  0  0  0  0
   29.7340   42.4850    8.0250 C   0  0  0  0  0  0  0  0  0  0  0  0
   30.6440   41.4510    8.6320 C   0  0  0  0  0  0  0  0  0  0  0  0
   30.5420   41.1080    9.9130 C   0  0  0  0  0  0  0  0  0  0  0  0
   31.6840   40.7810    7.8280 C   0  0  2  0  0  0  0  0  0  0  0  0
   31.2930   39.9170   10.3940 C   0  0  0  0  0  0  0  0  0  0  0  0
   31.4640   39.2730    8.0210 C   0  0  0  0  0  0  0  0  0  0  0  0
   32.9360   40.6160    8.6660 C   0  0  0  0  0  0  0  0  0  0  0  0
   32.2240   39.4270    9.3280 C   0  0  1  0  0  0  0  0  0  0  0  0
   34.1300   40.1300    7.8930 C   0  0  0  0  0  0  0  0  0  0  0  0
   33.2590   41.7440    9.5870 C   0  0  0  0  0  0  0  0  0  0  0  0
   29.8670   25.5550   16.9770 C   0  0  0  0  0  0  0  0  0  0  0  0
   28.3450   25.7220   17.0260 C   0  0  0  0  0  0  0  0  0  0  0  0
   27.5990   24.4410   16.6870 C   0  0  0  0  0  0  0  0  0  0  0  0
   26.6980   23.9970   17.8060 C   0  0  0  0  0  0  0  0  0  0  0  0
   25.2420   24.1290   17.3700 C   0  0  0  0  0  0  0  0  0  0  0  0
   24.3760   24.4210   18.5370 N   0  0  0  0  0  0  0  0  0  0  0  0
  1  5  1  0  0  0  0
  2  1  1  0  0  0  0
  2  3  2  0  0  0  0
  4  1  1  0  0  0  0
  6  5  1  6  0  0  0
  6  7  1  0  0  0  0
  6 29  1  0  0  0  0
  7 27  1  1  0  0  0
  8  7  1  6  0  0  0
  8 13  1  0  0  0  0
  9 14  1  6  0  0  0
  9 11  1  0  0  0  0
  9 10  1  0  0  0  0
 10 12  1  0  0  0  0
 11  8  1  0  0  0  0
 12 20  1  1  0  0  0
 13 12  1  0  0  0  0
 13 22  1  1  0  0  0
 14 15  1  0  0  0  0
 16  9  1  0  0  0  0
 16 17  2  0  0  0  0
 18 16  1  0  0  0  0
 19 18  1  0  0  0  0
 20 21  1  0  0  0  0
 22 23  1  0  0  0  0
 22 24  1  0  0  0  0
 23 25  1  0  0  0  0
 26 23  2  0  0  0  0
 28 27  1  0  0  0  0
 29 30  1  0  0  0  0
 31 32  1  0  0  0  0
 31  2  1  0  0  0  0
 32 33  1  0  0  0  0
 33 34  2  0  0  0  0
 33 35  1  0  0  0  0
 34 36  1  0  0  0  0
 35 37  2  0  0  0  0
 36 37  1  0  0  0  0
 36 38  1  0  0  0  0
 38 39  1  0  0  0  0
 39 40  2  0  0  0  0
 40 42  1  0  0  0  0
 41 43  1  1  0  0  0
 41 39  1  0  0  0  0
 41 44  1  0  0  0  0
 44 45  1  0  0  0  0
 44 47  1  0  0  0  0
 45 43  1  6  0  0  0
 45 42  1  0  0  0  0
 46 44  1  0  0  0  0
 48 49  1  0  0  0  0
 50 49  1  0  0  0  0
 50 51  1  0  0  0  0
 52 51  1  0  0  0  0
 52 53  1  0  0  0  0
M  END
>  <REMARK>
 VINA RESULT:    -5.637      8.119     13.474
 INTER + INTRA:         -15.423
 INTER:                  -8.661
 INTRA:                  -6.762
 UNBOUND:                -5.337
 SMILES CC(=O)N[C@@H]1[C@@H](O)C[C@](O)(C(=O)O)O[C@H]1C(O)[C@H](O)CNC(=O)OCc1cn(CC2=CC[C@H]3C[C@@H]2C3(C)C)nn1
 SMILES IDX 21 1 22 2 23 3 20 5 18 6 16 7 15 8 9 9 8 10 14 11 6 12 5 13
 SMILES IDX 10 14 11 16 12 17 13 18 7 20 4 22 2 23 1 25 3 26 17 27 19 29
 SMILES IDX 24 31 25 32 26 33 27 34 40 35 28 36 39 37 29 38 30 39 31 40
 SMILES IDX 35 41 32 42 34 43 36 44 33 45 37 46 38 47
 H PARENT 21 4 10 15 13 19 7 21 4 24 17 28 19 30
 Flexibility Score: inf
  4 active torsions:
  status: ('A' for Active; 'I' for Inactive)
    1  A    between atoms: CA   and  CB  
    2  A    between atoms: CB   and  CG  
    3  A    between atoms: CG   and  CD  
    4  A    between atoms: CD   and  CE  

>  <TORSDO>
F 16

>  <BEGIN_>
RES LYS A 131

$$$$
ligand_82_pose_4_2HRL.pdbqt
 OpenBabel07062320523D

  6  5  0  0  0  0  0  0  0  0999 V2000
   33.1930   34.6630    9.2900 C   0  0  0  0  0  0  0  0  0  0  0  0
   32.0600   35.3600   10.0340 C   0  0  0  0  0  0  0  0  0  0  0  0
   30.7850   35.4560    9.2370 C   0  0  0  0  0  0  0  0  0  0  0  0
   29.9560   34.1910    9.3950 C   0  0  0  0  0  0  0  0  0  0  0  0
   28.7740   34.4400   10.3130 C   0  0  0  0  0  0  0  0  0  0  0  0
   27.5520   33.7520    9.8120 N   0  0  0  0  0  0  0  0  0  0  0  0
  1  2  1  0  0  0  0
  3  4  1  0  0  0  0
  3  2  1  0  0  0  0
  4  5  1  0  0  0  0
  6  5  1  0  0  0  0
M  END
>  <EGIN_R>
ES LYS A 135

>  <REMARK>
  4 active torsions:
  status: ('A' for Active; 'I' for Inactive)
    5  A    between atoms: CA   and  CB  
    6  A    between atoms: CB   and  CG  
    7  A    between atoms: CG   and  CD  
    8  A    between atoms: CD   and  CE  

$$$$
