ligand_70_pose_1_2HRL.pdbqt
 OpenBabel07062320523D

 53 55  0  0  1  0  0  0  0  0999 V2000
   25.4200   28.1570   19.0900 C   0  0  0  0  0  0  0  0  0  0  0  0
   26.8720   28.1510   19.4750 C   0  0  2  0  0  0  0  0  0  0  0  0
   27.3010   29.3670   20.2500 C   0  0  1  0  0  0  0  0  0  0  0  0
   28.4680   29.1400   21.1680 C   0  0  2  0  0  0  0  0  0  0  0  0
   30.4970   28.0190   21.0960 C   0  0  2  0  0  0  0  0  0  0  0  0
   30.6800   28.3060   22.5650 C   0  0  0  0  0  0  0  0  0  0  0  0
   29.6460   28.8990   20.4760 O   0  0  0  0  0  0  0  0  0  0  0  0
   29.3620   28.3260   23.2650 C   0  0  1  0  0  0  0  0  0  0  0  0
   28.1920   28.1730   22.2680 C   0  0  1  0  0  0  0  0  0  0  0  0
   30.1280   26.6840   20.9640 O   0  0  0  0  0  0  0  0  0  0  0  0
   29.1650   26.5420   21.0200 H   0  0  0  0  0  0  0  0  0  0  0  0
   31.8370   28.1630   20.4520 C   0  0  0  0  0  0  0  0  0  0  0  0
   32.5440   29.1500   20.7780 O   0  0  0  0  0  0  0  0  0  0  0  0
   32.3180   27.2600   19.5210 O   0  0  0  0  0  0  0  0  0  0  0  0
   33.0790   26.6240   19.7770 H   0  0  0  0  0  0  0  0  0  0  0  0
   29.2890   27.2980   24.2220 O   0  0  0  0  0  0  0  0  0  0  0  0
   28.3460   27.0470   24.3700 H   0  0  0  0  0  0  0  0  0  0  0  0
   26.9670   28.6020   22.9490 N   0  0  0  0  0  0  0  0  0  0  0  0
   26.0730   27.6990   23.5810 C   0  0  0  0  0  0  0  0  0  0  0  0
   26.7220   29.6080   22.9810 H   0  0  0  0  0  0  0  0  0  0  0  0
   24.8320   28.1520   24.2640 C   0  0  0  0  0  0  0  0  0  0  0  0
   26.3110   26.4650   23.5810 O   0  0  0  0  0  0  0  0  0  0  0  0
   27.5900   30.3710   19.3040 O   0  0  0  0  0  0  0  0  0  0  0  0
   28.4420   30.7850   19.5880 H   0  0  0  0  0  0  0  0  0  0  0  0
   27.6890   27.9620   18.3420 O   0  0  0  0  0  0  0  0  0  0  0  0
   27.6880   28.8640   17.8870 H   0  0  0  0  0  0  0  0  0  0  0  0
   25.2660   28.7970   17.8040 N   0  0  0  0  0  0  0  0  0  0  0  0
   24.8050   30.1190   17.6470 C   0  0  0  0  0  0  0  0  0  0  0  0
   25.4980   28.2880   16.9060 H   0  0  0  0  0  0  0  0  0  0  0  0
   24.4960   30.8270   18.6280 O   0  0  0  0  0  0  0  0  0  0  0  0
   24.6640   30.7220   16.3900 O   0  0  0  0  0  0  0  0  0  0  0  0
   25.6000   30.4210   15.3430 C   0  0  0  0  0  0  0  0  0  0  0  0
   26.9800   30.6990   15.7930 C   0  0  0  0  0  0  0  0  0  0  0  0
   27.6090   31.9000   15.8900 C   0  0  0  0  0  0  0  0  0  0  0  0
   27.8470   29.7610   16.1880 N   0  0  0  0  0  0  0  0  0  0  0  0
   28.8660   31.6350   16.3510 N   0  0  0  0  0  0  0  0  0  0  0  0
   28.9880   30.3400   16.5230 N   0  0  0  0  0  0  0  0  0  0  0  0
   29.8780   32.5900   16.6040 C   0  0  0  0  0  0  0  0  0  0  0  0
   30.0000   33.1180   17.8770 C   0  0  0  0  0  0  0  0  0  0  0  0
   30.7180   32.9710   15.5830 C   0  0  0  0  0  0  0  0  0  0  0  0
   30.9610   34.0250   18.1170 N   0  0  0  0  0  0  0  0  0  0  0  0
   31.7070   33.9120   15.8520 C   0  0  0  0  0  0  0  0  0  0  0  0
   31.8080   34.4240   17.1290 C   0  0  0  0  0  0  0  0  0  0  0  0
   32.5510   34.3080   14.8600 C   0  0  0  0  0  0  0  0  0  0  0  0
   32.7890   35.3570   17.3990 C   0  0  0  0  0  0  0  0  0  0  0  0
   33.5450   35.2500   15.1250 C   0  0  0  0  0  0  0  0  0  0  0  0
   33.6560   35.7680   16.3930 C   0  0  0  0  0  0  0  0  0  0  0  0
   29.8670   25.5550   16.9770 C   0  0  0  0  0  0  0  0  0  0  0  0
   28.3450   25.7220   17.0260 C   0  0  0  0  0  0  0  0  0  0  0  0
   27.5990   24.4350   16.7100 C   0  0  0  0  0  0  0  0  0  0  0  0
   27.0250   23.7950   17.9430 C   0  0  0  0  0  0  0  0  0  0  0  0
   25.7830   24.5620   18.3840 C   0  0  0  0  0  0  0  0  0  0  0  0
   25.4230   24.2110   19.7780 N   0  0  0  0  0  0  0  0  0  0  0  0
  2  1  1  6  0  0  0
  2  3  1  0  0  0  0
  3 23  1  6  0  0  0
  4  3  1  6  0  0  0
  4  9  1  0  0  0  0
  5 12  1  6  0  0  0
  5  6  1  0  0  0  0
  6  8  1  0  0  0  0
  7  5  1  0  0  0  0
  7  4  1  0  0  0  0
  8 16  1  1  0  0  0
  9 18  1  1  0  0  0
  9  8  1  0  0  0  0
 10 11  1  0  0  0  0
 10  5  1  0  0  0  0
 12 13  2  0  0  0  0
 14 15  1  0  0  0  0
 14 12  1  0  0  0  0
 16 17  1  0  0  0  0
 18 20  1  0  0  0  0
 18 19  1  0  0  0  0
 19 21  1  0  0  0  0
 22 19  2  0  0  0  0
 23 24  1  0  0  0  0
 25  2  1  0  0  0  0
 26 25  1  0  0  0  0
 27  1  1  0  0  0  0
 28 27  1  0  0  0  0
 28 30  2  0  0  0  0
 29 27  1  0  0  0  0
 31 28  1  0  0  0  0
 32 33  1  0  0  0  0
 32 31  1  0  0  0  0
 33 34  2  0  0  0  0
 33 35  1  0  0  0  0
 34 36  1  0  0  0  0
 35 37  2  0  0  0  0
 36 37  1  0  0  0  0
 36 38  1  0  0  0  0
 38 39  2  0  0  0  0
 39 41  1  0  0  0  0
 40 42  2  0  0  0  0
 40 38  1  0  0  0  0
 42 43  1  0  0  0  0
 43 45  1  0  0  0  0
 43 41  2  0  0  0  0
 44 46  2  0  0  0  0
 44 42  1  0  0  0  0
 46 47  1  0  0  0  0
 47 45  2  0  0  0  0
 48 49  1  0  0  0  0
 50 49  1  0  0  0  0
 50 51  1  0  0  0  0
 51 52  1  0  0  0  0
 52 53  1  0  0  0  0
M  END
>  <REMARK>
 VINA RESULT:    -6.143      2.634      4.203
 INTER + INTRA:         -15.165
 INTER:                  -9.364
 INTRA:                  -5.800
 UNBOUND:                -4.533
 SMILES CC(=O)N[C@@H]1[C@@H](O)C[C@](O)(C(=O)O)O[C@H]1C(O)[C@H](O)CNC(=O)OCc1cn(-c2cnc3ccccc3c2)nn1
 SMILES IDX 20 1 18 2 16 3 15 4 9 5 8 6 14 7 6 8 5 9 10 10 11 12 12 13
 SMILES IDX 13 14 7 16 4 18 2 19 1 21 3 22 17 23 19 25 21 27 22 28 23 30
 SMILES IDX 24 31 25 32 26 33 27 34 40 35 28 36 39 37 29 38 30 39 38 40
 SMILES IDX 31 41 37 42 32 43 36 44 33 45 35 46 34 47
 H PARENT 10 11 13 15 7 17 4 20 17 24 19 26 21 29
 Flexibility Score: inf
  4 active torsions:
  status: ('A' for Active; 'I' for Inactive)
    1  A    between atoms: CA   and  CB  
    2  A    between atoms: CB   and  CG  
    3  A    between atoms: CG   and  CD  
    4  A    between atoms: CD   and  CE  

>  <TORSDO>
F 15

>  <BEGIN_>
RES LYS A 131

$$$$
ligand_70_pose_1_2HRL.pdbqt
 OpenBabel07062320523D

  6  5  0  0  0  0  0  0  0  0999 V2000
   33.1930   34.6630    9.2900 C   0  0  0  0  0  0  0  0  0  0  0  0
   32.0600   35.3600   10.0340 C   0  0  0  0  0  0  0  0  0  0  0  0
   30.6910   35.0070    9.5130 C   0  0  0  0  0  0  0  0  0  0  0  0
   29.6090   35.5960   10.4060 C   0  0  0  0  0  0  0  0  0  0  0  0
   30.0770   35.6470   11.8470 C   0  0  0  0  0  0  0  0  0  0  0  0
   29.4060   34.6000   12.6660 N   0  0  0  0  0  0  0  0  0  0  0  0
  1  2  1  0  0  0  0
  3  2  1  0  0  0  0
  3  4  1  0  0  0  0
  4  5  1  0  0  0  0
  5  6  1  0  0  0  0
M  END
>  <EGIN_R>
ES LYS A 135

>  <REMARK>
  4 active torsions:
  status: ('A' for Active; 'I' for Inactive)
    5  A    between atoms: CA   and  CB  
    6  A    between atoms: CB   and  CG  
    7  A    between atoms: CG   and  CD  
    8  A    between atoms: CD   and  CE  

$$$$
