ligand_0_pose_16_2HRL.pdbqt
 OpenBabel07062320523D

 54 55  0  0  1  0  0  0  0  0999 V2000
   27.9540   38.8550   10.0310 N   0  0  0  0  0  0  0  0  0  0  0  0
   29.0910   38.8520   10.8820 C   0  0  0  0  0  0  0  0  0  0  0  0
   28.9520   38.5320   12.0750 O   0  0  0  0  0  0  0  0  0  0  0  0
   28.1430   39.1390    9.0270 H   0  0  0  0  0  0  0  0  0  0  0  0
   26.6170   38.5080   10.4430 C   0  0  0  0  0  0  0  0  0  0  0  0
   26.3180   37.0300   10.2610 C   0  0  2  0  0  0  0  0  0  0  0  0
   25.8910   36.7130    8.8590 C   0  0  1  0  0  0  0  0  0  0  0  0
   26.9970   36.3830    7.9310 C   0  0  2  0  0  0  0  0  0  0  0  0
   29.2580   35.7950    8.0570 C   0  0  2  0  0  0  0  0  0  0  0  0
   29.0510   35.5570    6.5900 C   0  0  0  0  0  0  0  0  0  0  0  0
   28.1300   36.1100    8.7440 O   0  0  0  0  0  0  0  0  0  0  0  0
   28.2730   36.6240    5.9000 C   0  0  1  0  0  0  0  0  0  0  0  0
   27.4340   37.3730    6.9290 C   0  0  1  0  0  0  0  0  0  0  0  0
   30.2840   36.7550    8.2270 O   0  0  0  0  0  0  0  0  0  0  0  0
   29.9280   37.4670    8.8350 H   0  0  0  0  0  0  0  0  0  0  0  0
   29.8020   34.5270    8.6250 C   0  0  0  0  0  0  0  0  0  0  0  0
   28.9980   33.7490    9.2230 O   0  0  0  0  0  0  0  0  0  0  0  0
   31.1250   34.1530    8.5360 O   0  0  0  0  0  0  0  0  0  0  0  0
   31.4370   33.4990    7.8360 H   0  0  0  0  0  0  0  0  0  0  0  0
   29.1510   37.4740    5.2470 O   0  0  0  0  0  0  0  0  0  0  0  0
   29.7500   37.0130    4.6080 H   0  0  0  0  0  0  0  0  0  0  0  0
   26.4790   38.2320    6.3420 N   0  0  0  0  0  0  0  0  0  0  0  0
   26.4420   39.6150    6.6180 C   0  0  0  0  0  0  0  0  0  0  0  0
   25.7790   37.8700    5.6650 H   0  0  0  0  0  0  0  0  0  0  0  0
   25.4670   40.5590    6.0330 C   0  0  0  0  0  0  0  0  0  0  0  0
   27.2930   40.0740    7.4110 O   0  0  0  0  0  0  0  0  0  0  0  0
   24.7300   35.9860    8.7430 O   0  0  0  0  0  0  0  0  0  0  0  0
   24.9470   35.0240    8.5470 H   0  0  0  0  0  0  0  0  0  0  0  0
   25.5290   36.5270   11.2560 O   0  0  0  0  0  0  0  0  0  0  0  0
   25.0520   37.2550   11.7430 H   0  0  0  0  0  0  0  0  0  0  0  0
   30.3590   39.1950   10.4280 O   0  0  0  0  0  0  0  0  0  0  0  0
   30.6050   40.3860    9.7010 C   0  0  0  0  0  0  0  0  0  0  0  0
   31.0890   40.0620    8.3250 C   0  0  0  0  0  0  0  0  0  0  0  0
   32.3560   40.3240    7.8380 C   0  0  0  0  0  0  0  0  0  0  0  0
   30.4150   39.4740    7.3260 N   0  0  0  0  0  0  0  0  0  0  0  0
   32.3970   39.8770    6.5470 N   0  0  0  0  0  0  0  0  0  0  0  0
   31.2270   39.3780    6.2740 N   0  0  0  0  0  0  0  0  0  0  0  0
   33.5370   39.9710    5.6840 C   0  0  0  0  0  0  0  0  0  0  0  0
   33.6320   40.9290    4.7020 C   0  0  0  0  0  0  0  0  0  0  0  0
   34.5670   39.0540    5.8630 C   0  0  0  0  0  0  0  0  0  0  0  0
   34.7770   40.9560    3.9010 C   0  0  0  0  0  0  0  0  0  0  0  0
   35.6840   39.0960    5.0650 C   0  0  0  0  0  0  0  0  0  0  0  0
   35.7780   40.0500    4.0870 C   0  0  0  0  0  0  0  0  0  0  0  0
   32.5920   41.9180    4.4630 C   0  0  0  0  0  0  0  0  0  0  0  0
   32.8070   43.1040    4.8750 O   0  0  0  0  0  0  0  0  0  0  0  0
   31.3730   41.6130    3.8010 N   0  0  0  0  0  0  0  0  0  0  0  0
   31.3230   41.4230    2.7880 H   0  0  0  0  0  0  0  0  0  0  0  0
   30.4990   41.5970    4.4080 H   0  0  0  0  0  0  0  0  0  0  0  0
   29.8670   25.5550   16.9770 C   0  0  0  0  0  0  0  0  0  0  0  0
   28.3450   25.7220   17.0260 C   0  0  0  0  0  0  0  0  0  0  0  0
   27.6000   24.4100   16.8350 C   0  0  0  0  0  0  0  0  0  0  0  0
   26.6620   24.1200   17.9730 C   0  0  0  0  0  0  0  0  0  0  0  0
   25.6420   23.0730   17.5380 C   0  0  0  0  0  0  0  0  0  0  0  0
   24.2840   23.4500   17.9960 N   0  0  0  0  0  0  0  0  0  0  0  0
  1  5  1  0  0  0  0
  1  2  1  0  0  0  0
  2  3  2  0  0  0  0
  4  1  1  0  0  0  0
  6  5  1  6  0  0  0
  6 29  1  0  0  0  0
  7 27  1  1  0  0  0
  7  6  1  0  0  0  0
  8 11  1  0  0  0  0
  8  7  1  1  0  0  0
  9 14  1  1  0  0  0
  9 16  1  0  0  0  0
  9 11  1  0  0  0  0
 10  9  1  0  0  0  0
 12 20  1  1  0  0  0
 12 10  1  0  0  0  0
 12 13  1  0  0  0  0
 13 22  1  6  0  0  0
 13  8  1  0  0  0  0
 14 15  1  0  0  0  0
 16 17  2  0  0  0  0
 18 16  1  0  0  0  0
 19 18  1  0  0  0  0
 21 20  1  0  0  0  0
 22 23  1  0  0  0  0
 23 26  2  0  0  0  0
 24 22  1  0  0  0  0
 25 23  1  0  0  0  0
 28 27  1  0  0  0  0
 29 30  1  0  0  0  0
 31  2  1  0  0  0  0
 32 31  1  0  0  0  0
 33 32  1  0  0  0  0
 34 33  2  0  0  0  0
 35 33  1  0  0  0  0
 36 34  1  0  0  0  0
 37 36  1  0  0  0  0
 37 35  2  0  0  0  0
 38 40  1  0  0  0  0
 38 36  1  0  0  0  0
 39 38  2  0  0  0  0
 41 43  2  0  0  0  0
 41 39  1  0  0  0  0
 42 40  2  0  0  0  0
 43 42  1  0  0  0  0
 44 39  1  0  0  0  0
 44 45  2  0  0  0  0
 46 48  1  0  0  0  0
 46 44  1  0  0  0  0
 47 46  1  0  0  0  0
 49 50  1  0  0  0  0
 51 50  1  0  0  0  0
 51 52  1  0  0  0  0
 53 52  1  0  0  0  0
 53 54  1  0  0  0  0
M  END
>  <REMARK>
 VINA RESULT:    -5.142      7.561     14.231
 INTER + INTRA:         -14.615
 INTER:                  -9.143
 INTRA:                  -5.472
 UNBOUND:                -5.414
 SMILES CC(=O)N[C@@H]1[C@@H](O)C[C@](O)(C(=O)O)O[C@H]1C(O)[C@H](O)CNC(=O)OCc1cn(-c2ccccc2C(N)=O)nn1
 SMILES IDX 21 1 22 2 23 3 20 5 18 6 16 7 15 8 9 9 8 10 14 11 6 12 5 13
 SMILES IDX 10 14 11 16 12 17 13 18 7 20 4 22 2 23 1 25 3 26 17 27 19 29
 SMILES IDX 24 31 25 32 26 33 27 34 39 35 28 36 38 37 29 38 34 39 30 40
 SMILES IDX 33 41 31 42 32 43 35 44 37 45 36 46
 H PARENT 21 4 10 15 13 19 7 21 4 24 17 28 19 30 36 47 36 48
 Flexibility Score: inf
  4 active torsions:
  status: ('A' for Active; 'I' for Inactive)
    1  A    between atoms: CA   and  CB  
    2  A    between atoms: CB   and  CG  
    3  A    between atoms: CG   and  CD  
    4  A    between atoms: CD   and  CE  

>  <TORSDO>
F 16

>  <BEGIN_>
RES LYS A 131

$$$$
ligand_0_pose_16_2HRL.pdbqt
 OpenBabel07062320523D

  6  5  0  0  0  0  0  0  0  0999 V2000
   33.1930   34.6630    9.2900 C   0  0  0  0  0  0  0  0  0  0  0  0
   32.0600   35.3600   10.0340 C   0  0  0  0  0  0  0  0  0  0  0  0
   32.4860   35.9740   11.3430 C   0  0  0  0  0  0  0  0  0  0  0  0
   31.2950   36.1340   12.2740 C   0  0  0  0  0  0  0  0  0  0  0  0
   30.6580   34.7870   12.5600 C   0  0  0  0  0  0  0  0  0  0  0  0
   29.1830   34.8390   12.3680 N   0  0  0  0  0  0  0  0  0  0  0  0
  1  2  1  0  0  0  0
  2  3  1  0  0  0  0
  3  4  1  0  0  0  0
  4  5  1  0  0  0  0
  6  5  1  0  0  0  0
M  END
>  <EGIN_R>
ES LYS A 135

>  <REMARK>
  4 active torsions:
  status: ('A' for Active; 'I' for Inactive)
    5  A    between atoms: CA   and  CB  
    6  A    between atoms: CB   and  CG  
    7  A    between atoms: CG   and  CD  
    8  A    between atoms: CD   and  CE  

$$$$
