ligand_23_pose_18_2HRL.pdbqt
 OpenBabel07062320523D

 55 56  0  0  1  0  0  0  0  0999 V2000
   29.6990   38.2110   13.3010 N   0  0  0  0  0  0  0  0  0  0  0  0
   29.1050   38.6500   14.5110 C   0  0  0  0  0  0  0  0  0  0  0  0
   28.2180   39.5200   14.4630 O   0  0  0  0  0  0  0  0  0  0  0  0
   30.4440   37.4700   13.4170 H   0  0  0  0  0  0  0  0  0  0  0  0
   29.3220   38.7280   12.0110 C   0  0  0  0  0  0  0  0  0  0  0  0
   29.0140   37.6050   11.0440 C   0  0  2  0  0  0  0  0  0  0  0  0
   28.0040   38.0940   10.0150 C   0  0  1  0  0  0  0  0  0  0  0  0
   27.7310   36.9590    9.0310 C   0  0  2  0  0  0  0  0  0  0  0  0
   29.5120   35.8400    8.0560 C   0  0  2  0  0  0  0  0  0  0  0  0
   28.7590   35.5870    6.7700 C   0  0  0  0  0  0  0  0  0  0  0  0
   28.6770   35.9880    9.1450 O   0  0  0  0  0  0  0  0  0  0  0  0
   27.4880   36.3600    6.6740 C   0  0  1  0  0  0  0  0  0  0  0  0
   27.5600   37.5300    7.6560 C   0  0  1  0  0  0  0  0  0  0  0  0
   30.3560   36.9420    7.9550 O   0  0  0  0  0  0  0  0  0  0  0  0
   30.1030   37.6060    8.6700 H   0  0  0  0  0  0  0  0  0  0  0  0
   30.3600   34.6440    8.3040 C   0  0  0  0  0  0  0  0  0  0  0  0
   29.9880   33.7180    9.0720 O   0  0  0  0  0  0  0  0  0  0  0  0
   31.6080   34.4880    7.6980 O   0  0  0  0  0  0  0  0  0  0  0  0
   31.8840   35.0890    6.9310 H   0  0  0  0  0  0  0  0  0  0  0  0
   27.1930   36.8090    5.3990 O   0  0  0  0  0  0  0  0  0  0  0  0
   27.9880   37.1740    4.9160 H   0  0  0  0  0  0  0  0  0  0  0  0
   26.2950   38.2440    7.6310 N   0  0  0  0  0  0  0  0  0  0  0  0
   26.1020   39.4300    6.8630 C   0  0  0  0  0  0  0  0  0  0  0  0
   25.4890   37.8700    8.2050 H   0  0  0  0  0  0  0  0  0  0  0  0
   24.7650   40.0770    6.9140 C   0  0  0  0  0  0  0  0  0  0  0  0
   27.0590   39.8560    6.1950 O   0  0  0  0  0  0  0  0  0  0  0  0
   26.8270   38.3790   10.6840 O   0  0  0  0  0  0  0  0  0  0  0  0
   26.9980   38.6330   11.6210 H   0  0  0  0  0  0  0  0  0  0  0  0
   28.4670   36.5370   11.7770 O   0  0  0  0  0  0  0  0  0  0  0  0
   27.6470   36.8330   12.2830 H   0  0  0  0  0  0  0  0  0  0  0  0
   29.4950   38.1270   15.7480 O   0  0  0  0  0  0  0  0  0  0  0  0
   28.7460   37.1130   16.3840 C   0  0  0  0  0  0  0  0  0  0  0  0
   28.1600   36.2010   15.3710 C   0  0  0  0  0  0  0  0  0  0  0  0
   26.8380   36.2070   14.9680 C   0  0  0  0  0  0  0  0  0  0  0  0
   28.7590   35.2300   14.6720 N   0  0  0  0  0  0  0  0  0  0  0  0
   26.7350   35.2350   14.0490 N   0  0  0  0  0  0  0  0  0  0  0  0
   27.8990   34.6330   13.8610 N   0  0  0  0  0  0  0  0  0  0  0  0
   25.5400   34.8800   13.3560 C   0  0  0  0  0  0  0  0  0  0  0  0
   25.0600   35.5970   12.2820 C   0  0  0  0  0  0  0  0  0  0  0  0
   24.8050   33.7740   13.7500 C   0  0  0  0  0  0  0  0  0  0  0  0
   23.8910   35.2430   11.6100 C   0  0  0  0  0  0  0  0  0  0  0  0
   23.6560   33.4060   13.1060 C   0  0  0  0  0  0  0  0  0  0  0  0
   23.2010   34.1420   12.0380 C   0  0  0  0  0  0  0  0  0  0  0  0
   23.2920   36.1500   10.2590 S   0  0  0  0  0  0  0  0  0  0  0  0
   23.2180   35.2290    9.0680 O   0  0  0  0  0  0  0  0  0  0  0  0
   24.2860   37.2300    9.9030 O   0  0  0  0  0  0  0  0  0  0  0  0
   21.7330   36.7980   10.5680 N   0  0  0  0  0  0  0  0  0  0  0  0
   21.3360   36.3650   11.4210 H   0  0  0  0  0  0  0  0  0  0  0  0
   21.0900   36.6970    9.7550 H   0  0  0  0  0  0  0  0  0  0  0  0
   29.8670   25.5550   16.9770 C   0  0  0  0  0  0  0  0  0  0  0  0
   28.3450   25.7220   17.0260 C   0  0  0  0  0  0  0  0  0  0  0  0
   27.6010   24.4030   16.8880 C   0  0  0  0  0  0  0  0  0  0  0  0
   26.5390   24.2380   17.9390 C   0  0  0  0  0  0  0  0  0  0  0  0
   25.3880   25.1990   17.6550 C   0  0  0  0  0  0  0  0  0  0  0  0
   24.3660   24.5460   16.8040 N   0  0  0  0  0  0  0  0  0  0  0  0
  1  4  1  0  0  0  0
  1  2  1  0  0  0  0
  2 31  1  0  0  0  0
  3  2  2  0  0  0  0
  5  1  1  0  0  0  0
  6 29  1  0  0  0  0
  6  5  1  1  0  0  0
  7 27  1  1  0  0  0
  7  6  1  0  0  0  0
  8 11  1  0  0  0  0
  8  7  1  1  0  0  0
  9 14  1  6  0  0  0
  9 16  1  0  0  0  0
  9 11  1  0  0  0  0
 10  9  1  0  0  0  0
 12 20  1  6  0  0  0
 12 10  1  0  0  0  0
 12 13  1  0  0  0  0
 13 22  1  1  0  0  0
 13  8  1  0  0  0  0
 14 15  1  0  0  0  0
 16 17  2  0  0  0  0
 18 16  1  0  0  0  0
 19 18  1  0  0  0  0
 21 20  1  0  0  0  0
 22 24  1  0  0  0  0
 23 25  1  0  0  0  0
 23 22  1  0  0  0  0
 26 23  2  0  0  0  0
 27 28  1  0  0  0  0
 29 30  1  0  0  0  0
 31 32  1  0  0  0  0
 33 32  1  0  0  0  0
 34 33  2  0  0  0  0
 35 33  1  0  0  0  0
 36 34  1  0  0  0  0
 37 36  1  0  0  0  0
 37 35  2  0  0  0  0
 38 40  1  0  0  0  0
 38 36  1  0  0  0  0
 39 38  2  0  0  0  0
 41 43  2  0  0  0  0
 41 39  1  0  0  0  0
 42 40  2  0  0  0  0
 43 42  1  0  0  0  0
 44 47  1  0  0  0  0
 44 41  1  0  0  0  0
 45 44  2  0  0  0  0
 46 44  2  0  0  0  0
 47 48  1  0  0  0  0
 49 47  1  0  0  0  0
 50 51  1  0  0  0  0
 52 51  1  0  0  0  0
 52 53  1  0  0  0  0
 54 53  1  0  0  0  0
 55 54  1  0  0  0  0
M  END
>  <REMARK>
 VINA RESULT:    -4.087      3.228      4.776
 INTER + INTRA:         -14.056
 INTER:                  -9.058
 INTRA:                  -4.999
 UNBOUND:                -6.624
 SMILES CC(=O)N[C@@H]1[C@@H](O)C[C@](O)(C(=O)O)O[C@H]1C(O)[C@H](O)CNC(=O)OCc1cn(-c2cccc(S(N)(=O)=O)c2)nn1
 SMILES IDX 21 1 22 2 23 3 20 5 18 6 16 7 15 8 9 9 8 10 14 11 6 12 5 13
 SMILES IDX 10 14 11 16 12 17 13 18 7 20 4 22 2 23 1 25 3 26 17 27 19 29
 SMILES IDX 24 31 25 32 26 33 27 34 40 35 28 36 39 37 29 38 38 39 30 40
 SMILES IDX 33 41 31 42 32 43 34 44 36 45 37 46 35 47
 H PARENT 21 4 10 15 13 19 7 21 4 24 17 28 19 30 35 48 35 49
 Flexibility Score: inf
  4 active torsions:
  status: ('A' for Active; 'I' for Inactive)
    1  A    between atoms: CA   and  CB  
    2  A    between atoms: CB   and  CG  
    3  A    between atoms: CG   and  CD  
    4  A    between atoms: CD   and  CE  

>  <TORSDO>
F 17

>  <BEGIN_>
RES LYS A 131

$$$$
ligand_23_pose_18_2HRL.pdbqt
 OpenBabel07062320523D

  6  5  0  0  0  0  0  0  0  0999 V2000
   33.1930   34.6630    9.2900 C   0  0  0  0  0  0  0  0  0  0  0  0
   32.0600   35.3600   10.0340 C   0  0  0  0  0  0  0  0  0  0  0  0
   32.5100   36.0820   11.2780 C   0  0  0  0  0  0  0  0  0  0  0  0
   31.8180   35.5160   12.5080 C   0  0  0  0  0  0  0  0  0  0  0  0
   32.7830   35.4410   13.6750 C   0  0  0  0  0  0  0  0  0  0  0  0
   32.2420   36.1560   14.8650 N   0  0  0  0  0  0  0  0  0  0  0  0
  1  2  1  0  0  0  0
  2  3  1  0  0  0  0
  3  4  1  0  0  0  0
  4  5  1  0  0  0  0
  5  6  1  0  0  0  0
M  END
>  <EGIN_R>
ES LYS A 135

>  <REMARK>
  4 active torsions:
  status: ('A' for Active; 'I' for Inactive)
    5  A    between atoms: CA   and  CB  
    6  A    between atoms: CB   and  CG  
    7  A    between atoms: CG   and  CD  
    8  A    between atoms: CD   and  CE  

$$$$
