ligand_91_pose_15_2HRL.pdbqt
 OpenBabel07062320523D

 57 60  0  0  1  0  0  0  0  0999 V2000
   24.3880   37.7510    7.8760 C   0  0  0  0  0  0  0  0  0  0  0  0
   22.9690   37.2540    7.8310 C   0  0  2  0  0  0  0  0  0  0  0  0
   22.9060   36.0300    8.6900 C   0  0  2  0  0  0  0  0  0  0  0  0
   21.4920   35.6110    9.0650 C   0  0  2  0  0  0  0  0  0  0  0  0
   19.3510   36.1770    8.5880 C   0  0  2  0  0  0  0  0  0  0  0  0
   18.8990   36.3410   10.0150 C   0  0  0  0  0  0  0  0  0  0  0  0
   20.6620   36.4780    8.4100 O   0  0  0  0  0  0  0  0  0  0  0  0
   20.0410   36.3810   10.9880 C   0  0  1  0  0  0  0  0  0  0  0  0
   21.2600   35.6510   10.5310 C   0  0  1  0  0  0  0  0  0  0  0  0
   18.6420   37.1380    7.7930 O   0  0  0  0  0  0  0  0  0  0  0  0
   17.9170   37.5370    8.3320 H   0  0  0  0  0  0  0  0  0  0  0  0
   18.9030   34.8690    8.0510 C   0  0  0  0  0  0  0  0  0  0  0  0
   18.3350   34.0100    8.7760 O   0  0  0  0  0  0  0  0  0  0  0  0
   19.0810   34.5040    6.7070 O   0  0  0  0  0  0  0  0  0  0  0  0
   18.3930   34.7830    6.0260 H   0  0  0  0  0  0  0  0  0  0  0  0
   20.3340   37.7180   11.2760 O   0  0  0  0  0  0  0  0  0  0  0  0
   20.9220   38.1150   10.5870 H   0  0  0  0  0  0  0  0  0  0  0  0
   21.2830   34.3310   11.1700 N   0  0  0  0  0  0  0  0  0  0  0  0
   22.3120   33.9320   12.0670 C   0  0  0  0  0  0  0  0  0  0  0  0
   20.5360   33.6230   10.9920 H   0  0  0  0  0  0  0  0  0  0  0  0
   22.3170   32.5820   12.7120 C   0  0  0  0  0  0  0  0  0  0  0  0
   23.2520   34.7230   12.3360 O   0  0  0  0  0  0  0  0  0  0  0  0
   23.6100   36.2590    9.8620 O   0  0  0  0  0  0  0  0  0  0  0  0
   23.2520   37.0840   10.2710 H   0  0  0  0  0  0  0  0  0  0  0  0
   22.5800   37.0320    6.5310 O   0  0  0  0  0  0  0  0  0  0  0  0
   23.3060   37.3840    5.9320 H   0  0  0  0  0  0  0  0  0  0  0  0
   24.7500   38.7230    6.9030 N   0  0  0  0  0  0  0  0  0  0  0  0
   25.1190   40.0530    7.1910 C   0  0  0  0  0  0  0  0  0  0  0  0
   24.7610   38.4830    5.8480 H   0  0  0  0  0  0  0  0  0  0  0  0
   25.1450   40.4890    8.3600 O   0  0  0  0  0  0  0  0  0  0  0  0
   25.4790   40.9590    6.1810 O   0  0  0  0  0  0  0  0  0  0  0  0
   26.2230   40.5170    5.0450 C   0  0  0  0  0  0  0  0  0  0  0  0
   27.3740   39.7270    5.5430 C   0  0  0  0  0  0  0  0  0  0  0  0
   28.4120   40.1890    6.3250 C   0  0  0  0  0  0  0  0  0  0  0  0
   27.6590   38.4160    5.3510 N   0  0  0  0  0  0  0  0  0  0  0  0
   29.2720   39.1900    6.5820 N   0  0  0  0  0  0  0  0  0  0  0  0
   28.7970   38.1210    5.9810 N   0  0  0  0  0  0  0  0  0  0  0  0
   30.4580   39.2470    7.3460 C   0  0  0  0  0  0  0  0  0  0  0  0
   30.4490   38.8720    8.6930 C   0  0  0  0  0  0  0  0  0  0  0  0
   31.6610   39.6650    6.8030 C   0  0  0  0  0  0  0  0  0  0  0  0
   29.2820   38.4470    9.2920 C   0  0  0  0  0  0  0  0  0  0  0  0
   31.5760   38.9120    9.4510 C   0  0  0  0  0  0  0  0  0  0  0  0
   32.7920   39.6980    7.5900 C   0  0  0  0  0  0  0  0  0  0  0  0
   31.6680   40.0350    5.4820 C   0  0  0  0  0  0  0  0  0  0  0  0
   29.2200   38.0670   10.6150 C   0  0  0  0  0  0  0  0  0  0  0  0
   31.5290   38.5310   10.7890 C   0  0  0  0  0  0  0  0  0  0  0  0
   32.7270   39.3240    8.8860 N   0  0  0  0  0  0  0  0  0  0  0  0
   33.9630   40.1210    7.0080 C   0  0  0  0  0  0  0  0  0  0  0  0
   32.8740   40.4610    4.9200 C   0  0  0  0  0  0  0  0  0  0  0  0
   30.3750   38.1040   11.4050 C   0  0  0  0  0  0  0  0  0  0  0  0
   34.0280   40.5090    5.6710 C   0  0  0  0  0  0  0  0  0  0  0  0
   29.8670   25.5550   16.9770 C   0  0  0  0  0  0  0  0  0  0  0  0
   28.3450   25.7220   17.0260 C   0  0  0  0  0  0  0  0  0  0  0  0
   27.6010   24.4040   16.8790 C   0  0  0  0  0  0  0  0  0  0  0  0
   26.5750   24.2090   17.9610 C   0  0  0  0  0  0  0  0  0  0  0  0
   25.6360   25.4110   17.9940 C   0  0  0  0  0  0  0  0  0  0  0  0
   24.3180   25.0550   17.4170 N   0  0  0  0  0  0  0  0  0  0  0  0
  2  1  1  6  0  0  0
  2  3  1  0  0  0  0
  3 23  1  1  0  0  0
  4  3  1  1  0  0  0
  4  9  1  0  0  0  0
  5 10  1  6  0  0  0
  5  6  1  0  0  0  0
  6  8  1  0  0  0  0
  7  5  1  0  0  0  0
  7  4  1  0  0  0  0
  8 16  1  6  0  0  0
  9  8  1  0  0  0  0
  9 18  1  6  0  0  0
 10 11  1  0  0  0  0
 12  5  1  0  0  0  0
 12 13  2  0  0  0  0
 14 12  1  0  0  0  0
 15 14  1  0  0  0  0
 17 16  1  0  0  0  0
 18 19  1  0  0  0  0
 19 22  2  0  0  0  0
 19 21  1  0  0  0  0
 20 18  1  0  0  0  0
 23 24  1  0  0  0  0
 25  2  1  0  0  0  0
 26 25  1  0  0  0  0
 27 28  1  0  0  0  0
 27  1  1  0  0  0  0
 28 30  2  0  0  0  0
 29 27  1  0  0  0  0
 31 28  1  0  0  0  0
 32 33  1  0  0  0  0
 32 31  1  0  0  0  0
 33 34  2  0  0  0  0
 34 36  1  0  0  0  0
 35 33  1  0  0  0  0
 35 37  2  0  0  0  0
 36 38  1  0  0  0  0
 37 36  1  0  0  0  0
 38 39  1  0  0  0  0
 39 41  2  0  0  0  0
 39 42  1  0  0  0  0
 40 38  2  0  0  0  0
 40 43  1  0  0  0  0
 41 45  1  0  0  0  0
 42 46  2  0  0  0  0
 43 47  2  0  0  0  0
 44 40  1  0  0  0  0
 45 50  2  0  0  0  0
 46 50  1  0  0  0  0
 47 42  1  0  0  0  0
 48 43  1  0  0  0  0
 49 44  2  0  0  0  0
 49 51  1  0  0  0  0
 51 48  2  0  0  0  0
 52 53  1  0  0  0  0
 54 53  1  0  0  0  0
 54 55  1  0  0  0  0
 55 56  1  0  0  0  0
 57 56  1  0  0  0  0
M  END
>  <REMARK>
 VINA RESULT:    -5.135      3.379      7.803
 INTER + INTRA:         -14.971
 INTER:                 -10.154
 INTRA:                  -4.817
 UNBOUND:                -6.084
 SMILES CC(=O)N[C@@H]1[C@@H](O)C[C@](O)(C(=O)O)O[C@H]1C(O)[C@H](O)CNC(=O)OCc1cn(-c2c3ccccc3nc3ccccc23)nn1
 SMILES IDX 20 1 18 2 16 3 15 4 9 5 8 6 14 7 6 8 5 9 10 10 11 12 12 13
 SMILES IDX 13 14 7 16 4 18 2 19 1 21 3 22 17 23 19 25 21 27 22 28 23 30
 SMILES IDX 24 31 25 32 26 33 27 34 44 35 28 36 43 37 29 38 30 39 42 40
 SMILES IDX 31 41 35 42 37 43 41 44 32 45 34 46 36 47 38 48 40 49 33 50
 SMILES IDX 39 51
 H PARENT 10 11 13 15 7 17 4 20 17 24 19 26 21 29
 Flexibility Score: inf
  4 active torsions:
  status: ('A' for Active; 'I' for Inactive)
    1  A    between atoms: CA   and  CB  
    2  A    between atoms: CB   and  CG  
    3  A    between atoms: CG   and  CD  
    4  A    between atoms: CD   and  CE  

>  <TORSDO>
F 15

>  <BEGIN_>
RES LYS A 131

$$$$
ligand_91_pose_15_2HRL.pdbqt
 OpenBabel07062320523D

  6  5  0  0  0  0  0  0  0  0999 V2000
   33.1930   34.6630    9.2900 C   0  0  0  0  0  0  0  0  0  0  0  0
   32.0600   35.3600   10.0340 C   0  0  0  0  0  0  0  0  0  0  0  0
   30.7040   34.7600    9.7650 C   0  0  0  0  0  0  0  0  0  0  0  0
   30.3880   34.7930    8.2780 C   0  0  0  0  0  0  0  0  0  0  0  0
   28.8880   34.7920    8.0520 C   0  0  0  0  0  0  0  0  0  0  0  0
   28.1840   34.0470    9.1320 N   0  0  0  0  0  0  0  0  0  0  0  0
  1  2  1  0  0  0  0
  3  2  1  0  0  0  0
  4  3  1  0  0  0  0
  5  4  1  0  0  0  0
  5  6  1  0  0  0  0
M  END
>  <EGIN_R>
ES LYS A 135

>  <REMARK>
  4 active torsions:
  status: ('A' for Active; 'I' for Inactive)
    5  A    between atoms: CA   and  CB  
    6  A    between atoms: CB   and  CG  
    7  A    between atoms: CG   and  CD  
    8  A    between atoms: CD   and  CE  

$$$$
