ligand_5_pose_14_2HRL.pdbqt
 OpenBabel07062320523D

 51 52  0  0  1  0  0  0  0  0999 V2000
   32.8550   35.6780   16.6050 N   0  0  0  0  0  0  0  0  0  0  0  0
   32.1760   36.6300   15.8140 C   0  0  0  0  0  0  0  0  0  0  0  0
   31.3340   37.4070   16.2870 O   0  0  0  0  0  0  0  0  0  0  0  0
   33.5340   35.0550   16.0600 H   0  0  0  0  0  0  0  0  0  0  0  0
   32.7580   35.4470   17.9890 C   0  0  0  0  0  0  0  0  0  0  0  0
   31.8240   34.4480   18.5030 C   0  0  2  0  0  0  0  0  0  0  0  0
   30.3990   34.6850   18.4440 C   0  0  1  0  0  0  0  0  0  0  0  0
   29.5700   33.6720   17.6250 C   0  0  2  0  0  0  0  0  0  0  0  0
   29.6780   31.3160   17.6180 C   0  0  2  0  0  0  0  0  0  0  0  0
   30.5110   31.3320   16.3260 C   0  0  0  0  0  0  0  0  0  0  0  0
   29.8990   32.4770   18.2410 O   0  0  0  0  0  0  0  0  0  0  0  0
   29.9200   32.3870   15.4730 C   0  0  1  0  0  0  0  0  0  0  0  0
   29.7660   33.7450   16.1820 C   0  0  1  0  0  0  0  0  0  0  0  0
   30.3350   30.3320   18.4050 O   0  0  0  0  0  0  0  0  0  0  0  0
   31.2890   30.2600   18.1570 H   0  0  0  0  0  0  0  0  0  0  0  0
   28.3080   30.8840   17.4240 C   0  0  0  0  0  0  0  0  0  0  0  0
   28.0500   29.9040   16.6810 O   0  0  0  0  0  0  0  0  0  0  0  0
   27.1820   31.4710   18.0050 O   0  0  0  0  0  0  0  0  0  0  0  0
   26.9010   31.2790   18.9700 H   0  0  0  0  0  0  0  0  0  0  0  0
   30.6480   32.6390   14.3000 O   0  0  0  0  0  0  0  0  0  0  0  0
   30.1690   33.4120   13.8650 H   0  0  0  0  0  0  0  0  0  0  0  0
   28.7460   34.3730   15.4010 N   0  0  0  0  0  0  0  0  0  0  0  0
   27.3870   34.4810   15.6990 C   0  0  0  0  0  0  0  0  0  0  0  0
   29.0820   34.8030   14.4880 H   0  0  0  0  0  0  0  0  0  0  0  0
   26.4330   35.1680   14.7740 C   0  0  0  0  0  0  0  0  0  0  0  0
   27.0000   33.9830   16.7610 O   0  0  0  0  0  0  0  0  0  0  0  0
   29.8770   34.8150   19.7270 O   0  0  0  0  0  0  0  0  0  0  0  0
   30.5160   35.2410   20.3520 H   0  0  0  0  0  0  0  0  0  0  0  0
   32.2640   33.9960   19.7800 O   0  0  0  0  0  0  0  0  0  0  0  0
   33.0190   34.5590   20.0940 H   0  0  0  0  0  0  0  0  0  0  0  0
   32.4300   36.7410   14.4310 O   0  0  0  0  0  0  0  0  0  0  0  0
   31.5490   37.4770   13.6190 C   0  0  0  0  0  0  0  0  0  0  0  0
   30.5350   36.5780   13.0450 C   0  0  0  0  0  0  0  0  0  0  0  0
   29.4280   37.0260   12.3150 C   0  0  0  0  0  0  0  0  0  0  0  0
   30.4190   35.2530   13.0660 N   0  0  0  0  0  0  0  0  0  0  0  0
   28.7080   35.9540   11.9370 N   0  0  0  0  0  0  0  0  0  0  0  0
   29.3470   34.8900   12.4150 N   0  0  0  0  0  0  0  0  0  0  0  0
   27.5070   35.9480   11.1780 C   0  0  0  0  0  0  0  0  0  0  0  0
   26.6510   34.8710   11.1360 C   0  0  0  0  0  0  0  0  0  0  0  0
   27.1380   37.0680   10.4290 C   0  0  0  0  0  0  0  0  0  0  0  0
   25.4790   34.8850   10.3900 C   0  0  0  0  0  0  0  0  0  0  0  0
   25.9730   37.0800    9.6880 C   0  0  0  0  0  0  0  0  0  0  0  0
   25.1290   35.9940    9.6570 C   0  0  0  0  0  0  0  0  0  0  0  0
   23.9790   36.0030    8.9280 O   0  0  0  0  0  0  0  0  0  0  0  0
   22.7650   35.5910    9.5200 C   0  0  0  0  0  0  0  0  0  0  0  0
   29.8670   25.5550   16.9770 C   0  0  0  0  0  0  0  0  0  0  0  0
   28.3450   25.7220   17.0260 C   0  0  0  0  0  0  0  0  0  0  0  0
   27.6010   24.4030   16.8880 C   0  0  0  0  0  0  0  0  0  0  0  0
   26.5430   24.2360   17.9430 C   0  0  0  0  0  0  0  0  0  0  0  0
   25.1960   23.9780   17.2770 C   0  0  0  0  0  0  0  0  0  0  0  0
   24.7970   22.5600   17.4420 N   0  0  0  0  0  0  0  0  0  0  0  0
  1  5  1  0  0  0  0
  2  3  2  0  0  0  0
  2  1  1  0  0  0  0
  4  1  1  0  0  0  0
  6  5  1  1  0  0  0
  6 29  1  0  0  0  0
  7  6  1  0  0  0  0
  7 27  1  1  0  0  0
  8 11  1  0  0  0  0
  8  7  1  1  0  0  0
  9 16  1  6  0  0  0
  9 11  1  0  0  0  0
  9 14  1  0  0  0  0
 10  9  1  0  0  0  0
 12 20  1  6  0  0  0
 12 13  1  0  0  0  0
 12 10  1  0  0  0  0
 13 22  1  6  0  0  0
 13  8  1  0  0  0  0
 15 14  1  0  0  0  0
 16 18  1  0  0  0  0
 17 16  2  0  0  0  0
 18 19  1  0  0  0  0
 21 20  1  0  0  0  0
 22 23  1  0  0  0  0
 23 26  2  0  0  0  0
 24 22  1  0  0  0  0
 25 23  1  0  0  0  0
 27 28  1  0  0  0  0
 29 30  1  0  0  0  0
 31  2  1  0  0  0  0
 32 31  1  0  0  0  0
 33 35  1  0  0  0  0
 33 32  1  0  0  0  0
 34 33  2  0  0  0  0
 36 34  1  0  0  0  0
 36 37  1  0  0  0  0
 37 35  2  0  0  0  0
 38 36  1  0  0  0  0
 39 38  1  0  0  0  0
 40 38  2  0  0  0  0
 41 39  2  0  0  0  0
 42 40  1  0  0  0  0
 43 42  2  0  0  0  0
 43 41  1  0  0  0  0
 44 45  1  0  0  0  0
 44 43  1  0  0  0  0
 46 47  1  0  0  0  0
 48 47  1  0  0  0  0
 48 49  1  0  0  0  0
 50 51  1  0  0  0  0
 50 49  1  0  0  0  0
M  END
>  <REMARK>
 VINA RESULT:    -4.868      5.154      8.620
 INTER + INTRA:         -13.936
 INTER:                  -8.061
 INTRA:                  -5.875
 UNBOUND:                -5.226
 SMILES COc1ccc(-n2cc(COC(=O)NC[C@@H](O)C(O)[C@@H]3O[C@@](O)(C(=O)O)C[C@H](O)[C@H]3NC(C)=O)nn2)cc1
 SMILES IDX 14 1 12 2 13 3 15 5 16 6 18 7 20 8 22 9 27 10 21 11 28 12
 SMILES IDX 30 13 23 14 24 16 25 17 26 18 29 20 31 22 32 23 33 25 34 26
 SMILES IDX 19 27 17 29 11 31 10 32 9 33 8 34 35 35 7 36 36 37 6 38 5 39
 SMILES IDX 37 40 4 41 38 42 3 43 2 44 1 45
 H PARENT 14 4 23 15 26 19 29 21 31 24 19 28 17 30
 Flexibility Score: inf
  4 active torsions:
  status: ('A' for Active; 'I' for Inactive)
    1  A    between atoms: CA   and  CB  
    2  A    between atoms: CB   and  CG  
    3  A    between atoms: CG   and  CD  
    4  A    between atoms: CD   and  CE  

>  <TORSDO>
F 16

>  <BEGIN_>
RES LYS A 131

$$$$
ligand_5_pose_14_2HRL.pdbqt
 OpenBabel07062320523D

  6  5  0  0  0  0  0  0  0  0999 V2000
   33.1930   34.6630    9.2900 C   0  0  0  0  0  0  0  0  0  0  0  0
   32.0600   35.3600   10.0340 C   0  0  0  0  0  0  0  0  0  0  0  0
   30.8350   35.5910    9.1870 C   0  0  0  0  0  0  0  0  0  0  0  0
   30.0970   34.2840    8.9430 C   0  0  0  0  0  0  0  0  0  0  0  0
   28.8600   34.5210    8.0980 C   0  0  0  0  0  0  0  0  0  0  0  0
   28.9070   35.8560    7.4410 N   0  0  0  0  0  0  0  0  0  0  0  0
  1  2  1  0  0  0  0
  3  2  1  0  0  0  0
  4  3  1  0  0  0  0
  5  4  1  0  0  0  0
  6  5  1  0  0  0  0
M  END
>  <EGIN_R>
ES LYS A 135

>  <REMARK>
  4 active torsions:
  status: ('A' for Active; 'I' for Inactive)
    5  A    between atoms: CA   and  CB  
    6  A    between atoms: CB   and  CG  
    7  A    between atoms: CG   and  CD  
    8  A    between atoms: CD   and  CE  

$$$$
