ligand_30_pose_7_2HRL.pdbqt
 OpenBabel07062320523D

 57 57  0  0  1  0  0  0  0  0999 V2000
   29.8080   35.2000   14.0540 C   0  0  0  0  0  0  0  0  0  0  0  0
   29.2860   34.1060   14.8260 N   0  0  0  0  0  0  0  0  0  0  0  0
   28.8690   32.1550   15.7400 C   0  0  0  0  0  0  0  0  0  0  0  0
   29.6750   32.7990   14.8390 C   0  0  0  0  0  0  0  0  0  0  0  0
   28.0190   33.0730   16.2500 N   0  0  0  0  0  0  0  0  0  0  0  0
   28.2940   34.2180   15.6860 N   0  0  0  0  0  0  0  0  0  0  0  0
   28.9430   30.7160   16.0700 C   0  0  0  0  0  0  0  0  0  0  0  0
   27.7530   30.0570   15.6950 O   0  0  0  0  0  0  0  0  0  0  0  0
   27.0620   29.2680   16.6040 C   0  0  0  0  0  0  0  0  0  0  0  0
   27.7400   28.4750   17.5690 N   0  0  0  0  0  0  0  0  0  0  0  0
   28.7810   28.4700   17.6100 H   0  0  0  0  0  0  0  0  0  0  0  0
   25.7840   29.2720   16.5560 O   0  0  0  0  0  0  0  0  0  0  0  0
   26.9890   27.6790   18.4880 C   0  0  0  0  0  0  0  0  0  0  0  0
   26.8890   28.3090   19.8610 C   0  0  2  0  0  0  0  0  0  0  0  0
   28.1290   28.0190   20.6510 C   0  0  2  0  0  0  0  0  0  0  0  0
   28.8600   29.3080   20.9570 C   0  0  2  0  0  0  0  0  0  0  0  0
   28.8150   31.5690   20.4490 C   0  0  2  0  0  0  0  0  0  0  0  0
   30.2700   31.5060   20.8580 C   0  0  0  0  0  0  0  0  0  0  0  0
   28.2710   30.3120   20.2370 O   0  0  0  0  0  0  0  0  0  0  0  0
   30.9250   30.3870   20.0970 C   0  0  1  0  0  0  0  0  0  0  0  0
   30.3180   29.0860   20.6420 C   0  0  1  0  0  0  0  0  0  0  0  0
   28.7720   32.2420   19.2320 O   0  0  0  0  0  0  0  0  0  0  0  0
   28.4540   33.1660   19.3440 H   0  0  0  0  0  0  0  0  0  0  0  0
   28.0990   32.3530   21.4560 C   0  0  0  0  0  0  0  0  0  0  0  0
   28.4880   33.5160   21.7200 O   0  0  0  0  0  0  0  0  0  0  0  0
   26.9930   31.8930   22.1580 O   0  0  0  0  0  0  0  0  0  0  0  0
   26.5330   31.0270   21.8360 H   0  0  0  0  0  0  0  0  0  0  0  0
   30.7230   30.5210   18.7400 O   0  0  0  0  0  0  0  0  0  0  0  0
   31.0560   31.4130   18.4670 H   0  0  0  0  0  0  0  0  0  0  0  0
   31.0720   28.7780   21.8390 N   0  0  0  0  0  0  0  0  0  0  0  0
   31.7410   27.5330   21.9120 C   0  0  0  0  0  0  0  0  0  0  0  0
   31.1370   29.4470   22.6460 H   0  0  0  0  0  0  0  0  0  0  0  0
   32.5310   27.1770   23.1310 C   0  0  0  0  0  0  0  0  0  0  0  0
   31.6750   26.7290   20.9630 O   0  0  0  0  0  0  0  0  0  0  0  0
   28.9150   27.1320   19.9080 O   0  0  0  0  0  0  0  0  0  0  0  0
   29.3520   27.5480   19.1440 H   0  0  0  0  0  0  0  0  0  0  0  0
   25.7970   27.8130   20.5720 O   0  0  0  0  0  0  0  0  0  0  0  0
   25.0250   28.4050   20.5000 H   0  0  0  0  0  0  0  0  0  0  0  0
   28.7010   35.7850   13.2190 C   0  0  0  0  0  0  0  0  0  0  0  0
   28.3010   34.9000   12.0740 C   0  0  0  0  0  0  0  0  0  0  0  0
   26.8320   34.5610   12.0910 C   0  0  0  0  0  0  0  0  0  0  0  0
   26.2650   34.6730   10.6780 C   0  0  0  0  0  0  0  0  0  0  0  0
   27.2760   34.1270    9.7050 C   0  0  0  0  0  0  0  0  0  0  0  0
   27.0660   34.6740    8.3230 C   0  0  0  0  0  0  0  0  0  0  0  0
   26.6490   36.1060    8.3810 C   0  0  0  0  0  0  0  0  0  0  0  0
   26.6370   36.7310    6.9890 C   0  0  0  0  0  0  0  0  0  0  0  0
   27.8110   36.2890    6.1590 C   0  0  0  0  0  0  0  0  0  0  0  0
   28.2930   37.5000    5.4240 C   0  0  0  0  0  0  0  0  0  0  0  0
   29.4340   37.9850    5.5710 O   0  0  0  0  0  0  0  0  0  0  0  0
   27.4340   38.1320    4.5230 O   0  0  0  0  0  0  0  0  0  0  0  0
   27.2790   39.1220    4.6100 H   0  0  0  0  0  0  0  0  0  0  0  0
   29.8670   25.5550   16.9770 C   0  0  0  0  0  0  0  0  0  0  0  0
   28.3450   25.7220   17.0260 C   0  0  0  0  0  0  0  0  0  0  0  0
   27.6030   24.3960   16.9660 C   0  0  0  0  0  0  0  0  0  0  0  0
   26.1550   24.5390   17.3450 C   0  0  0  0  0  0  0  0  0  0  0  0
   25.7530   23.3910   18.2650 C   0  0  0  0  0  0  0  0  0  0  0  0
   25.3800   22.1960   17.4710 N   0  0  0  0  0  0  0  0  0  0  0  0
  1  2  1  0  0  0  0
  2  4  1  0  0  0  0
  2  6  1  0  0  0  0
  3  7  1  0  0  0  0
  3  5  1  0  0  0  0
  4  3  2  0  0  0  0
  6  5  2  0  0  0  0
  8  7  1  0  0  0  0
  8  9  1  0  0  0  0
  9 10  1  0  0  0  0
 10 11  1  0  0  0  0
 10 13  1  0  0  0  0
 12  9  2  0  0  0  0
 14 13  1  6  0  0  0
 14 37  1  0  0  0  0
 14 15  1  0  0  0  0
 15 35  1  6  0  0  0
 16 15  1  6  0  0  0
 17 22  1  6  0  0  0
 17 18  1  0  0  0  0
 17 24  1  0  0  0  0
 19 17  1  0  0  0  0
 19 16  1  0  0  0  0
 20 28  1  6  0  0  0
 20 21  1  0  0  0  0
 20 18  1  0  0  0  0
 21 16  1  0  0  0  0
 21 30  1  1  0  0  0
 22 23  1  0  0  0  0
 24 25  2  0  0  0  0
 24 26  1  0  0  0  0
 27 26  1  0  0  0  0
 29 28  1  0  0  0  0
 30 31  1  0  0  0  0
 30 32  1  0  0  0  0
 31 33  1  0  0  0  0
 34 31  2  0  0  0  0
 36 35  1  0  0  0  0
 38 37  1  0  0  0  0
 39  1  1  0  0  0  0
 40 41  1  0  0  0  0
 40 39  1  0  0  0  0
 42 41  1  0  0  0  0
 43 42  1  0  0  0  0
 44 45  1  0  0  0  0
 44 43  1  0  0  0  0
 46 45  1  0  0  0  0
 47 46  1  0  0  0  0
 48 49  2  0  0  0  0
 48 47  1  0  0  0  0
 50 51  1  0  0  0  0
 50 48  1  0  0  0  0
 52 53  1  0  0  0  0
 54 53  1  0  0  0  0
 54 55  1  0  0  0  0
 55 56  1  0  0  0  0
 57 56  1  0  0  0  0
M  END
>  <REMARK>
 VINA RESULT:    -3.851      3.245      5.583
 INTER + INTRA:         -17.326
 INTER:                 -12.035
 INTRA:                  -5.291
 UNBOUND:                -8.298
 SMILES CC(=O)N[C@@H]1[C@@H](O)C[C@](O)(C(=O)O)O[C@H]1C(O)[C@H](O)CNC(=O)OCc1cn(CCCCCCCCCCC(=O)O)nn1
 SMILES IDX 29 1 28 2 26 3 27 4 43 5 42 6 25 7 24 8 22 9 21 10 23 12
 SMILES IDX 20 13 18 14 16 15 15 16 9 17 8 18 14 19 6 20 5 21 10 22
 SMILES IDX 11 24 12 25 13 26 7 28 4 30 2 31 1 33 3 34 17 35 19 37 30 39
 SMILES IDX 31 40 32 41 33 42 34 43 35 44 36 45 37 46 38 47 39 48 40 49
 SMILES IDX 41 50
 H PARENT 21 11 10 23 13 27 7 29 4 32 17 36 19 38 41 51
 Flexibility Score: inf
  4 active torsions:
  status: ('A' for Active; 'I' for Inactive)
    1  A    between atoms: CA   and  CB  
    2  A    between atoms: CB   and  CG  
    3  A    between atoms: CG   and  CD  
    4  A    between atoms: CD   and  CE  

>  <TORSDO>
F 26

>  <BEGIN_>
RES LYS A 131

$$$$
ligand_30_pose_7_2HRL.pdbqt
 OpenBabel07062320523D

  6  5  0  0  0  0  0  0  0  0999 V2000
   33.1930   34.6630    9.2900 C   0  0  0  0  0  0  0  0  0  0  0  0
   32.0600   35.3600   10.0340 C   0  0  0  0  0  0  0  0  0  0  0  0
   30.7330   35.2800    9.3240 C   0  0  0  0  0  0  0  0  0  0  0  0
   30.3720   36.6230    8.7080 C   0  0  0  0  0  0  0  0  0  0  0  0
   30.4420   37.7220    9.7510 C   0  0  0  0  0  0  0  0  0  0  0  0
   29.1060   37.9680   10.3620 N   0  0  0  0  0  0  0  0  0  0  0  0
  1  2  1  0  0  0  0
  3  2  1  0  0  0  0
  4  3  1  0  0  0  0
  4  5  1  0  0  0  0
  5  6  1  0  0  0  0
M  END
>  <EGIN_R>
ES LYS A 135

>  <REMARK>
  4 active torsions:
  status: ('A' for Active; 'I' for Inactive)
    5  A    between atoms: CA   and  CB  
    6  A    between atoms: CB   and  CG  
    7  A    between atoms: CG   and  CD  
    8  A    between atoms: CD   and  CE  

$$$$
