ligand_71_pose_19_2HRL.pdbqt
 OpenBabel07062320523D

 54 55  0  0  1  0  0  0  0  0999 V2000
   24.9440   35.3270   15.8030 N   0  0  0  0  0  0  0  0  0  0  0  0
   23.7830   36.0840   15.4260 C   0  0  0  0  0  0  0  0  0  0  0  0
   23.0490   35.7140   14.4770 O   0  0  0  0  0  0  0  0  0  0  0  0
   25.5360   35.6470   16.5870 H   0  0  0  0  0  0  0  0  0  0  0  0
   25.2350   34.1330   15.0570 C   0  0  0  0  0  0  0  0  0  0  0  0
   26.6250   34.1150   14.4710 C   0  0  2  0  0  0  0  0  0  0  0  0
   27.5260   33.4390   15.4770 C   0  0  1  0  0  0  0  0  0  0  0  0
   28.9640   33.9500   15.3620 C   0  0  2  0  0  0  0  0  0  0  0  0
   30.5250   34.6440   13.8850 C   0  0  2  0  0  0  0  0  0  0  0  0
   31.5910   34.2000   14.8200 C   0  0  0  0  0  0  0  0  0  0  0  0
   29.3740   33.9280   14.0510 O   0  0  0  0  0  0  0  0  0  0  0  0
   31.2550   33.0010   15.6740 C   0  0  1  0  0  0  0  0  0  0  0  0
   29.8480   33.0400   16.1990 C   0  0  1  0  0  0  0  0  0  0  0  0
   30.9420   34.3480   12.5430 O   0  0  0  0  0  0  0  0  0  0  0  0
   31.3820   35.1590   12.1670 H   0  0  0  0  0  0  0  0  0  0  0  0
   30.3410   36.1240   13.8980 C   0  0  0  0  0  0  0  0  0  0  0  0
   30.9790   36.8360   14.6750 O   0  0  0  0  0  0  0  0  0  0  0  0
   29.4430   36.7570   13.0340 O   0  0  0  0  0  0  0  0  0  0  0  0
   29.4820   37.7440   12.8530 H   0  0  0  0  0  0  0  0  0  0  0  0
   31.4740   31.8700   14.8850 O   0  0  0  0  0  0  0  0  0  0  0  0
   32.3210   31.4040   15.1350 H   0  0  0  0  0  0  0  0  0  0  0  0
   29.7240   33.4070   17.5660 N   0  0  0  0  0  0  0  0  0  0  0  0
   29.7790   32.5040   18.6590 C   0  0  0  0  0  0  0  0  0  0  0  0
   29.5770   34.4150   17.8180 H   0  0  0  0  0  0  0  0  0  0  0  0
   29.6360   32.9610   20.0760 C   0  0  0  0  0  0  0  0  0  0  0  0
   29.9530   31.3000   18.4030 O   0  0  0  0  0  0  0  0  0  0  0  0
   27.0590   33.5810   16.7690 O   0  0  0  0  0  0  0  0  0  0  0  0
   27.8510   33.5660   17.3890 H   0  0  0  0  0  0  0  0  0  0  0  0
   27.0070   35.4360   14.2450 O   0  0  0  0  0  0  0  0  0  0  0  0
   26.7080   35.9630   15.0340 H   0  0  0  0  0  0  0  0  0  0  0  0
   23.4380   37.2390   16.0900 O   0  0  0  0  0  0  0  0  0  0  0  0
   24.3190   38.2080   16.5760 C   0  0  0  0  0  0  0  0  0  0  0  0
   25.4230   38.4230   15.6170 C   0  0  0  0  0  0  0  0  0  0  0  0
   25.3950   39.0660   14.3970 C   0  0  0  0  0  0  0  0  0  0  0  0
   26.6860   38.0080   15.8050 N   0  0  0  0  0  0  0  0  0  0  0  0
   26.6280   39.0180   13.8970 N   0  0  0  0  0  0  0  0  0  0  0  0
   27.3830   38.3740   14.7690 N   0  0  0  0  0  0  0  0  0  0  0  0
   27.0270   39.6010   12.6120 C   0  0  0  0  0  0  0  0  0  0  0  0
   27.2870   38.5130   11.6230 C   0  0  0  0  0  0  0  0  0  0  0  0
   28.0970   38.6000   10.6850 O   0  0  0  0  0  0  0  0  0  0  0  0
   26.5550   37.2910   11.7690 N   0  0  0  0  0  0  0  0  0  0  0  0
   25.8660   37.1900   12.5490 H   0  0  0  0  0  0  0  0  0  0  0  0
   26.7360   36.2010   10.8860 C   0  0  0  0  0  0  0  0  0  0  0  0
   27.6000   35.1940   11.1170 N   0  0  0  0  0  0  0  0  0  0  0  0
   26.0240   36.1320    9.7440 N   0  0  0  0  0  0  0  0  0  0  0  0
   27.7510   34.1670   10.2580 C   0  0  0  0  0  0  0  0  0  0  0  0
   26.1260   35.1460    8.8570 C   0  0  0  0  0  0  0  0  0  0  0  0
   27.0120   34.1140    9.0940 C   0  0  0  0  0  0  0  0  0  0  0  0
   29.8670   25.5550   16.9770 C   0  0  0  0  0  0  0  0  0  0  0  0
   28.3450   25.7220   17.0260 C   0  0  0  0  0  0  0  0  0  0  0  0
   27.6010   24.4020   16.8890 C   0  0  0  0  0  0  0  0  0  0  0  0
   26.6090   24.1940   18.0000 C   0  0  0  0  0  0  0  0  0  0  0  0
   25.2490   23.8400   17.4070 C   0  0  0  0  0  0  0  0  0  0  0  0
   24.4310   25.0620   17.2200 N   0  0  0  0  0  0  0  0  0  0  0  0
  1  4  1  0  0  0  0
  2  1  1  0  0  0  0
  2 31  1  0  0  0  0
  3  2  2  0  0  0  0
  5  1  1  0  0  0  0
  6  5  1  1  0  0  0
  6  7  1  0  0  0  0
  7 27  1  1  0  0  0
  8  7  1  6  0  0  0
  8 13  1  0  0  0  0
  9 14  1  6  0  0  0
  9 16  1  0  0  0  0
  9 11  1  0  0  0  0
  9 10  1  0  0  0  0
 10 12  1  0  0  0  0
 11  8  1  0  0  0  0
 12 20  1  6  0  0  0
 12 13  1  0  0  0  0
 13 22  1  1  0  0  0
 15 14  1  0  0  0  0
 16 17  2  0  0  0  0
 18 16  1  0  0  0  0
 19 18  1  0  0  0  0
 20 21  1  0  0  0  0
 22 24  1  0  0  0  0
 22 23  1  0  0  0  0
 23 25  1  0  0  0  0
 26 23  2  0  0  0  0
 27 28  1  0  0  0  0
 29  6  1  0  0  0  0
 29 30  1  0  0  0  0
 31 32  1  0  0  0  0
 33 35  1  0  0  0  0
 33 32  1  0  0  0  0
 34 33  2  0  0  0  0
 36 34  1  0  0  0  0
 36 37  1  0  0  0  0
 37 35  2  0  0  0  0
 38 36  1  0  0  0  0
 39 41  1  0  0  0  0
 39 38  1  0  0  0  0
 40 39  2  0  0  0  0
 41 42  1  0  0  0  0
 43 44  2  0  0  0  0
 43 41  1  0  0  0  0
 45 43  1  0  0  0  0
 46 44  1  0  0  0  0
 47 48  1  0  0  0  0
 47 45  2  0  0  0  0
 48 46  2  0  0  0  0
 49 50  1  0  0  0  0
 51 50  1  0  0  0  0
 51 52  1  0  0  0  0
 53 52  1  0  0  0  0
 54 53  1  0  0  0  0
M  END
>  <REMARK>
 VINA RESULT:    -3.713      2.696      4.943
 INTER + INTRA:         -14.426
 INTER:                  -6.861
 INTRA:                  -7.565
 UNBOUND:                -7.565
 SMILES CC(=O)N[C@@H]1[C@@H](O)C[C@](O)(C(=O)O)O[C@H]1C(O)[C@H](O)CNC(=O)OCc1cn(CC(=O)Nc2ncccn2)nn1
 SMILES IDX 21 1 22 2 23 3 20 5 18 6 16 7 15 8 9 9 8 10 14 11 6 12 5 13
 SMILES IDX 10 14 11 16 12 17 13 18 7 20 4 22 2 23 1 25 3 26 17 27 19 29
 SMILES IDX 24 31 25 32 26 33 27 34 40 35 28 36 39 37 29 38 30 39 31 40
 SMILES IDX 32 41 33 43 34 44 38 45 35 46 37 47 36 48
 H PARENT 21 4 10 15 13 19 7 21 4 24 17 28 19 30 32 42
 Flexibility Score: inf
  4 active torsions:
  status: ('A' for Active; 'I' for Inactive)
    1  A    between atoms: CA   and  CB  
    2  A    between atoms: CB   and  CG  
    3  A    between atoms: CG   and  CD  
    4  A    between atoms: CD   and  CE  

>  <TORSDO>
F 17

>  <BEGIN_>
RES LYS A 131

$$$$
ligand_71_pose_19_2HRL.pdbqt
 OpenBabel07062320523D

  6  5  0  0  0  0  0  0  0  0999 V2000
   33.1930   34.6630    9.2900 C   0  0  0  0  0  0  0  0  0  0  0  0
   32.0600   35.3600   10.0340 C   0  0  0  0  0  0  0  0  0  0  0  0
   30.7650   35.3930    9.2650 C   0  0  0  0  0  0  0  0  0  0  0  0
   30.3950   36.8220    8.8970 C   0  0  0  0  0  0  0  0  0  0  0  0
   29.2860   36.8350    7.8620 C   0  0  0  0  0  0  0  0  0  0  0  0
   29.3100   35.5980    7.0340 N   0  0  0  0  0  0  0  0  0  0  0  0
  1  2  1  0  0  0  0
  3  2  1  0  0  0  0
  4  3  1  0  0  0  0
  5  4  1  0  0  0  0
  6  5  1  0  0  0  0
M  END
>  <EGIN_R>
ES LYS A 135

>  <REMARK>
  4 active torsions:
  status: ('A' for Active; 'I' for Inactive)
    5  A    between atoms: CA   and  CB  
    6  A    between atoms: CB   and  CG  
    7  A    between atoms: CG   and  CD  
    8  A    between atoms: CD   and  CE  

$$$$
