ligand_26_pose_5_2HRL.pdbqt
 OpenBabel07062320523D

 54 55  0  0  1  0  0  0  0  0999 V2000
   27.4700   30.1820   18.6710 N   0  0  0  0  0  0  0  0  0  0  0  0
   27.2380   28.8580   18.1980 C   0  0  0  0  0  0  0  0  0  0  0  0
   27.8190   27.9120   18.7620 O   0  0  0  0  0  0  0  0  0  0  0  0
   26.9360   30.9340   18.1380 H   0  0  0  0  0  0  0  0  0  0  0  0
   28.3450   30.5150   19.7730 C   0  0  0  0  0  0  0  0  0  0  0  0
   29.7330   30.8850   19.3010 C   0  0  2  0  0  0  0  0  0  0  0  0
   29.7090   31.5330   17.9330 C   0  0  1  0  0  0  0  0  0  0  0  0
   30.3430   32.8920   17.9140 C   0  0  2  0  0  0  0  0  0  0  0  0
   28.5800   34.4120   17.7510 C   0  0  2  0  0  0  0  0  0  0  0  0
   28.9520   34.7890   16.3380 C   0  0  0  0  0  0  0  0  0  0  0  0
   29.5820   33.8680   18.4970 O   0  0  0  0  0  0  0  0  0  0  0  0
   29.7050   33.7080   15.6220 C   0  0  1  0  0  0  0  0  0  0  0  0
   30.8340   33.2730   16.5290 C   0  0  1  0  0  0  0  0  0  0  0  0
   27.3990   33.6380   17.7310 O   0  0  0  0  0  0  0  0  0  0  0  0
   26.9470   33.6300   18.5960 H   0  0  0  0  0  0  0  0  0  0  0  0
   28.1940   35.7060   18.4240 C   0  0  0  0  0  0  0  0  0  0  0  0
   28.7270   36.7950   18.1710 O   0  0  0  0  0  0  0  0  0  0  0  0
   27.1660   35.5890   19.3750 O   0  0  0  0  0  0  0  0  0  0  0  0
   26.4030   36.2470   19.3940 H   0  0  0  0  0  0  0  0  0  0  0  0
   28.9060   32.6630   15.2240 O   0  0  0  0  0  0  0  0  0  0  0  0
   28.2710   32.4320   15.9430 H   0  0  0  0  0  0  0  0  0  0  0  0
   31.6650   34.4730   16.7210 N   0  0  0  0  0  0  0  0  0  0  0  0
   32.6460   34.7970   15.7430 C   0  0  0  0  0  0  0  0  0  0  0  0
   31.5600   35.0910   17.5470 H   0  0  0  0  0  0  0  0  0  0  0  0
   33.4750   36.0110   15.9520 C   0  0  0  0  0  0  0  0  0  0  0  0
   32.7740   34.0520   14.7470 O   0  0  0  0  0  0  0  0  0  0  0  0
   30.3610   30.6560   17.0630 O   0  0  0  0  0  0  0  0  0  0  0  0
   31.0810   30.1740   17.5690 H   0  0  0  0  0  0  0  0  0  0  0  0
   30.5270   29.7200   19.2720 O   0  0  0  0  0  0  0  0  0  0  0  0
   30.3950   29.1660   20.0810 H   0  0  0  0  0  0  0  0  0  0  0  0
   26.3980   28.5800   17.1440 O   0  0  0  0  0  0  0  0  0  0  0  0
   25.2150   29.2790   16.8290 C   0  0  0  0  0  0  0  0  0  0  0  0
   25.4140   30.4850   16.0190 C   0  0  0  0  0  0  0  0  0  0  0  0
   24.7670   30.7750   14.8110 C   0  0  0  0  0  0  0  0  0  0  0  0
   26.2300   31.5470   16.2430 N   0  0  0  0  0  0  0  0  0  0  0  0
   25.1990   31.9440   14.3800 N   0  0  0  0  0  0  0  0  0  0  0  0
   26.0680   32.3900   15.2410 N   0  0  0  0  0  0  0  0  0  0  0  0
   24.7500   32.6160   13.1190 C   0  0  1  0  0  0  0  0  0  0  0  0
   23.2500   32.4800   13.1440 C   0  0  0  0  0  0  0  0  0  0  0  0
   25.2050   33.9970   13.1940 C   0  0  0  0  0  0  0  0  0  0  0  0
   26.2710   34.4620   12.3640 C   0  0  2  0  0  0  0  0  0  0  0  0
   27.3010   34.9310   13.0750 O   0  0  0  0  0  0  0  0  0  0  0  0
   26.4770   34.5390   10.9520 C   0  0  0  0  0  0  0  0  0  0  0  0
   25.6500   35.4050   10.1940 C   0  0  0  0  0  0  0  0  0  0  0  0
   27.4350   33.8530   10.2460 C   0  0  0  0  0  0  0  0  0  0  0  0
   25.8050   35.5400    8.8380 C   0  0  0  0  0  0  0  0  0  0  0  0
   27.5620   34.0140    8.8730 C   0  0  0  0  0  0  0  0  0  0  0  0
   26.7680   34.8430    8.1510 C   0  0  0  0  0  0  0  0  0  0  0  0
   29.8670   25.5550   16.9770 C   0  0  0  0  0  0  0  0  0  0  0  0
   28.3450   25.7220   17.0260 C   0  0  0  0  0  0  0  0  0  0  0  0
   27.6020   24.3990   16.9280 C   0  0  0  0  0  0  0  0  0  0  0  0
   26.1430   24.5420   17.2620 C   0  0  0  0  0  0  0  0  0  0  0  0
   25.9870   24.8260   18.7520 C   0  0  0  0  0  0  0  0  0  0  0  0
   25.0380   25.9440   18.9710 N   0  0  0  0  0  0  0  0  0  0  0  0
  1  5  1  0  0  0  0
  2  1  1  0  0  0  0
  2  3  2  0  0  0  0
  4  1  1  0  0  0  0
  6  5  1  6  0  0  0
  7 27  1  6  0  0  0
  7  6  1  0  0  0  0
  8  7  1  6  0  0  0
  8 11  1  0  0  0  0
  9 14  1  6  0  0  0
  9 16  1  0  0  0  0
  9 11  1  0  0  0  0
 10  9  1  0  0  0  0
 12 20  1  1  0  0  0
 12 10  1  0  0  0  0
 12 13  1  0  0  0  0
 13 22  1  1  0  0  0
 13  8  1  0  0  0  0
 14 15  1  0  0  0  0
 16 18  1  0  0  0  0
 17 16  2  0  0  0  0
 18 19  1  0  0  0  0
 20 21  1  0  0  0  0
 22 24  1  0  0  0  0
 23 25  1  0  0  0  0
 23 22  1  0  0  0  0
 26 23  2  0  0  0  0
 27 28  1  0  0  0  0
 29  6  1  0  0  0  0
 29 30  1  0  0  0  0
 31  2  1  0  0  0  0
 32 31  1  0  0  0  0
 33 35  1  0  0  0  0
 33 32  1  0  0  0  0
 34 33  2  0  0  0  0
 36 34  1  0  0  0  0
 36 37  1  0  0  0  0
 37 35  2  0  0  0  0
 38 39  1  1  0  0  0
 38 40  1  0  0  0  0
 38 36  1  0  0  0  0
 41 42  1  6  0  0  0
 41 40  1  0  0  0  0
 43 41  1  0  0  0  0
 44 43  2  0  0  0  0
 45 43  1  0  0  0  0
 46 44  1  0  0  0  0
 47 45  2  0  0  0  0
 48 46  2  0  0  0  0
 48 47  1  0  0  0  0
 49 50  1  0  0  0  0
 51 50  1  0  0  0  0
 51 52  1  0  0  0  0
 52 53  1  0  0  0  0
 53 54  1  0  0  0  0
M  END
>  <REMARK>
 VINA RESULT:    -4.777      3.079      6.724
 INTER + INTRA:         -16.040
 INTER:                 -10.170
 INTRA:                  -5.870
 UNBOUND:                -6.934
 SMILES CC(=O)N[C@@H]1[C@@H](O)C[C@](O)(C(=O)O)O[C@H]1C(O)[C@H](O)CNC(=O)OCc1cn(C(C)CC(=O)c2ccccc2)nn1
 SMILES IDX 21 1 22 2 23 3 20 5 18 6 16 7 15 8 9 9 8 10 14 11 6 12 5 13
 SMILES IDX 10 14 11 16 12 17 13 18 7 20 4 22 2 23 1 25 3 26 17 27 19 29
 SMILES IDX 24 31 25 32 26 33 27 34 41 35 28 36 40 37 29 38 30 39 31 40
 SMILES IDX 32 41 33 42 34 43 35 44 39 45 36 46 38 47 37 48
 H PARENT 21 4 10 15 13 19 7 21 4 24 17 28 19 30
 Flexibility Score: inf
  4 active torsions:
  status: ('A' for Active; 'I' for Inactive)
    1  A    between atoms: CA   and  CB  
    2  A    between atoms: CB   and  CG  
    3  A    between atoms: CG   and  CD  
    4  A    between atoms: CD   and  CE  

>  <TORSDO>
F 18

>  <BEGIN_>
RES LYS A 131

$$$$
ligand_26_pose_5_2HRL.pdbqt
 OpenBabel07062320523D

  6  5  0  0  0  0  0  0  0  0999 V2000
   33.1930   34.6630    9.2900 C   0  0  0  0  0  0  0  0  0  0  0  0
   32.0600   35.3600   10.0340 C   0  0  0  0  0  0  0  0  0  0  0  0
   30.7750   35.4250    9.2500 C   0  0  0  0  0  0  0  0  0  0  0  0
   30.3670   36.8700    9.0060 C   0  0  0  0  0  0  0  0  0  0  0  0
   29.1060   37.2050    9.7780 C   0  0  0  0  0  0  0  0  0  0  0  0
   29.2850   36.9530   11.2350 N   0  0  0  0  0  0  0  0  0  0  0  0
  1  2  1  0  0  0  0
  3  2  1  0  0  0  0
  4  3  1  0  0  0  0
  4  5  1  0  0  0  0
  5  6  1  0  0  0  0
M  END
>  <EGIN_R>
ES LYS A 135

>  <REMARK>
  4 active torsions:
  status: ('A' for Active; 'I' for Inactive)
    5  A    between atoms: CA   and  CB  
    6  A    between atoms: CB   and  CG  
    7  A    between atoms: CG   and  CD  
    8  A    between atoms: CD   and  CE  

$$$$
