ligand_65_pose_13_2HRL.pdbqt
 OpenBabel07062320523D

 53 54  0  0  1  0  0  0  0  0999 V2000
   26.5670   39.4330    5.9400 N   0  0  0  0  0  0  0  0  0  0  0  0
   27.4620   40.4490    5.5540 C   0  0  0  0  0  0  0  0  0  0  0  0
   27.2950   41.6640    5.8010 O   0  0  0  0  0  0  0  0  0  0  0  0
   26.7440   38.4080    5.7170 H   0  0  0  0  0  0  0  0  0  0  0  0
   25.3610   39.7770    6.6640 C   0  0  0  0  0  0  0  0  0  0  0  0
   25.5660   39.4760    8.1150 C   0  0  2  0  0  0  0  0  0  0  0  0
   25.2210   38.0290    8.4040 C   0  0  2  0  0  0  0  0  0  0  0  0
   26.2930   37.4710    9.3280 C   0  0  2  0  0  0  0  0  0  0  0  0
   28.3820   37.1720    8.2800 C   0  0  2  0  0  0  0  0  0  0  0  0
   28.1520   35.6990    8.1540 C   0  0  0  0  0  0  0  0  0  0  0  0
   27.4830   37.9110    8.9230 O   0  0  0  0  0  0  0  0  0  0  0  0
   27.4270   35.2410    9.4130 C   0  0  1  0  0  0  0  0  0  0  0  0
   26.0910   35.9790    9.3500 C   0  0  1  0  0  0  0  0  0  0  0  0
   28.4950   37.6640    6.9580 O   0  0  0  0  0  0  0  0  0  0  0  0
   29.4150   37.5730    6.6180 H   0  0  0  0  0  0  0  0  0  0  0  0
   29.7160   37.3570    8.9060 C   0  0  0  0  0  0  0  0  0  0  0  0
   29.8190   37.7800   10.0850 O   0  0  0  0  0  0  0  0  0  0  0  0
   30.8920   37.0780    8.2300 O   0  0  0  0  0  0  0  0  0  0  0  0
   31.5830   36.4100    8.5770 H   0  0  0  0  0  0  0  0  0  0  0  0
   27.1710   33.8840    9.3920 O   0  0  0  0  0  0  0  0  0  0  0  0
   27.9250   33.4340    9.8710 H   0  0  0  0  0  0  0  0  0  0  0  0
   25.2290   35.5830   10.4420 N   0  0  0  0  0  0  0  0  0  0  0  0
   23.8600   35.2870   10.2240 C   0  0  0  0  0  0  0  0  0  0  0  0
   25.6780   35.5320   11.3850 H   0  0  0  0  0  0  0  0  0  0  0  0
   23.0320   34.8890   11.3840 C   0  0  0  0  0  0  0  0  0  0  0  0
   23.3350   35.3520    9.0910 O   0  0  0  0  0  0  0  0  0  0  0  0
   25.2560   37.3120    7.1790 O   0  0  0  0  0  0  0  0  0  0  0  0
   24.4770   36.6880    7.2450 H   0  0  0  0  0  0  0  0  0  0  0  0
   24.7720   40.3460    8.8770 O   0  0  0  0  0  0  0  0  0  0  0  0
   25.1830   41.2250    8.9510 H   0  0  0  0  0  0  0  0  0  0  0  0
   28.6210   40.0870    4.8450 O   0  0  0  0  0  0  0  0  0  0  0  0
   29.6890   41.0090    4.8270 C   0  0  0  0  0  0  0  0  0  0  0  0
   30.8060   40.4640    5.6650 C   0  0  0  0  0  0  0  0  0  0  0  0
   32.1470   40.3960    5.3360 C   0  0  0  0  0  0  0  0  0  0  0  0
   30.7360   39.9310    6.9070 N   0  0  0  0  0  0  0  0  0  0  0  0
   32.8400   39.8420    6.3510 N   0  0  0  0  0  0  0  0  0  0  0  0
   31.9570   39.5720    7.2870 N   0  0  0  0  0  0  0  0  0  0  0  0
   34.2510   39.6030    6.3900 C   0  0  0  0  0  0  0  0  0  0  0  0
   34.8330   38.6660    5.6190 N   0  0  0  0  0  0  0  0  0  0  0  0
   35.0500   40.3140    7.2080 N   0  0  0  0  0  0  0  0  0  0  0  0
   36.1510   38.4110    5.6250 C   0  0  0  0  0  0  0  0  0  0  0  0
   36.3900   40.1030    7.2610 C   0  0  0  0  0  0  0  0  0  0  0  0
   36.9110   39.1590    6.4710 N   0  0  0  0  0  0  0  0  0  0  0  0
   37.2820   40.8820    8.1610 C   0  0  0  0  0  0  0  0  0  0  0  0
   36.7640   37.4300    4.8180 N   0  0  0  0  0  0  0  0  0  0  0  0
   37.5560   36.8840    5.1830 H   0  0  0  0  0  0  0  0  0  0  0  0
   36.4170   37.2630    3.8630 H   0  0  0  0  0  0  0  0  0  0  0  0
   29.8670   25.5550   16.9770 C   0  0  0  0  0  0  0  0  0  0  0  0
   28.3450   25.7220   17.0260 C   0  0  0  0  0  0  0  0  0  0  0  0
   27.6010   24.4030   16.8870 C   0  0  0  0  0  0  0  0  0  0  0  0
   26.2720   24.4250   17.5900 C   0  0  0  0  0  0  0  0  0  0  0  0
   25.6560   23.0300   17.5590 C   0  0  0  0  0  0  0  0  0  0  0  0
   24.1800   23.1120   17.6580 N   0  0  0  0  0  0  0  0  0  0  0  0
  1  5  1  0  0  0  0
  2  3  2  0  0  0  0
  2  1  1  0  0  0  0
  4  1  1  0  0  0  0
  6  5  1  6  0  0  0
  6  7  1  0  0  0  0
  6 29  1  0  0  0  0
  7 27  1  6  0  0  0
  8  7  1  6  0  0  0
  8 13  1  0  0  0  0
  9 14  1  6  0  0  0
  9 16  1  0  0  0  0
  9 11  1  0  0  0  0
 10  9  1  0  0  0  0
 10 12  1  0  0  0  0
 11  8  1  0  0  0  0
 12 20  1  6  0  0  0
 13 12  1  0  0  0  0
 13 22  1  1  0  0  0
 15 14  1  0  0  0  0
 16 17  2  0  0  0  0
 18 19  1  0  0  0  0
 18 16  1  0  0  0  0
 20 21  1  0  0  0  0
 22 24  1  0  0  0  0
 23 22  1  0  0  0  0
 23 25  1  0  0  0  0
 26 23  2  0  0  0  0
 27 28  1  0  0  0  0
 29 30  1  0  0  0  0
 31  2  1  0  0  0  0
 32 31  1  0  0  0  0
 32 33  1  0  0  0  0
 33 35  1  0  0  0  0
 34 33  2  0  0  0  0
 34 36  1  0  0  0  0
 35 37  2  0  0  0  0
 36 38  1  0  0  0  0
 36 37  1  0  0  0  0
 38 40  1  0  0  0  0
 39 41  2  0  0  0  0
 39 38  2  0  0  0  0
 40 42  2  0  0  0  0
 41 43  1  0  0  0  0
 42 44  1  0  0  0  0
 43 42  1  0  0  0  0
 45 46  1  0  0  0  0
 45 41  1  0  0  0  0
 47 45  1  0  0  0  0
 48 49  1  0  0  0  0
 50 49  1  0  0  0  0
 50 51  1  0  0  0  0
 52 51  1  0  0  0  0
 52 53  1  0  0  0  0
M  END
>  <REMARK>
 VINA RESULT:    -5.065      7.663     13.351
 INTER + INTRA:         -14.049
 INTER:                  -9.222
 INTRA:                  -4.828
 UNBOUND:                -5.134
 SMILES CC(=O)N[C@@H]1[C@@H](O)C[C@](O)(C(=O)O)O[C@H]1C(O)[C@H](O)CNC(=O)OCc1cn(-c2nc(C)nc(N)n2)nn1
 SMILES IDX 21 1 22 2 23 3 20 5 18 6 16 7 15 8 9 9 8 10 14 11 6 12 5 13
 SMILES IDX 10 14 11 16 12 17 13 18 7 20 4 22 2 23 1 25 3 26 17 27 19 29
 SMILES IDX 24 31 25 32 26 33 27 34 38 35 28 36 37 37 29 38 36 39 30 40
 SMILES IDX 34 41 31 42 33 43 32 44 35 45
 H PARENT 21 4 10 15 13 19 7 21 4 24 17 28 19 30 35 46 35 47
 Flexibility Score: inf
  4 active torsions:
  status: ('A' for Active; 'I' for Inactive)
    1  A    between atoms: CA   and  CB  
    2  A    between atoms: CB   and  CG  
    3  A    between atoms: CG   and  CD  
    4  A    between atoms: CD   and  CE  

>  <TORSDO>
F 16

>  <BEGIN_>
RES LYS A 131

$$$$
ligand_65_pose_13_2HRL.pdbqt
 OpenBabel07062320523D

  6  5  0  0  0  0  0  0  0  0999 V2000
   33.1930   34.6630    9.2900 C   0  0  0  0  0  0  0  0  0  0  0  0
   32.0600   35.3600   10.0340 C   0  0  0  0  0  0  0  0  0  0  0  0
   30.9250   34.4400   10.4020 C   0  0  0  0  0  0  0  0  0  0  0  0
   30.4190   34.7460   11.8030 C   0  0  0  0  0  0  0  0  0  0  0  0
   31.3950   35.6460   12.5370 C   0  0  0  0  0  0  0  0  0  0  0  0
   31.3560   35.3940   14.0050 N   0  0  0  0  0  0  0  0  0  0  0  0
  1  2  1  0  0  0  0
  2  3  1  0  0  0  0
  3  4  1  0  0  0  0
  4  5  1  0  0  0  0
  5  6  1  0  0  0  0
M  END
>  <EGIN_R>
ES LYS A 135

>  <REMARK>
  4 active torsions:
  status: ('A' for Active; 'I' for Inactive)
    5  A    between atoms: CA   and  CB  
    6  A    between atoms: CB   and  CG  
    7  A    between atoms: CG   and  CD  
    8  A    between atoms: CD   and  CE  

$$$$
