ligand_25_pose_1_2HRL.pdbqt
 OpenBabel07062320523D

 56 59  0  0  1  0  0  0  0  0999 V2000
   24.1850   42.2620    6.5780 C   0  0  0  0  0  0  0  0  0  0  0  0
   23.4090   41.4870    7.5770 C   0  0  2  0  0  0  0  0  0  0  0  0
   24.2480   40.5660    8.4040 C   0  0  1  0  0  0  0  0  0  0  0  0
   23.9110   40.5030    9.8680 C   0  0  2  0  0  0  0  0  0  0  0  0
   25.7260   39.7370   11.1340 C   0  0  2  0  0  0  0  0  0  0  0  0
   24.8860   39.2500   12.2960 C   0  0  0  0  0  0  0  0  0  0  0  0
   25.1000   40.7870   10.5420 O   0  0  0  0  0  0  0  0  0  0  0  0
   23.4910   39.0410   11.8340 C   0  0  1  0  0  0  0  0  0  0  0  0
   23.3220   39.1930   10.3140 C   0  0  1  0  0  0  0  0  0  0  0  0
   26.0100   38.6500   10.3520 O   0  0  0  0  0  0  0  0  0  0  0  0
   25.5790   37.8300   10.6820 H   0  0  0  0  0  0  0  0  0  0  0  0
   26.9950   40.2530   11.7320 C   0  0  0  0  0  0  0  0  0  0  0  0
   27.6370   41.1470   11.1340 O   0  0  0  0  0  0  0  0  0  0  0  0
   27.5020   39.7800   12.9340 O   0  0  0  0  0  0  0  0  0  0  0  0
   26.8750   39.3670   13.6380 H   0  0  0  0  0  0  0  0  0  0  0  0
   22.9600   37.8080   12.1800 O   0  0  0  0  0  0  0  0  0  0  0  0
   23.6410   37.1420   12.4260 H   0  0  0  0  0  0  0  0  0  0  0  0
   21.8890   39.2100   10.1240 N   0  0  0  0  0  0  0  0  0  0  0  0
   21.2030   38.5600    9.0650 C   0  0  0  0  0  0  0  0  0  0  0  0
   21.3160   39.7360   10.8160 H   0  0  0  0  0  0  0  0  0  0  0  0
   19.7110   38.6260    8.9360 C   0  0  0  0  0  0  0  0  0  0  0  0
   21.8930   37.9210    8.2310 O   0  0  0  0  0  0  0  0  0  0  0  0
   24.3960   39.2880    7.8780 O   0  0  0  0  0  0  0  0  0  0  0  0
   24.4290   38.5730    8.5340 H   0  0  0  0  0  0  0  0  0  0  0  0
   22.4660   40.6970    6.9240 O   0  0  0  0  0  0  0  0  0  0  0  0
   22.0620   41.1380    6.1530 H   0  0  0  0  0  0  0  0  0  0  0  0
   25.4950   41.7980    6.3100 N   0  0  0  0  0  0  0  0  0  0  0  0
   25.9580   41.4260    5.0360 C   0  0  0  0  0  0  0  0  0  0  0  0
   26.1970   41.7180    7.1170 H   0  0  0  0  0  0  0  0  0  0  0  0
   25.2500   41.4850    4.0350 O   0  0  0  0  0  0  0  0  0  0  0  0
   27.2720   40.9610    4.8460 O   0  0  0  0  0  0  0  0  0  0  0  0
   27.5810   39.6350    4.5410 C   0  0  0  0  0  0  0  0  0  0  0  0
   27.4080   38.7030    5.6820 C   0  0  0  0  0  0  0  0  0  0  0  0
   27.3730   37.3310    5.6900 C   0  0  0  0  0  0  0  0  0  0  0  0
   27.2550   39.1090    6.9440 N   0  0  0  0  0  0  0  0  0  0  0  0
   27.1980   36.9540    6.9520 N   0  0  0  0  0  0  0  0  0  0  0  0
   27.1300   38.0390    7.6950 N   0  0  0  0  0  0  0  0  0  0  0  0
   27.0980   35.5950    7.4620 C   0  0  0  0  0  0  0  0  0  0  0  0
   26.1260   35.4940    8.5640 C   0  0  0  0  0  0  0  0  0  0  0  0
   28.3580   35.0970    7.9930 C   0  0  0  0  0  0  0  0  0  0  0  0
   24.7620   35.8360    8.6040 C   0  0  0  0  0  0  0  0  0  0  0  0
   26.7760   34.9780    9.6480 C   0  0  0  0  0  0  0  0  0  0  0  0
   28.1730   34.7280    9.2980 C   0  0  0  0  0  0  0  0  0  0  0  0
   29.6430   34.9420    7.4340 C   0  0  0  0  0  0  0  0  0  0  0  0
   24.0780   35.6380    9.7770 C   0  0  0  0  0  0  0  0  0  0  0  0
   26.0470   34.7930   10.8230 C   0  0  0  0  0  0  0  0  0  0  0  0
   29.1950   34.2050   10.0980 C   0  0  0  0  0  0  0  0  0  0  0  0
   30.6590   34.4330    8.1990 C   0  0  0  0  0  0  0  0  0  0  0  0
   24.7110   35.1180   10.8890 C   0  0  0  0  0  0  0  0  0  0  0  0
   30.4350   34.0700    9.5170 C   0  0  0  0  0  0  0  0  0  0  0  0
   29.8670   25.5550   16.9770 C   0  0  0  0  0  0  0  0  0  0  0  0
   28.3450   25.7220   17.0260 C   0  0  0  0  0  0  0  0  0  0  0  0
   27.5990   24.4300   16.7310 C   0  0  0  0  0  0  0  0  0  0  0  0
   26.8790   23.9020   17.9410 C   0  0  0  0  0  0  0  0  0  0  0  0
   25.5480   23.2920   17.5150 C   0  0  0  0  0  0  0  0  0  0  0  0
   24.7080   24.3040   16.8320 N   0  0  0  0  0  0  0  0  0  0  0  0
  2  1  1  6  0  0  0
  2  3  1  0  0  0  0
  3 23  1  6  0  0  0
  4  3  1  6  0  0  0
  4  9  1  0  0  0  0
  4  7  1  0  0  0  0
  5 10  1  6  0  0  0
  5 12  1  0  0  0  0
  5  6  1  0  0  0  0
  7  5  1  0  0  0  0
  8 16  1  6  0  0  0
  8  6  1  0  0  0  0
  9 18  1  1  0  0  0
  9  8  1  0  0  0  0
 10 11  1  0  0  0  0
 12 14  1  0  0  0  0
 13 12  2  0  0  0  0
 14 15  1  0  0  0  0
 16 17  1  0  0  0  0
 18 20  1  0  0  0  0
 19 18  1  0  0  0  0
 21 19  1  0  0  0  0
 22 19  2  0  0  0  0
 23 24  1  0  0  0  0
 25  2  1  0  0  0  0
 26 25  1  0  0  0  0
 27  1  1  0  0  0  0
 27 29  1  0  0  0  0
 28 27  1  0  0  0  0
 30 28  2  0  0  0  0
 31 28  1  0  0  0  0
 32 31  1  0  0  0  0
 32 33  1  0  0  0  0
 33 34  2  0  0  0  0
 33 35  1  0  0  0  0
 34 36  1  0  0  0  0
 35 37  2  0  0  0  0
 36 38  1  0  0  0  0
 36 37  1  0  0  0  0
 38 40  1  0  0  0  0
 38 39  1  0  0  0  0
 39 41  2  0  0  0  0
 39 42  1  0  0  0  0
 40 43  1  0  0  0  0
 41 45  1  0  0  0  0
 42 46  2  0  0  0  0
 43 42  1  0  0  0  0
 43 47  2  0  0  0  0
 44 40  2  0  0  0  0
 44 48  1  0  0  0  0
 45 49  2  0  0  0  0
 46 49  1  0  0  0  0
 48 50  2  0  0  0  0
 50 47  1  0  0  0  0
 51 52  1  0  0  0  0
 53 52  1  0  0  0  0
 53 54  1  0  0  0  0
 55 54  1  0  0  0  0
 56 55  1  0  0  0  0
M  END
>  <REMARK>
 VINA RESULT:    -6.982      4.713      8.126
 INTER + INTRA:         -16.661
 INTER:                  -9.846
 INTRA:                  -6.815
 UNBOUND:                -4.578
 SMILES CC(=O)N[C@@H]1[C@@H](O)C[C@](O)(C(=O)O)O[C@H]1C(O)[C@H](O)CNC(=O)OCc1cn(C2c3ccccc3-c3ccccc32)nn1
 SMILES IDX 20 1 18 2 16 3 15 4 9 5 8 6 14 7 6 8 5 9 10 10 11 12 12 13
 SMILES IDX 13 14 7 16 4 18 2 19 1 21 3 22 17 23 19 25 21 27 22 28 23 30
 SMILES IDX 24 31 25 32 26 33 27 34 43 35 28 36 42 37 29 38 30 39 41 40
 SMILES IDX 31 41 35 42 36 43 40 44 32 45 34 46 37 47 39 48 33 49 38 50
 H PARENT 10 11 13 15 7 17 4 20 17 24 19 26 21 29
 Flexibility Score: inf
  4 active torsions:
  status: ('A' for Active; 'I' for Inactive)
    1  A    between atoms: CA   and  CB  
    2  A    between atoms: CB   and  CG  
    3  A    between atoms: CG   and  CD  
    4  A    between atoms: CD   and  CE  

>  <TORSDO>
F 15

>  <BEGIN_>
RES LYS A 131

$$$$
ligand_25_pose_1_2HRL.pdbqt
 OpenBabel07062320523D

  6  5  0  0  0  0  0  0  0  0999 V2000
   33.1930   34.6630    9.2900 C   0  0  0  0  0  0  0  0  0  0  0  0
   32.0600   35.3600   10.0340 C   0  0  0  0  0  0  0  0  0  0  0  0
   32.5280   36.1970   11.1960 C   0  0  0  0  0  0  0  0  0  0  0  0
   31.6570   37.4350   11.3510 C   0  0  0  0  0  0  0  0  0  0  0  0
   30.9420   37.7490   10.0510 C   0  0  0  0  0  0  0  0  0  0  0  0
   29.4800   37.9290   10.2730 N   0  0  0  0  0  0  0  0  0  0  0  0
  1  2  1  0  0  0  0
  2  3  1  0  0  0  0
  3  4  1  0  0  0  0
  5  6  1  0  0  0  0
  5  4  1  0  0  0  0
M  END
>  <EGIN_R>
ES LYS A 135

>  <REMARK>
  4 active torsions:
  status: ('A' for Active; 'I' for Inactive)
    5  A    between atoms: CA   and  CB  
    6  A    between atoms: CB   and  CG  
    7  A    between atoms: CG   and  CD  
    8  A    between atoms: CD   and  CE  

$$$$
