ligand_15_pose_17_2HRL.pdbqt
 OpenBabel07062320523D

 50 51  0  0  1  0  0  0  0  0999 V2000
   21.7510   38.4730    8.0430 C   0  0  0  0  0  0  0  0  0  0  0  0
   21.7040   37.0430    7.5960 C   0  0  2  0  0  0  0  0  0  0  0  0
   22.1390   36.0410    8.6060 C   0  0  2  0  0  0  0  0  0  0  0  0
   21.0030   35.2850    9.2630 C   0  0  2  0  0  0  0  0  0  0  0  0
   18.6620   35.2790    9.1020 C   0  0  2  0  0  0  0  0  0  0  0  0
   18.6750   34.9670   10.5720 C   0  0  0  0  0  0  0  0  0  0  0  0
   19.8420   35.7900    8.6890 O   0  0  0  0  0  0  0  0  0  0  0  0
   19.6420   35.9160   11.2410 C   0  0  1  0  0  0  0  0  0  0  0  0
   21.0470   35.5540   10.7410 C   0  0  1  0  0  0  0  0  0  0  0  0
   17.6770   36.2760    8.8560 O   0  0  0  0  0  0  0  0  0  0  0  0
   17.3860   36.5690    9.7590 H   0  0  0  0  0  0  0  0  0  0  0  0
   18.3230   34.0780    8.2900 C   0  0  0  0  0  0  0  0  0  0  0  0
   17.8250   33.0450    8.7690 O   0  0  0  0  0  0  0  0  0  0  0  0
   18.5720   34.1030    6.9280 O   0  0  0  0  0  0  0  0  0  0  0  0
   18.9990   33.3220    6.4280 H   0  0  0  0  0  0  0  0  0  0  0  0
   19.3760   37.1950   10.7550 O   0  0  0  0  0  0  0  0  0  0  0  0
   20.1640   37.7700   10.7170 H   0  0  0  0  0  0  0  0  0  0  0  0
   21.3950   34.3450   11.4340 N   0  0  0  0  0  0  0  0  0  0  0  0
   22.6420   34.1190   12.0640 C   0  0  0  0  0  0  0  0  0  0  0  0
   20.6990   33.5570   11.4960 H   0  0  0  0  0  0  0  0  0  0  0  0
   22.9570   32.8420   12.7700 C   0  0  0  0  0  0  0  0  0  0  0  0
   23.5080   35.0160   12.0300 O   0  0  0  0  0  0  0  0  0  0  0  0
   22.8960   36.7190    9.5940 O   0  0  0  0  0  0  0  0  0  0  0  0
   22.2580   37.1560   10.1960 H   0  0  0  0  0  0  0  0  0  0  0  0
   22.5370   36.9300    6.4620 O   0  0  0  0  0  0  0  0  0  0  0  0
   23.4360   36.6070    6.7170 H   0  0  0  0  0  0  0  0  0  0  0  0
   22.8590   39.2340    7.5670 N   0  0  0  0  0  0  0  0  0  0  0  0
   23.6950   39.9520    8.4980 C   0  0  0  0  0  0  0  0  0  0  0  0
   23.1480   39.3430    6.5740 H   0  0  0  0  0  0  0  0  0  0  0  0
   23.4070   39.8760    9.7160 O   0  0  0  0  0  0  0  0  0  0  0  0
   24.7790   40.6990    8.0650 O   0  0  0  0  0  0  0  0  0  0  0  0
   25.7880   39.9880    7.3590 C   0  0  0  0  0  0  0  0  0  0  0  0
   25.9810   38.6920    8.0720 C   0  0  0  0  0  0  0  0  0  0  0  0
   26.7380   38.4830    9.2100 C   0  0  0  0  0  0  0  0  0  0  0  0
   25.4680   37.4870    7.7620 N   0  0  0  0  0  0  0  0  0  0  0  0
   26.6640   37.1850    9.5490 N   0  0  0  0  0  0  0  0  0  0  0  0
   25.8890   36.6220    8.6510 N   0  0  0  0  0  0  0  0  0  0  0  0
   27.2690   36.4930   10.6380 C   0  0  0  0  0  0  0  0  0  0  0  0
   26.9230   35.1990   10.9750 C   0  0  0  0  0  0  0  0  0  0  0  0
   28.2410   37.0990   11.4070 C   0  0  0  0  0  0  0  0  0  0  0  0
   27.5200   34.5400   12.0340 C   0  0  0  0  0  0  0  0  0  0  0  0
   28.8440   36.4410   12.4730 C   0  0  0  0  0  0  0  0  0  0  0  0
   28.4940   35.1530   12.8020 C   0  0  0  0  0  0  0  0  0  0  0  0
   29.2840   34.1990   14.2500 Br  0  0  0  0  0  0  0  0  0  0  0  0
   29.8670   25.5550   16.9770 C   0  0  0  0  0  0  0  0  0  0  0  0
   28.3450   25.7220   17.0260 C   0  0  0  0  0  0  0  0  0  0  0  0
   27.6010   24.4050   16.8710 C   0  0  0  0  0  0  0  0  0  0  0  0
   26.1440   24.5330   17.2200 C   0  0  0  0  0  0  0  0  0  0  0  0
   25.5740   23.1540   17.5390 C   0  0  0  0  0  0  0  0  0  0  0  0
   24.1370   23.0920   17.1830 N   0  0  0  0  0  0  0  0  0  0  0  0
  2  1  1  1  0  0  0
  2  3  1  0  0  0  0
  3 23  1  1  0  0  0
  4  3  1  6  0  0  0
  4  9  1  0  0  0  0
  5 12  1  6  0  0  0
  5  6  1  0  0  0  0
  6  8  1  0  0  0  0
  7  5  1  0  0  0  0
  7  4  1  0  0  0  0
  8 16  1  6  0  0  0
  9  8  1  0  0  0  0
  9 18  1  1  0  0  0
 10  5  1  0  0  0  0
 10 11  1  0  0  0  0
 12 13  2  0  0  0  0
 14 12  1  0  0  0  0
 15 14  1  0  0  0  0
 17 16  1  0  0  0  0
 18 20  1  0  0  0  0
 18 19  1  0  0  0  0
 19 21  1  0  0  0  0
 22 19  2  0  0  0  0
 23 24  1  0  0  0  0
 25 26  1  0  0  0  0
 25  2  1  0  0  0  0
 27  1  1  0  0  0  0
 27 28  1  0  0  0  0
 28 30  2  0  0  0  0
 29 27  1  0  0  0  0
 31 28  1  0  0  0  0
 32 31  1  0  0  0  0
 32 33  1  0  0  0  0
 33 34  2  0  0  0  0
 34 36  1  0  0  0  0
 35 33  1  0  0  0  0
 35 37  2  0  0  0  0
 36 38  1  0  0  0  0
 37 36  1  0  0  0  0
 38 39  2  0  0  0  0
 38 40  1  0  0  0  0
 39 41  1  0  0  0  0
 40 42  2  0  0  0  0
 41 43  2  0  0  0  0
 42 43  1  0  0  0  0
 43 44  1  0  0  0  0
 45 46  1  0  0  0  0
 47 46  1  0  0  0  0
 47 48  1  0  0  0  0
 48 49  1  0  0  0  0
 50 49  1  0  0  0  0
M  END
>  <REMARK>
 VINA RESULT:    -5.083      9.340     14.723
 INTER + INTRA:         -13.959
 INTER:                  -7.732
 INTRA:                  -6.227
 UNBOUND:                -5.161
 SMILES CC(=O)N[C@@H]1[C@@H](O)C[C@](O)(C(=O)O)O[C@H]1C(O)[C@H](O)CNC(=O)OCc1cn(-c2ccc(Br)cc2)nn1
 SMILES IDX 20 1 18 2 16 3 15 4 9 5 8 6 14 7 6 8 5 9 10 10 11 12 12 13
 SMILES IDX 13 14 7 16 4 18 2 19 1 21 3 22 17 23 19 25 21 27 22 28 23 30
 SMILES IDX 24 31 25 32 26 33 27 34 37 35 28 36 36 37 29 38 30 39 35 40
 SMILES IDX 31 41 34 42 32 43 33 44
 H PARENT 10 11 13 15 7 17 4 20 17 24 19 26 21 29
 Flexibility Score: inf
  4 active torsions:
  status: ('A' for Active; 'I' for Inactive)
    1  A    between atoms: CA   and  CB  
    2  A    between atoms: CB   and  CG  
    3  A    between atoms: CG   and  CD  
    4  A    between atoms: CD   and  CE  

>  <TORSDO>
F 15

>  <BEGIN_>
RES LYS A 131

$$$$
ligand_15_pose_17_2HRL.pdbqt
 OpenBabel07062320523D

  6  5  0  0  0  0  0  0  0  0999 V2000
   33.1930   34.6630    9.2900 C   0  0  0  0  0  0  0  0  0  0  0  0
   32.0600   35.3600   10.0340 C   0  0  0  0  0  0  0  0  0  0  0  0
   30.7080   34.7400    9.7900 C   0  0  0  0  0  0  0  0  0  0  0  0
   30.4740   34.5310    8.3020 C   0  0  0  0  0  0  0  0  0  0  0  0
   29.0180   34.7700    7.9530 C   0  0  0  0  0  0  0  0  0  0  0  0
   28.8880   35.7300    6.8220 N   0  0  0  0  0  0  0  0  0  0  0  0
  1  2  1  0  0  0  0
  3  2  1  0  0  0  0
  4  3  1  0  0  0  0
  5  4  1  0  0  0  0
  6  5  1  0  0  0  0
M  END
>  <EGIN_R>
ES LYS A 135

>  <REMARK>
  4 active torsions:
  status: ('A' for Active; 'I' for Inactive)
    5  A    between atoms: CA   and  CB  
    6  A    between atoms: CB   and  CG  
    7  A    between atoms: CG   and  CD  
    8  A    between atoms: CD   and  CE  

$$$$
