ligand_38_pose_18_2HRL.pdbqt
 OpenBabel07062320523D

 51 52  0  0  1  0  0  0  0  0999 V2000
   25.9040   29.8860   18.7210 N   0  0  0  0  0  0  0  0  0  0  0  0
   25.5560   31.2570   18.6660 C   0  0  0  0  0  0  0  0  0  0  0  0
   25.8940   32.0510   19.6030 O   0  0  0  0  0  0  0  0  0  0  0  0
   25.6070   29.2730   17.9330 H   0  0  0  0  0  0  0  0  0  0  0  0
   26.6460   29.4410   19.8700 C   0  0  0  0  0  0  0  0  0  0  0  0
   27.9500   28.7440   19.4540 C   0  0  2  0  0  0  0  0  0  0  0  0
   29.0470   29.6350   19.9180 C   0  0  2  0  0  0  0  0  0  0  0  0
   29.9070   29.1060   21.0280 C   0  0  2  0  0  0  0  0  0  0  0  0
   32.1250   29.3690   21.7120 C   0  0  2  0  0  0  0  0  0  0  0  0
   32.0580   27.9520   22.2480 C   0  0  0  0  0  0  0  0  0  0  0  0
   31.2030   29.5310   20.7080 O   0  0  0  0  0  0  0  0  0  0  0  0
   31.2200   27.0680   21.3370 C   0  0  1  0  0  0  0  0  0  0  0  0
   29.7980   27.6580   21.3150 C   0  0  1  0  0  0  0  0  0  0  0  0
   33.3850   29.4670   21.0820 O   0  0  0  0  0  0  0  0  0  0  0  0
   33.9020   28.6440   21.1680 H   0  0  0  0  0  0  0  0  0  0  0  0
   32.0850   30.3770   22.7740 C   0  0  0  0  0  0  0  0  0  0  0  0
   32.3910   30.0680   23.9490 O   0  0  0  0  0  0  0  0  0  0  0  0
   31.7140   31.6950   22.5510 O   0  0  0  0  0  0  0  0  0  0  0  0
   30.8840   32.0510   22.9820 H   0  0  0  0  0  0  0  0  0  0  0  0
   31.7630   26.9750   20.0820 O   0  0  0  0  0  0  0  0  0  0  0  0
   32.4170   27.7340   19.9570 H   0  0  0  0  0  0  0  0  0  0  0  0
   29.2950   27.4120   22.6730 N   0  0  0  0  0  0  0  0  0  0  0  0
   27.9640   26.9740   22.9030 C   0  0  0  0  0  0  0  0  0  0  0  0
   29.8850   27.5480   23.5230 H   0  0  0  0  0  0  0  0  0  0  0  0
   27.4690   26.7300   24.3060 C   0  0  0  0  0  0  0  0  0  0  0  0
   27.1690   26.7780   21.9700 O   0  0  0  0  0  0  0  0  0  0  0  0
   28.4090   30.7780   20.4700 O   0  0  0  0  0  0  0  0  0  0  0  0
   27.6000   30.9110   19.8990 H   0  0  0  0  0  0  0  0  0  0  0  0
   27.8720   28.5980   18.0710 O   0  0  0  0  0  0  0  0  0  0  0  0
   26.9490   28.7800   17.7910 H   0  0  0  0  0  0  0  0  0  0  0  0
   24.8430   31.8180   17.6170 O   0  0  0  0  0  0  0  0  0  0  0  0
   25.4340   32.2220   16.3950 C   0  0  0  0  0  0  0  0  0  0  0  0
   26.7760   31.6090   16.2130 C   0  0  0  0  0  0  0  0  0  0  0  0
   28.0050   32.2100   16.5060 C   0  0  0  0  0  0  0  0  0  0  0  0
   27.0940   30.3880   15.7460 N   0  0  0  0  0  0  0  0  0  0  0  0
   28.9810   31.3460   16.2090 N   0  0  0  0  0  0  0  0  0  0  0  0
   28.4050   30.2510   15.7510 N   0  0  0  0  0  0  0  0  0  0  0  0
   30.4110   31.5190   16.3410 C   0  0  0  0  0  0  0  0  0  0  0  0
   30.8430   32.7570   15.6420 C   0  0  0  0  0  0  0  0  0  0  0  0
   30.2970   33.1190   14.4300 C   0  0  0  0  0  0  0  0  0  0  0  0
   31.7980   33.5610   16.2000 C   0  0  0  0  0  0  0  0  0  0  0  0
   30.7030   34.2820   13.7710 C   0  0  0  0  0  0  0  0  0  0  0  0
   32.2110   34.7250   15.5510 C   0  0  0  0  0  0  0  0  0  0  0  0
   31.6580   35.0840   14.3330 C   0  0  0  0  0  0  0  0  0  0  0  0
   33.5390   35.8160   16.3560 Br  0  0  0  0  0  0  0  0  0  0  0  0
   29.8670   25.5550   16.9770 C   0  0  0  0  0  0  0  0  0  0  0  0
   28.3450   25.7220   17.0260 C   0  0  0  0  0  0  0  0  0  0  0  0
   27.6020   24.3990   16.9210 C   0  0  0  0  0  0  0  0  0  0  0  0
   26.1600   24.5260   17.3280 C   0  0  0  0  0  0  0  0  0  0  0  0
   26.0740   25.1810   18.7030 C   0  0  0  0  0  0  0  0  0  0  0  0
   25.4860   24.2440   19.6880 N   0  0  0  0  0  0  0  0  0  0  0  0
  1  5  1  0  0  0  0
  2  1  1  0  0  0  0
  2  3  2  0  0  0  0
  4  1  1  0  0  0  0
  6  5  1  6  0  0  0
  6  7  1  0  0  0  0
  7 27  1  1  0  0  0
  8  7  1  6  0  0  0
  8 13  1  0  0  0  0
  9 14  1  6  0  0  0
  9 10  1  0  0  0  0
  9 16  1  0  0  0  0
 11  8  1  0  0  0  0
 11  9  1  0  0  0  0
 12 20  1  6  0  0  0
 12 10  1  0  0  0  0
 13 12  1  0  0  0  0
 13 22  1  1  0  0  0
 14 15  1  0  0  0  0
 16 17  2  0  0  0  0
 18 16  1  0  0  0  0
 18 19  1  0  0  0  0
 21 20  1  0  0  0  0
 22 23  1  0  0  0  0
 22 24  1  0  0  0  0
 23 25  1  0  0  0  0
 26 23  2  0  0  0  0
 28 27  1  0  0  0  0
 29  6  1  0  0  0  0
 30 29  1  0  0  0  0
 31  2  1  0  0  0  0
 32 31  1  0  0  0  0
 33 32  1  0  0  0  0
 33 34  2  0  0  0  0
 35 37  2  0  0  0  0
 35 33  1  0  0  0  0
 36 38  1  0  0  0  0
 36 34  1  0  0  0  0
 37 36  1  0  0  0  0
 39 41  1  0  0  0  0
 39 38  1  0  0  0  0
 40 39  2  0  0  0  0
 42 44  2  0  0  0  0
 42 40  1  0  0  0  0
 43 41  2  0  0  0  0
 43 45  1  0  0  0  0
 44 43  1  0  0  0  0
 46 47  1  0  0  0  0
 48 47  1  0  0  0  0
 48 49  1  0  0  0  0
 49 50  1  0  0  0  0
 50 51  1  0  0  0  0
M  END
>  <REMARK>
 VINA RESULT:    -4.478      4.777      8.062
 INTER + INTRA:         -14.307
 INTER:                  -8.949
 INTRA:                  -5.358
 UNBOUND:                -6.295
 SMILES CC(=O)N[C@@H]1[C@@H](O)C[C@](O)(C(=O)O)O[C@H]1C(O)[C@H](O)CNC(=O)OCc1cn(Cc2cccc(Br)c2)nn1
 SMILES IDX 21 1 22 2 23 3 20 5 18 6 16 7 15 8 9 9 8 10 14 11 6 12 5 13
 SMILES IDX 10 14 11 16 12 17 13 18 7 20 4 22 2 23 1 25 3 26 17 27 19 29
 SMILES IDX 24 31 25 32 26 33 27 34 38 35 28 36 37 37 29 38 30 39 31 40
 SMILES IDX 36 41 32 42 34 43 33 44 35 45
 H PARENT 21 4 10 15 13 19 7 21 4 24 17 28 19 30
 Flexibility Score: inf
  4 active torsions:
  status: ('A' for Active; 'I' for Inactive)
    1  A    between atoms: CA   and  CB  
    2  A    between atoms: CB   and  CG  
    3  A    between atoms: CG   and  CD  
    4  A    between atoms: CD   and  CE  

>  <TORSDO>
F 16

>  <BEGIN_>
RES LYS A 131

$$$$
ligand_38_pose_18_2HRL.pdbqt
 OpenBabel07062320523D

  6  5  0  0  0  0  0  0  0  0999 V2000
   33.1930   34.6630    9.2900 C   0  0  0  0  0  0  0  0  0  0  0  0
   32.0600   35.3600   10.0340 C   0  0  0  0  0  0  0  0  0  0  0  0
   30.7590   34.6010    9.9980 C   0  0  0  0  0  0  0  0  0  0  0  0
   30.3930   34.2290    8.5700 C   0  0  0  0  0  0  0  0  0  0  0  0
   29.0080   34.7400    8.2240 C   0  0  0  0  0  0  0  0  0  0  0  0
   29.0170   36.2140    8.0110 N   0  0  0  0  0  0  0  0  0  0  0  0
  1  2  1  0  0  0  0
  3  2  1  0  0  0  0
  4  3  1  0  0  0  0
  5  4  1  0  0  0  0
  6  5  1  0  0  0  0
M  END
>  <EGIN_R>
ES LYS A 135

>  <REMARK>
  4 active torsions:
  status: ('A' for Active; 'I' for Inactive)
    5  A    between atoms: CA   and  CB  
    6  A    between atoms: CB   and  CG  
    7  A    between atoms: CG   and  CD  
    8  A    between atoms: CD   and  CE  

$$$$
