ligand_27_pose_16_2HRL.pdbqt
 OpenBabel07062320523D

 50 50  0  0  1  0  0  0  0  0999 V2000
   21.3770   40.4650    9.9450 C   0  0  0  0  0  0  0  0  0  0  0  0
   21.6780   39.6700    8.7070 C   0  0  2  0  0  0  0  0  0  0  0  0
   23.1330   39.3300    8.5640 C   0  0  2  0  0  0  0  0  0  0  0  0
   23.3090   37.9520    7.9180 C   0  0  2  0  0  0  0  0  0  0  0  0
   21.5740   36.4690    8.4840 C   0  0  1  0  0  0  0  0  0  0  0  0
   22.6200   35.4050    8.7860 C   0  0  0  0  0  0  0  0  0  0  0  0
   22.0970   37.4330    7.6930 O   0  0  0  0  0  0  0  0  0  0  0  0
   23.6540   36.1410    9.6370 C   0  0  1  0  0  0  0  0  0  0  0  0
   24.2750   37.1800    8.7440 C   0  0  1  0  0  0  0  0  0  0  0  0
   21.1190   36.9170    9.7170 O   0  0  0  0  0  0  0  0  0  0  0  0
   21.5060   36.3410   10.4220 H   0  0  0  0  0  0  0  0  0  0  0  0
   20.4370   35.8450    7.7660 C   0  0  0  0  0  0  0  0  0  0  0  0
   19.5130   36.5750    7.3400 O   0  0  0  0  0  0  0  0  0  0  0  0
   20.3490   34.4790    7.5420 O   0  0  0  0  0  0  0  0  0  0  0  0
   19.7240   34.1500    6.7990 H   0  0  0  0  0  0  0  0  0  0  0  0
   23.0590   36.7960   10.7090 O   0  0  0  0  0  0  0  0  0  0  0  0
   22.0820   36.9470   10.5650 H   0  0  0  0  0  0  0  0  0  0  0  0
   25.2380   36.4940    7.9090 N   0  0  0  0  0  0  0  0  0  0  0  0
   26.4890   37.1040    7.6330 C   0  0  0  0  0  0  0  0  0  0  0  0
   25.0290   35.5400    7.4930 H   0  0  0  0  0  0  0  0  0  0  0  0
   27.4720   36.3950    6.7740 C   0  0  0  0  0  0  0  0  0  0  0  0
   26.7540   38.2350    8.1150 O   0  0  0  0  0  0  0  0  0  0  0  0
   23.6640   39.3050    9.8710 O   0  0  0  0  0  0  0  0  0  0  0  0
   23.9890   38.4230   10.1000 H   0  0  0  0  0  0  0  0  0  0  0  0
   21.2760   40.4150    7.5850 O   0  0  0  0  0  0  0  0  0  0  0  0
   22.0270   40.4840    6.9700 H   0  0  0  0  0  0  0  0  0  0  0  0
   20.5110   39.6940   10.8300 N   0  0  0  0  0  0  0  0  0  0  0  0
   21.0130   39.1430   12.0350 C   0  0  0  0  0  0  0  0  0  0  0  0
   19.5190   39.5630   10.5480 H   0  0  0  0  0  0  0  0  0  0  0  0
   22.2190   39.3260   12.3370 O   0  0  0  0  0  0  0  0  0  0  0  0
   20.2250   38.4040   12.9030 O   0  0  0  0  0  0  0  0  0  0  0  0
   20.8610   37.4940   13.7730 C   0  0  0  0  0  0  0  0  0  0  0  0
   20.9100   36.1540   13.1300 C   0  0  0  0  0  0  0  0  0  0  0  0
   21.7050   35.0860   13.5060 C   0  0  0  0  0  0  0  0  0  0  0  0
   20.2100   35.7080   12.0710 N   0  0  0  0  0  0  0  0  0  0  0  0
   21.4700   34.0380   12.6820 N   0  0  0  0  0  0  0  0  0  0  0  0
   20.5560   34.4540   11.8220 N   0  0  0  0  0  0  0  0  0  0  0  0
   22.0850   32.7560   12.7340 C   0  0  0  0  0  0  0  0  0  0  0  0
   23.4210   32.6650   13.0620 C   0  0  0  0  0  0  0  0  0  0  0  0
   21.4120   31.5820   12.4720 C   0  0  0  0  0  0  0  0  0  0  0  0
   24.0650   31.4400   13.1250 C   0  0  0  0  0  0  0  0  0  0  0  0
   22.0210   30.3460   12.5260 C   0  0  0  0  0  0  0  0  0  0  0  0
   23.3600   30.2890   12.8570 C   0  0  0  0  0  0  0  0  0  0  0  0
   21.1190   28.8620   12.1820 Cl  0  0  0  0  0  0  0  0  0  0  0  0
   29.8670   25.5550   16.9770 C   0  0  0  0  0  0  0  0  0  0  0  0
   28.3450   25.7220   17.0260 C   0  0  0  0  0  0  0  0  0  0  0  0
   27.6020   24.3990   16.9220 C   0  0  0  0  0  0  0  0  0  0  0  0
   26.1550   24.5300   17.3100 C   0  0  0  0  0  0  0  0  0  0  0  0
   25.9970   25.6720   18.3080 C   0  0  0  0  0  0  0  0  0  0  0  0
   24.6710   26.3170   18.1540 N   0  0  0  0  0  0  0  0  0  0  0  0
  1 27  1  0  0  0  0
  2  1  1  1  0  0  0
  3  2  1  0  0  0  0
  3 23  1  1  0  0  0
  4  3  1  1  0  0  0
  4  9  1  0  0  0  0
  5 12  1  6  0  0  0
  5  6  1  0  0  0  0
  6  8  1  0  0  0  0
  7  4  1  0  0  0  0
  7  5  1  0  0  0  0
  8 16  1  1  0  0  0
  9 18  1  6  0  0  0
  9  8  1  0  0  0  0
 10 11  1  0  0  0  0
 13 12  2  0  0  0  0
 14 12  1  0  0  0  0
 15 14  1  0  0  0  0
 17 16  1  0  0  0  0
 19 18  1  0  0  0  0
 19 22  2  0  0  0  0
 20 18  1  0  0  0  0
 21 19  1  0  0  0  0
 23 24  1  0  0  0  0
 25  2  1  0  0  0  0
 26 25  1  0  0  0  0
 27 28  1  0  0  0  0
 28 30  2  0  0  0  0
 28 31  1  0  0  0  0
 29 27  1  0  0  0  0
 31 32  1  0  0  0  0
 33 34  2  0  0  0  0
 33 32  1  0  0  0  0
 35 33  1  0  0  0  0
 36 38  1  0  0  0  0
 36 34  1  0  0  0  0
 37 35  2  0  0  0  0
 37 36  1  0  0  0  0
 38 39  2  0  0  0  0
 39 41  1  0  0  0  0
 40 42  2  0  0  0  0
 40 38  1  0  0  0  0
 42 43  1  0  0  0  0
 43 41  2  0  0  0  0
 44 42  1  0  0  0  0
 45 46  1  0  0  0  0
 47 46  1  0  0  0  0
 47 48  1  0  0  0  0
 48 49  1  0  0  0  0
 50 49  1  0  0  0  0
M  END
>  <REMARK>
 VINA RESULT:    -5.395      8.586     13.820
 INTER + INTRA:         -13.835
 INTER:                  -7.920
 INTRA:                  -5.915
 UNBOUND:                -4.497
 SMILES CC(=O)N[C@@H]1[C@@H](O)C[C@](O)(C(=O)O)O[C@H]1C(O)[C@H](O)CNC(=O)OCc1cn(-c2cccc(Cl)c2)nn1
 SMILES IDX 20 1 18 2 16 3 15 4 9 5 8 6 14 7 6 8 5 9 10 10 11 12 12 13
 SMILES IDX 13 14 7 16 4 18 2 19 1 21 3 22 17 23 19 25 21 27 22 28 23 30
 SMILES IDX 24 31 25 32 26 33 27 34 37 35 28 36 36 37 29 38 30 39 35 40
 SMILES IDX 31 41 33 42 32 43 34 44
 H PARENT 10 11 13 15 7 17 4 20 17 24 19 26 21 29
 Flexibility Score: inf
  4 active torsions:
  status: ('A' for Active; 'I' for Inactive)
    1  A    between atoms: CA   and  CB  
    2  A    between atoms: CB   and  CG  
    3  A    between atoms: CG   and  CD  
    4  A    between atoms: CD   and  CE  

>  <TORSDO>
F 15

>  <BEGIN_>
RES LYS A 131

$$$$
ligand_27_pose_16_2HRL.pdbqt
 OpenBabel07062320523D

  6  5  0  0  0  0  0  0  0  0999 V2000
   33.1930   34.6630    9.2900 C   0  0  0  0  0  0  0  0  0  0  0  0
   32.0600   35.3600   10.0340 C   0  0  0  0  0  0  0  0  0  0  0  0
   30.7950   35.4860    9.2240 C   0  0  0  0  0  0  0  0  0  0  0  0
   30.1750   34.1190    8.9810 C   0  0  0  0  0  0  0  0  0  0  0  0
   28.7170   34.1140    9.3970 C   0  0  0  0  0  0  0  0  0  0  0  0
   28.5670   34.4890   10.8300 N   0  0  0  0  0  0  0  0  0  0  0  0
  1  2  1  0  0  0  0
  3  2  1  0  0  0  0
  4  3  1  0  0  0  0
  4  5  1  0  0  0  0
  5  6  1  0  0  0  0
M  END
>  <EGIN_R>
ES LYS A 135

>  <REMARK>
  4 active torsions:
  status: ('A' for Active; 'I' for Inactive)
    5  A    between atoms: CA   and  CB  
    6  A    between atoms: CB   and  CG  
    7  A    between atoms: CG   and  CD  
    8  A    between atoms: CD   and  CE  

$$$$
