ligand_69_pose_16_2HRL.pdbqt
 OpenBabel07062320523D

 54 51  0  0  1  0  0  0  0  0999 V2000
   23.5240   38.9490   10.9240 N   0  0  0  0  0  0  0  0  0  0  0  0
   24.5840   39.7450   11.4530 C   0  0  0  0  0  0  0  0  0  0  0  0
   25.0450   40.7510   10.8540 O   0  0  0  0  0  0  0  0  0  0  0  0
   23.1620   38.1200   11.4430 H   0  0  0  0  0  0  0  0  0  0  0  0
   22.9910   39.3710    9.6280 C   0  0  0  0  0  0  0  0  0  0  0  0
   23.0990   38.1700    8.7070 C   0  0  2  0  0  0  0  0  0  0  0  0
   24.4470   38.0770    8.0280 C   0  0  2  0  0  0  0  0  0  0  0  0
   25.1860   36.8290    8.3950 C   0  0  2  0  0  0  0  0  0  0  0  0
   26.2070   35.5830   10.0080 C   0  0  2  0  0  0  0  0  0  0  0  0
   26.2610   34.6100    8.8490 C   0  0  0  0  0  0  0  0  0  0  0  0
   25.3840   36.6700    9.7400 O   0  0  0  0  0  0  0  0  0  0  0  0
   26.8260   35.2540    7.5990 C   0  0  1  0  0  0  0  0  0  0  0  0
   26.5250   36.7210    7.6990 C   0  0  1  0  0  0  0  0  0  0  0  0
   27.4820   35.9750   10.4000 O   0  0  0  0  0  0  0  0  0  0  0  0
   27.6640   36.9250   10.1750 H   0  0  0  0  0  0  0  0  0  0  0  0
   25.5910   34.8540   11.1430 C   0  0  0  0  0  0  0  0  0  0  0  0
   24.3620   34.9310   11.4120 O   0  0  0  0  0  0  0  0  0  0  0  0
   26.3840   34.0600   11.9420 O   0  0  0  0  0  0  0  0  0  0  0  0
   27.0120   34.4100   12.6590 H   0  0  0  0  0  0  0  0  0  0  0  0
   28.1690   34.9610    7.5500 O   0  0  0  0  0  0  0  0  0  0  0  0
   28.6680   35.8270    7.6690 H   0  0  0  0  0  0  0  0  0  0  0  0
   26.5950   37.4410    6.4820 N   0  0  0  0  0  0  0  0  0  0  0  0
   27.7870   37.8990    5.8580 C   0  0  0  0  0  0  0  0  0  0  0  0
   25.7030   37.6620    5.9900 H   0  0  0  0  0  0  0  0  0  0  0  0
   27.7550   38.6540    4.5700 C   0  0  0  0  0  0  0  0  0  0  0  0
   28.8670   37.6480    6.4270 O   0  0  0  0  0  0  0  0  0  0  0  0
   25.1720   39.2350    8.1690 O   0  0  0  0  0  0  0  0  0  0  0  0
   24.5480   39.9880    8.2610 H   0  0  0  0  0  0  0  0  0  0  0  0
   22.1590   38.3060    7.6580 O   0  0  0  0  0  0  0  0  0  0  0  0
   21.3120   38.7150    7.9910 H   0  0  0  0  0  0  0  0  0  0  0  0
   25.1380   39.4140   12.6650 O   0  0  0  0  0  0  0  0  0  0  0  0
   25.0370   38.1350   13.2660 C   0  0  0  0  0  0  0  0  0  0  0  0
   26.3910   37.5420   13.3430 C   0  0  0  0  0  0  0  0  0  0  0  0
   26.8740   36.5760   14.1980 C   0  0  0  0  0  0  0  0  0  0  0  0
   27.4150   37.8800   12.5350 N   0  0  0  0  0  0  0  0  0  0  0  0
   28.1660   36.3520   13.8960 N   0  0  0  0  0  0  0  0  0  0  0  0
   28.4550   37.1660   12.8780 N   0  0  0  0  0  0  0  0  0  0  0  0
   29.0590   35.4010   14.5600 C   0  0  2  0  0  0  0  0  0  0  0  0
   29.9560   36.1780   15.4630 C   0  0  0  0  0  0  0  0  0  0  0  0
   30.7130   35.3610   16.4500 *   0  0  0  0  0  0  0  0  0  0  0  0
   31.1320   36.1160   17.5680 O   0  0  0  0  0  0  0  0  0  0  0  0
   30.9400   37.0620   17.3930 H   0  0  0  0  0  0  0  0  0  0  0  0
   29.7670   34.6280   13.5020 C   0  0  0  0  0  0  0  0  0  0  0  0
   31.2330   34.9190   13.3930 C   0  0  1  0  0  0  0  0  0  0  0  0
   32.0260   34.4120   14.5350 C   0  0  0  0  0  0  0  0  0  0  0  0
   31.8130   34.5970   15.8180 *   0  0  0  0  0  0  0  0  0  0  0  0
   31.7740   34.5020   12.1780 O   0  0  0  0  0  0  0  0  0  0  0  0
   32.2840   35.2270   11.7380 H   0  0  0  0  0  0  0  0  0  0  0  0
   29.8670   25.5550   16.9770 C   0  0  0  0  0  0  0  0  0  0  0  0
   28.3450   25.7220   17.0260 C   0  0  0  0  0  0  0  0  0  0  0  0
   27.6020   24.3980   16.9350 C   0  0  0  0  0  0  0  0  0  0  0  0
   26.2460   24.4640   17.5800 C   0  0  0  0  0  0  0  0  0  0  0  0
   25.6150   23.0750   17.5830 C   0  0  0  0  0  0  0  0  0  0  0  0
   24.2930   23.1070   18.2510 N   0  0  0  0  0  0  0  0  0  0  0  0
  1  4  1  0  0  0  0
  1  2  1  0  0  0  0
  2 31  1  0  0  0  0
  3  2  2  0  0  0  0
  5  1  1  0  0  0  0
  6  5  1  1  0  0  0
  7 27  1  1  0  0  0
  7  6  1  0  0  0  0
  8  7  1  1  0  0  0
  8 11  1  0  0  0  0
  9 14  1  1  0  0  0
  9 16  1  0  0  0  0
 10  9  1  0  0  0  0
 11  9  1  0  0  0  0
 12 20  1  1  0  0  0
 12 13  1  0  0  0  0
 12 10  1  0  0  0  0
 13 22  1  6  0  0  0
 13  8  1  0  0  0  0
 15 14  1  0  0  0  0
 16 17  2  0  0  0  0
 16 18  1  0  0  0  0
 18 19  1  0  0  0  0
 20 21  1  0  0  0  0
 23 26  2  0  0  0  0
 23 22  1  0  0  0  0
 24 22  1  0  0  0  0
 25 23  1  0  0  0  0
 27 28  1  0  0  0  0
 29 30  1  0  0  0  0
 29  6  1  0  0  0  0
 31 32  1  0  0  0  0
 32 33  1  0  0  0  0
 33 34  2  0  0  0  0
 35 37  2  0  0  0  0
 35 33  1  0  0  0  0
 36 34  1  0  0  0  0
 36 38  1  0  0  0  0
 37 36  1  0  0  0  0
 38 39  1  6  0  0  0
 42 41  1  0  0  0  0
 43 38  1  0  0  0  0
 44 43  1  0  0  0  0
 44 45  1  1  0  0  0
 47 44  1  0  0  0  0
 48 47  1  0  0  0  0
 49 50  1  0  0  0  0
 51 50  1  0  0  0  0
 51 52  1  0  0  0  0
 52 53  1  0  0  0  0
 53 54  1  0  0  0  0
M  END
>  <REMARK>
 VINA RESULT:    -7.584      3.943      8.366
 INTER + INTRA:         -12.754
 INTER:                  -7.707
 INTRA:                  -5.047
 UNBOUND:                 3.032
 SMILES CC(=O)N[C@@H]1[C@@H](O)C[C@](O)(C(=O)O)O[C@H]1C(O)[C@H](O)CNC(=O)OCc1cn(C2CC(O)C=C[C@@H](O)C2)nn1
 SMILES IDX 21 1 22 2 23 3 20 5 18 6 16 7 15 8 9 9 8 10 14 11 6 12 5 13
 SMILES IDX 10 14 11 16 12 17 13 18 7 20 4 22 2 23 1 25 3 26 17 27 19 29
 SMILES IDX 24 31 25 32 26 33 27 34 39 35 28 36 38 37 29 38 30 39 31 40
 SMILES IDX 32 42 37 44 35 45 34 46 33 47 36 49
 H PARENT 21 4 10 15 13 19 7 21 4 24 17 28 19 30 32 43 36 50
 Flexibility Score: 90.00
  4 active torsions:
  status: ('A' for Active; 'I' for Inactive)
    1  A    between atoms: CA   and  CB  
    2  A    between atoms: CB   and  CG  
    3  A    between atoms: CG   and  CD  
    4  A    between atoms: CD   and  CE  

>  <TORSDO>
F 17

>  <BEGIN_>
RES LYS A 131

$$$$
ligand_69_pose_16_2HRL.pdbqt
 OpenBabel07062320523D

  6  5  0  0  0  0  0  0  0  0999 V2000
   33.1930   34.6630    9.2900 C   0  0  0  0  0  0  0  0  0  0  0  0
   32.0600   35.3600   10.0340 C   0  0  0  0  0  0  0  0  0  0  0  0
   30.9430   35.8220    9.1340 C   0  0  0  0  0  0  0  0  0  0  0  0
   30.3340   37.1150    9.6550 C   0  0  0  0  0  0  0  0  0  0  0  0
   31.0260   38.3150    9.0380 C   0  0  0  0  0  0  0  0  0  0  0  0
   31.8810   39.0130   10.0380 N   0  0  0  0  0  0  0  0  0  0  0  0
  1  2  1  0  0  0  0
  3  4  1  0  0  0  0
  3  2  1  0  0  0  0
  5  4  1  0  0  0  0
  5  6  1  0  0  0  0
M  END
>  <EGIN_R>
ES LYS A 135

>  <REMARK>
  4 active torsions:
  status: ('A' for Active; 'I' for Inactive)
    5  A    between atoms: CA   and  CB  
    6  A    between atoms: CB   and  CG  
    7  A    between atoms: CG   and  CD  
    8  A    between atoms: CD   and  CE  

$$$$
