ligand_10_pose_8_2HRL.pdbqt
 OpenBabel07062320523D

 53 53  0  0  1  0  0  0  0  0999 V2000
   28.1540   29.0170   18.4250 N   0  0  0  0  0  0  0  0  0  0  0  0
   27.2120   29.9720   17.9380 C   0  0  0  0  0  0  0  0  0  0  0  0
   26.1240   30.0780   18.5140 O   0  0  0  0  0  0  0  0  0  0  0  0
   29.0590   28.9820   17.8840 H   0  0  0  0  0  0  0  0  0  0  0  0
   27.9370   28.1570   19.5460 C   0  0  0  0  0  0  0  0  0  0  0  0
   28.4470   28.7930   20.8230 C   0  0  2  0  0  0  0  0  0  0  0  0
   29.9350   28.5510   21.0000 C   0  0  2  0  0  0  0  0  0  0  0  0
   30.7960   29.6720   20.5410 C   0  0  2  0  0  0  0  0  0  0  0  0
   32.4360   29.2590   22.1340 C   0  0  2  0  0  0  0  0  0  0  0  0
   31.6990   30.0650   23.1180 C   0  0  0  0  0  0  0  0  0  0  0  0
   32.1490   29.4380   20.8050 O   0  0  0  0  0  0  0  0  0  0  0  0
   30.6910   31.0310   22.6360 C   0  0  1  0  0  0  0  0  0  0  0  0
   30.4140   30.9880   21.1610 C   0  0  1  0  0  0  0  0  0  0  0  0
   32.2590   27.8720   22.3750 O   0  0  0  0  0  0  0  0  0  0  0  0
   32.7670   27.4220   21.6480 H   0  0  0  0  0  0  0  0  0  0  0  0
   33.9050   29.4610   22.2720 C   0  0  0  0  0  0  0  0  0  0  0  0
   34.5020   30.5200   21.9720 O   0  0  0  0  0  0  0  0  0  0  0  0
   34.6550   28.4060   22.7660 O   0  0  0  0  0  0  0  0  0  0  0  0
   34.4360   27.9510   23.6620 H   0  0  0  0  0  0  0  0  0  0  0  0
   29.4980   30.8830   23.3380 O   0  0  0  0  0  0  0  0  0  0  0  0
   28.6950   30.9750   22.7960 H   0  0  0  0  0  0  0  0  0  0  0  0
   31.1630   32.0670   20.4710 N   0  0  0  0  0  0  0  0  0  0  0  0
   30.5790   32.7910   19.4080 C   0  0  0  0  0  0  0  0  0  0  0  0
   32.1350   32.3170   20.7500 H   0  0  0  0  0  0  0  0  0  0  0  0
   31.2950   33.8830   18.6850 C   0  0  0  0  0  0  0  0  0  0  0  0
   29.4140   32.5020   19.0620 O   0  0  0  0  0  0  0  0  0  0  0  0
   30.1670   27.4090   20.1800 O   0  0  0  0  0  0  0  0  0  0  0  0
   29.6960   27.5030   19.3190 H   0  0  0  0  0  0  0  0  0  0  0  0
   27.6770   28.3240   21.8790 O   0  0  0  0  0  0  0  0  0  0  0  0
   28.1390   28.3650   22.7520 H   0  0  0  0  0  0  0  0  0  0  0  0
   27.4740   30.7820   16.8460 O   0  0  0  0  0  0  0  0  0  0  0  0
   28.4210   30.3890   15.8850 C   0  0  0  0  0  0  0  0  0  0  0  0
   29.4900   31.3970   15.6890 C   0  0  0  0  0  0  0  0  0  0  0  0
   29.2490   32.6430   15.1620 C   0  0  0  0  0  0  0  0  0  0  0  0
   30.7930   31.3370   15.9500 N   0  0  0  0  0  0  0  0  0  0  0  0
   30.4310   33.3110   15.1200 N   0  0  0  0  0  0  0  0  0  0  0  0
   31.3260   32.4950   15.5990 N   0  0  0  0  0  0  0  0  0  0  0  0
   30.5460   34.6750   14.6130 C   0  0  1  0  0  0  0  0  0  0  0  0
   31.8730   35.2520   15.0220 C   0  0  0  0  0  0  0  0  0  0  0  0
   31.7410   36.5680   15.6660 C   0  0  0  0  0  0  0  0  0  0  0  0
   30.7540   36.7820   16.4120 O   0  0  0  0  0  0  0  0  0  0  0  0
   32.7060   37.5360   15.4360 O   0  0  0  0  0  0  0  0  0  0  0  0
   33.6220   37.2470   15.0580 H   0  0  0  0  0  0  0  0  0  0  0  0
   30.5310   34.6230   13.1250 C   0  0  0  0  0  0  0  0  0  0  0  0
   29.4840   34.6900   12.4320 O   0  0  0  0  0  0  0  0  0  0  0  0
   31.7400   34.4900   12.4650 O   0  0  0  0  0  0  0  0  0  0  0  0
   32.6330   34.5990   12.9310 H   0  0  0  0  0  0  0  0  0  0  0  0
   29.8670   25.5550   16.9770 C   0  0  0  0  0  0  0  0  0  0  0  0
   28.3450   25.7220   17.0260 C   0  0  0  0  0  0  0  0  0  0  0  0
   27.5990   24.4380   16.6970 C   0  0  0  0  0  0  0  0  0  0  0  0
   27.0210   23.7890   17.9240 C   0  0  0  0  0  0  0  0  0  0  0  0
   25.6010   23.3160   17.6290 C   0  0  0  0  0  0  0  0  0  0  0  0
   24.8370   24.3740   16.9280 N   0  0  0  0  0  0  0  0  0  0  0  0
  1  5  1  0  0  0  0
  2  1  1  0  0  0  0
  2  3  2  0  0  0  0
  4  1  1  0  0  0  0
  6  5  1  6  0  0  0
  6  7  1  0  0  0  0
  6 29  1  0  0  0  0
  7 27  1  6  0  0  0
  8 11  1  0  0  0  0
  8  7  1  1  0  0  0
  8 13  1  0  0  0  0
  9 16  1  1  0  0  0
  9 14  1  0  0  0  0
  9 10  1  0  0  0  0
 11  9  1  0  0  0  0
 12 10  1  0  0  0  0
 12 20  1  1  0  0  0
 13 22  1  6  0  0  0
 13 12  1  0  0  0  0
 15 14  1  0  0  0  0
 16 18  1  0  0  0  0
 17 16  2  0  0  0  0
 18 19  1  0  0  0  0
 21 20  1  0  0  0  0
 22 24  1  0  0  0  0
 23 22  1  0  0  0  0
 25 23  1  0  0  0  0
 26 23  2  0  0  0  0
 28 27  1  0  0  0  0
 29 30  1  0  0  0  0
 31  2  1  0  0  0  0
 32 31  1  0  0  0  0
 33 32  1  0  0  0  0
 33 35  1  0  0  0  0
 34 33  2  0  0  0  0
 36 34  1  0  0  0  0
 36 37  1  0  0  0  0
 37 35  2  0  0  0  0
 38 39  1  6  0  0  0
 38 36  1  0  0  0  0
 39 40  1  0  0  0  0
 40 41  2  0  0  0  0
 42 40  1  0  0  0  0
 43 42  1  0  0  0  0
 44 38  1  0  0  0  0
 45 44  2  0  0  0  0
 46 47  1  0  0  0  0
 46 44  1  0  0  0  0
 48 49  1  0  0  0  0
 50 49  1  0  0  0  0
 50 51  1  0  0  0  0
 52 51  1  0  0  0  0
 53 52  1  0  0  0  0
M  END
>  <REMARK>
 VINA RESULT:    -4.675      3.677      5.893
 INTER + INTRA:         -14.929
 INTER:                  -9.170
 INTRA:                  -5.759
 UNBOUND:                -5.744
 SMILES CC(=O)N[C@@H]1[C@@H](O)C[C@](O)(C(=O)O)O[C@H]1C(O)[C@H](O)CNC(=O)OCc1cn([C@@H](CC(=O)O)C(=O)O)nn1
 SMILES IDX 21 1 22 2 23 3 20 5 18 6 16 7 15 8 9 9 8 10 14 11 6 12 5 13
 SMILES IDX 10 14 11 16 12 17 13 18 7 20 4 22 2 23 1 25 3 26 17 27 19 29
 SMILES IDX 24 31 25 32 26 33 27 34 38 35 28 36 37 37 29 38 30 39 31 40
 SMILES IDX 32 41 33 42 34 44 35 45 36 46
 H PARENT 21 4 10 15 13 19 7 21 4 24 17 28 19 30 33 43 36 47
 Flexibility Score: inf
  4 active torsions:
  status: ('A' for Active; 'I' for Inactive)
    1  A    between atoms: CA   and  CB  
    2  A    between atoms: CB   and  CG  
    3  A    between atoms: CG   and  CD  
    4  A    between atoms: CD   and  CE  

>  <TORSDO>
F 20

>  <BEGIN_>
RES LYS A 131

$$$$
ligand_10_pose_8_2HRL.pdbqt
 OpenBabel07062320523D

  6  5  0  0  0  0  0  0  0  0999 V2000
   33.1930   34.6630    9.2900 C   0  0  0  0  0  0  0  0  0  0  0  0
   32.0600   35.3600   10.0340 C   0  0  0  0  0  0  0  0  0  0  0  0
   30.7980   35.4930    9.2220 C   0  0  0  0  0  0  0  0  0  0  0  0
   30.2230   34.1240    8.8950 C   0  0  0  0  0  0  0  0  0  0  0  0
   28.7150   34.1250    9.0650 C   0  0  0  0  0  0  0  0  0  0  0  0
   28.1750   35.5120    9.0520 N   0  0  0  0  0  0  0  0  0  0  0  0
  1  2  1  0  0  0  0
  3  2  1  0  0  0  0
  4  5  1  0  0  0  0
  4  3  1  0  0  0  0
  6  5  1  0  0  0  0
M  END
>  <EGIN_R>
ES LYS A 135

>  <REMARK>
  4 active torsions:
  status: ('A' for Active; 'I' for Inactive)
    5  A    between atoms: CA   and  CB  
    6  A    between atoms: CB   and  CG  
    7  A    between atoms: CG   and  CD  
    8  A    between atoms: CD   and  CE  

$$$$
