ligand_5_pose_6_2HRL.pdbqt
 OpenBabel07062320523D

 51 52  0  0  1  0  0  0  0  0999 V2000
   28.7270   27.6940   19.8940 N   0  0  0  0  0  0  0  0  0  0  0  0
   29.1730   27.8690   21.2220 C   0  0  0  0  0  0  0  0  0  0  0  0
   28.5620   27.4020   22.1940 O   0  0  0  0  0  0  0  0  0  0  0  0
   29.3370   28.1740   19.1560 H   0  0  0  0  0  0  0  0  0  0  0  0
   27.6090   26.9820   19.4220 C   0  0  0  0  0  0  0  0  0  0  0  0
   26.4620   27.6990   18.8680 C   0  0  2  0  0  0  0  0  0  0  0  0
   26.5620   28.3460   17.5790 C   0  0  1  0  0  0  0  0  0  0  0  0
   25.4090   29.3020   17.2030 C   0  0  2  0  0  0  0  0  0  0  0  0
   23.1540   28.8050   16.7230 C   0  0  2  0  0  0  0  0  0  0  0  0
   23.4260   28.9050   15.2140 C   0  0  0  0  0  0  0  0  0  0  0  0
   24.3090   28.4700   17.3070 O   0  0  0  0  0  0  0  0  0  0  0  0
   24.3360   30.0590   15.0400 C   0  0  1  0  0  0  0  0  0  0  0  0
   25.5850   30.0050   15.9380 C   0  0  1  0  0  0  0  0  0  0  0  0
   22.3310   27.6490   16.8190 O   0  0  0  0  0  0  0  0  0  0  0  0
   21.6700   27.7460   17.5460 H   0  0  0  0  0  0  0  0  0  0  0  0
   22.4070   29.9250   17.2590 C   0  0  0  0  0  0  0  0  0  0  0  0
   21.3580   30.3190   16.6900 O   0  0  0  0  0  0  0  0  0  0  0  0
   22.7440   30.6540   18.4010 O   0  0  0  0  0  0  0  0  0  0  0  0
   23.4840   31.3600   18.4010 H   0  0  0  0  0  0  0  0  0  0  0  0
   24.8060   30.2160   13.7260 O   0  0  0  0  0  0  0  0  0  0  0  0
   24.1330   30.8250   13.2870 H   0  0  0  0  0  0  0  0  0  0  0  0
   25.9730   31.3810   15.9880 N   0  0  0  0  0  0  0  0  0  0  0  0
   27.2370   31.9220   15.7490 C   0  0  0  0  0  0  0  0  0  0  0  0
   25.1920   32.0580   16.2400 H   0  0  0  0  0  0  0  0  0  0  0  0
   27.4930   33.3930   15.8450 C   0  0  0  0  0  0  0  0  0  0  0  0
   28.1420   31.1340   15.4540 O   0  0  0  0  0  0  0  0  0  0  0  0
   27.7880   28.9910   17.4560 O   0  0  0  0  0  0  0  0  0  0  0  0
   28.4220   28.4900   16.8830 H   0  0  0  0  0  0  0  0  0  0  0  0
   25.8920   28.5340   19.8710 O   0  0  0  0  0  0  0  0  0  0  0  0
   25.4270   29.3020   19.4460 H   0  0  0  0  0  0  0  0  0  0  0  0
   30.3490   28.5930   21.5040 O   0  0  0  0  0  0  0  0  0  0  0  0
   30.2740   29.9770   21.7430 C   0  0  0  0  0  0  0  0  0  0  0  0
   29.9600   30.6810   20.4890 C   0  0  0  0  0  0  0  0  0  0  0  0
   30.9100   31.3830   19.7380 C   0  0  0  0  0  0  0  0  0  0  0  0
   28.8210   30.8180   19.8170 N   0  0  0  0  0  0  0  0  0  0  0  0
   30.2960   31.9030   18.6590 N   0  0  0  0  0  0  0  0  0  0  0  0
   29.0210   31.5350   18.7440 N   0  0  0  0  0  0  0  0  0  0  0  0
   30.8830   32.6880   17.6300 C   0  0  0  0  0  0  0  0  0  0  0  0
   31.0470   32.2330   16.3410 C   0  0  0  0  0  0  0  0  0  0  0  0
   31.3230   33.9860   17.8950 C   0  0  0  0  0  0  0  0  0  0  0  0
   31.6210   33.0170   15.3470 C   0  0  0  0  0  0  0  0  0  0  0  0
   31.8940   34.7630   16.9060 C   0  0  0  0  0  0  0  0  0  0  0  0
   32.0500   34.2930   15.6230 C   0  0  0  0  0  0  0  0  0  0  0  0
   32.6120   35.0570   14.6450 O   0  0  0  0  0  0  0  0  0  0  0  0
   33.8100   34.6410   14.0260 C   0  0  0  0  0  0  0  0  0  0  0  0
   29.8670   25.5550   16.9770 C   0  0  0  0  0  0  0  0  0  0  0  0
   28.3450   25.7220   17.0260 C   0  0  0  0  0  0  0  0  0  0  0  0
   27.6020   24.3980   16.9400 C   0  0  0  0  0  0  0  0  0  0  0  0
   26.1200   24.5660   17.1290 C   0  0  0  0  0  0  0  0  0  0  0  0
   25.7050   23.9590   18.4660 C   0  0  0  0  0  0  0  0  0  0  0  0
   24.4620   24.5960   18.9610 N   0  0  0  0  0  0  0  0  0  0  0  0
  1  2  1  0  0  0  0
  2 31  1  0  0  0  0
  2  3  2  0  0  0  0
  4  1  1  0  0  0  0
  5  1  1  0  0  0  0
  6  5  1  1  0  0  0
  6 29  1  0  0  0  0
  7 27  1  1  0  0  0
  7  6  1  0  0  0  0
  8 11  1  0  0  0  0
  8  7  1  6  0  0  0
  9 14  1  1  0  0  0
  9 16  1  0  0  0  0
  9 11  1  0  0  0  0
 10  9  1  0  0  0  0
 12 20  1  6  0  0  0
 12 10  1  0  0  0  0
 12 13  1  0  0  0  0
 13 22  1  1  0  0  0
 13  8  1  0  0  0  0
 14 15  1  0  0  0  0
 16 18  1  0  0  0  0
 17 16  2  0  0  0  0
 18 19  1  0  0  0  0
 21 20  1  0  0  0  0
 22 24  1  0  0  0  0
 23 25  1  0  0  0  0
 23 22  1  0  0  0  0
 26 23  2  0  0  0  0
 28 27  1  0  0  0  0
 30 29  1  0  0  0  0
 31 32  1  0  0  0  0
 33 32  1  0  0  0  0
 34 33  2  0  0  0  0
 35 33  1  0  0  0  0
 36 37  1  0  0  0  0
 36 34  1  0  0  0  0
 37 35  2  0  0  0  0
 38 40  1  0  0  0  0
 38 36  1  0  0  0  0
 39 38  2  0  0  0  0
 41 43  2  0  0  0  0
 41 39  1  0  0  0  0
 42 40  2  0  0  0  0
 43 42  1  0  0  0  0
 44 43  1  0  0  0  0
 45 44  1  0  0  0  0
 46 47  1  0  0  0  0
 48 47  1  0  0  0  0
 48 49  1  0  0  0  0
 49 50  1  0  0  0  0
 50 51  1  0  0  0  0
M  END
>  <REMARK>
 VINA RESULT:    -5.102      3.346      7.770
 INTER + INTRA:         -14.355
 INTER:                  -8.223
 INTRA:                  -6.132
 UNBOUND:                -5.226
 SMILES COc1ccc(-n2cc(COC(=O)NC[C@@H](O)C(O)[C@@H]3O[C@@](O)(C(=O)O)C[C@H](O)[C@H]3NC(C)=O)nn2)cc1
 SMILES IDX 14 1 12 2 13 3 15 5 16 6 18 7 20 8 22 9 27 10 21 11 28 12
 SMILES IDX 30 13 23 14 24 16 25 17 26 18 29 20 31 22 32 23 33 25 34 26
 SMILES IDX 19 27 17 29 11 31 10 32 9 33 8 34 35 35 7 36 36 37 6 38 5 39
 SMILES IDX 37 40 4 41 38 42 3 43 2 44 1 45
 H PARENT 14 4 23 15 26 19 29 21 31 24 19 28 17 30
 Flexibility Score: inf
  4 active torsions:
  status: ('A' for Active; 'I' for Inactive)
    1  A    between atoms: CA   and  CB  
    2  A    between atoms: CB   and  CG  
    3  A    between atoms: CG   and  CD  
    4  A    between atoms: CD   and  CE  

>  <TORSDO>
F 16

>  <BEGIN_>
RES LYS A 131

$$$$
ligand_5_pose_6_2HRL.pdbqt
 OpenBabel07062320523D

  6  5  0  0  0  0  0  0  0  0999 V2000
   33.1930   34.6630    9.2900 C   0  0  0  0  0  0  0  0  0  0  0  0
   32.0600   35.3600   10.0340 C   0  0  0  0  0  0  0  0  0  0  0  0
   30.7920   35.4770    9.2280 C   0  0  0  0  0  0  0  0  0  0  0  0
   30.1460   34.1120    9.0430 C   0  0  0  0  0  0  0  0  0  0  0  0
   28.7150   34.2610    8.5650 C   0  0  0  0  0  0  0  0  0  0  0  0
   27.7530   33.7650    9.5880 N   0  0  0  0  0  0  0  0  0  0  0  0
  1  2  1  0  0  0  0
  3  2  1  0  0  0  0
  4  3  1  0  0  0  0
  5  4  1  0  0  0  0
  5  6  1  0  0  0  0
M  END
>  <EGIN_R>
ES LYS A 135

>  <REMARK>
  4 active torsions:
  status: ('A' for Active; 'I' for Inactive)
    5  A    between atoms: CA   and  CB  
    6  A    between atoms: CB   and  CG  
    7  A    between atoms: CG   and  CD  
    8  A    between atoms: CD   and  CE  

$$$$
