ligand_44_pose_10_2HRL.pdbqt
 OpenBabel07062320523D

 51 52  0  0  1  0  0  0  0  0999 V2000
   29.2820   37.4690   10.5070 N   0  0  0  0  0  0  0  0  0  0  0  0
   28.4730   37.8610   11.6010 C   0  0  0  0  0  0  0  0  0  0  0  0
   28.5970   38.9080   12.2640 O   0  0  0  0  0  0  0  0  0  0  0  0
   29.0800   36.5470   10.0060 H   0  0  0  0  0  0  0  0  0  0  0  0
   30.3610   38.3020   10.0760 C   0  0  0  0  0  0  0  0  0  0  0  0
   30.4010   38.5790    8.5950 C   0  0  2  0  0  0  0  0  0  0  0  0
   29.1400   38.2310    7.8910 C   0  0  1  0  0  0  0  0  0  0  0  0
   28.0400   39.2160    7.8700 C   0  0  2  0  0  0  0  0  0  0  0  0
   25.9930   38.1690    7.6810 C   0  0  2  0  0  0  0  0  0  0  0  0
   25.2460   39.4260    7.2990 C   0  0  0  0  0  0  0  0  0  0  0  0
   26.9820   38.5940    8.5530 O   0  0  0  0  0  0  0  0  0  0  0  0
   26.2000   40.2700    6.5260 C   0  0  1  0  0  0  0  0  0  0  0  0
   27.6540   39.8470    6.6080 C   0  0  1  0  0  0  0  0  0  0  0  0
   26.4550   37.5890    6.5200 O   0  0  0  0  0  0  0  0  0  0  0  0
   27.3950   37.7610    6.3230 H   0  0  0  0  0  0  0  0  0  0  0  0
   25.0510   37.2950    8.4210 C   0  0  0  0  0  0  0  0  0  0  0  0
   23.8960   37.0360    8.0170 O   0  0  0  0  0  0  0  0  0  0  0  0
   25.5010   36.7540    9.6210 O   0  0  0  0  0  0  0  0  0  0  0  0
   25.1210   37.0110   10.5190 H   0  0  0  0  0  0  0  0  0  0  0  0
   25.8320   40.1620    5.1640 O   0  0  0  0  0  0  0  0  0  0  0  0
   25.2580   39.3880    5.0030 H   0  0  0  0  0  0  0  0  0  0  0  0
   28.3590   41.1320    6.4060 N   0  0  0  0  0  0  0  0  0  0  0  0
   29.5730   41.2430    5.7180 C   0  0  0  0  0  0  0  0  0  0  0  0
   27.8700   41.9590    6.8260 H   0  0  0  0  0  0  0  0  0  0  0  0
   30.2080   42.5860    5.5760 C   0  0  0  0  0  0  0  0  0  0  0  0
   30.1180   40.2420    5.2300 O   0  0  0  0  0  0  0  0  0  0  0  0
   29.4410   37.6080    6.6890 O   0  0  0  0  0  0  0  0  0  0  0  0
   29.8000   36.6930    6.8690 H   0  0  0  0  0  0  0  0  0  0  0  0
   31.5520   38.1510    7.9570 O   0  0  0  0  0  0  0  0  0  0  0  0
   31.5930   38.3990    7.0120 H   0  0  0  0  0  0  0  0  0  0  0  0
   27.4360   37.0110   11.9840 O   0  0  0  0  0  0  0  0  0  0  0  0
   27.6690   35.6550   12.2770 C   0  0  0  0  0  0  0  0  0  0  0  0
   28.7160   35.4850   13.3010 C   0  0  0  0  0  0  0  0  0  0  0  0
   29.7730   34.6080   13.3730 C   0  0  0  0  0  0  0  0  0  0  0  0
   28.7610   36.2530   14.4140 N   0  0  0  0  0  0  0  0  0  0  0  0
   30.4280   34.8720   14.5270 N   0  0  0  0  0  0  0  0  0  0  0  0
   29.7900   35.8630   15.1200 N   0  0  0  0  0  0  0  0  0  0  0  0
   31.6090   34.1700   14.9880 C   0  0  0  0  0  0  0  0  0  0  0  0
   31.1880   33.2830   16.1230 C   0  0  0  0  0  0  0  0  0  0  0  0
   31.2670   33.7650   17.4210 C   0  0  0  0  0  0  0  0  0  0  0  0
   30.7290   32.0110   15.8600 C   0  0  0  0  0  0  0  0  0  0  0  0
   30.8770   32.9380   18.4420 C   0  0  0  0  0  0  0  0  0  0  0  0
   30.3320   31.1680   16.8980 C   0  0  0  0  0  0  0  0  0  0  0  0
   30.4200   31.6680   18.1730 C   0  0  0  0  0  0  0  0  0  0  0  0
   29.8820   30.5370   19.6180 Br  0  0  0  0  0  0  0  0  0  0  0  0
   29.8670   25.5550   16.9770 C   0  0  0  0  0  0  0  0  0  0  0  0
   28.3450   25.7220   17.0260 C   0  0  0  0  0  0  0  0  0  0  0  0
   27.6020   24.3980   16.9300 C   0  0  0  0  0  0  0  0  0  0  0  0
   26.1560   24.5310   17.3210 C   0  0  0  0  0  0  0  0  0  0  0  0
   25.9050   23.7560   18.6110 C   0  0  0  0  0  0  0  0  0  0  0  0
   24.5460   24.0380   19.1290 N   0  0  0  0  0  0  0  0  0  0  0  0
  1  2  1  0  0  0  0
  2 31  1  0  0  0  0
  2  3  2  0  0  0  0
  4  1  1  0  0  0  0
  5  1  1  0  0  0  0
  6  5  1  1  0  0  0
  7 27  1  6  0  0  0
  7  6  1  0  0  0  0
  8  7  1  6  0  0  0
  8 11  1  0  0  0  0
  9 14  1  6  0  0  0
  9 16  1  0  0  0  0
  9 11  1  0  0  0  0
 10  9  1  0  0  0  0
 12 20  1  6  0  0  0
 12 13  1  0  0  0  0
 12 10  1  0  0  0  0
 13 22  1  1  0  0  0
 13  8  1  0  0  0  0
 15 14  1  0  0  0  0
 16 18  1  0  0  0  0
 17 16  2  0  0  0  0
 18 19  1  0  0  0  0
 21 20  1  0  0  0  0
 22 24  1  0  0  0  0
 23 22  1  0  0  0  0
 25 23  1  0  0  0  0
 26 23  2  0  0  0  0
 27 28  1  0  0  0  0
 29  6  1  0  0  0  0
 30 29  1  0  0  0  0
 31 32  1  0  0  0  0
 32 33  1  0  0  0  0
 33 34  2  0  0  0  0
 33 35  1  0  0  0  0
 34 36  1  0  0  0  0
 35 37  2  0  0  0  0
 36 38  1  0  0  0  0
 36 37  1  0  0  0  0
 38 39  1  0  0  0  0
 39 40  1  0  0  0  0
 40 42  2  0  0  0  0
 41 39  2  0  0  0  0
 41 43  1  0  0  0  0
 43 44  2  0  0  0  0
 44 42  1  0  0  0  0
 44 45  1  0  0  0  0
 46 47  1  0  0  0  0
 48 47  1  0  0  0  0
 48 49  1  0  0  0  0
 49 50  1  0  0  0  0
 50 51  1  0  0  0  0
M  END
>  <REMARK>
 VINA RESULT:    -4.557      5.073      8.434
 INTER + INTRA:         -14.550
 INTER:                  -9.186
 INTRA:                  -5.364
 UNBOUND:                -6.398
 SMILES CC(=O)N[C@@H]1[C@@H](O)C[C@](O)(C(=O)O)O[C@H]1C(O)[C@H](O)CNC(=O)OCc1cn(Cc2ccc(Br)cc2)nn1
 SMILES IDX 21 1 22 2 23 3 20 5 18 6 16 7 15 8 9 9 8 10 14 11 6 12 5 13
 SMILES IDX 10 14 11 16 12 17 13 18 7 20 4 22 2 23 1 25 3 26 17 27 19 29
 SMILES IDX 24 31 25 32 26 33 27 34 38 35 28 36 37 37 29 38 30 39 31 40
 SMILES IDX 36 41 32 42 35 43 33 44 34 45
 H PARENT 21 4 10 15 13 19 7 21 4 24 17 28 19 30
 Flexibility Score: inf
  4 active torsions:
  status: ('A' for Active; 'I' for Inactive)
    1  A    between atoms: CA   and  CB  
    2  A    between atoms: CB   and  CG  
    3  A    between atoms: CG   and  CD  
    4  A    between atoms: CD   and  CE  

>  <TORSDO>
F 16

>  <BEGIN_>
RES LYS A 131

$$$$
ligand_44_pose_10_2HRL.pdbqt
 OpenBabel07062320523D

  6  5  0  0  0  0  0  0  0  0999 V2000
   33.1930   34.6630    9.2900 C   0  0  0  0  0  0  0  0  0  0  0  0
   32.0600   35.3600   10.0340 C   0  0  0  0  0  0  0  0  0  0  0  0
   30.7310   34.6630    9.8980 C   0  0  0  0  0  0  0  0  0  0  0  0
   30.3270   34.5590    8.4350 C   0  0  0  0  0  0  0  0  0  0  0  0
   28.8170   34.5450    8.3000 C   0  0  0  0  0  0  0  0  0  0  0  0
   28.1860   33.7740    9.4070 N   0  0  0  0  0  0  0  0  0  0  0  0
  1  2  1  0  0  0  0
  3  2  1  0  0  0  0
  4  3  1  0  0  0  0
  5  4  1  0  0  0  0
  5  6  1  0  0  0  0
M  END
>  <EGIN_R>
ES LYS A 135

>  <REMARK>
  4 active torsions:
  status: ('A' for Active; 'I' for Inactive)
    5  A    between atoms: CA   and  CB  
    6  A    between atoms: CB   and  CG  
    7  A    between atoms: CG   and  CD  
    8  A    between atoms: CD   and  CE  

$$$$
