ligand_82_pose_12_2HRL.pdbqt
 OpenBabel07062320523D

 53 55  0  0  1  0  0  0  0  0999 V2000
   28.9050   30.3740   17.3740 N   0  0  0  0  0  0  0  0  0  0  0  0
   28.0300   30.1970   18.5000 C   0  0  0  0  0  0  0  0  0  0  0  0
   28.3690   30.6890   19.6070 O   0  0  0  0  0  0  0  0  0  0  0  0
   28.6290   29.9700   16.4540 H   0  0  0  0  0  0  0  0  0  0  0  0
   30.1450   31.1040   17.5350 C   0  0  0  0  0  0  0  0  0  0  0  0
   30.6920   31.4050   16.1690 C   0  0  2  0  0  0  0  0  0  0  0  0
   31.3450   32.7680   16.1000 C   0  0  1  0  0  0  0  0  0  0  0  0
   30.5200   33.6120   15.1550 C   0  0  2  0  0  0  0  0  0  0  0  0
   31.9410   35.2770   14.3950 C   0  0  2  0  0  0  0  0  0  0  0  0
   31.0990   36.3970   14.9630 C   0  0  0  0  0  0  0  0  0  0  0  0
   31.2240   34.1390   14.1130 O   0  0  0  0  0  0  0  0  0  0  0  0
   29.6830   35.8940   15.0940 C   0  0  1  0  0  0  0  0  0  0  0  0
   29.7330   34.6370   15.9380 C   0  0  1  0  0  0  0  0  0  0  0  0
   33.0260   35.0350   15.2420 O   0  0  0  0  0  0  0  0  0  0  0  0
   33.8390   35.2110   14.6950 H   0  0  0  0  0  0  0  0  0  0  0  0
   32.5080   35.7770   13.1080 C   0  0  0  0  0  0  0  0  0  0  0  0
   32.1000   36.8960   12.6440 O   0  0  0  0  0  0  0  0  0  0  0  0
   33.4590   35.0860   12.3900 O   0  0  0  0  0  0  0  0  0  0  0  0
   33.5330   34.0730   12.4350 H   0  0  0  0  0  0  0  0  0  0  0  0
   28.8540   36.8070   15.7180 O   0  0  0  0  0  0  0  0  0  0  0  0
   29.0640   36.7860   16.6860 H   0  0  0  0  0  0  0  0  0  0  0  0
   28.4140   34.1820   16.2950 N   0  0  0  0  0  0  0  0  0  0  0  0
   28.0200   34.0210   17.6480 C   0  0  0  0  0  0  0  0  0  0  0  0
   27.7440   33.9690   15.5250 H   0  0  0  0  0  0  0  0  0  0  0  0
   26.6370   33.5450   17.9270 C   0  0  0  0  0  0  0  0  0  0  0  0
   28.8220   34.2750   18.5810 O   0  0  0  0  0  0  0  0  0  0  0  0
   31.3290   33.3890   17.3460 O   0  0  0  0  0  0  0  0  0  0  0  0
   32.1380   33.8900   17.5400 H   0  0  0  0  0  0  0  0  0  0  0  0
   29.5910   31.3990   15.2860 O   0  0  0  0  0  0  0  0  0  0  0  0
   29.9060   31.2950   14.3440 H   0  0  0  0  0  0  0  0  0  0  0  0
   26.8440   29.5200   18.4210 O   0  0  0  0  0  0  0  0  0  0  0  0
   26.2780   29.0470   17.2110 C   0  0  0  0  0  0  0  0  0  0  0  0
   25.7850   30.1800   16.4020 C   0  0  0  0  0  0  0  0  0  0  0  0
   24.5500   30.7850   16.4300 C   0  0  0  0  0  0  0  0  0  0  0  0
   26.4920   30.8320   15.4680 N   0  0  0  0  0  0  0  0  0  0  0  0
   24.5290   31.7950   15.5110 N   0  0  0  0  0  0  0  0  0  0  0  0
   25.7270   31.7940   14.9450 N   0  0  0  0  0  0  0  0  0  0  0  0
   23.4010   32.6560   15.2520 C   0  0  0  0  0  0  0  0  0  0  0  0
   22.2560   31.8820   14.6560 C   0  0  0  0  0  0  0  0  0  0  0  0
   21.0920   31.7720   15.2890 C   0  0  0  0  0  0  0  0  0  0  0  0
   22.3850   31.2150   13.3450 C   0  0  2  0  0  0  0  0  0  0  0  0
   19.9290   31.2110   14.5500 C   0  0  0  0  0  0  0  0  0  0  0  0
   21.2030   31.7110   12.5000 C   0  0  0  0  0  0  0  0  0  0  0  0
   21.6760   29.8760   13.3940 C   0  0  0  0  0  0  0  0  0  0  0  0
   20.3700   30.6680   13.2260 C   0  0  1  0  0  0  0  0  0  0  0  0
   21.9110   29.0170   12.1830 C   0  0  0  0  0  0  0  0  0  0  0  0
   21.7920   29.1220   14.6740 C   0  0  0  0  0  0  0  0  0  0  0  0
   29.8670   25.5550   16.9770 C   0  0  0  0  0  0  0  0  0  0  0  0
   28.3450   25.7220   17.0260 C   0  0  0  0  0  0  0  0  0  0  0  0
   27.6010   24.4020   16.8940 C   0  0  0  0  0  0  0  0  0  0  0  0
   26.1960   24.4880   17.4220 C   0  0  0  0  0  0  0  0  0  0  0  0
   26.1670   25.3950   18.6480 C   0  0  0  0  0  0  0  0  0  0  0  0
   24.8400   26.0380   18.7880 N   0  0  0  0  0  0  0  0  0  0  0  0
  1  5  1  0  0  0  0
  1  2  1  0  0  0  0
  2  3  2  0  0  0  0
  4  1  1  0  0  0  0
  6  5  1  1  0  0  0
  7  6  1  0  0  0  0
  7 27  1  1  0  0  0
  8 13  1  0  0  0  0
  8  7  1  1  0  0  0
  9 16  1  6  0  0  0
  9 10  1  0  0  0  0
  9 14  1  0  0  0  0
 10 12  1  0  0  0  0
 11  9  1  0  0  0  0
 11  8  1  0  0  0  0
 12 20  1  1  0  0  0
 12 13  1  0  0  0  0
 13 22  1  6  0  0  0
 15 14  1  0  0  0  0
 17 16  2  0  0  0  0
 18 19  1  0  0  0  0
 18 16  1  0  0  0  0
 20 21  1  0  0  0  0
 22 23  1  0  0  0  0
 23 25  1  0  0  0  0
 23 26  2  0  0  0  0
 24 22  1  0  0  0  0
 27 28  1  0  0  0  0
 29  6  1  0  0  0  0
 30 29  1  0  0  0  0
 31  2  1  0  0  0  0
 32 31  1  0  0  0  0
 33 34  2  0  0  0  0
 33 32  1  0  0  0  0
 35 33  1  0  0  0  0
 36 34  1  0  0  0  0
 37 35  2  0  0  0  0
 37 36  1  0  0  0  0
 38 36  1  0  0  0  0
 39 38  1  0  0  0  0
 39 40  2  0  0  0  0
 41 43  1  6  0  0  0
 41 44  1  0  0  0  0
 41 39  1  0  0  0  0
 42 40  1  0  0  0  0
 44 47  1  0  0  0  0
 45 43  1  6  0  0  0
 45 44  1  0  0  0  0
 45 42  1  0  0  0  0
 46 44  1  0  0  0  0
 48 49  1  0  0  0  0
 50 49  1  0  0  0  0
 50 51  1  0  0  0  0
 51 52  1  0  0  0  0
 52 53  1  0  0  0  0
M  END
>  <REMARK>
 VINA RESULT:    -5.336      3.879      7.910
 INTER + INTRA:         -14.884
 INTER:                  -8.562
 INTRA:                  -6.322
 UNBOUND:                -5.337
 SMILES CC(=O)N[C@@H]1[C@@H](O)C[C@](O)(C(=O)O)O[C@H]1C(O)[C@H](O)CNC(=O)OCc1cn(CC2=CC[C@H]3C[C@@H]2C3(C)C)nn1
 SMILES IDX 21 1 22 2 23 3 20 5 18 6 16 7 15 8 9 9 8 10 14 11 6 12 5 13
 SMILES IDX 10 14 11 16 12 17 13 18 7 20 4 22 2 23 1 25 3 26 17 27 19 29
 SMILES IDX 24 31 25 32 26 33 27 34 40 35 28 36 39 37 29 38 30 39 31 40
 SMILES IDX 35 41 32 42 34 43 36 44 33 45 37 46 38 47
 H PARENT 21 4 10 15 13 19 7 21 4 24 17 28 19 30
 Flexibility Score: inf
  4 active torsions:
  status: ('A' for Active; 'I' for Inactive)
    1  A    between atoms: CA   and  CB  
    2  A    between atoms: CB   and  CG  
    3  A    between atoms: CG   and  CD  
    4  A    between atoms: CD   and  CE  

>  <TORSDO>
F 16

>  <BEGIN_>
RES LYS A 131

$$$$
ligand_82_pose_12_2HRL.pdbqt
 OpenBabel07062320523D

  6  5  0  0  0  0  0  0  0  0999 V2000
   33.1930   34.6630    9.2900 C   0  0  0  0  0  0  0  0  0  0  0  0
   32.0600   35.3600   10.0340 C   0  0  0  0  0  0  0  0  0  0  0  0
   30.7880   35.4650    9.2330 C   0  0  0  0  0  0  0  0  0  0  0  0
   30.1020   34.1110    9.1350 C   0  0  0  0  0  0  0  0  0  0  0  0
   28.6620   34.2740    8.6880 C   0  0  0  0  0  0  0  0  0  0  0  0
   28.5490   35.2870    7.6020 N   0  0  0  0  0  0  0  0  0  0  0  0
  1  2  1  0  0  0  0
  3  2  1  0  0  0  0
  4  3  1  0  0  0  0
  5  4  1  0  0  0  0
  6  5  1  0  0  0  0
M  END
>  <EGIN_R>
ES LYS A 135

>  <REMARK>
  4 active torsions:
  status: ('A' for Active; 'I' for Inactive)
    5  A    between atoms: CA   and  CB  
    6  A    between atoms: CB   and  CG  
    7  A    between atoms: CG   and  CD  
    8  A    between atoms: CD   and  CE  

$$$$
