ligand_26_pose_11_2HRL.pdbqt
 OpenBabel07062320523D

 54 55  0  0  1  0  0  0  0  0999 V2000
   26.7220   28.1700   23.4890 N   0  0  0  0  0  0  0  0  0  0  0  0
   26.0730   27.3240   22.5450 C   0  0  0  0  0  0  0  0  0  0  0  0
   26.2370   26.0930   22.6340 O   0  0  0  0  0  0  0  0  0  0  0  0
   26.5300   29.2090   23.3470 H   0  0  0  0  0  0  0  0  0  0  0  0
   27.5730   27.7000   24.5600 C   0  0  0  0  0  0  0  0  0  0  0  0
   28.9780   28.2470   24.4470 C   0  0  2  0  0  0  0  0  0  0  0  0
   29.6420   27.8350   23.1500 C   0  0  1  0  0  0  0  0  0  0  0  0
   31.1220   28.0730   23.1450 C   0  0  2  0  0  0  0  0  0  0  0  0
   31.4780   29.8350   21.6570 C   0  0  2  0  0  0  0  0  0  0  0  0
   32.1420   28.9320   20.6470 C   0  0  0  0  0  0  0  0  0  0  0  0
   31.4750   29.3800   22.9410 O   0  0  0  0  0  0  0  0  0  0  0  0
   31.7120   27.5010   20.7670 C   0  0  1  0  0  0  0  0  0  0  0  0
   31.8510   27.1130   22.2220 C   0  0  1  0  0  0  0  0  0  0  0  0
   30.2000   30.2060   21.1800 O   0  0  0  0  0  0  0  0  0  0  0  0
   30.2450   30.6540   20.3140 H   0  0  0  0  0  0  0  0  0  0  0  0
   32.2870   31.1080   21.6520 C   0  0  0  0  0  0  0  0  0  0  0  0
   33.5160   31.1390   21.7990 O   0  0  0  0  0  0  0  0  0  0  0  0
   31.5350   32.2810   21.4630 O   0  0  0  0  0  0  0  0  0  0  0  0
   30.7130   32.2790   20.8800 H   0  0  0  0  0  0  0  0  0  0  0  0
   30.4510   27.2700   20.2710 O   0  0  0  0  0  0  0  0  0  0  0  0
   30.2030   26.3250   20.4090 H   0  0  0  0  0  0  0  0  0  0  0  0
   33.2810   27.2740   22.5340 N   0  0  0  0  0  0  0  0  0  0  0  0
   33.7730   26.7970   23.7800 C   0  0  0  0  0  0  0  0  0  0  0  0
   33.9430   27.7240   21.8740 H   0  0  0  0  0  0  0  0  0  0  0  0
   35.2180   26.9660   24.0790 C   0  0  0  0  0  0  0  0  0  0  0  0
   32.9760   26.2540   24.5770 O   0  0  0  0  0  0  0  0  0  0  0  0
   29.3430   26.4840   22.9580 O   0  0  0  0  0  0  0  0  0  0  0  0
   28.6640   26.4050   22.2240 H   0  0  0  0  0  0  0  0  0  0  0  0
   29.7330   27.7860   25.5450 O   0  0  0  0  0  0  0  0  0  0  0  0
   29.1540   27.4390   26.2680 H   0  0  0  0  0  0  0  0  0  0  0  0
   25.2700   27.8090   21.5370 O   0  0  0  0  0  0  0  0  0  0  0  0
   25.3770   29.0830   20.9420 C   0  0  0  0  0  0  0  0  0  0  0  0
   26.5420   29.2550   20.0700 C   0  0  0  0  0  0  0  0  0  0  0  0
   26.5990   30.0680   18.9300 C   0  0  0  0  0  0  0  0  0  0  0  0
   27.7750   28.6940   20.1610 N   0  0  0  0  0  0  0  0  0  0  0  0
   27.8060   29.9680   18.4090 N   0  0  0  0  0  0  0  0  0  0  0  0
   28.4930   29.1480   19.1510 N   0  0  0  0  0  0  0  0  0  0  0  0
   28.2750   30.6840   17.1810 C   0  0  1  0  0  0  0  0  0  0  0  0
   27.6190   32.0370   17.2720 C   0  0  0  0  0  0  0  0  0  0  0  0
   29.7280   30.7410   17.2570 C   0  0  0  0  0  0  0  0  0  0  0  0
   30.3900   31.9160   17.7310 C   0  0  2  0  0  0  0  0  0  0  0  0
   30.2790   32.0610   19.0550 O   0  0  0  0  0  0  0  0  0  0  0  0
   31.1370   32.9630   17.1080 C   0  0  0  0  0  0  0  0  0  0  0  0
   31.4570   32.8390   15.7330 C   0  0  0  0  0  0  0  0  0  0  0  0
   31.5670   34.1130   17.7230 C   0  0  0  0  0  0  0  0  0  0  0  0
   32.1560   33.8140   15.0690 C   0  0  0  0  0  0  0  0  0  0  0  0
   32.2730   35.0790   17.0190 C   0  0  0  0  0  0  0  0  0  0  0  0
   32.5790   34.9560   15.7040 C   0  0  0  0  0  0  0  0  0  0  0  0
   29.8670   25.5550   16.9770 C   0  0  0  0  0  0  0  0  0  0  0  0
   28.3450   25.7220   17.0260 C   0  0  0  0  0  0  0  0  0  0  0  0
   27.6020   24.3980   16.9380 C   0  0  0  0  0  0  0  0  0  0  0  0
   26.1880   24.5070   17.4370 C   0  0  0  0  0  0  0  0  0  0  0  0
   26.0860   25.6630   18.4270 C   0  0  0  0  0  0  0  0  0  0  0  0
   24.7180   26.2340   18.4180 N   0  0  0  0  0  0  0  0  0  0  0  0
  1  5  1  0  0  0  0
  2  3  2  0  0  0  0
  2  1  1  0  0  0  0
  4  1  1  0  0  0  0
  6  5  1  1  0  0  0
  6 29  1  0  0  0  0
  7 27  1  1  0  0  0
  7  6  1  0  0  0  0
  8  7  1  6  0  0  0
  9 14  1  6  0  0  0
  9 11  1  0  0  0  0
 10 12  1  0  0  0  0
 10  9  1  0  0  0  0
 11  8  1  0  0  0  0
 12 20  1  1  0  0  0
 12 13  1  0  0  0  0
 13 22  1  1  0  0  0
 13  8  1  0  0  0  0
 15 14  1  0  0  0  0
 16  9  1  0  0  0  0
 16 17  2  0  0  0  0
 18 16  1  0  0  0  0
 19 18  1  0  0  0  0
 20 21  1  0  0  0  0
 22 23  1  0  0  0  0
 23 25  1  0  0  0  0
 23 26  2  0  0  0  0
 24 22  1  0  0  0  0
 28 27  1  0  0  0  0
 29 30  1  0  0  0  0
 31  2  1  0  0  0  0
 32 31  1  0  0  0  0
 33 35  1  0  0  0  0
 33 32  1  0  0  0  0
 34 33  2  0  0  0  0
 36 34  1  0  0  0  0
 36 37  1  0  0  0  0
 37 35  2  0  0  0  0
 38 40  1  0  0  0  0
 38 39  1  1  0  0  0
 38 36  1  0  0  0  0
 40 41  1  0  0  0  0
 41 42  1  6  0  0  0
 43 45  1  0  0  0  0
 43 41  1  0  0  0  0
 44 43  2  0  0  0  0
 46 48  2  0  0  0  0
 46 44  1  0  0  0  0
 47 45  2  0  0  0  0
 48 47  1  0  0  0  0
 49 50  1  0  0  0  0
 51 50  1  0  0  0  0
 51 52  1  0  0  0  0
 52 53  1  0  0  0  0
 54 53  1  0  0  0  0
M  END
>  <REMARK>
 VINA RESULT:    -4.699      2.486      4.152
 INTER + INTRA:         -15.891
 INTER:                  -8.979
 INTRA:                  -6.912
 UNBOUND:                -6.934
 SMILES CC(=O)N[C@@H]1[C@@H](O)C[C@](O)(C(=O)O)O[C@H]1C(O)[C@H](O)CNC(=O)OCc1cn(C(C)CC(=O)c2ccccc2)nn1
 SMILES IDX 21 1 22 2 23 3 20 5 18 6 16 7 15 8 9 9 8 10 14 11 6 12 5 13
 SMILES IDX 10 14 11 16 12 17 13 18 7 20 4 22 2 23 1 25 3 26 17 27 19 29
 SMILES IDX 24 31 25 32 26 33 27 34 41 35 28 36 40 37 29 38 30 39 31 40
 SMILES IDX 32 41 33 42 34 43 35 44 39 45 36 46 38 47 37 48
 H PARENT 21 4 10 15 13 19 7 21 4 24 17 28 19 30
 Flexibility Score: inf
  4 active torsions:
  status: ('A' for Active; 'I' for Inactive)
    1  A    between atoms: CA   and  CB  
    2  A    between atoms: CB   and  CG  
    3  A    between atoms: CG   and  CD  
    4  A    between atoms: CD   and  CE  

>  <TORSDO>
F 18

>  <BEGIN_>
RES LYS A 131

$$$$
ligand_26_pose_11_2HRL.pdbqt
 OpenBabel07062320523D

  6  5  0  0  0  0  0  0  0  0999 V2000
   33.1930   34.6630    9.2900 C   0  0  0  0  0  0  0  0  0  0  0  0
   32.0600   35.3600   10.0340 C   0  0  0  0  0  0  0  0  0  0  0  0
   30.7160   34.7100    9.8300 C   0  0  0  0  0  0  0  0  0  0  0  0
   30.4660   34.4450    8.3530 C   0  0  0  0  0  0  0  0  0  0  0  0
   29.0730   34.8960    7.9590 C   0  0  0  0  0  0  0  0  0  0  0  0
   29.0740   36.3180    7.5160 N   0  0  0  0  0  0  0  0  0  0  0  0
  1  2  1  0  0  0  0
  3  2  1  0  0  0  0
  4  3  1  0  0  0  0
  5  4  1  0  0  0  0
  6  5  1  0  0  0  0
M  END
>  <EGIN_R>
ES LYS A 135

>  <REMARK>
  4 active torsions:
  status: ('A' for Active; 'I' for Inactive)
    5  A    between atoms: CA   and  CB  
    6  A    between atoms: CB   and  CG  
    7  A    between atoms: CG   and  CD  
    8  A    between atoms: CD   and  CE  

$$$$
