ligand_41_pose_19_2HRL.pdbqt
 OpenBabel07062320523D

 52 53  0  0  1  0  0  0  0  0999 V2000
   25.5250   30.3250   18.5940 N   0  0  0  0  0  0  0  0  0  0  0  0
   24.5390   30.2010   17.5550 C   0  0  0  0  0  0  0  0  0  0  0  0
   23.9790   29.0920   17.3840 O   0  0  0  0  0  0  0  0  0  0  0  0
   25.9610   31.2610   18.7100 H   0  0  0  0  0  0  0  0  0  0  0  0
   25.8610   29.1890   19.4010 C   0  0  0  0  0  0  0  0  0  0  0  0
   27.3130   28.9700   19.6720 C   0  0  2  0  0  0  0  0  0  0  0  0
   27.9030   29.9100   20.6800 C   0  0  2  0  0  0  0  0  0  0  0  0
   29.0750   29.3530   21.4450 C   0  0  2  0  0  0  0  0  0  0  0  0
   30.8720   27.9090   21.3100 C   0  0  2  0  0  0  0  0  0  0  0  0
   30.4690   27.1270   22.5460 C   0  0  0  0  0  0  0  0  0  0  0  0
   29.7870   28.4550   20.7270 O   0  0  0  0  0  0  0  0  0  0  0  0
   29.0410   27.3570   22.9140 C   0  0  1  0  0  0  0  0  0  0  0  0
   28.6010   28.7640   22.7560 C   0  0  1  0  0  0  0  0  0  0  0  0
   31.4200   26.9040   20.4420 O   0  0  0  0  0  0  0  0  0  0  0  0
   32.3200   26.6350   20.8020 H   0  0  0  0  0  0  0  0  0  0  0  0
   32.0020   28.7860   21.6350 C   0  0  0  0  0  0  0  0  0  0  0  0
   32.1620   29.3240   22.7540 O   0  0  0  0  0  0  0  0  0  0  0  0
   32.9880   29.0720   20.6870 O   0  0  0  0  0  0  0  0  0  0  0  0
   32.8650   29.8360   20.0320 H   0  0  0  0  0  0  0  0  0  0  0  0
   28.2420   26.5430   22.0920 O   0  0  0  0  0  0  0  0  0  0  0  0
   27.5240   27.0490   21.6410 H   0  0  0  0  0  0  0  0  0  0  0  0
   28.9220   29.5550   23.9020 N   0  0  0  0  0  0  0  0  0  0  0  0
   27.9390   30.2310   24.6770 C   0  0  0  0  0  0  0  0  0  0  0  0
   29.9110   29.6460   24.1970 H   0  0  0  0  0  0  0  0  0  0  0  0
   28.3250   31.0410   25.8610 C   0  0  0  0  0  0  0  0  0  0  0  0
   26.7170   30.1650   24.3860 O   0  0  0  0  0  0  0  0  0  0  0  0
   26.9800   30.5910   21.4300 O   0  0  0  0  0  0  0  0  0  0  0  0
   26.0910   30.4750   20.9790 H   0  0  0  0  0  0  0  0  0  0  0  0
   27.9840   29.2950   18.4210 O   0  0  0  0  0  0  0  0  0  0  0  0
   27.2350   29.3150   17.7680 H   0  0  0  0  0  0  0  0  0  0  0  0
   24.1810   31.2440   16.7350 O   0  0  0  0  0  0  0  0  0  0  0  0
   24.8070   31.4540   15.4720 C   0  0  0  0  0  0  0  0  0  0  0  0
   26.2860   31.4070   15.5840 C   0  0  0  0  0  0  0  0  0  0  0  0
   27.1640   32.4550   15.6730 C   0  0  0  0  0  0  0  0  0  0  0  0
   27.0560   30.2850   15.6180 N   0  0  0  0  0  0  0  0  0  0  0  0
   28.4340   31.9370   15.7580 N   0  0  0  0  0  0  0  0  0  0  0  0
   28.3150   30.6250   15.7200 N   0  0  0  0  0  0  0  0  0  0  0  0
   29.6650   32.6370   15.8210 C   0  0  0  0  0  0  0  0  0  0  0  0
   30.4190   32.7850   16.9340 C   0  0  0  0  0  0  0  0  0  0  0  0
   30.0810   33.1850   14.5880 C   0  0  0  0  0  0  0  0  0  0  0  0
   31.6220   33.4920   16.8450 C   0  0  0  0  0  0  0  0  0  0  0  0
   31.2650   33.8770   14.5150 C   0  0  0  0  0  0  0  0  0  0  0  0
   32.0160   34.0180   15.6520 C   0  0  0  0  0  0  0  0  0  0  0  0
   30.0600   32.2630   18.2340 C   0  0  1  0  0  0  0  0  0  0  0  0
   30.4170   31.0400   18.4810 O   0  0  0  0  0  0  0  0  0  0  0  0
   29.3420   32.9450   19.3110 C   0  0  0  0  0  0  0  0  0  0  0  0
   29.8670   25.5550   16.9770 C   0  0  0  0  0  0  0  0  0  0  0  0
   28.3450   25.7220   17.0260 C   0  0  0  0  0  0  0  0  0  0  0  0
   27.6010   24.4020   16.8960 C   0  0  0  0  0  0  0  0  0  0  0  0
   26.1590   24.5220   17.3020 C   0  0  0  0  0  0  0  0  0  0  0  0
   25.9200   23.7150   18.5750 C   0  0  0  0  0  0  0  0  0  0  0  0
   25.5440   24.6110   19.6940 N   0  0  0  0  0  0  0  0  0  0  0  0
  1  4  1  0  0  0  0
  1  5  1  0  0  0  0
  2  1  1  0  0  0  0
  3  2  2  0  0  0  0
  6  5  1  6  0  0  0
  6  7  1  0  0  0  0
  7 27  1  1  0  0  0
  8  7  1  6  0  0  0
  8 13  1  0  0  0  0
  9 14  1  6  0  0  0
  9 16  1  0  0  0  0
  9 10  1  0  0  0  0
 10 12  1  0  0  0  0
 11  9  1  0  0  0  0
 11  8  1  0  0  0  0
 12 20  1  6  0  0  0
 13 12  1  0  0  0  0
 13 22  1  1  0  0  0
 14 15  1  0  0  0  0
 16 17  2  0  0  0  0
 18 16  1  0  0  0  0
 19 18  1  0  0  0  0
 21 20  1  0  0  0  0
 22 24  1  0  0  0  0
 22 23  1  0  0  0  0
 23 25  1  0  0  0  0
 26 23  2  0  0  0  0
 28 27  1  0  0  0  0
 29  6  1  0  0  0  0
 30 29  1  0  0  0  0
 31  2  1  0  0  0  0
 32 33  1  0  0  0  0
 32 31  1  0  0  0  0
 33 35  1  0  0  0  0
 33 34  2  0  0  0  0
 34 36  1  0  0  0  0
 35 37  2  0  0  0  0
 36 38  1  0  0  0  0
 37 36  1  0  0  0  0
 38 39  2  0  0  0  0
 39 44  1  0  0  0  0
 40 38  1  0  0  0  0
 41 39  1  0  0  0  0
 42 40  2  0  0  0  0
 42 43  1  0  0  0  0
 43 41  2  0  0  0  0
 44 45  1  0  0  0  0
 44 46  1  1  0  0  0
 47 48  1  0  0  0  0
 49 48  1  0  0  0  0
 49 50  1  0  0  0  0
 50 51  1  0  0  0  0
 51 52  1  0  0  0  0
M  END
>  <REMARK>
 VINA RESULT:    -4.246      3.705      7.752
 INTER + INTRA:         -14.401
 INTER:                  -7.597
 INTRA:                  -6.804
 UNBOUND:                -6.804
 SMILES CC(=O)N[C@@H]1[C@@H](O)C[C@](O)(C(=O)O)O[C@H]1C(O)[C@H](O)CNC(=O)OCc1cn(-c2ccccc2C(C)=O)nn1
 SMILES IDX 21 1 22 2 23 3 20 5 18 6 16 7 15 8 9 9 8 10 14 11 6 12 5 13
 SMILES IDX 10 14 11 16 12 17 13 18 7 20 4 22 2 23 1 25 3 26 17 27 19 29
 SMILES IDX 24 31 25 32 26 33 27 34 39 35 28 36 38 37 29 38 34 39 30 40
 SMILES IDX 33 41 31 42 32 43 35 44 37 45 36 46
 H PARENT 21 4 10 15 13 19 7 21 4 24 17 28 19 30
 Flexibility Score: inf
  4 active torsions:
  status: ('A' for Active; 'I' for Inactive)
    1  A    between atoms: CA   and  CB  
    2  A    between atoms: CB   and  CG  
    3  A    between atoms: CG   and  CD  
    4  A    between atoms: CD   and  CE  

>  <TORSDO>
F 16

>  <BEGIN_>
RES LYS A 131

$$$$
ligand_41_pose_19_2HRL.pdbqt
 OpenBabel07062320523D

  6  5  0  0  0  0  0  0  0  0999 V2000
   33.1930   34.6630    9.2900 C   0  0  0  0  0  0  0  0  0  0  0  0
   32.0600   35.3600   10.0340 C   0  0  0  0  0  0  0  0  0  0  0  0
   30.7150   34.7140    9.8240 C   0  0  0  0  0  0  0  0  0  0  0  0
   30.4890   34.4100    8.3520 C   0  0  0  0  0  0  0  0  0  0  0  0
   29.2660   35.1460    7.8370 C   0  0  0  0  0  0  0  0  0  0  0  0
   28.0140   34.5510    8.3810 N   0  0  0  0  0  0  0  0  0  0  0  0
  1  2  1  0  0  0  0
  3  2  1  0  0  0  0
  4  3  1  0  0  0  0
  5  4  1  0  0  0  0
  5  6  1  0  0  0  0
M  END
>  <EGIN_R>
ES LYS A 135

>  <REMARK>
  4 active torsions:
  status: ('A' for Active; 'I' for Inactive)
    5  A    between atoms: CA   and  CB  
    6  A    between atoms: CB   and  CG  
    7  A    between atoms: CG   and  CD  
    8  A    between atoms: CD   and  CE  

$$$$
