ligand_21_pose_15_2HRL.pdbqt
 OpenBabel07062320523D

 54 55  0  0  1  0  0  0  0  0999 V2000
   30.1560   30.7620   17.9270 N   0  0  0  0  0  0  0  0  0  0  0  0
   29.1800   30.5410   18.9440 C   0  0  0  0  0  0  0  0  0  0  0  0
   27.9760   30.6980   18.6510 O   0  0  0  0  0  0  0  0  0  0  0  0
   31.1540   30.6300   18.1830 H   0  0  0  0  0  0  0  0  0  0  0  0
   29.7650   31.1590   16.6010 C   0  0  0  0  0  0  0  0  0  0  0  0
   30.8790   32.0360   16.0180 C   0  0  2  0  0  0  0  0  0  0  0  0
   30.8020   33.4020   16.6420 C   0  0  2  0  0  0  0  0  0  0  0  0
   31.3100   34.4220   15.6600 C   0  0  2  0  0  0  0  0  0  0  0  0
   33.0760   34.8080   14.1960 C   0  0  2  0  0  0  0  0  0  0  0  0
   33.6180   35.9220   15.0600 C   0  0  0  0  0  0  0  0  0  0  0  0
   32.4200   33.9330   15.0460 O   0  0  0  0  0  0  0  0  0  0  0  0
   32.4680   36.6490   15.6690 C   0  0  1  0  0  0  0  0  0  0  0  0
   31.4560   35.7470   16.3190 C   0  0  1  0  0  0  0  0  0  0  0  0
   34.2100   34.1150   13.7220 O   0  0  0  0  0  0  0  0  0  0  0  0
   34.1030   33.8430   12.7830 H   0  0  0  0  0  0  0  0  0  0  0  0
   32.2550   35.2810   13.0640 C   0  0  0  0  0  0  0  0  0  0  0  0
   31.1440   34.7900   12.7480 O   0  0  0  0  0  0  0  0  0  0  0  0
   32.7170   36.3280   12.2890 O   0  0  0  0  0  0  0  0  0  0  0  0
   32.1070   36.9610   11.7670 H   0  0  0  0  0  0  0  0  0  0  0  0
   33.0040   37.5440   16.6220 O   0  0  0  0  0  0  0  0  0  0  0  0
   32.2780   37.7810   17.2710 H   0  0  0  0  0  0  0  0  0  0  0  0
   30.1710   36.4210   16.2930 N   0  0  0  0  0  0  0  0  0  0  0  0
   29.3790   36.5880   17.4690 C   0  0  0  0  0  0  0  0  0  0  0  0
   29.7910   36.8050   15.4020 H   0  0  0  0  0  0  0  0  0  0  0  0
   28.0760   37.2840   17.3850 C   0  0  0  0  0  0  0  0  0  0  0  0
   29.7930   36.1460   18.5620 O   0  0  0  0  0  0  0  0  0  0  0  0
   31.5360   33.4700   17.8330 O   0  0  0  0  0  0  0  0  0  0  0  0
   31.2060   34.2330   18.3620 H   0  0  0  0  0  0  0  0  0  0  0  0
   30.7260   32.0320   14.6500 O   0  0  0  0  0  0  0  0  0  0  0  0
   31.5670   32.1050   14.1520 H   0  0  0  0  0  0  0  0  0  0  0  0
   29.5790   30.1600   20.2150 O   0  0  0  0  0  0  0  0  0  0  0  0
   30.9330   29.9370   20.5360 C   0  0  0  0  0  0  0  0  0  0  0  0
   31.5570   31.2220   20.8850 C   0  0  0  0  0  0  0  0  0  0  0  0
   32.6150   31.4180   21.7770 C   0  0  0  0  0  0  0  0  0  0  0  0
   31.2510   32.4650   20.4340 N   0  0  0  0  0  0  0  0  0  0  0  0
   32.8750   32.7190   21.8100 N   0  0  0  0  0  0  0  0  0  0  0  0
   32.0490   33.3510   20.9950 N   0  0  0  0  0  0  0  0  0  0  0  0
   33.9040   33.3600   22.6040 C   0  0  0  0  0  0  0  0  0  0  0  0
   35.1610   33.2990   21.7850 C   0  0  0  0  0  0  0  0  0  0  0  0
   35.4970   34.3880   21.0230 C   0  0  0  0  0  0  0  0  0  0  0  0
   35.9380   32.1700   21.8140 C   0  0  0  0  0  0  0  0  0  0  0  0
   36.6340   34.3800   20.2580 C   0  0  0  0  0  0  0  0  0  0  0  0
   37.1020   32.1480   21.0380 C   0  0  0  0  0  0  0  0  0  0  0  0
   37.4180   33.2460   20.2850 C   0  0  0  0  0  0  0  0  0  0  0  0
   34.6840   35.5110   21.0220 O   0  0  0  0  0  0  0  0  0  0  0  0
   34.4100   36.1040   19.7900 C   0  0  0  0  0  0  0  0  0  0  0  0
   33.6680   35.5120   18.9720 O   0  0  0  0  0  0  0  0  0  0  0  0
   34.9840   37.4250   19.4370 C   0  0  0  0  0  0  0  0  0  0  0  0
   29.8670   25.5550   16.9770 C   0  0  0  0  0  0  0  0  0  0  0  0
   28.3450   25.7220   17.0260 C   0  0  0  0  0  0  0  0  0  0  0  0
   27.6010   24.4010   16.8970 C   0  0  0  0  0  0  0  0  0  0  0  0
   26.4090   24.3320   17.8110 C   0  0  0  0  0  0  0  0  0  0  0  0
   26.3270   25.6090   18.6400 C   0  0  0  0  0  0  0  0  0  0  0  0
   25.0160   26.2710   18.4450 N   0  0  0  0  0  0  0  0  0  0  0  0
  1  4  1  0  0  0  0
  1  2  1  0  0  0  0
  2 31  1  0  0  0  0
  3  2  2  0  0  0  0
  5  1  1  0  0  0  0
  6  5  1  1  0  0  0
  6  7  1  0  0  0  0
  7 27  1  1  0  0  0
  8 13  1  0  0  0  0
  8  7  1  1  0  0  0
  9 16  1  6  0  0  0
  9 11  1  0  0  0  0
  9 10  1  0  0  0  0
 10 12  1  0  0  0  0
 11  8  1  0  0  0  0
 12 13  1  0  0  0  0
 12 20  1  1  0  0  0
 13 22  1  6  0  0  0
 14  9  1  0  0  0  0
 15 14  1  0  0  0  0
 17 16  2  0  0  0  0
 18 16  1  0  0  0  0
 19 18  1  0  0  0  0
 20 21  1  0  0  0  0
 22 23  1  0  0  0  0
 23 26  2  0  0  0  0
 24 22  1  0  0  0  0
 25 23  1  0  0  0  0
 27 28  1  0  0  0  0
 29  6  1  0  0  0  0
 30 29  1  0  0  0  0
 31 32  1  0  0  0  0
 32 33  1  0  0  0  0
 33 34  2  0  0  0  0
 34 36  1  0  0  0  0
 35 33  1  0  0  0  0
 35 37  2  0  0  0  0
 36 38  1  0  0  0  0
 37 36  1  0  0  0  0
 39 41  1  0  0  0  0
 39 38  1  0  0  0  0
 40 39  2  0  0  0  0
 42 44  2  0  0  0  0
 42 40  1  0  0  0  0
 43 41  2  0  0  0  0
 44 43  1  0  0  0  0
 45 40  1  0  0  0  0
 46 45  1  0  0  0  0
 47 46  2  0  0  0  0
 48 46  1  0  0  0  0
 49 50  1  0  0  0  0
 51 50  1  0  0  0  0
 51 52  1  0  0  0  0
 52 53  1  0  0  0  0
 54 53  1  0  0  0  0
M  END
>  <REMARK>
 VINA RESULT:    -4.567      7.488     12.996
 INTER + INTRA:         -14.980
 INTER:                  -8.828
 INTRA:                  -6.152
 UNBOUND:                -6.275
 SMILES CC(=O)N[C@@H]1[C@@H](O)C[C@](O)(C(=O)O)O[C@H]1C(O)[C@H](O)CNC(=O)OCc1cn(Cc2ccccc2OC(C)=O)nn1
 SMILES IDX 21 1 22 2 23 3 20 5 18 6 16 7 15 8 9 9 8 10 14 11 6 12 5 13
 SMILES IDX 10 14 11 16 12 17 13 18 7 20 4 22 2 23 1 25 3 26 17 27 19 29
 SMILES IDX 24 31 25 32 26 33 27 34 41 35 28 36 40 37 29 38 30 39 35 40
 SMILES IDX 31 41 34 42 32 43 33 44 36 45 37 46 39 47 38 48
 H PARENT 21 4 10 15 13 19 7 21 4 24 17 28 19 30
 Flexibility Score: inf
  4 active torsions:
  status: ('A' for Active; 'I' for Inactive)
    1  A    between atoms: CA   and  CB  
    2  A    between atoms: CB   and  CG  
    3  A    between atoms: CG   and  CD  
    4  A    between atoms: CD   and  CE  

>  <TORSDO>
F 18

>  <BEGIN_>
RES LYS A 131

$$$$
ligand_21_pose_15_2HRL.pdbqt
 OpenBabel07062320523D

  6  5  0  0  0  0  0  0  0  0999 V2000
   33.1930   34.6630    9.2900 C   0  0  0  0  0  0  0  0  0  0  0  0
   32.0600   35.3600   10.0340 C   0  0  0  0  0  0  0  0  0  0  0  0
   30.8080   35.5220    9.2100 C   0  0  0  0  0  0  0  0  0  0  0  0
   29.8520   34.3650    9.4540 C   0  0  0  0  0  0  0  0  0  0  0  0
   28.7560   34.3500    8.4050 C   0  0  0  0  0  0  0  0  0  0  0  0
   29.0640   35.2940    7.2950 N   0  0  0  0  0  0  0  0  0  0  0  0
  1  2  1  0  0  0  0
  3  4  1  0  0  0  0
  3  2  1  0  0  0  0
  5  4  1  0  0  0  0
  6  5  1  0  0  0  0
M  END
>  <EGIN_R>
ES LYS A 135

>  <REMARK>
  4 active torsions:
  status: ('A' for Active; 'I' for Inactive)
    5  A    between atoms: CA   and  CB  
    6  A    between atoms: CB   and  CG  
    7  A    between atoms: CG   and  CD  
    8  A    between atoms: CD   and  CE  

$$$$
