ligand_54_pose_6_2HRL.pdbqt
 OpenBabel07062320523D

 52 52  0  0  1  0  0  0  0  0999 V2000
   26.5640   34.6410   12.5070 O   0  0  0  0  0  0  0  0  0  0  0  0
   25.4350   35.1190   11.8270 C   0  0  0  0  0  0  0  0  0  0  0  0
   25.4740   36.3050   11.0630 N   0  0  0  0  0  0  0  0  0  0  0  0
   26.4250   36.7940   11.0340 H   0  0  0  0  0  0  0  0  0  0  0  0
   24.3930   34.4650   11.9190 O   0  0  0  0  0  0  0  0  0  0  0  0
   24.4040   36.9090   10.3350 C   0  0  0  0  0  0  0  0  0  0  0  0
   24.3210   36.3750    8.9340 C   0  0  2  0  0  0  0  0  0  0  0  0
   25.2780   37.2250    8.1020 C   0  0  2  0  0  0  0  0  0  0  0  0
   26.4560   36.4350    7.6230 C   0  0  2  0  0  0  0  0  0  0  0  0
   28.4260   35.5390    8.4560 C   0  0  2  0  0  0  0  0  0  0  0  0
   28.9170   35.4420    7.0490 C   0  0  0  0  0  0  0  0  0  0  0  0
   27.0520   35.6740    8.5850 O   0  0  0  0  0  0  0  0  0  0  0  0
   28.3370   36.4530    6.1040 C   0  0  1  0  0  0  0  0  0  0  0  0
   27.4340   37.3620    6.9110 C   0  0  1  0  0  0  0  0  0  0  0  0
   29.1130   36.5420    9.1470 O   0  0  0  0  0  0  0  0  0  0  0  0
   29.7840   36.0780    9.7310 H   0  0  0  0  0  0  0  0  0  0  0  0
   28.7700   34.2470    9.1150 C   0  0  0  0  0  0  0  0  0  0  0  0
   29.9340   33.7940    9.0780 O   0  0  0  0  0  0  0  0  0  0  0  0
   27.7540   33.5370    9.7820 O   0  0  0  0  0  0  0  0  0  0  0  0
   27.9000   32.5310    9.8560 H   0  0  0  0  0  0  0  0  0  0  0  0
   29.2980   37.1550    5.3880 O   0  0  0  0  0  0  0  0  0  0  0  0
   30.1270   36.6120    5.4270 H   0  0  0  0  0  0  0  0  0  0  0  0
   26.6610   38.2500    6.0690 N   0  0  0  0  0  0  0  0  0  0  0  0
   27.1190   39.5770    5.8510 C   0  0  0  0  0  0  0  0  0  0  0  0
   25.7760   37.9800    5.6050 H   0  0  0  0  0  0  0  0  0  0  0  0
   26.3960   40.5510    5.0080 C   0  0  0  0  0  0  0  0  0  0  0  0
   28.1950   39.9410    6.4010 O   0  0  0  0  0  0  0  0  0  0  0  0
   25.6510   38.3280    8.8540 O   0  0  0  0  0  0  0  0  0  0  0  0
   25.9440   39.0960    8.2930 H   0  0  0  0  0  0  0  0  0  0  0  0
   23.0670   36.5610    8.4120 O   0  0  0  0  0  0  0  0  0  0  0  0
   23.0730   36.7720    7.4430 H   0  0  0  0  0  0  0  0  0  0  0  0
   26.7270   34.8990   13.8990 C   0  0  0  0  0  0  0  0  0  0  0  0
   26.4900   33.6560   14.6560 C   0  0  0  0  0  0  0  0  0  0  0  0
   27.5250   32.9680   15.2950 C   0  0  0  0  0  0  0  0  0  0  0  0
   25.3970   32.9490   14.9080 N   0  0  0  0  0  0  0  0  0  0  0  0
   27.0070   31.8790   15.9000 N   0  0  0  0  0  0  0  0  0  0  0  0
   25.7280   31.8880   15.6560 N   0  0  0  0  0  0  0  0  0  0  0  0
   27.7840   30.9340   16.6510 C   0  0  0  0  0  0  0  0  0  0  0  0
   29.1460   30.6780   16.0510 C   0  0  0  0  0  0  0  0  0  0  0  0
   30.2700   31.0680   16.9610 C   0  0  0  0  0  0  0  0  0  0  0  0
   29.8190   30.9760   18.2730 O   0  0  0  0  0  0  0  0  0  0  0  0
   30.4760   31.9150   19.0770 C   0  0  0  0  0  0  0  0  0  0  0  0
   29.5470   32.5150   20.1000 C   0  0  0  0  0  0  0  0  0  0  0  0
   30.7220   32.3420   16.7330 O   0  0  0  0  0  0  0  0  0  0  0  0
   31.2290   32.5010   15.4430 C   0  0  0  0  0  0  0  0  0  0  0  0
   32.1250   33.7350   15.4200 C   0  0  0  0  0  0  0  0  0  0  0  0
   29.8670   25.5550   16.9770 C   0  0  0  0  0  0  0  0  0  0  0  0
   28.3450   25.7220   17.0260 C   0  0  0  0  0  0  0  0  0  0  0  0
   27.6000   24.4080   16.8460 C   0  0  0  0  0  0  0  0  0  0  0  0
   26.7740   24.0560   18.0510 C   0  0  0  0  0  0  0  0  0  0  0  0
   26.3130   25.3340   18.7440 C   0  0  0  0  0  0  0  0  0  0  0  0
   24.8480   25.3020   18.9700 N   0  0  0  0  0  0  0  0  0  0  0  0
  1 32  1  0  0  0  0
  2  5  2  0  0  0  0
  2  1  1  0  0  0  0
  3  2  1  0  0  0  0
  4  3  1  0  0  0  0
  6  3  1  0  0  0  0
  7  6  1  1  0  0  0
  8 28  1  1  0  0  0
  8  7  1  0  0  0  0
  9  8  1  1  0  0  0
  9 12  1  0  0  0  0
 10 12  1  0  0  0  0
 10 17  1  1  0  0  0
 10 15  1  0  0  0  0
 11 10  1  0  0  0  0
 13 21  1  1  0  0  0
 13 14  1  0  0  0  0
 13 11  1  0  0  0  0
 14 23  1  6  0  0  0
 14  9  1  0  0  0  0
 15 16  1  0  0  0  0
 17 19  1  0  0  0  0
 18 17  2  0  0  0  0
 19 20  1  0  0  0  0
 21 22  1  0  0  0  0
 24 23  1  0  0  0  0
 24 27  2  0  0  0  0
 25 23  1  0  0  0  0
 26 24  1  0  0  0  0
 29 28  1  0  0  0  0
 30  7  1  0  0  0  0
 31 30  1  0  0  0  0
 32 33  1  0  0  0  0
 33 35  1  0  0  0  0
 33 34  2  0  0  0  0
 34 36  1  0  0  0  0
 35 37  2  0  0  0  0
 36 38  1  0  0  0  0
 37 36  1  0  0  0  0
 39 38  1  0  0  0  0
 39 40  1  0  0  0  0
 40 41  1  0  0  0  0
 41 42  1  0  0  0  0
 42 43  1  0  0  0  0
 44 40  1  0  0  0  0
 45 44  1  0  0  0  0
 46 45  1  0  0  0  0
 47 48  1  0  0  0  0
 49 48  1  0  0  0  0
 49 50  1  0  0  0  0
 50 51  1  0  0  0  0
 51 52  1  0  0  0  0
M  END
>  <REMARK>
 VINA RESULT:    -4.263      4.774     11.213
 INTER + INTRA:         -14.812
 INTER:                 -10.316
 INTRA:                  -4.496
 UNBOUND:                -5.938
 SMILES CCOC(CCn1cc(COC(=O)NC[C@@H](O)C(O)[C@@H]2O[C@@](O)(C(=O)O)C[C@H](O)[C@H]2NC(C)=O)nn1)OCC
 SMILES IDX 11 1 12 2 14 3 13 5 15 6 16 7 18 8 20 9 22 10 27 11 21 12
 SMILES IDX 28 13 30 14 23 15 24 17 25 18 26 19 29 21 31 23 32 24 33 26
 SMILES IDX 34 27 19 28 17 30 10 32 9 33 8 34 35 35 7 36 36 37 6 38 5 39
 SMILES IDX 4 40 3 41 2 42 1 43 37 44 38 45 39 46
 H PARENT 14 4 23 16 26 20 29 22 31 25 19 29 17 31
 Flexibility Score: inf
  4 active torsions:
  status: ('A' for Active; 'I' for Inactive)
    1  A    between atoms: CA   and  CB  
    2  A    between atoms: CB   and  CG  
    3  A    between atoms: CG   and  CD  
    4  A    between atoms: CD   and  CE  

>  <TORSDO>
F 21

>  <BEGIN_>
RES LYS A 131

$$$$
ligand_54_pose_6_2HRL.pdbqt
 OpenBabel07062320523D

  6  5  0  0  0  0  0  0  0  0999 V2000
   33.1930   34.6630    9.2900 C   0  0  0  0  0  0  0  0  0  0  0  0
   32.0600   35.3600   10.0340 C   0  0  0  0  0  0  0  0  0  0  0  0
   32.5010   36.0340   11.3080 C   0  0  0  0  0  0  0  0  0  0  0  0
   32.0650   37.4910   11.3230 C   0  0  0  0  0  0  0  0  0  0  0  0
   31.2650   37.7950   12.5750 C   0  0  0  0  0  0  0  0  0  0  0  0
   31.0000   36.5550   13.3560 N   0  0  0  0  0  0  0  0  0  0  0  0
  1  2  1  0  0  0  0
  2  3  1  0  0  0  0
  3  4  1  0  0  0  0
  4  5  1  0  0  0  0
  5  6  1  0  0  0  0
M  END
>  <EGIN_R>
ES LYS A 135

>  <REMARK>
  4 active torsions:
  status: ('A' for Active; 'I' for Inactive)
    5  A    between atoms: CA   and  CB  
    6  A    between atoms: CB   and  CG  
    7  A    between atoms: CG   and  CD  
    8  A    between atoms: CD   and  CE  

$$$$
