ligand_32_pose_4_2HRL.pdbqt
 OpenBabel07062320523D

 49 49  0  0  1  0  0  0  0  0999 V2000
   28.6670   34.1560   13.7470 N   0  0  0  0  0  0  0  0  0  0  0  0
   29.4180   34.9360   12.8310 C   0  0  0  0  0  0  0  0  0  0  0  0
   28.9130   35.9490   12.2610 O   0  0  0  0  0  0  0  0  0  0  0  0
   29.1160   33.3340   14.1940 H   0  0  0  0  0  0  0  0  0  0  0  0
   27.2960   34.4730   14.0690 C   0  0  0  0  0  0  0  0  0  0  0  0
   27.0670   34.7620   15.5280 C   0  0  2  0  0  0  0  0  0  0  0  0
   26.5960   33.5090   16.2660 C   0  0  1  0  0  0  0  0  0  0  0  0
   27.7830   32.8130   16.9100 C   0  0  2  0  0  0  0  0  0  0  0  0
   29.8790   32.0910   16.1760 C   0  0  2  0  0  0  0  0  0  0  0  0
   29.9720   31.1690   17.3580 C   0  0  0  0  0  0  0  0  0  0  0  0
   28.9720   33.1160   16.3320 O   0  0  0  0  0  0  0  0  0  0  0  0
   28.6790   30.8690   18.0290 C   0  0  1  0  0  0  0  0  0  0  0  0
   27.5570   31.3350   17.0880 C   0  0  1  0  0  0  0  0  0  0  0  0
   29.6350   31.3260   15.0400 O   0  0  0  0  0  0  0  0  0  0  0  0
   28.6660   31.4450   14.8370 H   0  0  0  0  0  0  0  0  0  0  0  0
   31.2120   32.7160   16.0200 C   0  0  0  0  0  0  0  0  0  0  0  0
   31.7700   33.3880   16.9140 O   0  0  0  0  0  0  0  0  0  0  0  0
   31.8940   32.5610   14.8270 O   0  0  0  0  0  0  0  0  0  0  0  0
   31.7910   31.7540   14.2250 H   0  0  0  0  0  0  0  0  0  0  0  0
   28.5220   29.5230   18.3450 O   0  0  0  0  0  0  0  0  0  0  0  0
   29.3500   29.1280   18.7340 H   0  0  0  0  0  0  0  0  0  0  0  0
   26.2610   31.0550   17.6730 N   0  0  0  0  0  0  0  0  0  0  0  0
   25.3470   30.1830   17.0180 C   0  0  0  0  0  0  0  0  0  0  0  0
   25.9530   31.4770   18.5810 H   0  0  0  0  0  0  0  0  0  0  0  0
   23.9940   29.8640   17.5870 C   0  0  0  0  0  0  0  0  0  0  0  0
   25.6640   29.6400   15.9110 O   0  0  0  0  0  0  0  0  0  0  0  0
   25.7070   33.9060   17.2610 O   0  0  0  0  0  0  0  0  0  0  0  0
   25.4750   34.8720   17.1990 H   0  0  0  0  0  0  0  0  0  0  0  0
   26.0960   35.7630   15.6010 O   0  0  0  0  0  0  0  0  0  0  0  0
   26.5420   36.6440   15.5340 H   0  0  0  0  0  0  0  0  0  0  0  0
   30.7200   34.5830   12.5610 O   0  0  0  0  0  0  0  0  0  0  0  0
   31.7760   35.5210   12.4450 C   0  0  0  0  0  0  0  0  0  0  0  0
   32.5290   35.6150   13.7410 C   0  0  0  0  0  0  0  0  0  0  0  0
   32.2910   36.4820   14.7730 C   0  0  0  0  0  0  0  0  0  0  0  0
   33.5820   34.8460   14.0830 N   0  0  0  0  0  0  0  0  0  0  0  0
   33.2120   36.2210   15.7330 N   0  0  0  0  0  0  0  0  0  0  0  0
   33.9740   35.2310   15.2870 N   0  0  0  0  0  0  0  0  0  0  0  0
   33.2930   36.9260   16.9940 C   0  0  0  0  0  0  0  0  0  0  0  0
   34.4430   36.3190   17.7930 C   0  0  0  0  0  0  0  0  0  0  0  0
   33.8670   35.8770   19.0990 C   0  0  0  0  0  0  0  0  0  0  0  0
   34.2970   36.2630   20.1940 O   0  0  0  0  0  0  0  0  0  0  0  0
   32.7940   34.9880   19.0370 O   0  0  0  0  0  0  0  0  0  0  0  0
   32.3770   34.7640   18.1340 H   0  0  0  0  0  0  0  0  0  0  0  0
   29.8670   25.5550   16.9770 C   0  0  0  0  0  0  0  0  0  0  0  0
   28.3450   25.7220   17.0260 C   0  0  0  0  0  0  0  0  0  0  0  0
   27.5990   24.4370   16.7000 C   0  0  0  0  0  0  0  0  0  0  0  0
   27.0070   23.7990   17.9250 C   0  0  0  0  0  0  0  0  0  0  0  0
   25.5990   23.3030   17.6110 C   0  0  0  0  0  0  0  0  0  0  0  0
   24.8170   24.3600   16.9280 N   0  0  0  0  0  0  0  0  0  0  0  0
  1  5  1  0  0  0  0
  1  4  1  0  0  0  0
  2  1  1  0  0  0  0
  3  2  2  0  0  0  0
  6  5  1  6  0  0  0
  6 29  1  0  0  0  0
  6  7  1  0  0  0  0
  7 27  1  1  0  0  0
  8  7  1  6  0  0  0
  8 13  1  0  0  0  0
  9 14  1  6  0  0  0
  9 11  1  0  0  0  0
  9 10  1  0  0  0  0
 10 12  1  0  0  0  0
 11  8  1  0  0  0  0
 12 20  1  6  0  0  0
 13 22  1  1  0  0  0
 13 12  1  0  0  0  0
 15 14  1  0  0  0  0
 16  9  1  0  0  0  0
 16 17  2  0  0  0  0
 18 16  1  0  0  0  0
 19 18  1  0  0  0  0
 20 21  1  0  0  0  0
 22 24  1  0  0  0  0
 23 25  1  0  0  0  0
 23 22  1  0  0  0  0
 26 23  2  0  0  0  0
 28 27  1  0  0  0  0
 30 29  1  0  0  0  0
 31  2  1  0  0  0  0
 32 31  1  0  0  0  0
 32 33  1  0  0  0  0
 33 35  1  0  0  0  0
 33 34  2  0  0  0  0
 34 36  1  0  0  0  0
 35 37  2  0  0  0  0
 36 38  1  0  0  0  0
 37 36  1  0  0  0  0
 38 39  1  0  0  0  0
 39 40  1  0  0  0  0
 40 41  2  0  0  0  0
 42 40  1  0  0  0  0
 43 42  1  0  0  0  0
 44 45  1  0  0  0  0
 46 45  1  0  0  0  0
 46 47  1  0  0  0  0
 48 47  1  0  0  0  0
 49 48  1  0  0  0  0
M  END
>  <REMARK>
 VINA RESULT:    -4.491      3.854      6.827
 INTER + INTRA:         -14.073
 INTER:                  -7.612
 INTRA:                  -6.461
 UNBOUND:                -5.644
 SMILES CC(=O)N[C@@H]1[C@@H](O)C[C@](O)(C(=O)O)O[C@H]1C(O)[C@H](O)CNC(=O)OCc1cn(CCC(=O)O)nn1
 SMILES IDX 21 1 22 2 23 3 20 5 18 6 16 7 15 8 9 9 8 10 14 11 6 12 5 13
 SMILES IDX 10 14 11 16 12 17 13 18 7 20 4 22 2 23 1 25 3 26 17 27 19 29
 SMILES IDX 24 31 25 32 26 33 27 34 35 35 28 36 34 37 29 38 30 39 31 40
 SMILES IDX 32 41 33 42
 H PARENT 21 4 10 15 13 19 7 21 4 24 17 28 19 30 33 43
 Flexibility Score: inf
  4 active torsions:
  status: ('A' for Active; 'I' for Inactive)
    1  A    between atoms: CA   and  CB  
    2  A    between atoms: CB   and  CG  
    3  A    between atoms: CG   and  CD  
    4  A    between atoms: CD   and  CE  

>  <TORSDO>
F 18

>  <BEGIN_>
RES LYS A 131

$$$$
ligand_32_pose_4_2HRL.pdbqt
 OpenBabel07062320523D

  6  5  0  0  0  0  0  0  0  0999 V2000
   33.1930   34.6630    9.2900 C   0  0  0  0  0  0  0  0  0  0  0  0
   32.0600   35.3600   10.0340 C   0  0  0  0  0  0  0  0  0  0  0  0
   30.8050   35.5140    9.2130 C   0  0  0  0  0  0  0  0  0  0  0  0
   30.1280   34.1680    9.0110 C   0  0  0  0  0  0  0  0  0  0  0  0
   28.6570   34.3540    8.6940 C   0  0  0  0  0  0  0  0  0  0  0  0
   27.8000   33.6480    9.6870 N   0  0  0  0  0  0  0  0  0  0  0  0
  1  2  1  0  0  0  0
  3  2  1  0  0  0  0
  4  3  1  0  0  0  0
  5  4  1  0  0  0  0
  5  6  1  0  0  0  0
M  END
>  <EGIN_R>
ES LYS A 135

>  <REMARK>
  4 active torsions:
  status: ('A' for Active; 'I' for Inactive)
    5  A    between atoms: CA   and  CB  
    6  A    between atoms: CB   and  CG  
    7  A    between atoms: CG   and  CD  
    8  A    between atoms: CD   and  CE  

$$$$
