ligand_61_pose_13_2HRL.pdbqt
 OpenBabel07062320523D

 49 50  0  0  1  0  0  0  0  0999 V2000
   26.4430   29.8900   18.2310 N   0  0  0  0  0  0  0  0  0  0  0  0
   27.2270   29.0970   17.3630 C   0  0  0  0  0  0  0  0  0  0  0  0
   27.2770   27.8590   17.5460 O   0  0  0  0  0  0  0  0  0  0  0  0
   26.4360   30.9380   18.0240 H   0  0  0  0  0  0  0  0  0  0  0  0
   25.6760   29.3780   19.3450 C   0  0  0  0  0  0  0  0  0  0  0  0
   26.1700   30.0080   20.6060 C   0  0  2  0  0  0  0  0  0  0  0  0
   27.3000   29.2520   21.2730 C   0  0  2  0  0  0  0  0  0  0  0  0
   28.5450   30.0710   21.1960 C   0  0  2  0  0  0  0  0  0  0  0  0
   29.9870   31.1650   19.7580 C   0  0  2  0  0  0  0  0  0  0  0  0
   30.7750   31.3910   21.0260 C   0  0  0  0  0  0  0  0  0  0  0  0
   28.6940   30.7440   20.0000 O   0  0  0  0  0  0  0  0  0  0  0  0
   30.8690   30.1750   21.8860 C   0  0  1  0  0  0  0  0  0  0  0  0
   29.7830   29.2050   21.4710 C   0  0  1  0  0  0  0  0  0  0  0  0
   30.6700   30.3440   18.8590 O   0  0  0  0  0  0  0  0  0  0  0  0
   30.0470   30.0100   18.1740 H   0  0  0  0  0  0  0  0  0  0  0  0
   29.8760   32.5130   19.0930 C   0  0  0  0  0  0  0  0  0  0  0  0
   28.8400   33.1900   19.1050 O   0  0  0  0  0  0  0  0  0  0  0  0
   30.9880   33.0280   18.4290 O   0  0  0  0  0  0  0  0  0  0  0  0
   31.0010   33.9450   18.0010 H   0  0  0  0  0  0  0  0  0  0  0  0
   32.1190   29.5960   21.9080 O   0  0  0  0  0  0  0  0  0  0  0  0
   32.1340   28.7220   21.4080 H   0  0  0  0  0  0  0  0  0  0  0  0
   29.4860   28.2320   22.4890 N   0  0  0  0  0  0  0  0  0  0  0  0
   30.1410   26.9580   22.5010 C   0  0  0  0  0  0  0  0  0  0  0  0
   28.7920   28.4120   23.2480 H   0  0  0  0  0  0  0  0  0  0  0  0
   29.8940   25.9160   23.5010 C   0  0  0  0  0  0  0  0  0  0  0  0
   30.9940   26.7150   21.5840 O   0  0  0  0  0  0  0  0  0  0  0  0
   27.4600   28.0680   20.5500 O   0  0  0  0  0  0  0  0  0  0  0  0
   27.0790   27.3150   21.0640 H   0  0  0  0  0  0  0  0  0  0  0  0
   25.1040   30.0090   21.5210 O   0  0  0  0  0  0  0  0  0  0  0  0
   24.3730   30.6070   21.2520 H   0  0  0  0  0  0  0  0  0  0  0  0
   27.9360   29.7090   16.3090 O   0  0  0  0  0  0  0  0  0  0  0  0
   27.7240   31.1080   16.1730 C   0  0  0  0  0  0  0  0  0  0  0  0
   28.9970   31.7260   15.7790 C   0  0  0  0  0  0  0  0  0  0  0  0
   29.1920   32.9280   15.1170 C   0  0  0  0  0  0  0  0  0  0  0  0
   30.2270   31.2140   16.0000 N   0  0  0  0  0  0  0  0  0  0  0  0
   30.5160   33.0730   14.9770 N   0  0  0  0  0  0  0  0  0  0  0  0
   31.1470   32.0430   15.5080 N   0  0  0  0  0  0  0  0  0  0  0  0
   31.1610   34.1890   14.3410 C   0  0  0  0  0  0  0  0  0  0  0  0
   31.6300   35.2020   15.3840 C   0  0  0  0  0  0  0  0  0  0  0  0
   32.7440   35.0240   16.0860 C   0  0  0  0  0  0  0  0  0  0  0  0
   30.8590   36.3250   15.5830 C   0  0  0  0  0  0  0  0  0  0  0  0
   33.1260   35.9590   17.0090 C   0  0  0  0  0  0  0  0  0  0  0  0
   31.8130   37.1910   16.8810 S   0  0  0  0  0  0  0  0  0  0  0  0
   29.8670   25.5550   16.9770 C   0  0  0  0  0  0  0  0  0  0  0  0
   28.3450   25.7220   17.0260 C   0  0  0  0  0  0  0  0  0  0  0  0
   27.6010   24.4020   16.8920 C   0  0  0  0  0  0  0  0  0  0  0  0
   26.6470   24.1710   18.0310 C   0  0  0  0  0  0  0  0  0  0  0  0
   25.3520   24.9340   17.7730 C   0  0  0  0  0  0  0  0  0  0  0  0
   24.9670   25.7230   18.9680 N   0  0  0  0  0  0  0  0  0  0  0  0
  1  5  1  0  0  0  0
  2  3  2  0  0  0  0
  2  1  1  0  0  0  0
  4  1  1  0  0  0  0
  6  5  1  6  0  0  0
  6  7  1  0  0  0  0
  6 29  1  0  0  0  0
  7 27  1  6  0  0  0
  8  7  1  6  0  0  0
  8 13  1  0  0  0  0
  9 14  1  6  0  0  0
  9 11  1  0  0  0  0
  9 10  1  0  0  0  0
 10 12  1  0  0  0  0
 11  8  1  0  0  0  0
 12 20  1  6  0  0  0
 13 12  1  0  0  0  0
 13 22  1  1  0  0  0
 15 14  1  0  0  0  0
 16 17  2  0  0  0  0
 16  9  1  0  0  0  0
 18 16  1  0  0  0  0
 19 18  1  0  0  0  0
 21 20  1  0  0  0  0
 22 23  1  0  0  0  0
 22 24  1  0  0  0  0
 23 25  1  0  0  0  0
 26 23  2  0  0  0  0
 27 28  1  0  0  0  0
 30 29  1  0  0  0  0
 31  2  1  0  0  0  0
 32 31  1  0  0  0  0
 33 35  1  0  0  0  0
 33 32  1  0  0  0  0
 34 33  2  0  0  0  0
 36 34  1  0  0  0  0
 36 37  1  0  0  0  0
 37 35  2  0  0  0  0
 38 36  1  0  0  0  0
 38 39  1  0  0  0  0
 39 41  2  0  0  0  0
 39 40  1  0  0  0  0
 40 42  2  0  0  0  0
 41 43  1  0  0  0  0
 43 42  1  0  0  0  0
 44 45  1  0  0  0  0
 46 45  1  0  0  0  0
 46 47  1  0  0  0  0
 48 47  1  0  0  0  0
 48 49  1  0  0  0  0
M  END
>  <REMARK>
 VINA RESULT:    -4.129      6.111     11.438
 INTER + INTRA:         -13.524
 INTER:                  -6.897
 INTRA:                  -6.627
 UNBOUND:                -6.136
 SMILES CC(=O)N[C@@H]1[C@@H](O)C[C@](O)(C(=O)O)O[C@H]1C(O)[C@H](O)CNC(=O)OCc1cn(Cc2ccsc2)nn1
 SMILES IDX 21 1 22 2 23 3 20 5 18 6 16 7 15 8 9 9 8 10 14 11 6 12 5 13
 SMILES IDX 10 14 11 16 12 17 13 18 7 20 4 22 2 23 1 25 3 26 17 27 19 29
 SMILES IDX 24 31 25 32 26 33 27 34 36 35 28 36 35 37 29 38 30 39 31 40
 SMILES IDX 34 41 32 42 33 43
 H PARENT 21 4 10 15 13 19 7 21 4 24 17 28 19 30
 Flexibility Score: inf
  4 active torsions:
  status: ('A' for Active; 'I' for Inactive)
    1  A    between atoms: CA   and  CB  
    2  A    between atoms: CB   and  CG  
    3  A    between atoms: CG   and  CD  
    4  A    between atoms: CD   and  CE  

>  <TORSDO>
F 16

>  <BEGIN_>
RES LYS A 131

$$$$
ligand_61_pose_13_2HRL.pdbqt
 OpenBabel07062320523D

  6  5  0  0  0  0  0  0  0  0999 V2000
   33.1930   34.6630    9.2900 C   0  0  0  0  0  0  0  0  0  0  0  0
   32.0600   35.3600   10.0340 C   0  0  0  0  0  0  0  0  0  0  0  0
   30.7120   34.7260    9.8090 C   0  0  0  0  0  0  0  0  0  0  0  0
   30.4870   34.4540    8.3300 C   0  0  0  0  0  0  0  0  0  0  0  0
   29.3960   35.3540    7.7820 C   0  0  0  0  0  0  0  0  0  0  0  0
   28.0480   34.7630    8.0080 N   0  0  0  0  0  0  0  0  0  0  0  0
  1  2  1  0  0  0  0
  3  2  1  0  0  0  0
  4  3  1  0  0  0  0
  5  6  1  0  0  0  0
  5  4  1  0  0  0  0
M  END
>  <EGIN_R>
ES LYS A 135

>  <REMARK>
  4 active torsions:
  status: ('A' for Active; 'I' for Inactive)
    5  A    between atoms: CA   and  CB  
    6  A    between atoms: CB   and  CG  
    7  A    between atoms: CG   and  CD  
    8  A    between atoms: CD   and  CE  

$$$$
