ligand_52_pose_4_2HRL.pdbqt
 OpenBabel07062320523D

 49 50  0  0  1  0  0  0  0  0999 V2000
   30.4560   31.8650   17.2240 C   0  0  0  0  0  0  0  0  0  0  0  0
   30.3490   32.2430   15.7930 C   0  0  2  0  0  0  0  0  0  0  0  0
   29.5040   33.4350   15.5490 C   0  0  2  0  0  0  0  0  0  0  0  0
   30.0410   34.5210   14.6840 C   0  0  2  0  0  0  0  0  0  0  0  0
   31.7010   36.0160   14.2980 C   0  0  2  0  0  0  0  0  0  0  0  0
   30.8910   36.6780   13.2410 C   0  0  0  0  0  0  0  0  0  0  0  0
   31.0050   35.2930   15.2480 O   0  0  0  0  0  0  0  0  0  0  0  0
   29.6330   35.9980   12.8270 C   0  0  1  0  0  0  0  0  0  0  0  0
   28.9590   35.3710   14.0810 C   0  0  1  0  0  0  0  0  0  0  0  0
   32.3150   37.0860   15.0240 O   0  0  0  0  0  0  0  0  0  0  0  0
   32.9730   36.6360   15.6020 H   0  0  0  0  0  0  0  0  0  0  0  0
   32.8220   35.2170   13.7530 C   0  0  0  0  0  0  0  0  0  0  0  0
   33.6980   34.7650   14.5310 O   0  0  0  0  0  0  0  0  0  0  0  0
   32.9970   34.9130   12.4100 O   0  0  0  0  0  0  0  0  0  0  0  0
   33.0900   35.7160   11.7780 H   0  0  0  0  0  0  0  0  0  0  0  0
   28.7040   36.9180   12.3420 O   0  0  0  0  0  0  0  0  0  0  0  0
   27.8960   36.9010   12.9120 H   0  0  0  0  0  0  0  0  0  0  0  0
   27.9290   34.5130   13.5620 N   0  0  0  0  0  0  0  0  0  0  0  0
   26.5570   34.8520   13.5360 C   0  0  0  0  0  0  0  0  0  0  0  0
   28.1980   33.5710   13.1720 H   0  0  0  0  0  0  0  0  0  0  0  0
   25.5710   33.8980   12.9790 C   0  0  0  0  0  0  0  0  0  0  0  0
   26.1880   35.9600   13.9860 O   0  0  0  0  0  0  0  0  0  0  0  0
   28.7810   33.8630   16.6460 O   0  0  0  0  0  0  0  0  0  0  0  0
   28.8630   34.8000   16.8840 H   0  0  0  0  0  0  0  0  0  0  0  0
   29.7550   31.1840   15.0630 O   0  0  0  0  0  0  0  0  0  0  0  0
   30.1790   30.3560   15.3670 H   0  0  0  0  0  0  0  0  0  0  0  0
   29.5820   30.8290   17.6870 N   0  0  0  0  0  0  0  0  0  0  0  0
   28.4580   30.9970   18.4870 C   0  0  0  0  0  0  0  0  0  0  0  0
   29.8050   29.8270   17.3970 H   0  0  0  0  0  0  0  0  0  0  0  0
   28.1080   32.1130   18.8910 O   0  0  0  0  0  0  0  0  0  0  0  0
   27.6420   29.9260   18.8920 O   0  0  0  0  0  0  0  0  0  0  0  0
   27.2320   28.9440   17.9680 C   0  0  0  0  0  0  0  0  0  0  0  0
   26.5440   29.5370   16.8070 C   0  0  0  0  0  0  0  0  0  0  0  0
   25.2810   29.1440   16.3930 C   0  0  0  0  0  0  0  0  0  0  0  0
   26.9160   30.4930   15.9550 N   0  0  0  0  0  0  0  0  0  0  0  0
   24.9350   29.8690   15.3160 N   0  0  0  0  0  0  0  0  0  0  0  0
   25.9310   30.6780   15.0630 N   0  0  0  0  0  0  0  0  0  0  0  0
   23.7140   29.7860   14.5720 C   0  0  0  0  0  0  0  0  0  0  0  0
   23.7090   29.8250   13.1890 C   0  0  0  0  0  0  0  0  0  0  0  0
   22.5110   29.6650   15.2370 C   0  0  0  0  0  0  0  0  0  0  0  0
   22.4920   29.7400   12.5080 C   0  0  0  0  0  0  0  0  0  0  0  0
   21.3390   29.5850   14.5470 N   0  0  0  0  0  0  0  0  0  0  0  0
   21.3030   29.6200   13.2030 C   0  0  0  0  0  0  0  0  0  0  0  0
   29.8670   25.5550   16.9770 C   0  0  0  0  0  0  0  0  0  0  0  0
   28.3450   25.7220   17.0260 C   0  0  0  0  0  0  0  0  0  0  0  0
   27.6010   24.4010   16.8980 C   0  0  0  0  0  0  0  0  0  0  0  0
   26.1490   24.5310   17.2670 C   0  0  0  0  0  0  0  0  0  0  0  0
   25.6270   23.1850   17.7570 C   0  0  0  0  0  0  0  0  0  0  0  0
   25.5380   23.1700   19.2360 N   0  0  0  0  0  0  0  0  0  0  0  0
  1 27  1  0  0  0  0
  2  1  1  1  0  0  0
  3  2  1  0  0  0  0
  3 23  1  1  0  0  0
  4  7  1  0  0  0  0
  4  3  1  1  0  0  0
  5 12  1  6  0  0  0
  5 10  1  0  0  0  0
  5  7  1  0  0  0  0
  6  5  1  0  0  0  0
  8 16  1  1  0  0  0
  8  6  1  0  0  0  0
  8  9  1  0  0  0  0
  9 18  1  6  0  0  0
  9  4  1  0  0  0  0
 10 11  1  0  0  0  0
 12 13  2  0  0  0  0
 14 12  1  0  0  0  0
 15 14  1  0  0  0  0
 16 17  1  0  0  0  0
 19 18  1  0  0  0  0
 19 22  2  0  0  0  0
 20 18  1  0  0  0  0
 21 19  1  0  0  0  0
 23 24  1  0  0  0  0
 25 26  1  0  0  0  0
 25  2  1  0  0  0  0
 27 28  1  0  0  0  0
 28 30  2  0  0  0  0
 28 31  1  0  0  0  0
 29 27  1  0  0  0  0
 32 31  1  0  0  0  0
 33 32  1  0  0  0  0
 34 33  2  0  0  0  0
 35 33  1  0  0  0  0
 36 34  1  0  0  0  0
 37 36  1  0  0  0  0
 37 35  2  0  0  0  0
 38 40  2  0  0  0  0
 38 36  1  0  0  0  0
 39 38  1  0  0  0  0
 41 39  2  0  0  0  0
 41 43  1  0  0  0  0
 42 40  1  0  0  0  0
 43 42  2  0  0  0  0
 44 45  1  0  0  0  0
 46 45  1  0  0  0  0
 46 47  1  0  0  0  0
 47 48  1  0  0  0  0
 48 49  1  0  0  0  0
M  END
>  <REMARK>
 VINA RESULT:    -5.159      3.780      7.720
 INTER + INTRA:         -14.092
 INTER:                  -8.535
 INTRA:                  -5.557
 UNBOUND:                -5.164
 SMILES CC(=O)N[C@@H]1[C@@H](O)C[C@](O)(C(=O)O)O[C@H]1C(O)[C@H](O)CNC(=O)OCc1cn(-c2cccnc2)nn1
 SMILES IDX 20 1 18 2 16 3 15 4 9 5 8 6 14 7 6 8 5 9 10 10 11 12 12 13
 SMILES IDX 13 14 7 16 4 18 2 19 1 21 3 22 17 23 19 25 21 27 22 28 23 30
 SMILES IDX 24 31 25 32 26 33 27 34 36 35 28 36 35 37 29 38 30 39 34 40
 SMILES IDX 31 41 33 42 32 43
 H PARENT 10 11 13 15 7 17 4 20 17 24 19 26 21 29
 Flexibility Score: inf
  4 active torsions:
  status: ('A' for Active; 'I' for Inactive)
    1  A    between atoms: CA   and  CB  
    2  A    between atoms: CB   and  CG  
    3  A    between atoms: CG   and  CD  
    4  A    between atoms: CD   and  CE  

>  <TORSDO>
F 15

>  <BEGIN_>
RES LYS A 131

$$$$
ligand_52_pose_4_2HRL.pdbqt
 OpenBabel07062320523D

  6  5  0  0  0  0  0  0  0  0999 V2000
   33.1930   34.6630    9.2900 C   0  0  0  0  0  0  0  0  0  0  0  0
   32.0600   35.3600   10.0340 C   0  0  0  0  0  0  0  0  0  0  0  0
   30.7960   35.4870    9.2240 C   0  0  0  0  0  0  0  0  0  0  0  0
   30.0460   34.1640    9.1880 C   0  0  0  0  0  0  0  0  0  0  0  0
   28.6070   34.3790    8.7600 C   0  0  0  0  0  0  0  0  0  0  0  0
   27.6660   33.6590    9.6620 N   0  0  0  0  0  0  0  0  0  0  0  0
  1  2  1  0  0  0  0
  3  2  1  0  0  0  0
  4  3  1  0  0  0  0
  5  4  1  0  0  0  0
  5  6  1  0  0  0  0
M  END
>  <EGIN_R>
ES LYS A 135

>  <REMARK>
  4 active torsions:
  status: ('A' for Active; 'I' for Inactive)
    5  A    between atoms: CA   and  CB  
    6  A    between atoms: CB   and  CG  
    7  A    between atoms: CG   and  CD  
    8  A    between atoms: CD   and  CE  

$$$$
