ligand_74_pose_13_2HRL.pdbqt
 OpenBabel07062320523D

 54 54  0  0  1  0  0  0  0  0999 V2000
   23.9620   39.1630    7.1130 O   0  0  0  0  0  0  0  0  0  0  0  0
   24.9760   40.1100    6.8850 C   0  0  0  0  0  0  0  0  0  0  0  0
   26.1240   39.7890    6.1210 N   0  0  0  0  0  0  0  0  0  0  0  0
   26.1650   38.7950    5.7330 H   0  0  0  0  0  0  0  0  0  0  0  0
   24.8310   41.2520    7.3820 O   0  0  0  0  0  0  0  0  0  0  0  0
   27.1970   40.7220    5.8600 C   0  0  0  0  0  0  0  0  0  0  0  0
   28.3930   39.9800    5.3700 C   0  0  2  0  0  0  0  0  0  0  0  0
   29.1950   39.3150    6.4780 C   0  0  2  0  0  0  0  0  0  0  0  0
   30.0570   40.3000    7.2030 C   0  0  2  0  0  0  0  0  0  0  0  0
   32.3410   39.9730    7.4710 C   0  0  2  0  0  0  0  0  0  0  0  0
   32.3770   40.5780    8.8530 C   0  0  0  0  0  0  0  0  0  0  0  0
   31.3090   40.4780    6.6940 O   0  0  0  0  0  0  0  0  0  0  0  0
   31.0150   41.0770    9.2850 C   0  0  1  0  0  0  0  0  0  0  0  0
   30.0180   40.0620    8.7100 C   0  0  1  0  0  0  0  0  0  0  0  0
   32.3100   38.5770    7.5370 O   0  0  0  0  0  0  0  0  0  0  0  0
   31.7280   38.2350    8.2400 H   0  0  0  0  0  0  0  0  0  0  0  0
   33.6120   40.3440    6.7950 C   0  0  0  0  0  0  0  0  0  0  0  0
   34.7080   39.9320    7.2850 O   0  0  0  0  0  0  0  0  0  0  0  0
   33.6740   41.1150    5.6530 O   0  0  0  0  0  0  0  0  0  0  0  0
   33.9890   40.6810    4.7720 H   0  0  0  0  0  0  0  0  0  0  0  0
   30.8920   41.2150   10.6450 O   0  0  0  0  0  0  0  0  0  0  0  0
   30.5580   40.3330   10.9960 H   0  0  0  0  0  0  0  0  0  0  0  0
   28.6840   40.3250    9.1890 N   0  0  0  0  0  0  0  0  0  0  0  0
   27.9590   39.3290    9.9140 C   0  0  0  0  0  0  0  0  0  0  0  0
   28.1850   41.2360    9.0360 H   0  0  0  0  0  0  0  0  0  0  0  0
   26.5930   39.5660   10.4170 C   0  0  0  0  0  0  0  0  0  0  0  0
   28.4960   38.2140   10.1310 O   0  0  0  0  0  0  0  0  0  0  0  0
   29.8630   38.2110    6.0020 O   0  0  0  0  0  0  0  0  0  0  0  0
   30.2960   38.4400    5.1540 H   0  0  0  0  0  0  0  0  0  0  0  0
   29.2580   40.9060    4.7390 O   0  0  0  0  0  0  0  0  0  0  0  0
   29.2190   41.7850    5.1800 H   0  0  0  0  0  0  0  0  0  0  0  0
   23.7610   38.7330    8.4360 C   0  0  0  0  0  0  0  0  0  0  0  0
   24.2650   37.3680    8.6670 C   0  0  0  0  0  0  0  0  0  0  0  0
   25.3810   36.7280    8.1480 C   0  0  0  0  0  0  0  0  0  0  0  0
   23.6920   36.4630    9.4700 N   0  0  0  0  0  0  0  0  0  0  0  0
   25.4420   35.4820    8.6470 N   0  0  0  0  0  0  0  0  0  0  0  0
   24.4120   35.3460    9.4420 N   0  0  0  0  0  0  0  0  0  0  0  0
   26.5020   34.4870    8.3230 C   0  0  0  0  0  0  0  0  0  0  0  0
   27.8180   34.9800    8.8130 C   0  0  2  0  0  0  0  0  0  0  0  0
   28.7920   34.9380    7.6490 C   0  0  0  0  0  0  0  0  0  0  0  0
   30.1520   35.2820    8.1360 C   0  0  0  0  0  0  0  0  0  0  0  0
   31.0120   34.4010    8.3110 O   0  0  0  0  0  0  0  0  0  0  0  0
   30.4220   36.6300    8.3900 O   0  0  0  0  0  0  0  0  0  0  0  0
   31.3260   36.8980    8.7260 H   0  0  0  0  0  0  0  0  0  0  0  0
   28.2860   34.2980   10.0310 C   0  0  0  0  0  0  0  0  0  0  0  0
   28.3020   35.0600   11.3020 C   0  0  0  0  0  0  0  0  0  0  0  0
   26.9140   34.8020   11.9560 C   0  0  0  0  0  0  0  0  0  0  0  0
   29.3310   34.6840   12.3120 C   0  0  0  0  0  0  0  0  0  0  0  0
   29.8670   25.5550   16.9770 C   0  0  0  0  0  0  0  0  0  0  0  0
   28.3450   25.7220   17.0260 C   0  0  0  0  0  0  0  0  0  0  0  0
   27.6020   24.3970   16.9480 C   0  0  0  0  0  0  0  0  0  0  0  0
   26.1130   24.5750   17.0510 C   0  0  0  0  0  0  0  0  0  0  0  0
   25.5580   23.6240   18.1070 C   0  0  0  0  0  0  0  0  0  0  0  0
   25.7360   24.1940   19.4630 N   0  0  0  0  0  0  0  0  0  0  0  0
  1 32  1  0  0  0  0
  2  1  1  0  0  0  0
  2  5  2  0  0  0  0
  3  2  1  0  0  0  0
  4  3  1  0  0  0  0
  6  3  1  0  0  0  0
  7  6  1  1  0  0  0
  7  8  1  0  0  0  0
  8 28  1  6  0  0  0
  9  8  1  6  0  0  0
  9 14  1  0  0  0  0
 10 17  1  6  0  0  0
 10 15  1  0  0  0  0
 10 11  1  0  0  0  0
 11 13  1  0  0  0  0
 12  9  1  0  0  0  0
 12 10  1  0  0  0  0
 13 21  1  1  0  0  0
 14 23  1  1  0  0  0
 14 13  1  0  0  0  0
 15 16  1  0  0  0  0
 17 18  2  0  0  0  0
 19 17  1  0  0  0  0
 20 19  1  0  0  0  0
 21 22  1  0  0  0  0
 23 24  1  0  0  0  0
 24 27  2  0  0  0  0
 24 26  1  0  0  0  0
 25 23  1  0  0  0  0
 29 28  1  0  0  0  0
 30 31  1  0  0  0  0
 30  7  1  0  0  0  0
 32 33  1  0  0  0  0
 33 35  1  0  0  0  0
 34 36  1  0  0  0  0
 34 33  2  0  0  0  0
 36 37  1  0  0  0  0
 37 35  2  0  0  0  0
 38 36  1  0  0  0  0
 38 39  1  0  0  0  0
 39 40  1  6  0  0  0
 39 45  1  0  0  0  0
 40 41  1  0  0  0  0
 41 42  2  0  0  0  0
 41 43  1  0  0  0  0
 43 44  1  0  0  0  0
 45 46  1  0  0  0  0
 46 47  1  0  0  0  0
 46 48  1  0  0  0  0
 49 50  1  0  0  0  0
 51 50  1  0  0  0  0
 51 52  1  0  0  0  0
 52 53  1  0  0  0  0
 53 54  1  0  0  0  0
M  END
>  <REMARK>
 VINA RESULT:    -4.130      7.773     13.412
 INTER + INTRA:         -15.595
 INTER:                 -10.003
 INTRA:                  -5.592
 UNBOUND:                -7.118
 SMILES CC(=O)N[C@@H]1[C@@H](O)C[C@](O)(C(=O)O)O[C@H]1C(O)[C@H](O)CNC(=O)OCc1cn(C[C@H](CC(=O)O)CC(C)C)nn1
 SMILES IDX 24 1 22 2 21 3 23 5 20 6 18 7 16 8 15 9 9 10 8 11 14 12 6 13
 SMILES IDX 5 14 10 15 11 17 12 18 13 19 7 21 4 23 2 24 1 26 3 27 17 28
 SMILES IDX 19 30 25 32 26 33 27 34 40 35 28 36 39 37 29 38 30 39 31 40
 SMILES IDX 32 41 33 42 34 43 35 45 36 46 37 47 38 48
 H PARENT 21 4 10 16 13 20 7 22 4 25 17 29 19 31 34 44
 Flexibility Score: inf
  4 active torsions:
  status: ('A' for Active; 'I' for Inactive)
    1  A    between atoms: CA   and  CB  
    2  A    between atoms: CB   and  CG  
    3  A    between atoms: CG   and  CD  
    4  A    between atoms: CD   and  CE  

>  <TORSDO>
F 21

>  <BEGIN_>
RES LYS A 131

$$$$
ligand_74_pose_13_2HRL.pdbqt
 OpenBabel07062320523D

  6  5  0  0  0  0  0  0  0  0999 V2000
   33.1930   34.6630    9.2900 C   0  0  0  0  0  0  0  0  0  0  0  0
   32.0600   35.3600   10.0340 C   0  0  0  0  0  0  0  0  0  0  0  0
   32.5190   36.1290   11.2460 C   0  0  0  0  0  0  0  0  0  0  0  0
   31.8770   37.5080   11.2810 C   0  0  0  0  0  0  0  0  0  0  0  0
   31.4610   37.8660   12.6940 C   0  0  0  0  0  0  0  0  0  0  0  0
   31.9330   36.8430   13.6680 N   0  0  0  0  0  0  0  0  0  0  0  0
  1  2  1  0  0  0  0
  2  3  1  0  0  0  0
  3  4  1  0  0  0  0
  4  5  1  0  0  0  0
  5  6  1  0  0  0  0
M  END
>  <EGIN_R>
ES LYS A 135

>  <REMARK>
  4 active torsions:
  status: ('A' for Active; 'I' for Inactive)
    5  A    between atoms: CA   and  CB  
    6  A    between atoms: CB   and  CG  
    7  A    between atoms: CG   and  CD  
    8  A    between atoms: CD   and  CE  

$$$$
