ligand_14_pose_18_2HRL.pdbqt
 OpenBabel07062320523D

 50 51  0  0  1  0  0  0  0  0999 V2000
   29.2940   27.2700   20.3280 N   0  0  0  0  0  0  0  0  0  0  0  0
   28.0650   27.8490   20.6940 C   0  0  0  0  0  0  0  0  0  0  0  0
   27.8210   28.1130   21.8790 O   0  0  0  0  0  0  0  0  0  0  0  0
   29.3920   27.0750   19.2740 H   0  0  0  0  0  0  0  0  0  0  0  0
   30.3770   26.9330   21.1960 C   0  0  0  0  0  0  0  0  0  0  0  0
   31.4890   27.9350   21.0840 C   0  0  2  0  0  0  0  0  0  0  0  0
   31.4010   28.9880   22.1840 C   0  0  1  0  0  0  0  0  0  0  0  0
   30.9180   30.2830   21.5070 C   0  0  2  0  0  0  0  0  0  0  0  0
   32.3970   32.0920   21.7020 C   0  0  2  0  0  0  0  0  0  0  0  0
   31.8510   32.2380   23.1090 C   0  0  0  0  0  0  0  0  0  0  0  0
   31.9660   30.9910   21.0320 O   0  0  0  0  0  0  0  0  0  0  0  0
   30.3640   32.1650   23.1000 C   0  0  1  0  0  0  0  0  0  0  0  0
   29.8890   30.9860   22.3150 C   0  0  1  0  0  0  0  0  0  0  0  0
   33.7920   31.9190   21.8810 O   0  0  0  0  0  0  0  0  0  0  0  0
   33.9850   31.9640   22.8660 H   0  0  0  0  0  0  0  0  0  0  0  0
   32.2230   33.3410   20.9250 C   0  0  0  0  0  0  0  0  0  0  0  0
   32.9230   34.3410   21.1970 O   0  0  0  0  0  0  0  0  0  0  0  0
   31.2990   33.4200   19.9010 O   0  0  0  0  0  0  0  0  0  0  0  0
   31.6180   33.6630   18.9740 H   0  0  0  0  0  0  0  0  0  0  0  0
   29.9270   32.1010   24.4180 O   0  0  0  0  0  0  0  0  0  0  0  0
   30.2000   32.9210   24.9120 H   0  0  0  0  0  0  0  0  0  0  0  0
   28.7080   31.3060   21.5150 N   0  0  0  0  0  0  0  0  0  0  0  0
   27.4170   31.3440   22.0530 C   0  0  0  0  0  0  0  0  0  0  0  0
   28.8700   31.5060   20.5100 H   0  0  0  0  0  0  0  0  0  0  0  0
   26.2740   31.6780   21.1650 C   0  0  0  0  0  0  0  0  0  0  0  0
   27.2240   31.0950   23.2870 O   0  0  0  0  0  0  0  0  0  0  0  0
   30.4580   28.5520   23.1080 O   0  0  0  0  0  0  0  0  0  0  0  0
   30.7010   27.7350   23.5770 H   0  0  0  0  0  0  0  0  0  0  0  0
   31.6220   28.5150   19.8430 O   0  0  0  0  0  0  0  0  0  0  0  0
   31.7670   27.8840   19.1000 H   0  0  0  0  0  0  0  0  0  0  0  0
   27.0710   28.1510   19.7600 O   0  0  0  0  0  0  0  0  0  0  0  0
   27.4100   28.4700   18.4260 C   0  0  0  0  0  0  0  0  0  0  0  0
   28.0210   29.8170   18.3040 C   0  0  0  0  0  0  0  0  0  0  0  0
   27.4680   30.9410   17.6870 C   0  0  0  0  0  0  0  0  0  0  0  0
   29.2170   30.2420   18.7500 N   0  0  0  0  0  0  0  0  0  0  0  0
   28.3150   31.9820   17.7730 N   0  0  0  0  0  0  0  0  0  0  0  0
   29.3790   31.5040   18.4360 N   0  0  0  0  0  0  0  0  0  0  0  0
   28.1580   33.3320   17.2730 C   0  0  0  0  0  0  0  0  0  0  0  0
   28.2930   33.4240   15.7900 C   0  0  0  0  0  0  0  0  0  0  0  0
   29.6040   33.8050   15.3290 N   0  0  0  0  0  0  0  0  0  0  0  0
   30.2730   34.5050   16.4120 C   0  0  0  0  0  0  0  0  0  0  0  0
   30.4350   32.6550   15.0300 C   0  0  0  0  0  0  0  0  0  0  0  0
   31.6800   34.0050   16.4820 C   0  0  0  0  0  0  0  0  0  0  0  0
   31.8260   33.2380   15.1850 C   0  0  0  0  0  0  0  0  0  0  0  0
   29.8670   25.5550   16.9770 C   0  0  0  0  0  0  0  0  0  0  0  0
   28.3450   25.7220   17.0260 C   0  0  0  0  0  0  0  0  0  0  0  0
   27.6020   24.4000   16.9090 C   0  0  0  0  0  0  0  0  0  0  0  0
   26.6320   24.1940   18.0400 C   0  0  0  0  0  0  0  0  0  0  0  0
   25.3910   25.0500   17.8100 C   0  0  0  0  0  0  0  0  0  0  0  0
   24.4700   24.3820   16.8600 N   0  0  0  0  0  0  0  0  0  0  0  0
  1  2  1  0  0  0  0
  1  5  1  0  0  0  0
  2  3  2  0  0  0  0
  4  1  1  0  0  0  0
  6  5  1  6  0  0  0
  6  7  1  0  0  0  0
  7 27  1  1  0  0  0
  8  7  1  1  0  0  0
  8 13  1  0  0  0  0
  9 16  1  6  0  0  0
  9 14  1  0  0  0  0
  9 10  1  0  0  0  0
 11  8  1  0  0  0  0
 11  9  1  0  0  0  0
 12 10  1  0  0  0  0
 12 20  1  1  0  0  0
 13 22  1  6  0  0  0
 13 12  1  0  0  0  0
 14 15  1  0  0  0  0
 16 17  2  0  0  0  0
 18 16  1  0  0  0  0
 19 18  1  0  0  0  0
 20 21  1  0  0  0  0
 22 23  1  0  0  0  0
 23 26  2  0  0  0  0
 24 22  1  0  0  0  0
 25 23  1  0  0  0  0
 27 28  1  0  0  0  0
 29  6  1  0  0  0  0
 30 29  1  0  0  0  0
 31  2  1  0  0  0  0
 32 31  1  0  0  0  0
 33 32  1  0  0  0  0
 33 35  1  0  0  0  0
 34 36  1  0  0  0  0
 34 33  2  0  0  0  0
 36 37  1  0  0  0  0
 37 35  2  0  0  0  0
 38 36  1  0  0  0  0
 39 38  1  0  0  0  0
 40 39  1  0  0  0  0
 40 41  1  0  0  0  0
 41 43  1  0  0  0  0
 42 44  1  0  0  0  0
 42 40  1  0  0  0  0
 44 43  1  0  0  0  0
 45 46  1  0  0  0  0
 47 46  1  0  0  0  0
 47 48  1  0  0  0  0
 49 48  1  0  0  0  0
 50 49  1  0  0  0  0
M  END
>  <REMARK>
 VINA RESULT:    -4.154      7.177     12.519
 INTER + INTRA:         -13.670
 INTER:                  -6.560
 INTRA:                  -7.109
 UNBOUND:                -5.994
 SMILES CC(=O)N[C@@H]1[C@@H](O)C[C@](O)(C(=O)O)O[C@H]1C(O)[C@H](O)CNC(=O)OCc1cn(CCN2CCCC2)nn1
 SMILES IDX 21 1 22 2 23 3 20 5 18 6 16 7 15 8 9 9 8 10 14 11 6 12 5 13
 SMILES IDX 10 14 11 16 12 17 13 18 7 20 4 22 2 23 1 25 3 26 17 27 19 29
 SMILES IDX 24 31 25 32 26 33 27 34 37 35 28 36 36 37 29 38 30 39 31 40
 SMILES IDX 32 41 35 42 33 43 34 44
 H PARENT 21 4 10 15 13 19 7 21 4 24 17 28 19 30
 Flexibility Score: inf
  4 active torsions:
  status: ('A' for Active; 'I' for Inactive)
    1  A    between atoms: CA   and  CB  
    2  A    between atoms: CB   and  CG  
    3  A    between atoms: CG   and  CD  
    4  A    between atoms: CD   and  CE  

>  <TORSDO>
F 17

>  <BEGIN_>
RES LYS A 131

$$$$
ligand_14_pose_18_2HRL.pdbqt
 OpenBabel07062320523D

  6  5  0  0  0  0  0  0  0  0999 V2000
   33.1930   34.6630    9.2900 C   0  0  0  0  0  0  0  0  0  0  0  0
   32.0600   35.3600   10.0340 C   0  0  0  0  0  0  0  0  0  0  0  0
   30.7200   35.2180    9.3600 C   0  0  0  0  0  0  0  0  0  0  0  0
   29.6800   34.6920   10.3390 C   0  0  0  0  0  0  0  0  0  0  0  0
   30.1400   34.9020   11.7680 C   0  0  0  0  0  0  0  0  0  0  0  0
   29.3220   35.9450   12.4470 N   0  0  0  0  0  0  0  0  0  0  0  0
  1  2  1  0  0  0  0
  3  2  1  0  0  0  0
  3  4  1  0  0  0  0
  4  5  1  0  0  0  0
  5  6  1  0  0  0  0
M  END
>  <EGIN_R>
ES LYS A 135

>  <REMARK>
  4 active torsions:
  status: ('A' for Active; 'I' for Inactive)
    5  A    between atoms: CA   and  CB  
    6  A    between atoms: CB   and  CG  
    7  A    between atoms: CG   and  CD  
    8  A    between atoms: CD   and  CE  

$$$$
