ligand_35_pose_5_2HRL.pdbqt
 OpenBabel07062320523D

 49 49  0  0  1  0  0  0  0  0999 V2000
   28.1250   27.4580   19.3280 N   0  0  0  0  0  0  0  0  0  0  0  0
   28.4540   27.4380   20.7030 C   0  0  0  0  0  0  0  0  0  0  0  0
   27.6330   27.7970   21.5850 O   0  0  0  0  0  0  0  0  0  0  0  0
   28.8370   27.1510   18.6400 H   0  0  0  0  0  0  0  0  0  0  0  0
   26.8390   27.8880   18.8600 C   0  0  0  0  0  0  0  0  0  0  0  0
   26.8380   29.3380   18.3650 C   0  0  2  0  0  0  0  0  0  0  0  0
   27.8070   29.4200   17.2370 C   0  0  2  0  0  0  0  0  0  0  0  0
   27.4690   30.3660   16.1350 C   0  0  2  0  0  0  0  0  0  0  0  0
   29.4660   31.5760   16.0760 C   0  0  2  0  0  0  0  0  0  0  0  0
   28.9130   32.3780   17.1850 C   0  0  0  0  0  0  0  0  0  0  0  0
   28.6480   30.6620   15.4660 O   0  0  0  0  0  0  0  0  0  0  0  0
   27.4480   32.6390   17.1790 C   0  0  1  0  0  0  0  0  0  0  0  0
   26.6690   31.5630   16.4780 C   0  0  1  0  0  0  0  0  0  0  0  0
   30.5260   30.8130   16.6320 O   0  0  0  0  0  0  0  0  0  0  0  0
   31.3070   30.9420   16.0520 H   0  0  0  0  0  0  0  0  0  0  0  0
   30.0950   32.4830   15.0770 C   0  0  0  0  0  0  0  0  0  0  0  0
   29.4500   33.4140   14.5220 O   0  0  0  0  0  0  0  0  0  0  0  0
   31.4230   32.3330   14.7190 O   0  0  0  0  0  0  0  0  0  0  0  0
   31.9720   33.0660   14.2830 H   0  0  0  0  0  0  0  0  0  0  0  0
   27.0430   32.7820   18.5190 O   0  0  0  0  0  0  0  0  0  0  0  0
   26.9260   33.7520   18.6660 H   0  0  0  0  0  0  0  0  0  0  0  0
   26.1730   32.1100   15.1980 N   0  0  0  0  0  0  0  0  0  0  0  0
   24.9130   31.7320   14.6820 C   0  0  0  0  0  0  0  0  0  0  0  0
   26.7250   32.7830   14.6370 H   0  0  0  0  0  0  0  0  0  0  0  0
   24.3770   32.2510   13.4090 C   0  0  0  0  0  0  0  0  0  0  0  0
   24.1860   30.9070   15.3260 O   0  0  0  0  0  0  0  0  0  0  0  0
   27.7670   28.1260   16.6230 O   0  0  0  0  0  0  0  0  0  0  0  0
   27.0190   27.6650   17.0800 H   0  0  0  0  0  0  0  0  0  0  0  0
   27.2490   30.0930   19.4570 O   0  0  0  0  0  0  0  0  0  0  0  0
   27.4290   29.4620   20.1980 H   0  0  0  0  0  0  0  0  0  0  0  0
   29.7230   27.0090   21.1360 O   0  0  0  0  0  0  0  0  0  0  0  0
   30.8880   27.7340   20.7860 C   0  0  0  0  0  0  0  0  0  0  0  0
   30.6040   29.1870   20.6760 C   0  0  0  0  0  0  0  0  0  0  0  0
   30.5110   30.0930   21.7350 C   0  0  0  0  0  0  0  0  0  0  0  0
   30.3790   29.9320   19.5710 N   0  0  0  0  0  0  0  0  0  0  0  0
   30.2440   31.3070   21.2440 N   0  0  0  0  0  0  0  0  0  0  0  0
   30.1650   31.2030   19.9420 N   0  0  0  0  0  0  0  0  0  0  0  0
   30.0660   32.5460   22.0090 C   0  0  1  0  0  0  0  0  0  0  0  0
   31.1360   33.5500   21.6140 C   0  0  0  0  0  0  0  0  0  0  0  0
   28.7340   33.1170   21.8230 C   0  0  0  0  0  0  0  0  0  0  0  0
   28.4950   34.2860   22.2030 O   0  0  0  0  0  0  0  0  0  0  0  0
   27.6720   32.4310   21.2360 O   0  0  0  0  0  0  0  0  0  0  0  0
   26.7210   32.5610   21.5620 H   0  0  0  0  0  0  0  0  0  0  0  0
   29.8670   25.5550   16.9770 C   0  0  0  0  0  0  0  0  0  0  0  0
   28.3450   25.7220   17.0260 C   0  0  0  0  0  0  0  0  0  0  0  0
   27.6020   24.3970   16.9420 C   0  0  0  0  0  0  0  0  0  0  0  0
   26.1500   24.5390   17.3030 C   0  0  0  0  0  0  0  0  0  0  0  0
   25.8520   23.7110   18.5490 C   0  0  0  0  0  0  0  0  0  0  0  0
   25.5830   24.5950   19.7080 N   0  0  0  0  0  0  0  0  0  0  0  0
  1  2  1  0  0  0  0
  2 31  1  0  0  0  0
  2  3  2  0  0  0  0
  4  1  1  0  0  0  0
  5  1  1  0  0  0  0
  6  5  1  1  0  0  0
  6 29  1  0  0  0  0
  7 27  1  6  0  0  0
  7  6  1  0  0  0  0
  8 13  1  0  0  0  0
  8  7  1  1  0  0  0
  9 16  1  6  0  0  0
  9 14  1  0  0  0  0
  9 10  1  0  0  0  0
 11  9  1  0  0  0  0
 11  8  1  0  0  0  0
 12 10  1  0  0  0  0
 12 20  1  1  0  0  0
 13 22  1  6  0  0  0
 13 12  1  0  0  0  0
 15 14  1  0  0  0  0
 17 16  2  0  0  0  0
 18 16  1  0  0  0  0
 19 18  1  0  0  0  0
 20 21  1  0  0  0  0
 23 22  1  0  0  0  0
 23 26  2  0  0  0  0
 24 22  1  0  0  0  0
 25 23  1  0  0  0  0
 27 28  1  0  0  0  0
 29 30  1  0  0  0  0
 32 31  1  0  0  0  0
 33 32  1  0  0  0  0
 33 34  2  0  0  0  0
 35 37  2  0  0  0  0
 35 33  1  0  0  0  0
 36 34  1  0  0  0  0
 36 38  1  0  0  0  0
 37 36  1  0  0  0  0
 38 39  1  6  0  0  0
 40 38  1  0  0  0  0
 40 41  2  0  0  0  0
 42 43  1  0  0  0  0
 42 40  1  0  0  0  0
 44 45  1  0  0  0  0
 46 45  1  0  0  0  0
 46 47  1  0  0  0  0
 47 48  1  0  0  0  0
 48 49  1  0  0  0  0
M  END
>  <REMARK>
 VINA RESULT:    -5.067      2.395      5.480
 INTER + INTRA:         -13.938
 INTER:                  -7.211
 INTRA:                  -6.727
 UNBOUND:                -4.724
 SMILES CC(=O)N[C@@H]1[C@@H](O)C[C@](O)(C(=O)O)O[C@H]1C(O)[C@H](O)CNC(=O)OCc1cn([C@@H](C)C(=O)O)nn1
 SMILES IDX 21 1 22 2 23 3 20 5 18 6 16 7 15 8 9 9 8 10 14 11 6 12 5 13
 SMILES IDX 10 14 11 16 12 17 13 18 7 20 4 22 2 23 1 25 3 26 17 27 19 29
 SMILES IDX 24 31 25 32 26 33 27 34 35 35 28 36 34 37 29 38 30 39 31 40
 SMILES IDX 32 41 33 42
 H PARENT 21 4 10 15 13 19 7 21 4 24 17 28 19 30 33 43
 Flexibility Score: inf
  4 active torsions:
  status: ('A' for Active; 'I' for Inactive)
    1  A    between atoms: CA   and  CB  
    2  A    between atoms: CB   and  CG  
    3  A    between atoms: CG   and  CD  
    4  A    between atoms: CD   and  CE  

>  <TORSDO>
F 17

>  <BEGIN_>
RES LYS A 131

$$$$
ligand_35_pose_5_2HRL.pdbqt
 OpenBabel07062320523D

  6  5  0  0  0  0  0  0  0  0999 V2000
   33.1930   34.6630    9.2900 C   0  0  0  0  0  0  0  0  0  0  0  0
   32.0600   35.3600   10.0340 C   0  0  0  0  0  0  0  0  0  0  0  0
   30.7210   34.6940    9.8530 C   0  0  0  0  0  0  0  0  0  0  0  0
   30.2420   34.8320    8.4160 C   0  0  0  0  0  0  0  0  0  0  0  0
   28.7710   34.4790    8.3080 C   0  0  0  0  0  0  0  0  0  0  0  0
   28.2270   34.0410    9.6230 N   0  0  0  0  0  0  0  0  0  0  0  0
  1  2  1  0  0  0  0
  3  2  1  0  0  0  0
  4  3  1  0  0  0  0
  5  4  1  0  0  0  0
  5  6  1  0  0  0  0
M  END
>  <EGIN_R>
ES LYS A 135

>  <REMARK>
  4 active torsions:
  status: ('A' for Active; 'I' for Inactive)
    5  A    between atoms: CA   and  CB  
    6  A    between atoms: CB   and  CG  
    7  A    between atoms: CG   and  CD  
    8  A    between atoms: CD   and  CE  

$$$$
