ligand_28_pose_19_2HRL.pdbqt
 OpenBabel07062320523D

 53 55  0  0  1  0  0  0  0  0999 V2000
   27.8610   31.0250   18.6620 N   0  0  0  0  0  0  0  0  0  0  0  0
   27.0260   29.9110   18.9540 C   0  0  0  0  0  0  0  0  0  0  0  0
   27.5550   28.7920   19.2540 O   0  0  0  0  0  0  0  0  0  0  0  0
   27.4050   31.9180   18.4240 H   0  0  0  0  0  0  0  0  0  0  0  0
   29.2860   30.8190   18.7240 C   0  0  0  0  0  0  0  0  0  0  0  0
   30.0800   32.0780   18.5740 C   0  0  2  0  0  0  0  0  0  0  0  0
   30.6160   32.2680   17.1730 C   0  0  2  0  0  0  0  0  0  0  0  0
   29.9330   33.4500   16.4920 C   0  0  2  0  0  0  0  0  0  0  0  0
   27.6420   33.4330   16.1230 C   0  0  2  0  0  0  0  0  0  0  0  0
   27.7480   34.1560   14.7990 C   0  0  0  0  0  0  0  0  0  0  0  0
   28.6800   33.6770   16.9760 O   0  0  0  0  0  0  0  0  0  0  0  0
   29.1840   34.4710   14.4340 C   0  0  1  0  0  0  0  0  0  0  0  0
   30.0310   33.3510   14.9920 C   0  0  1  0  0  0  0  0  0  0  0  0
   27.4650   32.0520   15.9180 O   0  0  0  0  0  0  0  0  0  0  0  0
   27.9770   31.5110   16.5470 H   0  0  0  0  0  0  0  0  0  0  0  0
   26.3920   33.9130   16.7730 C   0  0  0  0  0  0  0  0  0  0  0  0
   26.2800   33.8920   18.0360 O   0  0  0  0  0  0  0  0  0  0  0  0
   25.3030   34.3980   16.0700 O   0  0  0  0  0  0  0  0  0  0  0  0
   24.5290   34.7980   16.6100 H   0  0  0  0  0  0  0  0  0  0  0  0
   29.3410   34.6270   13.0620 O   0  0  0  0  0  0  0  0  0  0  0  0
   29.3650   33.7250   12.6610 H   0  0  0  0  0  0  0  0  0  0  0  0
   31.3880   33.3920   14.5780 N   0  0  0  0  0  0  0  0  0  0  0  0
   32.1760   34.5690   14.6640 C   0  0  0  0  0  0  0  0  0  0  0  0
   31.8060   32.4940   14.1910 H   0  0  0  0  0  0  0  0  0  0  0  0
   33.6060   34.5780   14.2180 C   0  0  0  0  0  0  0  0  0  0  0  0
   31.6130   35.5910   15.1320 O   0  0  0  0  0  0  0  0  0  0  0  0
   30.2880   31.1300   16.4370 O   0  0  0  0  0  0  0  0  0  0  0  0
   29.3060   31.0150   16.4220 H   0  0  0  0  0  0  0  0  0  0  0  0
   31.1370   32.0220   19.4810 O   0  0  0  0  0  0  0  0  0  0  0  0
   30.8560   32.2610   20.3980 H   0  0  0  0  0  0  0  0  0  0  0  0
   25.6380   29.9850   18.9290 O   0  0  0  0  0  0  0  0  0  0  0  0
   24.9370   29.2320   17.9450 C   0  0  0  0  0  0  0  0  0  0  0  0
   24.7030   30.0520   16.7350 C   0  0  0  0  0  0  0  0  0  0  0  0
   24.7360   29.5790   15.4540 C   0  0  0  0  0  0  0  0  0  0  0  0
   24.4290   31.3530   16.6480 N   0  0  0  0  0  0  0  0  0  0  0  0
   24.4830   30.6050   14.6300 N   0  0  0  0  0  0  0  0  0  0  0  0
   24.2980   31.6750   15.3670 N   0  0  0  0  0  0  0  0  0  0  0  0
   24.4270   30.5240   13.1870 C   0  0  0  0  0  0  0  0  0  0  0  0
   22.9940   30.3560   12.8150 C   0  0  0  0  0  0  0  0  0  0  0  0
   22.5330   29.0960   12.5100 C   0  0  0  0  0  0  0  0  0  0  0  0
   22.1240   31.4160   12.7670 C   0  0  0  0  0  0  0  0  0  0  0  0
   21.1990   28.9170   12.1610 C   0  0  0  0  0  0  0  0  0  0  0  0
   20.8000   31.2340   12.4190 C   0  0  0  0  0  0  0  0  0  0  0  0
   20.3280   29.9860   12.1140 C   0  0  0  0  0  0  0  0  0  0  0  0
   19.7640   32.1420   12.3080 O   0  0  0  0  0  0  0  0  0  0  0  0
   18.9870   30.0690   11.8020 O   0  0  0  0  0  0  0  0  0  0  0  0
   18.5830   31.3890   12.1400 C   0  0  0  0  0  0  0  0  0  0  0  0
   29.8670   25.5550   16.9770 C   0  0  0  0  0  0  0  0  0  0  0  0
   28.3450   25.7220   17.0260 C   0  0  0  0  0  0  0  0  0  0  0  0
   27.6020   24.4000   16.9160 C   0  0  0  0  0  0  0  0  0  0  0  0
   26.4860   24.2930   17.9180 C   0  0  0  0  0  0  0  0  0  0  0  0
   26.3910   25.5900   18.7150 C   0  0  0  0  0  0  0  0  0  0  0  0
   25.5510   25.3980   19.9210 N   0  0  0  0  0  0  0  0  0  0  0  0
  1  5  1  0  0  0  0
  1  2  1  0  0  0  0
  2  3  2  0  0  0  0
  4  1  1  0  0  0  0
  6  5  1  6  0  0  0
  6 29  1  0  0  0  0
  7 27  1  6  0  0  0
  7  6  1  0  0  0  0
  8 11  1  0  0  0  0
  8  7  1  1  0  0  0
  9 14  1  6  0  0  0
  9 16  1  0  0  0  0
  9 11  1  0  0  0  0
 10  9  1  0  0  0  0
 12 20  1  6  0  0  0
 12 10  1  0  0  0  0
 12 13  1  0  0  0  0
 13 22  1  1  0  0  0
 13  8  1  0  0  0  0
 14 15  1  0  0  0  0
 16 17  2  0  0  0  0
 18 19  1  0  0  0  0
 18 16  1  0  0  0  0
 21 20  1  0  0  0  0
 22 23  1  0  0  0  0
 23 26  2  0  0  0  0
 24 22  1  0  0  0  0
 25 23  1  0  0  0  0
 28 27  1  0  0  0  0
 29 30  1  0  0  0  0
 31  2  1  0  0  0  0
 32 31  1  0  0  0  0
 33 32  1  0  0  0  0
 34 33  2  0  0  0  0
 35 33  1  0  0  0  0
 36 37  1  0  0  0  0
 36 34  1  0  0  0  0
 37 35  2  0  0  0  0
 38 36  1  0  0  0  0
 39 38  1  0  0  0  0
 40 39  2  0  0  0  0
 41 39  1  0  0  0  0
 42 40  1  0  0  0  0
 43 41  2  0  0  0  0
 44 42  2  0  0  0  0
 44 43  1  0  0  0  0
 45 43  1  0  0  0  0
 46 44  1  0  0  0  0
 46 47  1  0  0  0  0
 47 45  1  0  0  0  0
 48 49  1  0  0  0  0
 50 49  1  0  0  0  0
 50 51  1  0  0  0  0
 51 52  1  0  0  0  0
 52 53  1  0  0  0  0
M  END
>  <REMARK>
 VINA RESULT:    -4.684      4.295      8.826
 INTER + INTRA:         -14.383
 INTER:                  -8.500
 INTRA:                  -5.883
 UNBOUND:                -6.003
 SMILES CC(=O)N[C@@H]1[C@@H](O)C[C@](O)(C(=O)O)O[C@H]1C(O)[C@H](O)CNC(=O)OCc1cn(Cc2ccc3c(c2)OCO3)nn1
 SMILES IDX 21 1 22 2 23 3 20 5 18 6 16 7 15 8 9 9 8 10 14 11 6 12 5 13
 SMILES IDX 10 14 11 16 12 17 13 18 7 20 4 22 2 23 1 25 3 26 17 27 19 29
 SMILES IDX 24 31 25 32 26 33 27 34 40 35 28 36 39 37 29 38 30 39 31 40
 SMILES IDX 35 41 32 42 34 43 33 44 36 45 38 46 37 47
 H PARENT 21 4 10 15 13 19 7 21 4 24 17 28 19 30
 Flexibility Score: inf
  4 active torsions:
  status: ('A' for Active; 'I' for Inactive)
    1  A    between atoms: CA   and  CB  
    2  A    between atoms: CB   and  CG  
    3  A    between atoms: CG   and  CD  
    4  A    between atoms: CD   and  CE  

>  <TORSDO>
F 16

>  <BEGIN_>
RES LYS A 131

$$$$
ligand_28_pose_19_2HRL.pdbqt
 OpenBabel07062320523D

  6  5  0  0  0  0  0  0  0  0999 V2000
   33.1930   34.6630    9.2900 C   0  0  0  0  0  0  0  0  0  0  0  0
   32.0600   35.3600   10.0340 C   0  0  0  0  0  0  0  0  0  0  0  0
   30.6990   34.7890    9.7310 C   0  0  0  0  0  0  0  0  0  0  0  0
   30.4340   34.8000    8.2330 C   0  0  0  0  0  0  0  0  0  0  0  0
   29.0410   35.3270    7.9430 C   0  0  0  0  0  0  0  0  0  0  0  0
   28.8320   35.5120    6.4800 N   0  0  0  0  0  0  0  0  0  0  0  0
  1  2  1  0  0  0  0
  3  2  1  0  0  0  0
  4  3  1  0  0  0  0
  5  4  1  0  0  0  0
  6  5  1  0  0  0  0
M  END
>  <EGIN_R>
ES LYS A 135

>  <REMARK>
  4 active torsions:
  status: ('A' for Active; 'I' for Inactive)
    5  A    between atoms: CA   and  CB  
    6  A    between atoms: CB   and  CG  
    7  A    between atoms: CG   and  CD  
    8  A    between atoms: CD   and  CE  

$$$$
