ligand_48_pose_10_2HRL.pdbqt
 OpenBabel07062320523D

 49 50  0  0  1  0  0  0  0  0999 V2000
   27.7020   29.4750   16.7750 C   0  0  0  0  0  0  0  0  0  0  0  0
   27.3880   30.9560   16.9320 C   0  0  2  0  0  0  0  0  0  0  0  0
   28.3060   31.7010   16.0130 C   0  0  1  0  0  0  0  0  0  0  0  0
   29.1090   32.8040   16.6690 C   0  0  2  0  0  0  0  0  0  0  0  0
   29.6980   34.4310   15.0740 C   0  0  2  0  0  0  0  0  0  0  0  0
   31.1440   34.4150   15.5420 C   0  0  0  0  0  0  0  0  0  0  0  0
   28.9000   34.0250   16.0900 O   0  0  0  0  0  0  0  0  0  0  0  0
   31.5450   33.0460   16.0230 C   0  0  1  0  0  0  0  0  0  0  0  0
   30.5240   32.4570   16.9750 C   0  0  1  0  0  0  0  0  0  0  0  0
   29.5580   33.7280   13.8790 O   0  0  0  0  0  0  0  0  0  0  0  0
   29.9720   32.8170   14.0090 H   0  0  0  0  0  0  0  0  0  0  0  0
   29.3920   35.8630   14.8020 C   0  0  0  0  0  0  0  0  0  0  0  0
   28.4890   36.4430   15.4460 O   0  0  0  0  0  0  0  0  0  0  0  0
   30.0970   36.5410   13.8510 O   0  0  0  0  0  0  0  0  0  0  0  0
   31.0080   36.9600   13.9970 H   0  0  0  0  0  0  0  0  0  0  0  0
   31.8050   32.1970   14.9550 O   0  0  0  0  0  0  0  0  0  0  0  0
   32.7560   31.9270   14.9610 H   0  0  0  0  0  0  0  0  0  0  0  0
   30.8780   32.8350   18.3450 N   0  0  0  0  0  0  0  0  0  0  0  0
   30.7150   31.8800   19.3700 C   0  0  0  0  0  0  0  0  0  0  0  0
   31.2430   33.7800   18.5740 H   0  0  0  0  0  0  0  0  0  0  0  0
   31.0490   32.1710   20.7980 C   0  0  0  0  0  0  0  0  0  0  0  0
   30.2740   30.7080   19.1480 O   0  0  0  0  0  0  0  0  0  0  0  0
   29.0120   30.8860   15.1680 O   0  0  0  0  0  0  0  0  0  0  0  0
   29.6640   31.3870   14.5840 H   0  0  0  0  0  0  0  0  0  0  0  0
   27.4990   31.2710   18.2650 O   0  0  0  0  0  0  0  0  0  0  0  0
   26.6380   31.1550   18.6980 H   0  0  0  0  0  0  0  0  0  0  0  0
   28.0220   28.9410   18.0780 N   0  0  0  0  0  0  0  0  0  0  0  0
   27.3300   27.8870   18.7220 C   0  0  0  0  0  0  0  0  0  0  0  0
   28.8380   29.3400   18.6380 H   0  0  0  0  0  0  0  0  0  0  0  0
   26.3520   27.3510   18.1480 O   0  0  0  0  0  0  0  0  0  0  0  0
   27.7080   27.4310   19.9810 O   0  0  0  0  0  0  0  0  0  0  0  0
   28.0350   28.3550   20.9880 C   0  0  0  0  0  0  0  0  0  0  0  0
   29.4700   28.1780   21.3340 C   0  0  0  0  0  0  0  0  0  0  0  0
   30.1850   28.9040   22.2960 C   0  0  0  0  0  0  0  0  0  0  0  0
   30.3830   27.3250   20.8320 N   0  0  0  0  0  0  0  0  0  0  0  0
   31.4570   28.4710   22.3310 N   0  0  0  0  0  0  0  0  0  0  0  0
   31.5470   27.5100   21.4280 N   0  0  0  0  0  0  0  0  0  0  0  0
   32.5220   28.9640   23.1930 C   0  0  0  0  0  0  0  0  0  0  0  0
   33.7950   29.0900   22.3850 C   0  0  0  0  0  0  0  0  0  0  0  0
   32.1640   30.3340   23.7230 C   0  0  0  0  0  0  0  0  0  0  0  0
   34.0980   30.5370   22.0440 C   0  0  0  0  0  0  0  0  0  0  0  0
   33.4070   30.8800   24.4030 C   0  0  0  0  0  0  0  0  0  0  0  0
   34.3570   31.3160   23.3050 C   0  0  0  0  0  0  0  0  0  0  0  0
   29.8670   25.5550   16.9770 C   0  0  0  0  0  0  0  0  0  0  0  0
   28.3450   25.7220   17.0260 C   0  0  0  0  0  0  0  0  0  0  0  0
   27.5990   24.4390   16.6920 C   0  0  0  0  0  0  0  0  0  0  0  0
   26.9060   23.8580   17.8940 C   0  0  0  0  0  0  0  0  0  0  0  0
   25.4130   23.7320   17.6080 C   0  0  0  0  0  0  0  0  0  0  0  0
   24.9980   22.3090   17.6380 N   0  0  0  0  0  0  0  0  0  0  0  0
  1 27  1  0  0  0  0
  2  1  1  1  0  0  0
  2 25  1  0  0  0  0
  3 23  1  1  0  0  0
  3  2  1  0  0  0  0
  4  3  1  6  0  0  0
  4  9  1  0  0  0  0
  5 10  1  6  0  0  0
  5  6  1  0  0  0  0
  5  7  1  0  0  0  0
  6  8  1  0  0  0  0
  7  4  1  0  0  0  0
  8 16  1  6  0  0  0
  8  9  1  0  0  0  0
  9 18  1  1  0  0  0
 10 11  1  0  0  0  0
 12  5  1  0  0  0  0
 12 13  2  0  0  0  0
 14 15  1  0  0  0  0
 14 12  1  0  0  0  0
 16 17  1  0  0  0  0
 18 20  1  0  0  0  0
 18 19  1  0  0  0  0
 19 21  1  0  0  0  0
 22 19  2  0  0  0  0
 24 23  1  0  0  0  0
 25 26  1  0  0  0  0
 27 29  1  0  0  0  0
 27 28  1  0  0  0  0
 28 31  1  0  0  0  0
 30 28  2  0  0  0  0
 31 32  1  0  0  0  0
 32 33  1  0  0  0  0
 33 34  2  0  0  0  0
 34 36  1  0  0  0  0
 35 33  1  0  0  0  0
 35 37  2  0  0  0  0
 36 38  1  0  0  0  0
 37 36  1  0  0  0  0
 38 40  1  0  0  0  0
 39 38  1  0  0  0  0
 40 42  1  0  0  0  0
 41 39  1  0  0  0  0
 41 43  1  0  0  0  0
 43 42  1  0  0  0  0
 44 45  1  0  0  0  0
 46 45  1  0  0  0  0
 46 47  1  0  0  0  0
 48 49  1  0  0  0  0
 48 47  1  0  0  0  0
M  END
>  <REMARK>
 VINA RESULT:    -4.736      2.674      6.251
 INTER + INTRA:         -13.993
 INTER:                  -7.901
 INTRA:                  -6.092
 UNBOUND:                -5.796
 SMILES CC(=O)N[C@@H]1[C@@H](O)C[C@](O)(C(=O)O)O[C@H]1C(O)[C@H](O)CNC(=O)OCc1cn(C2CCCCC2)nn1
 SMILES IDX 20 1 18 2 16 3 15 4 9 5 8 6 14 7 6 8 5 9 10 10 11 12 12 13
 SMILES IDX 13 14 7 16 4 18 2 19 1 21 3 22 17 23 19 25 21 27 22 28 23 30
 SMILES IDX 24 31 25 32 26 33 27 34 36 35 28 36 35 37 29 38 30 39 34 40
 SMILES IDX 31 41 33 42 32 43
 H PARENT 10 11 13 15 7 17 4 20 17 24 19 26 21 29
 Flexibility Score: inf
  4 active torsions:
  status: ('A' for Active; 'I' for Inactive)
    1  A    between atoms: CA   and  CB  
    2  A    between atoms: CB   and  CG  
    3  A    between atoms: CG   and  CD  
    4  A    between atoms: CD   and  CE  

>  <TORSDO>
F 15

>  <BEGIN_>
RES LYS A 131

$$$$
ligand_48_pose_10_2HRL.pdbqt
 OpenBabel07062320523D

  6  5  0  0  0  0  0  0  0  0999 V2000
   33.1930   34.6630    9.2900 C   0  0  0  0  0  0  0  0  0  0  0  0
   32.0600   35.3600   10.0340 C   0  0  0  0  0  0  0  0  0  0  0  0
   30.8800   35.6950    9.1580 C   0  0  0  0  0  0  0  0  0  0  0  0
   30.3880   34.4560    8.4250 C   0  0  0  0  0  0  0  0  0  0  0  0
   28.8730   34.4540    8.3430 C   0  0  0  0  0  0  0  0  0  0  0  0
   28.2730   33.7670    9.5200 N   0  0  0  0  0  0  0  0  0  0  0  0
  1  2  1  0  0  0  0
  3  2  1  0  0  0  0
  4  3  1  0  0  0  0
  5  4  1  0  0  0  0
  5  6  1  0  0  0  0
M  END
>  <EGIN_R>
ES LYS A 135

>  <REMARK>
  4 active torsions:
  status: ('A' for Active; 'I' for Inactive)
    5  A    between atoms: CA   and  CB  
    6  A    between atoms: CB   and  CG  
    7  A    between atoms: CG   and  CD  
    8  A    between atoms: CD   and  CE  

$$$$
