ligand_37_pose_9_2HRL.pdbqt
 OpenBabel07062320523D

 55 56  0  0  1  0  0  0  0  0999 V2000
   29.9110   36.5150   13.8270 O   0  0  0  0  0  0  0  0  0  0  0  0
   29.5220   35.4060   14.6140 C   0  0  0  0  0  0  0  0  0  0  0  0
   29.8340   34.0930   14.2010 N   0  0  0  0  0  0  0  0  0  0  0  0
   30.3540   34.0170   13.2700 H   0  0  0  0  0  0  0  0  0  0  0  0
   28.9060   35.6790   15.6610 O   0  0  0  0  0  0  0  0  0  0  0  0
   29.4900   32.9280   14.9510 C   0  0  0  0  0  0  0  0  0  0  0  0
   30.6840   32.2810   15.5700 C   0  0  2  0  0  0  0  0  0  0  0  0
   30.8630   32.7760   17.0030 C   0  0  2  0  0  0  0  0  0  0  0  0
   29.6130   32.6950   17.8230 C   0  0  2  0  0  0  0  0  0  0  0  0
   30.5850   32.8910   19.9460 C   0  0  2  0  0  0  0  0  0  0  0  0
   30.4350   31.4140   20.1210 C   0  0  0  0  0  0  0  0  0  0  0  0
   29.7420   33.4370   19.0100 O   0  0  0  0  0  0  0  0  0  0  0  0
   29.0870   30.9890   19.5770 C   0  0  1  0  0  0  0  0  0  0  0  0
   29.0970   31.3210   18.0920 C   0  0  1  0  0  0  0  0  0  0  0  0
   31.8980   33.2120   19.6880 O   0  0  0  0  0  0  0  0  0  0  0  0
   32.0180   34.1560   19.3910 H   0  0  0  0  0  0  0  0  0  0  0  0
   30.2190   33.5520   21.2510 C   0  0  0  0  0  0  0  0  0  0  0  0
   31.0390   34.2980   21.8440 O   0  0  0  0  0  0  0  0  0  0  0  0
   28.9790   33.3690   21.8460 O   0  0  0  0  0  0  0  0  0  0  0  0
   28.4220   32.5150   21.6880 H   0  0  0  0  0  0  0  0  0  0  0  0
   28.8660   29.6450   19.8050 O   0  0  0  0  0  0  0  0  0  0  0  0
   28.0130   29.3200   19.4210 H   0  0  0  0  0  0  0  0  0  0  0  0
   27.7540   31.0990   17.5450 N   0  0  0  0  0  0  0  0  0  0  0  0
   27.5090   30.2360   16.4360 C   0  0  0  0  0  0  0  0  0  0  0  0
   26.9150   31.5820   17.9600 H   0  0  0  0  0  0  0  0  0  0  0  0
   26.1170   30.0510   15.9220 C   0  0  0  0  0  0  0  0  0  0  0  0
   28.4670   29.6330   15.8980 O   0  0  0  0  0  0  0  0  0  0  0  0
   31.2790   34.1130   16.9650 O   0  0  0  0  0  0  0  0  0  0  0  0
   30.4760   34.7000   16.9300 H   0  0  0  0  0  0  0  0  0  0  0  0
   31.8230   32.5870   14.8270 O   0  0  0  0  0  0  0  0  0  0  0  0
   32.6290   32.7250   15.4060 H   0  0  0  0  0  0  0  0  0  0  0  0
   31.2360   36.5690   13.3400 C   0  0  0  0  0  0  0  0  0  0  0  0
   32.2280   36.3030   14.3990 C   0  0  0  0  0  0  0  0  0  0  0  0
   32.6230   37.1140   15.4370 C   0  0  0  0  0  0  0  0  0  0  0  0
   32.9400   35.1720   14.5340 N   0  0  0  0  0  0  0  0  0  0  0  0
   33.5580   36.4660   16.1710 N   0  0  0  0  0  0  0  0  0  0  0  0
   33.7290   35.3020   15.6050 N   0  0  0  0  0  0  0  0  0  0  0  0
   34.2160   36.9850   17.3400 C   0  0  1  0  0  0  0  0  0  0  0  0
   33.7810   38.4110   17.5940 C   0  0  0  0  0  0  0  0  0  0  0  0
   33.9560   36.0970   18.4820 C   0  0  0  0  0  0  0  0  0  0  0  0
   32.7640   35.7680   18.7570 O   0  0  0  0  0  0  0  0  0  0  0  0
   34.9620   35.5970   19.2810 O   0  0  0  0  0  0  0  0  0  0  0  0
   36.2800   36.0440   19.3370 C   0  0  0  0  0  0  0  0  0  0  0  0
   37.1860   34.9500   18.8910 C   0  0  0  0  0  0  0  0  0  0  0  0
   37.4950   33.9110   19.7410 C   0  0  0  0  0  0  0  0  0  0  0  0
   37.7140   34.9700   17.6280 C   0  0  0  0  0  0  0  0  0  0  0  0
   38.3270   32.8970   19.3310 C   0  0  0  0  0  0  0  0  0  0  0  0
   38.5450   33.9750   17.1940 C   0  0  0  0  0  0  0  0  0  0  0  0
   38.8500   32.9410   18.0460 C   0  0  0  0  0  0  0  0  0  0  0  0
   29.8670   25.5550   16.9770 C   0  0  0  0  0  0  0  0  0  0  0  0
   28.3450   25.7220   17.0260 C   0  0  0  0  0  0  0  0  0  0  0  0
   27.6010   24.4040   16.8770 C   0  0  0  0  0  0  0  0  0  0  0  0
   26.1480   24.5290   17.2430 C   0  0  0  0  0  0  0  0  0  0  0  0
   25.9840   24.3400   18.7480 C   0  0  0  0  0  0  0  0  0  0  0  0
   25.3160   25.5190   19.3490 N   0  0  0  0  0  0  0  0  0  0  0  0
  1  2  1  0  0  0  0
  2  5  2  0  0  0  0
  3  2  1  0  0  0  0
  3  6  1  0  0  0  0
  4  3  1  0  0  0  0
  7  6  1  6  0  0  0
  7  8  1  0  0  0  0
  8 28  1  6  0  0  0
  9  8  1  1  0  0  0
  9 14  1  0  0  0  0
  9 12  1  0  0  0  0
 10 15  1  6  0  0  0
 10 11  1  0  0  0  0
 10 17  1  0  0  0  0
 12 10  1  0  0  0  0
 13 21  1  6  0  0  0
 13 11  1  0  0  0  0
 14 23  1  1  0  0  0
 14 13  1  0  0  0  0
 16 15  1  0  0  0  0
 17 18  2  0  0  0  0
 17 19  1  0  0  0  0
 20 19  1  0  0  0  0
 22 21  1  0  0  0  0
 23 25  1  0  0  0  0
 24 23  1  0  0  0  0
 26 24  1  0  0  0  0
 27 24  2  0  0  0  0
 29 28  1  0  0  0  0
 30 31  1  0  0  0  0
 30  7  1  0  0  0  0
 32  1  1  0  0  0  0
 32 33  1  0  0  0  0
 33 35  1  0  0  0  0
 33 34  2  0  0  0  0
 34 36  1  0  0  0  0
 35 37  2  0  0  0  0
 36 38  1  0  0  0  0
 37 36  1  0  0  0  0
 38 39  1  1  0  0  0
 38 40  1  0  0  0  0
 40 41  2  0  0  0  0
 40 42  1  0  0  0  0
 42 43  1  0  0  0  0
 44 43  1  0  0  0  0
 44 45  2  0  0  0  0
 46 44  1  0  0  0  0
 47 45  1  0  0  0  0
 48 46  2  0  0  0  0
 48 49  1  0  0  0  0
 49 47  2  0  0  0  0
 50 51  1  0  0  0  0
 52 51  1  0  0  0  0
 52 53  1  0  0  0  0
 53 54  1  0  0  0  0
 54 55  1  0  0  0  0
M  END
>  <REMARK>
 VINA RESULT:    -5.638      7.238     12.030
 INTER + INTRA:         -16.187
 INTER:                  -8.616
 INTRA:                  -7.571
 UNBOUND:                -5.110
 SMILES CC(=O)N[C@@H]1[C@@H](O)C[C@](O)(C(=O)O)O[C@H]1C(O)[C@H](O)CNC(=O)OCc1cn([C@@H](C)C(=O)OCc2ccccc2)nn1
 SMILES IDX 24 1 22 2 21 3 23 5 20 6 18 7 16 8 15 9 9 10 8 11 14 12 6 13
 SMILES IDX 5 14 10 15 11 17 12 18 13 19 7 21 4 23 2 24 1 26 3 27 17 28
 SMILES IDX 19 30 25 32 26 33 27 34 42 35 28 36 41 37 29 38 30 39 31 40
 SMILES IDX 32 41 33 42 34 43 35 44 36 45 40 46 37 47 39 48 38 49
 H PARENT 21 4 10 16 13 20 7 22 4 25 17 29 19 31
 Flexibility Score: inf
  4 active torsions:
  status: ('A' for Active; 'I' for Inactive)
    1  A    between atoms: CA   and  CB  
    2  A    between atoms: CB   and  CG  
    3  A    between atoms: CG   and  CD  
    4  A    between atoms: CD   and  CE  

>  <TORSDO>
F 19

>  <BEGIN_>
RES LYS A 131

$$$$
ligand_37_pose_9_2HRL.pdbqt
 OpenBabel07062320523D

  6  5  0  0  0  0  0  0  0  0999 V2000
   33.1930   34.6630    9.2900 C   0  0  0  0  0  0  0  0  0  0  0  0
   32.0600   35.3600   10.0340 C   0  0  0  0  0  0  0  0  0  0  0  0
   30.7340   34.6550    9.9100 C   0  0  0  0  0  0  0  0  0  0  0  0
   30.3210   34.5420    8.4510 C   0  0  0  0  0  0  0  0  0  0  0  0
   28.8100   34.5110    8.3260 C   0  0  0  0  0  0  0  0  0  0  0  0
   28.1900   33.8010    9.4790 N   0  0  0  0  0  0  0  0  0  0  0  0
  1  2  1  0  0  0  0
  3  2  1  0  0  0  0
  4  3  1  0  0  0  0
  5  4  1  0  0  0  0
  5  6  1  0  0  0  0
M  END
>  <EGIN_R>
ES LYS A 135

>  <REMARK>
  4 active torsions:
  status: ('A' for Active; 'I' for Inactive)
    5  A    between atoms: CA   and  CB  
    6  A    between atoms: CB   and  CG  
    7  A    between atoms: CG   and  CD  
    8  A    between atoms: CD   and  CE  

$$$$
