ligand_61_pose_10_2HRL.pdbqt
 OpenBabel07062320523D

 49 50  0  0  1  0  0  0  0  0999 V2000
   27.9230   27.9920   18.9050 N   0  0  0  0  0  0  0  0  0  0  0  0
   26.9850   28.2350   17.8760 C   0  0  0  0  0  0  0  0  0  0  0  0
   25.7690   28.0310   18.0980 O   0  0  0  0  0  0  0  0  0  0  0  0
   28.9440   28.1860   18.6590 H   0  0  0  0  0  0  0  0  0  0  0  0
   27.5860   27.5120   20.2270 C   0  0  0  0  0  0  0  0  0  0  0  0
   28.8360   27.4050   21.0390 C   0  0  2  0  0  0  0  0  0  0  0  0
   29.0420   28.5480   22.0100 C   0  0  2  0  0  0  0  0  0  0  0  0
   30.4380   29.0570   21.8730 C   0  0  2  0  0  0  0  0  0  0  0  0
   32.4970   29.1910   22.9160 C   0  0  2  0  0  0  0  0  0  0  0  0
   32.8370   30.0390   21.7130 C   0  0  0  0  0  0  0  0  0  0  0  0
   31.3300   28.4720   22.7500 O   0  0  0  0  0  0  0  0  0  0  0  0
   31.7690   31.0210   21.3640 C   0  0  1  0  0  0  0  0  0  0  0  0
   30.4780   30.5850   22.0230 C   0  0  1  0  0  0  0  0  0  0  0  0
   32.5200   29.9310   24.0990 O   0  0  0  0  0  0  0  0  0  0  0  0
   33.3910   30.3800   24.1950 H   0  0  0  0  0  0  0  0  0  0  0  0
   33.6070   28.1770   23.0350 C   0  0  0  0  0  0  0  0  0  0  0  0
   33.4170   27.0040   23.3810 O   0  0  0  0  0  0  0  0  0  0  0  0
   34.9110   28.5720   22.7440 O   0  0  0  0  0  0  0  0  0  0  0  0
   35.6340   27.9230   22.4590 H   0  0  0  0  0  0  0  0  0  0  0  0
   32.0920   32.3300   21.6460 O   0  0  0  0  0  0  0  0  0  0  0  0
   32.0570   32.9090   20.8230 H   0  0  0  0  0  0  0  0  0  0  0  0
   29.3130   31.1690   21.4110 N   0  0  0  0  0  0  0  0  0  0  0  0
   29.0980   31.0680   19.9980 C   0  0  0  0  0  0  0  0  0  0  0  0
   28.5910   31.6820   21.9620 H   0  0  0  0  0  0  0  0  0  0  0  0
   27.9400   31.6340   19.3020 C   0  0  0  0  0  0  0  0  0  0  0  0
   29.9670   30.4440   19.3030 O   0  0  0  0  0  0  0  0  0  0  0  0
   28.8480   28.0190   23.2870 O   0  0  0  0  0  0  0  0  0  0  0  0
   27.9110   27.7170   23.3790 H   0  0  0  0  0  0  0  0  0  0  0  0
   29.9200   27.4460   20.1470 O   0  0  0  0  0  0  0  0  0  0  0  0
   29.7000   27.8940   19.3020 H   0  0  0  0  0  0  0  0  0  0  0  0
   27.4320   28.7010   16.6230 O   0  0  0  0  0  0  0  0  0  0  0  0
   26.7730   29.8650   16.1420 C   0  0  0  0  0  0  0  0  0  0  0  0
   27.7910   30.8940   15.8910 C   0  0  0  0  0  0  0  0  0  0  0  0
   29.1680   30.7410   15.8640 C   0  0  0  0  0  0  0  0  0  0  0  0
   27.5520   32.1990   15.6370 N   0  0  0  0  0  0  0  0  0  0  0  0
   29.6790   31.9510   15.5980 N   0  0  0  0  0  0  0  0  0  0  0  0
   28.7100   32.8350   15.4590 N   0  0  0  0  0  0  0  0  0  0  0  0
   31.0800   32.2470   15.4790 C   0  0  0  0  0  0  0  0  0  0  0  0
   31.4840   33.3350   16.4730 C   0  0  0  0  0  0  0  0  0  0  0  0
   31.2010   33.2440   17.7670 C   0  0  0  0  0  0  0  0  0  0  0  0
   32.1600   34.4310   15.9870 C   0  0  0  0  0  0  0  0  0  0  0  0
   31.5840   34.2430   18.6210 C   0  0  0  0  0  0  0  0  0  0  0  0
   32.4080   35.4060   17.5140 S   0  0  0  0  0  0  0  0  0  0  0  0
   29.8670   25.5550   16.9770 C   0  0  0  0  0  0  0  0  0  0  0  0
   28.3450   25.7220   17.0260 C   0  0  0  0  0  0  0  0  0  0  0  0
   27.6020   24.3980   16.9390 C   0  0  0  0  0  0  0  0  0  0  0  0
   26.1420   24.5450   17.2640 C   0  0  0  0  0  0  0  0  0  0  0  0
   25.9480   24.4920   18.7760 C   0  0  0  0  0  0  0  0  0  0  0  0
   25.4870   23.1470   19.1930 N   0  0  0  0  0  0  0  0  0  0  0  0
  1  5  1  0  0  0  0
  2  3  2  0  0  0  0
  2  1  1  0  0  0  0
  4  1  1  0  0  0  0
  6  5  1  6  0  0  0
  6  7  1  0  0  0  0
  7 27  1  1  0  0  0
  8  7  1  1  0  0  0
  8 13  1  0  0  0  0
  8 11  1  0  0  0  0
  9 16  1  1  0  0  0
  9 14  1  0  0  0  0
 10  9  1  0  0  0  0
 11  9  1  0  0  0  0
 12 20  1  1  0  0  0
 12 10  1  0  0  0  0
 12 13  1  0  0  0  0
 13 22  1  6  0  0  0
 14 15  1  0  0  0  0
 16 17  2  0  0  0  0
 18 16  1  0  0  0  0
 19 18  1  0  0  0  0
 21 20  1  0  0  0  0
 22 24  1  0  0  0  0
 23 22  1  0  0  0  0
 25 23  1  0  0  0  0
 26 23  2  0  0  0  0
 27 28  1  0  0  0  0
 29  6  1  0  0  0  0
 30 29  1  0  0  0  0
 31  2  1  0  0  0  0
 32 31  1  0  0  0  0
 33 32  1  0  0  0  0
 34 33  2  0  0  0  0
 35 33  1  0  0  0  0
 36 34  1  0  0  0  0
 37 36  1  0  0  0  0
 37 35  2  0  0  0  0
 38 36  1  0  0  0  0
 38 39  1  0  0  0  0
 39 40  1  0  0  0  0
 40 42  2  0  0  0  0
 41 39  2  0  0  0  0
 41 43  1  0  0  0  0
 43 42  1  0  0  0  0
 44 45  1  0  0  0  0
 46 45  1  0  0  0  0
 46 47  1  0  0  0  0
 47 48  1  0  0  0  0
 48 49  1  0  0  0  0
M  END
>  <REMARK>
 VINA RESULT:    -4.203      6.956     11.944
 INTER + INTRA:         -13.656
 INTER:                  -8.664
 INTRA:                  -4.992
 UNBOUND:                -6.136
 SMILES CC(=O)N[C@@H]1[C@@H](O)C[C@](O)(C(=O)O)O[C@H]1C(O)[C@H](O)CNC(=O)OCc1cn(Cc2ccsc2)nn1
 SMILES IDX 21 1 22 2 23 3 20 5 18 6 16 7 15 8 9 9 8 10 14 11 6 12 5 13
 SMILES IDX 10 14 11 16 12 17 13 18 7 20 4 22 2 23 1 25 3 26 17 27 19 29
 SMILES IDX 24 31 25 32 26 33 27 34 36 35 28 36 35 37 29 38 30 39 31 40
 SMILES IDX 34 41 32 42 33 43
 H PARENT 21 4 10 15 13 19 7 21 4 24 17 28 19 30
 Flexibility Score: inf
  4 active torsions:
  status: ('A' for Active; 'I' for Inactive)
    1  A    between atoms: CA   and  CB  
    2  A    between atoms: CB   and  CG  
    3  A    between atoms: CG   and  CD  
    4  A    between atoms: CD   and  CE  

>  <TORSDO>
F 16

>  <BEGIN_>
RES LYS A 131

$$$$
ligand_61_pose_10_2HRL.pdbqt
 OpenBabel07062320523D

  6  5  0  0  0  0  0  0  0  0999 V2000
   33.1930   34.6630    9.2900 C   0  0  0  0  0  0  0  0  0  0  0  0
   32.0600   35.3600   10.0340 C   0  0  0  0  0  0  0  0  0  0  0  0
   30.7080   34.7400    9.7900 C   0  0  0  0  0  0  0  0  0  0  0  0
   30.4790   34.5200    8.3030 C   0  0  0  0  0  0  0  0  0  0  0  0
   29.0440   34.8440    7.9320 C   0  0  0  0  0  0  0  0  0  0  0  0
   28.9800   35.6020    6.6520 N   0  0  0  0  0  0  0  0  0  0  0  0
  1  2  1  0  0  0  0
  3  2  1  0  0  0  0
  4  3  1  0  0  0  0
  5  4  1  0  0  0  0
  6  5  1  0  0  0  0
M  END
>  <EGIN_R>
ES LYS A 135

>  <REMARK>
  4 active torsions:
  status: ('A' for Active; 'I' for Inactive)
    5  A    between atoms: CA   and  CB  
    6  A    between atoms: CB   and  CG  
    7  A    between atoms: CG   and  CD  
    8  A    between atoms: CD   and  CE  

$$$$
