ligand_2_pose_6_2HRL.pdbqt
 OpenBabel07062320523D

 50 51  0  0  1  0  0  0  0  0999 V2000
   26.9190   28.2290   22.2810 C   0  0  0  0  0  0  0  0  0  0  0  0
   27.6850   28.9800   23.3250 C   0  0  2  0  0  0  0  0  0  0  0  0
   28.5120   27.9610   24.1260 C   0  0  2  0  0  0  0  0  0  0  0  0
   30.0030   28.2750   24.0340 C   0  0  2  0  0  0  0  0  0  0  0  0
   30.8970   27.8610   21.9040 C   0  0  2  0  0  0  0  0  0  0  0  0
   32.2510   27.3930   22.3920 C   0  0  0  0  0  0  0  0  0  0  0  0
   30.2310   28.6900   22.7380 O   0  0  0  0  0  0  0  0  0  0  0  0
   32.2600   27.4050   23.8790 C   0  0  1  0  0  0  0  0  0  0  0  0
   30.8550   27.1210   24.3730 C   0  0  1  0  0  0  0  0  0  0  0  0
   30.1960   26.7120   21.5440 O   0  0  0  0  0  0  0  0  0  0  0  0
   29.2350   26.9450   21.6060 H   0  0  0  0  0  0  0  0  0  0  0  0
   31.1630   28.6140   20.6510 C   0  0  0  0  0  0  0  0  0  0  0  0
   32.3540   28.8480   20.3460 O   0  0  0  0  0  0  0  0  0  0  0  0
   30.1540   29.0490   19.8360 O   0  0  0  0  0  0  0  0  0  0  0  0
   29.5310   29.7950   20.1580 H   0  0  0  0  0  0  0  0  0  0  0  0
   33.1940   26.5400   24.4350 O   0  0  0  0  0  0  0  0  0  0  0  0
   32.7640   25.7220   24.7570 H   0  0  0  0  0  0  0  0  0  0  0  0
   30.9500   26.7420   25.7400 N   0  0  0  0  0  0  0  0  0  0  0  0
   30.3620   25.5660   26.2660 C   0  0  0  0  0  0  0  0  0  0  0  0
   31.4940   27.4000   26.3590 H   0  0  0  0  0  0  0  0  0  0  0  0
   30.4820   25.2050   27.6930 C   0  0  0  0  0  0  0  0  0  0  0  0
   29.7390   24.8680   25.4200 O   0  0  0  0  0  0  0  0  0  0  0  0
   28.2670   26.6720   23.6410 O   0  0  0  0  0  0  0  0  0  0  0  0
   28.4040   26.6200   22.6540 H   0  0  0  0  0  0  0  0  0  0  0  0
   26.8830   29.7310   24.1540 O   0  0  0  0  0  0  0  0  0  0  0  0
   27.1010   29.7190   25.1020 H   0  0  0  0  0  0  0  0  0  0  0  0
   27.4620   28.2420   20.9650 N   0  0  0  0  0  0  0  0  0  0  0  0
   26.9230   27.5460   19.8540 C   0  0  0  0  0  0  0  0  0  0  0  0
   28.3360   28.8090   20.7780 H   0  0  0  0  0  0  0  0  0  0  0  0
   25.8940   26.8550   19.9520 O   0  0  0  0  0  0  0  0  0  0  0  0
   27.5530   27.6250   18.5970 O   0  0  0  0  0  0  0  0  0  0  0  0
   27.0210   28.4560   17.5690 C   0  0  0  0  0  0  0  0  0  0  0  0
   27.8090   29.7130   17.5850 C   0  0  0  0  0  0  0  0  0  0  0  0
   28.4150   30.2940   16.5100 C   0  0  0  0  0  0  0  0  0  0  0  0
   28.0560   30.4800   18.6360 N   0  0  0  0  0  0  0  0  0  0  0  0
   29.0210   31.4140   16.9550 N   0  0  0  0  0  0  0  0  0  0  0  0
   28.7930   31.5140   18.2520 N   0  0  0  0  0  0  0  0  0  0  0  0
   29.7640   32.2920   16.1040 C   0  0  0  0  0  0  0  0  0  0  0  0
   31.1070   32.4750   16.3310 C   0  0  0  0  0  0  0  0  0  0  0  0
   29.0920   32.9180   15.0860 C   0  0  0  0  0  0  0  0  0  0  0  0
   31.7870   33.3310   15.4850 C   0  0  0  0  0  0  0  0  0  0  0  0
   29.8010   33.7670   14.2590 C   0  0  0  0  0  0  0  0  0  0  0  0
   31.1440   33.9840   14.4440 C   0  0  0  0  0  0  0  0  0  0  0  0
   31.9810   35.0670   13.3670 Cl  0  0  0  0  0  0  0  0  0  0  0  0
   29.8670   25.5550   16.9770 C   0  0  0  0  0  0  0  0  0  0  0  0
   28.3450   25.7220   17.0260 C   0  0  0  0  0  0  0  0  0  0  0  0
   27.6000   24.4120   16.8230 C   0  0  0  0  0  0  0  0  0  0  0  0
   26.6140   24.1440   17.9260 C   0  0  0  0  0  0  0  0  0  0  0  0
   25.1950   24.2330   17.3730 C   0  0  0  0  0  0  0  0  0  0  0  0
   24.5530   22.8970   17.3730 N   0  0  0  0  0  0  0  0  0  0  0  0
  2  1  1  6  0  0  0
  2  3  1  0  0  0  0
  2 25  1  0  0  0  0
  3 23  1  6  0  0  0
  4  3  1  6  0  0  0
  4  9  1  0  0  0  0
  5 12  1  6  0  0  0
  5  6  1  0  0  0  0
  5  7  1  0  0  0  0
  6  8  1  0  0  0  0
  7  4  1  0  0  0  0
  8  9  1  0  0  0  0
  8 16  1  1  0  0  0
  9 18  1  1  0  0  0
 10 11  1  0  0  0  0
 10  5  1  0  0  0  0
 13 12  2  0  0  0  0
 14 15  1  0  0  0  0
 14 12  1  0  0  0  0
 16 17  1  0  0  0  0
 18 19  1  0  0  0  0
 18 20  1  0  0  0  0
 19 21  1  0  0  0  0
 22 19  2  0  0  0  0
 24 23  1  0  0  0  0
 25 26  1  0  0  0  0
 27  1  1  0  0  0  0
 28 30  2  0  0  0  0
 28 27  1  0  0  0  0
 29 27  1  0  0  0  0
 31 28  1  0  0  0  0
 32 33  1  0  0  0  0
 32 31  1  0  0  0  0
 33 35  1  0  0  0  0
 34 36  1  0  0  0  0
 34 33  2  0  0  0  0
 36 37  1  0  0  0  0
 37 35  2  0  0  0  0
 38 39  1  0  0  0  0
 38 36  1  0  0  0  0
 40 38  2  0  0  0  0
 41 39  2  0  0  0  0
 42 43  2  0  0  0  0
 42 40  1  0  0  0  0
 43 41  1  0  0  0  0
 44 43  1  0  0  0  0
 45 46  1  0  0  0  0
 47 46  1  0  0  0  0
 47 48  1  0  0  0  0
 49 48  1  0  0  0  0
 50 49  1  0  0  0  0
M  END
>  <REMARK>
 VINA RESULT:    -4.240      2.278      4.062
 INTER + INTRA:         -14.345
 INTER:                  -7.512
 INTRA:                  -6.833
 UNBOUND:                -7.007
 SMILES CC(=O)N[C@@H]1[C@@H](O)C[C@](O)(C(=O)O)O[C@H]1C(O)[C@H](O)CNC(=O)OCc1cn(-c2ccc(Cl)cc2)nn1
 SMILES IDX 20 1 18 2 16 3 15 4 9 5 8 6 14 7 6 8 5 9 10 10 11 12 12 13
 SMILES IDX 13 14 7 16 4 18 2 19 1 21 3 22 17 23 19 25 21 27 22 28 23 30
 SMILES IDX 24 31 25 32 26 33 27 34 37 35 28 36 36 37 29 38 30 39 35 40
 SMILES IDX 31 41 34 42 32 43 33 44
 H PARENT 10 11 13 15 7 17 4 20 17 24 19 26 21 29
 Flexibility Score: inf
  4 active torsions:
  status: ('A' for Active; 'I' for Inactive)
    1  A    between atoms: CA   and  CB  
    2  A    between atoms: CB   and  CG  
    3  A    between atoms: CG   and  CD  
    4  A    between atoms: CD   and  CE  

>  <TORSDO>
F 15

>  <BEGIN_>
RES LYS A 131

$$$$
ligand_2_pose_6_2HRL.pdbqt
 OpenBabel07062320523D

  6  5  0  0  0  0  0  0  0  0999 V2000
   33.1930   34.6630    9.2900 C   0  0  0  0  0  0  0  0  0  0  0  0
   32.0600   35.3600   10.0340 C   0  0  0  0  0  0  0  0  0  0  0  0
   30.7070   34.7450    9.7840 C   0  0  0  0  0  0  0  0  0  0  0  0
   30.4840   34.5270    8.2950 C   0  0  0  0  0  0  0  0  0  0  0  0
   29.0490   34.8450    7.9200 C   0  0  0  0  0  0  0  0  0  0  0  0
   28.9810   35.5480    6.6080 N   0  0  0  0  0  0  0  0  0  0  0  0
  1  2  1  0  0  0  0
  3  2  1  0  0  0  0
  4  3  1  0  0  0  0
  5  4  1  0  0  0  0
  6  5  1  0  0  0  0
M  END
>  <EGIN_R>
ES LYS A 135

>  <REMARK>
  4 active torsions:
  status: ('A' for Active; 'I' for Inactive)
    5  A    between atoms: CA   and  CB  
    6  A    between atoms: CB   and  CG  
    7  A    between atoms: CG   and  CD  
    8  A    between atoms: CD   and  CE  

$$$$
