ligand_4_pose_15_2HRL.pdbqt
 OpenBabel07062320523D

 52 53  0  0  1  0  0  0  0  0999 V2000
   24.1840   36.5070   10.3140 N   0  0  0  0  0  0  0  0  0  0  0  0
   25.3290   36.6100   11.1270 C   0  0  0  0  0  0  0  0  0  0  0  0
   26.0560   37.6250   11.0970 O   0  0  0  0  0  0  0  0  0  0  0  0
   23.6000   35.6300   10.3920 H   0  0  0  0  0  0  0  0  0  0  0  0
   23.7950   37.5320    9.4100 C   0  0  0  0  0  0  0  0  0  0  0  0
   23.8680   37.1390    7.9360 C   0  0  2  0  0  0  0  0  0  0  0  0
   25.1690   37.7930    7.4650 C   0  0  2  0  0  0  0  0  0  0  0  0
   26.2100   36.7990    7.0580 C   0  0  2  0  0  0  0  0  0  0  0  0
   27.9320   35.8710    8.3040 C   0  0  2  0  0  0  0  0  0  0  0  0
   28.8230   35.8100    7.1140 C   0  0  0  0  0  0  0  0  0  0  0  0
   26.5930   36.0300    8.1050 O   0  0  0  0  0  0  0  0  0  0  0  0
   28.4390   36.7130    5.9620 C   0  0  1  0  0  0  0  0  0  0  0  0
   27.3540   37.6140    6.4730 C   0  0  1  0  0  0  0  0  0  0  0  0
   28.4370   36.8230    9.2270 O   0  0  0  0  0  0  0  0  0  0  0  0
   28.6290   36.4480   10.1050 H   0  0  0  0  0  0  0  0  0  0  0  0
   28.0710   34.5400    9.0010 C   0  0  0  0  0  0  0  0  0  0  0  0
   29.1430   33.9130    8.8660 O   0  0  0  0  0  0  0  0  0  0  0  0
   27.0690   33.9910    9.7890 O   0  0  0  0  0  0  0  0  0  0  0  0
   27.0620   33.0290   10.1220 H   0  0  0  0  0  0  0  0  0  0  0  0
   29.5800   37.5070    5.6280 O   0  0  0  0  0  0  0  0  0  0  0  0
   30.0540   37.1300    4.8500 H   0  0  0  0  0  0  0  0  0  0  0  0
   26.8630   38.6320    5.6300 N   0  0  0  0  0  0  0  0  0  0  0  0
   27.0490   40.0210    5.8310 C   0  0  0  0  0  0  0  0  0  0  0  0
   26.2970   38.3570    4.7560 H   0  0  0  0  0  0  0  0  0  0  0  0
   26.5290   41.0650    4.9390 C   0  0  0  0  0  0  0  0  0  0  0  0
   27.7270   40.3420    6.8970 O   0  0  0  0  0  0  0  0  0  0  0  0
   25.5670   38.6050    8.5310 O   0  0  0  0  0  0  0  0  0  0  0  0
   26.5350   38.7900    8.4110 H   0  0  0  0  0  0  0  0  0  0  0  0
   22.8270   37.5820    7.1880 O   0  0  0  0  0  0  0  0  0  0  0  0
   22.0800   36.9880    7.1630 H   0  0  0  0  0  0  0  0  0  0  0  0
   25.6850   35.5760   11.9950 O   0  0  0  0  0  0  0  0  0  0  0  0
   26.1500   35.9340   13.2880 C   0  0  0  0  0  0  0  0  0  0  0  0
   27.5760   35.5250   13.3250 C   0  0  0  0  0  0  0  0  0  0  0  0
   28.4160   35.7280   14.4270 C   0  0  0  0  0  0  0  0  0  0  0  0
   28.2780   34.8220   12.4230 N   0  0  0  0  0  0  0  0  0  0  0  0
   29.5740   35.1190   14.1120 N   0  0  0  0  0  0  0  0  0  0  0  0
   29.4520   34.6100   12.9540 N   0  0  0  0  0  0  0  0  0  0  0  0
   30.6550   34.9740   15.0130 C   0  0  0  0  0  0  0  0  0  0  0  0
   30.6970   33.9390   15.8670 C   0  0  0  0  0  0  0  0  0  0  0  0
   31.5860   36.0170   15.1200 C   0  0  0  0  0  0  0  0  0  0  0  0
   31.6770   33.9160   16.8580 C   0  0  0  0  0  0  0  0  0  0  0  0
   32.5400   36.0110   16.0700 C   0  0  0  0  0  0  0  0  0  0  0  0
   32.6100   34.9560   16.9690 C   0  0  0  0  0  0  0  0  0  0  0  0
   29.8350   32.7860   15.6960 C   0  0  0  0  0  0  0  0  0  0  0  0
   28.6990   32.7480   16.7050 C   0  0  0  0  0  0  0  0  0  0  0  0
   30.6930   31.5530   16.2280 C   0  0  0  0  0  0  0  0  0  0  0  0
   29.8670   25.5550   16.9770 C   0  0  0  0  0  0  0  0  0  0  0  0
   28.3450   25.7220   17.0260 C   0  0  0  0  0  0  0  0  0  0  0  0
   27.6790   24.7790   18.0160 C   0  0  0  0  0  0  0  0  0  0  0  0
   27.1370   23.5460   17.3460 C   0  0  0  0  0  0  0  0  0  0  0  0
   25.6630   23.3790   17.7030 C   0  0  0  0  0  0  0  0  0  0  0  0
   24.8320   24.3360   16.9350 N   0  0  0  0  0  0  0  0  0  0  0  0
  1  4  1  0  0  0  0
  1  2  1  0  0  0  0
  2 31  1  0  0  0  0
  3  2  2  0  0  0  0
  5  1  1  0  0  0  0
  6  5  1  1  0  0  0
  7  6  1  0  0  0  0
  7 27  1  1  0  0  0
  8  7  1  1  0  0  0
  8 11  1  0  0  0  0
  9 16  1  1  0  0  0
  9 14  1  0  0  0  0
 10  9  1  0  0  0  0
 11  9  1  0  0  0  0
 12 20  1  1  0  0  0
 12 13  1  0  0  0  0
 12 10  1  0  0  0  0
 13 22  1  6  0  0  0
 13  8  1  0  0  0  0
 14 15  1  0  0  0  0
 16 18  1  0  0  0  0
 17 16  2  0  0  0  0
 18 19  1  0  0  0  0
 21 20  1  0  0  0  0
 22 23  1  0  0  0  0
 23 26  2  0  0  0  0
 24 22  1  0  0  0  0
 25 23  1  0  0  0  0
 28 27  1  0  0  0  0
 29  6  1  0  0  0  0
 30 29  1  0  0  0  0
 31 32  1  0  0  0  0
 32 33  1  0  0  0  0
 33 34  2  0  0  0  0
 35 37  2  0  0  0  0
 35 33  1  0  0  0  0
 36 34  1  0  0  0  0
 36 38  1  0  0  0  0
 37 36  1  0  0  0  0
 38 40  2  0  0  0  0
 38 39  1  0  0  0  0
 39 41  2  0  0  0  0
 40 42  1  0  0  0  0
 41 43  1  0  0  0  0
 42 43  2  0  0  0  0
 44 39  1  0  0  0  0
 44 46  1  0  0  0  0
 44 45  1  0  0  0  0
 47 48  1  0  0  0  0
 48 49  1  0  0  0  0
 50 51  1  0  0  0  0
 50 49  1  0  0  0  0
 52 51  1  0  0  0  0
M  END
>  <REMARK>
 VINA RESULT:    -4.038      3.385      5.060
 INTER + INTRA:         -14.461
 INTER:                  -9.995
 INTRA:                  -4.467
 UNBOUND:                -7.237
 SMILES CC(=O)N[C@@H]1[C@@H](O)C[C@](O)(C(=O)O)O[C@H]1C(O)[C@H](O)CNC(=O)OCc1cn(-c2ccccc2C(C)C)nn1
 SMILES IDX 21 1 22 2 23 3 20 5 18 6 16 7 15 8 9 9 8 10 14 11 6 12 5 13
 SMILES IDX 10 14 11 16 12 17 13 18 7 20 4 22 2 23 1 25 3 26 17 27 19 29
 SMILES IDX 24 31 25 32 26 33 27 34 39 35 28 36 38 37 29 38 34 39 30 40
 SMILES IDX 33 41 31 42 32 43 35 44 36 45 37 46
 H PARENT 21 4 10 15 13 19 7 21 4 24 17 28 19 30
 Flexibility Score: inf
  4 active torsions:
  status: ('A' for Active; 'I' for Inactive)
    1  A    between atoms: CA   and  CB  
    2  A    between atoms: CB   and  CG  
    3  A    between atoms: CG   and  CD  
    4  A    between atoms: CD   and  CE  

>  <TORSDO>
F 16

>  <BEGIN_>
RES LYS A 131

$$$$
ligand_4_pose_15_2HRL.pdbqt
 OpenBabel07062320523D

  6  5  0  0  0  0  0  0  0  0999 V2000
   33.1930   34.6630    9.2900 C   0  0  0  0  0  0  0  0  0  0  0  0
   32.0600   35.3600   10.0340 C   0  0  0  0  0  0  0  0  0  0  0  0
   32.4470   35.8370   11.4100 C   0  0  0  0  0  0  0  0  0  0  0  0
   31.9420   37.2520   11.6490 C   0  0  0  0  0  0  0  0  0  0  0  0
   31.6860   37.9560   10.3300 C   0  0  0  0  0  0  0  0  0  0  0  0
   30.8110   39.1460   10.5180 N   0  0  0  0  0  0  0  0  0  0  0  0
  1  2  1  0  0  0  0
  2  3  1  0  0  0  0
  3  4  1  0  0  0  0
  5  6  1  0  0  0  0
  5  4  1  0  0  0  0
M  END
>  <EGIN_R>
ES LYS A 135

>  <REMARK>
  4 active torsions:
  status: ('A' for Active; 'I' for Inactive)
    5  A    between atoms: CA   and  CB  
    6  A    between atoms: CB   and  CG  
    7  A    between atoms: CG   and  CD  
    8  A    between atoms: CD   and  CE  

$$$$
