ligand_64_pose_15_2HRL.pdbqt
 OpenBabel07062320523D

 59 61  0  0  1  0  0  0  0  0999 V2000
   22.7800   41.1700    8.6850 N   0  0  0  0  0  0  0  0  0  0  0  0
   24.0780   41.3230    9.2680 C   0  0  0  0  0  0  0  0  0  0  0  0
   24.1510   41.7120   10.4620 O   0  0  0  0  0  0  0  0  0  0  0  0
   22.7890   40.8410    7.6760 H   0  0  0  0  0  0  0  0  0  0  0  0
   21.5560   41.4360    9.3900 C   0  0  0  0  0  0  0  0  0  0  0  0
   21.0860   40.2230   10.1350 C   0  0  2  0  0  0  0  0  0  0  0  0
   20.2470   39.3800    9.1830 C   0  0  2  0  0  0  0  0  0  0  0  0
   20.9030   38.0640    8.9520 C   0  0  2  0  0  0  0  0  0  0  0  0
   22.7030   37.1250    7.8180 C   0  0  2  0  0  0  0  0  0  0  0  0
   22.3020   35.9300    8.6750 C   0  0  0  0  0  0  0  0  0  0  0  0
   22.0580   38.2820    8.1700 O   0  0  0  0  0  0  0  0  0  0  0  0
   20.8480   35.6920    8.4660 C   0  0  1  0  0  0  0  0  0  0  0  0
   20.1120   37.0290    8.2270 C   0  0  1  0  0  0  0  0  0  0  0  0
   22.3880   36.7330    6.4940 O   0  0  0  0  0  0  0  0  0  0  0  0
   22.2930   37.5830    5.9910 H   0  0  0  0  0  0  0  0  0  0  0  0
   24.1550   37.3710    7.8900 C   0  0  0  0  0  0  0  0  0  0  0  0
   24.8850   36.6180    8.5600 O   0  0  0  0  0  0  0  0  0  0  0  0
   24.7190   38.4340    7.2180 O   0  0  0  0  0  0  0  0  0  0  0  0
   24.1790   39.0690    6.6350 H   0  0  0  0  0  0  0  0  0  0  0  0
   20.5620   34.7890    7.4660 O   0  0  0  0  0  0  0  0  0  0  0  0
   21.1040   33.9760    7.5620 H   0  0  0  0  0  0  0  0  0  0  0  0
   18.7440   36.8710    8.6410 N   0  0  0  0  0  0  0  0  0  0  0  0
   17.6560   37.3960    7.8510 C   0  0  0  0  0  0  0  0  0  0  0  0
   18.5240   36.3720    9.5060 H   0  0  0  0  0  0  0  0  0  0  0  0
   16.2440   37.2560    8.2370 C   0  0  0  0  0  0  0  0  0  0  0  0
   17.9990   37.9940    6.7880 O   0  0  0  0  0  0  0  0  0  0  0  0
   19.8880   40.0340    8.0360 O   0  0  0  0  0  0  0  0  0  0  0  0
   20.6180   40.3130    7.4550 H   0  0  0  0  0  0  0  0  0  0  0  0
   20.2560   40.7100   11.1650 O   0  0  0  0  0  0  0  0  0  0  0  0
   19.6280   39.9840   11.3600 H   0  0  0  0  0  0  0  0  0  0  0  0
   25.2190   41.0490    8.5290 O   0  0  0  0  0  0  0  0  0  0  0  0
   26.4700   41.1780    9.1740 C   0  0  0  0  0  0  0  0  0  0  0  0
   27.0210   39.8070    9.3360 C   0  0  0  0  0  0  0  0  0  0  0  0
   26.9860   39.0170   10.4910 C   0  0  0  0  0  0  0  0  0  0  0  0
   27.6620   39.0230    8.4370 N   0  0  0  0  0  0  0  0  0  0  0  0
   27.5830   37.8360   10.2530 N   0  0  0  0  0  0  0  0  0  0  0  0
   27.9830   37.8660    9.0040 N   0  0  0  0  0  0  0  0  0  0  0  0
   27.7150   36.7910   11.2380 C   0  0  0  0  0  0  0  0  0  0  0  0
   26.6390   36.0470   11.6490 C   0  0  0  0  0  0  0  0  0  0  0  0
   28.9540   36.5120   11.8030 C   0  0  0  0  0  0  0  0  0  0  0  0
   26.7300   35.0430   12.5900 C   0  0  0  0  0  0  0  0  0  0  0  0
   29.0600   35.5160   12.7400 C   0  0  0  0  0  0  0  0  0  0  0  0
   27.9530   34.8230   13.0960 N   0  0  0  0  0  0  0  0  0  0  0  0
   25.5750   34.2670   13.0100 C   0  0  0  0  0  0  0  0  0  0  0  0
   25.6650   33.5510   14.0260 O   0  0  0  0  0  0  0  0  0  0  0  0
   24.3870   34.3050   12.3120 O   0  0  0  0  0  0  0  0  0  0  0  0
   24.0180   35.1640   11.8890 H   0  0  0  0  0  0  0  0  0  0  0  0
   30.3610   35.1980   13.3570 C   0  0  0  0  0  0  0  0  0  0  0  0
   30.3780   34.3180   14.4170 C   0  0  0  0  0  0  0  0  0  0  0  0
   31.5080   35.7650   12.8830 C   0  0  0  0  0  0  0  0  0  0  0  0
   31.5900   34.0200   14.9950 C   0  0  0  0  0  0  0  0  0  0  0  0
   32.7050   35.4380   13.4920 C   0  0  0  0  0  0  0  0  0  0  0  0
   32.7770   34.5650   14.5540 C   0  0  0  0  0  0  0  0  0  0  0  0
   29.8670   25.5550   16.9770 C   0  0  0  0  0  0  0  0  0  0  0  0
   28.3450   25.7220   17.0260 C   0  0  0  0  0  0  0  0  0  0  0  0
   27.6010   24.4020   16.8970 C   0  0  0  0  0  0  0  0  0  0  0  0
   26.1480   24.5330   17.2580 C   0  0  0  0  0  0  0  0  0  0  0  0
   25.6320   23.1980   17.7880 C   0  0  0  0  0  0  0  0  0  0  0  0
   25.5530   23.2230   19.2670 N   0  0  0  0  0  0  0  0  0  0  0  0
  1  2  1  0  0  0  0
  1  5  1  0  0  0  0
  2  3  2  0  0  0  0
  4  1  1  0  0  0  0
  6  5  1  6  0  0  0
  6 29  1  0  0  0  0
  7 27  1  6  0  0  0
  7  6  1  0  0  0  0
  8  7  1  6  0  0  0
  9 14  1  6  0  0  0
  9 16  1  0  0  0  0
  9 11  1  0  0  0  0
  9 10  1  0  0  0  0
 11  8  1  0  0  0  0
 12 20  1  6  0  0  0
 12 10  1  0  0  0  0
 13 12  1  0  0  0  0
 13 22  1  1  0  0  0
 13  8  1  0  0  0  0
 15 14  1  0  0  0  0
 16 17  2  0  0  0  0
 18 16  1  0  0  0  0
 19 18  1  0  0  0  0
 20 21  1  0  0  0  0
 22 24  1  0  0  0  0
 23 25  1  0  0  0  0
 23 22  1  0  0  0  0
 26 23  2  0  0  0  0
 28 27  1  0  0  0  0
 29 30  1  0  0  0  0
 31 32  1  0  0  0  0
 31  2  1  0  0  0  0
 32 33  1  0  0  0  0
 33 34  2  0  0  0  0
 35 37  2  0  0  0  0
 35 33  1  0  0  0  0
 36 34  1  0  0  0  0
 36 38  1  0  0  0  0
 37 36  1  0  0  0  0
 38 39  2  0  0  0  0
 38 40  1  0  0  0  0
 39 41  1  0  0  0  0
 40 42  2  0  0  0  0
 41 44  1  0  0  0  0
 41 43  2  0  0  0  0
 42 43  1  0  0  0  0
 42 48  1  0  0  0  0
 44 45  2  0  0  0  0
 46 44  1  0  0  0  0
 47 46  1  0  0  0  0
 48 49  1  0  0  0  0
 49 51  2  0  0  0  0
 50 48  2  0  0  0  0
 50 52  1  0  0  0  0
 52 53  2  0  0  0  0
 53 51  1  0  0  0  0
 54 55  1  0  0  0  0
 56 55  1  0  0  0  0
 56 57  1  0  0  0  0
 57 58  1  0  0  0  0
 58 59  1  0  0  0  0
M  END
>  <REMARK>
 VINA RESULT:    -5.903      3.318      8.980
 INTER + INTRA:         -16.296
 INTER:                  -9.380
 INTRA:                  -6.916
 UNBOUND:                -5.216
 SMILES CC(=O)N[C@@H]1[C@@H](O)C[C@](O)(C(=O)O)O[C@H]1C(O)[C@H](O)CNC(=O)OCc1cn(-c2cc(C(=O)O)nc(-c3ccccc3)c2)nn1
 SMILES IDX 21 1 22 2 23 3 20 5 18 6 16 7 15 8 9 9 8 10 14 11 6 12 5 13
 SMILES IDX 10 14 11 16 12 17 13 18 7 20 4 22 2 23 1 25 3 26 17 27 19 29
 SMILES IDX 24 31 25 32 26 33 27 34 45 35 28 36 44 37 29 38 30 39 43 40
 SMILES IDX 31 41 36 42 35 43 32 44 33 45 34 46 37 48 38 49 42 50 39 51
 SMILES IDX 41 52 40 53
 H PARENT 21 4 10 15 13 19 7 21 4 24 17 28 19 30 34 47
 Flexibility Score: inf
  4 active torsions:
  status: ('A' for Active; 'I' for Inactive)
    1  A    between atoms: CA   and  CB  
    2  A    between atoms: CB   and  CG  
    3  A    between atoms: CG   and  CD  
    4  A    between atoms: CD   and  CE  

>  <TORSDO>
F 18

>  <BEGIN_>
RES LYS A 131

$$$$
ligand_64_pose_15_2HRL.pdbqt
 OpenBabel07062320523D

  6  5  0  0  0  0  0  0  0  0999 V2000
   33.1930   34.6630    9.2900 C   0  0  0  0  0  0  0  0  0  0  0  0
   32.0600   35.3600   10.0340 C   0  0  0  0  0  0  0  0  0  0  0  0
   30.7950   35.4860    9.2250 C   0  0  0  0  0  0  0  0  0  0  0  0
   30.0960   34.1400    9.1090 C   0  0  0  0  0  0  0  0  0  0  0  0
   28.6600   34.3230    8.6560 C   0  0  0  0  0  0  0  0  0  0  0  0
   27.7210   33.5680    9.5320 N   0  0  0  0  0  0  0  0  0  0  0  0
  1  2  1  0  0  0  0
  3  2  1  0  0  0  0
  4  3  1  0  0  0  0
  5  4  1  0  0  0  0
  5  6  1  0  0  0  0
M  END
>  <EGIN_R>
ES LYS A 135

>  <REMARK>
  4 active torsions:
  status: ('A' for Active; 'I' for Inactive)
    5  A    between atoms: CA   and  CB  
    6  A    between atoms: CB   and  CG  
    7  A    between atoms: CG   and  CD  
    8  A    between atoms: CD   and  CE  

$$$$
