ligand_17_pose_6_2HRL.pdbqt
 OpenBabel07062320523D

 50 50  0  0  1  0  0  0  0  0999 V2000
   31.3560   37.8320   12.1780 N   0  0  0  0  0  0  0  0  0  0  0  0
   31.4660   38.7460   11.0860 C   0  0  0  0  0  0  0  0  0  0  0  0
   32.3000   38.5450   10.1860 O   0  0  0  0  0  0  0  0  0  0  0  0
   30.6420   38.0620   12.8900 H   0  0  0  0  0  0  0  0  0  0  0  0
   32.1630   36.6590   12.3190 C   0  0  0  0  0  0  0  0  0  0  0  0
   32.2670   36.1560   13.7310 C   0  0  2  0  0  0  0  0  0  0  0  0
   31.4480   34.8960   13.9030 C   0  0  1  0  0  0  0  0  0  0  0  0
   30.5320   34.9890   15.0900 C   0  0  2  0  0  0  0  0  0  0  0  0
   30.6410   32.7200   15.7020 C   0  0  2  0  0  0  0  0  0  0  0  0
   29.2980   32.5040   15.0170 C   0  0  0  0  0  0  0  0  0  0  0  0
   30.8840   34.0280   16.0030 O   0  0  0  0  0  0  0  0  0  0  0  0
   28.4430   33.7310   15.3520 C   0  0  1  0  0  0  0  0  0  0  0  0
   29.0940   34.9060   14.7150 C   0  0  1  0  0  0  0  0  0  0  0  0
   31.6080   32.0980   14.9160 O   0  0  0  0  0  0  0  0  0  0  0  0
   31.8050   32.6370   14.0980 H   0  0  0  0  0  0  0  0  0  0  0  0
   30.5920   31.9860   17.0060 C   0  0  0  0  0  0  0  0  0  0  0  0
   30.8100   32.5500   18.1000 O   0  0  0  0  0  0  0  0  0  0  0  0
   30.2960   30.6390   16.9990 O   0  0  0  0  0  0  0  0  0  0  0  0
   30.3080   30.0660   16.1610 H   0  0  0  0  0  0  0  0  0  0  0  0
   27.1540   33.4870   14.8760 O   0  0  0  0  0  0  0  0  0  0  0  0
   27.1800   33.7020   13.8900 H   0  0  0  0  0  0  0  0  0  0  0  0
   28.3770   36.1470   14.9420 N   0  0  0  0  0  0  0  0  0  0  0  0
   28.1540   37.1160   13.9230 C   0  0  0  0  0  0  0  0  0  0  0  0
   27.9820   36.3890   15.8950 H   0  0  0  0  0  0  0  0  0  0  0  0
   27.4080   38.3810   14.2140 C   0  0  0  0  0  0  0  0  0  0  0  0
   28.5810   36.9210   12.7690 O   0  0  0  0  0  0  0  0  0  0  0  0
   30.7320   34.7720   12.6980 O   0  0  0  0  0  0  0  0  0  0  0  0
   31.4150   34.5580   12.0070 H   0  0  0  0  0  0  0  0  0  0  0  0
   31.9850   37.1520   14.6210 O   0  0  0  0  0  0  0  0  0  0  0  0
   31.2490   36.8710   15.2200 H   0  0  0  0  0  0  0  0  0  0  0  0
   30.6680   39.8720   10.9780 O   0  0  0  0  0  0  0  0  0  0  0  0
   29.2570   39.8190   11.1420 C   0  0  0  0  0  0  0  0  0  0  0  0
   28.6760   39.2340    9.9070 C   0  0  0  0  0  0  0  0  0  0  0  0
   27.5150   38.4620    9.8910 C   0  0  0  0  0  0  0  0  0  0  0  0
   29.0790   39.2960    8.6310 N   0  0  0  0  0  0  0  0  0  0  0  0
   27.2790   38.1040    8.6320 N   0  0  0  0  0  0  0  0  0  0  0  0
   28.2300   38.6140    7.8810 N   0  0  0  0  0  0  0  0  0  0  0  0
   26.1810   37.2990    8.1680 C   0  0  0  0  0  0  0  0  0  0  0  0
   25.1320   37.2280    9.2630 C   0  0  0  0  0  0  0  0  0  0  0  0
   24.8410   35.8980    9.6910 N   0  0  0  0  0  0  0  0  0  0  0  0
   23.5350   35.4300    9.3650 C   0  0  0  0  0  0  0  0  0  0  0  0
   22.7390   35.3770   10.6770 C   0  0  0  0  0  0  0  0  0  0  0  0
   25.3200   35.5980   10.9980 C   0  0  0  0  0  0  0  0  0  0  0  0
   26.4680   34.6370   11.0260 C   0  0  0  0  0  0  0  0  0  0  0  0
   29.8670   25.5550   16.9770 C   0  0  0  0  0  0  0  0  0  0  0  0
   28.3450   25.7220   17.0260 C   0  0  0  0  0  0  0  0  0  0  0  0
   27.6010   24.4030   16.8870 C   0  0  0  0  0  0  0  0  0  0  0  0
   26.5640   24.2210   17.9610 C   0  0  0  0  0  0  0  0  0  0  0  0
   25.1890   24.0640   17.3200 C   0  0  0  0  0  0  0  0  0  0  0  0
   24.4570   25.3520   17.3410 N   0  0  0  0  0  0  0  0  0  0  0  0
  1  5  1  0  0  0  0
  1  4  1  0  0  0  0
  2  1  1  0  0  0  0
  3  2  2  0  0  0  0
  6  5  1  6  0  0  0
  6  7  1  0  0  0  0
  6 29  1  0  0  0  0
  7 27  1  6  0  0  0
  8  7  1  6  0  0  0
  8 11  1  0  0  0  0
  9 14  1  6  0  0  0
  9 11  1  0  0  0  0
  9 16  1  0  0  0  0
 10 12  1  0  0  0  0
 10  9  1  0  0  0  0
 12 20  1  6  0  0  0
 13 22  1  1  0  0  0
 13  8  1  0  0  0  0
 13 12  1  0  0  0  0
 15 14  1  0  0  0  0
 16 17  2  0  0  0  0
 18 16  1  0  0  0  0
 19 18  1  0  0  0  0
 21 20  1  0  0  0  0
 22 24  1  0  0  0  0
 23 25  1  0  0  0  0
 23 22  1  0  0  0  0
 26 23  2  0  0  0  0
 28 27  1  0  0  0  0
 29 30  1  0  0  0  0
 31  2  1  0  0  0  0
 31 32  1  0  0  0  0
 33 32  1  0  0  0  0
 34 33  2  0  0  0  0
 35 33  1  0  0  0  0
 36 34  1  0  0  0  0
 37 35  2  0  0  0  0
 37 36  1  0  0  0  0
 38 36  1  0  0  0  0
 38 39  1  0  0  0  0
 39 40  1  0  0  0  0
 40 43  1  0  0  0  0
 41 40  1  0  0  0  0
 41 42  1  0  0  0  0
 43 44  1  0  0  0  0
 45 46  1  0  0  0  0
 47 46  1  0  0  0  0
 47 48  1  0  0  0  0
 49 50  1  0  0  0  0
 49 48  1  0  0  0  0
M  END
>  <REMARK>
 VINA RESULT:    -3.644      4.459      8.311
 INTER + INTRA:         -14.317
 INTER:                  -8.069
 INTRA:                  -6.248
 UNBOUND:                -7.158
 SMILES CCN(CC)CCn1cc(COC(=O)NC[C@@H](O)C(O)[C@@H]2O[C@@](O)(C(=O)O)C[C@H](O)[C@H]2NC(C)=O)nn1
 SMILES IDX 15 1 13 2 14 3 16 5 17 6 19 7 21 8 23 9 28 10 22 11 29 12
 SMILES IDX 31 13 24 14 25 16 26 17 27 18 30 20 32 22 33 23 34 25 35 26
 SMILES IDX 20 27 18 29 12 31 11 32 10 33 9 34 36 35 8 36 37 37 7 38
 SMILES IDX 6 39 3 40 2 41 1 42 4 43 5 44
 H PARENT 15 4 24 15 27 19 30 21 32 24 20 28 18 30
 Flexibility Score: inf
  4 active torsions:
  status: ('A' for Active; 'I' for Inactive)
    1  A    between atoms: CA   and  CB  
    2  A    between atoms: CB   and  CG  
    3  A    between atoms: CG   and  CD  
    4  A    between atoms: CD   and  CE  

>  <TORSDO>
F 19

>  <BEGIN_>
RES LYS A 131

$$$$
ligand_17_pose_6_2HRL.pdbqt
 OpenBabel07062320523D

  6  5  0  0  0  0  0  0  0  0999 V2000
   33.1930   34.6630    9.2900 C   0  0  0  0  0  0  0  0  0  0  0  0
   32.0600   35.3600   10.0340 C   0  0  0  0  0  0  0  0  0  0  0  0
   30.8450   35.6150    9.1800 C   0  0  0  0  0  0  0  0  0  0  0  0
   30.1540   34.3070    8.8260 C   0  0  0  0  0  0  0  0  0  0  0  0
   28.8250   34.5750    8.1450 C   0  0  0  0  0  0  0  0  0  0  0  0
   29.0130   35.3540    6.8900 N   0  0  0  0  0  0  0  0  0  0  0  0
  1  2  1  0  0  0  0
  3  2  1  0  0  0  0
  4  3  1  0  0  0  0
  5  4  1  0  0  0  0
  6  5  1  0  0  0  0
M  END
>  <EGIN_R>
ES LYS A 135

>  <REMARK>
  4 active torsions:
  status: ('A' for Active; 'I' for Inactive)
    5  A    between atoms: CA   and  CB  
    6  A    between atoms: CB   and  CG  
    7  A    between atoms: CG   and  CD  
    8  A    between atoms: CD   and  CE  

$$$$
