ligand_89_pose_17_2HRL.pdbqt
 OpenBabel07062320523D

 60 63  0  0  1  0  0  0  0  0999 V2000
   30.9720   32.3740   16.1700 N   0  0  0  0  0  0  0  0  0  0  0  0
   31.0020   33.5800   16.8710 C   0  0  0  0  0  0  0  0  0  0  0  0
   30.3440   33.8020   17.8880 O   0  0  0  0  0  0  0  0  0  0  0  0
   31.6370   32.3160   15.3020 H   0  0  0  0  0  0  0  0  0  0  0  0
   30.1820   31.2420   16.4670 C   0  0  0  0  0  0  0  0  0  0  0  0
   29.0420   30.9790   15.5880 C   0  0  2  0  0  0  0  0  0  0  0  0
   27.7270   31.6230   15.7570 C   0  0  1  0  0  0  0  0  0  0  0  0
   26.8030   30.5380   16.3820 C   0  0  2  0  0  0  0  0  0  0  0  0
   24.8700   30.5770   15.0490 C   0  0  2  0  0  0  0  0  0  0  0  0
   24.0420   30.9020   16.2470 C   0  0  0  0  0  0  0  0  0  0  0  0
   26.0510   30.0110   15.4010 O   0  0  0  0  0  0  0  0  0  0  0  0
   24.7760   31.6630   17.3220 C   0  0  1  0  0  0  0  0  0  0  0  0
   26.1330   31.0550   17.6010 C   0  0  1  0  0  0  0  0  0  0  0  0
   25.1460   31.7600   14.3180 O   0  0  0  0  0  0  0  0  0  0  0  0
   25.9250   32.1700   14.7790 H   0  0  0  0  0  0  0  0  0  0  0  0
   24.0350   29.6680   14.1940 C   0  0  0  0  0  0  0  0  0  0  0  0
   23.3260   28.8040   14.7290 O   0  0  0  0  0  0  0  0  0  0  0  0
   24.0590   29.7970   12.8260 O   0  0  0  0  0  0  0  0  0  0  0  0
   23.4180   30.4390   12.3510 H   0  0  0  0  0  0  0  0  0  0  0  0
   24.9050   33.0210   17.0230 O   0  0  0  0  0  0  0  0  0  0  0  0
   25.8050   33.3300   17.2900 H   0  0  0  0  0  0  0  0  0  0  0  0
   25.9260   29.9990   18.6000 N   0  0  0  0  0  0  0  0  0  0  0  0
   26.9760   29.4780   19.3830 C   0  0  0  0  0  0  0  0  0  0  0  0
   24.9620   29.5920   18.7620 H   0  0  0  0  0  0  0  0  0  0  0  0
   26.7620   28.4090   20.3930 C   0  0  0  0  0  0  0  0  0  0  0  0
   28.1540   29.9220   19.2370 O   0  0  0  0  0  0  0  0  0  0  0  0
   27.7150   32.7400   16.5960 O   0  0  0  0  0  0  0  0  0  0  0  0
   26.9560   32.6710   17.2560 H   0  0  0  0  0  0  0  0  0  0  0  0
   28.8590   29.5440   15.6120 O   0  0  0  0  0  0  0  0  0  0  0  0
   28.8320   29.2180   16.5280 H   0  0  0  0  0  0  0  0  0  0  0  0
   31.8150   34.6490   16.4330 O   0  0  0  0  0  0  0  0  0  0  0  0
   31.3030   35.6900   15.6510 C   0  0  0  0  0  0  0  0  0  0  0  0
   30.2550   35.1630   14.7420 C   0  0  0  0  0  0  0  0  0  0  0  0
   28.8870   35.4160   14.8060 C   0  0  0  0  0  0  0  0  0  0  0  0
   30.3940   34.3490   13.6800 N   0  0  0  0  0  0  0  0  0  0  0  0
   28.2450   34.7600   13.7980 N   0  0  0  0  0  0  0  0  0  0  0  0
   29.2020   34.1380   13.1580 N   0  0  0  0  0  0  0  0  0  0  0  0
   26.8370   34.8210   13.5900 C   0  0  0  0  0  0  0  0  0  0  0  0
   25.8840   34.6830   14.5580 N   0  0  0  0  0  0  0  0  0  0  0  0
   26.1460   35.0250   12.4250 C   0  0  0  0  0  0  0  0  0  0  0  0
   24.6760   34.8000   13.9910 C   0  0  0  0  0  0  0  0  0  0  0  0
   24.7990   35.0130   12.6680 N   0  0  0  0  0  0  0  0  0  0  0  0
   26.5480   35.2270   11.1420 C   0  0  0  0  0  0  0  0  0  0  0  0
   23.8930   35.1920   11.6890 C   0  0  0  0  0  0  0  0  0  0  0  0
   25.6870   35.4090   10.1440 N   0  0  0  0  0  0  0  0  0  0  0  0
   27.7690   35.2500   10.8430 O   0  0  0  0  0  0  0  0  0  0  0  0
   22.5430   35.1730   11.9730 C   0  0  0  0  0  0  0  0  0  0  0  0
   24.3640   35.3930   10.4080 C   0  0  0  0  0  0  0  0  0  0  0  0
   21.5870   35.3540   10.9860 C   0  0  0  0  0  0  0  0  0  0  0  0
   23.3880   35.5710    9.4390 C   0  0  0  0  0  0  0  0  0  0  0  0
   22.0330   35.5550    9.7080 C   0  0  0  0  0  0  0  0  0  0  0  0
   26.0480   35.6310    8.7620 C   0  0  0  0  0  0  0  0  0  0  0  0
   26.9380   34.4810    8.3430 C   0  0  0  0  0  0  0  0  0  0  0  0
   26.7960   36.9010    8.5080 C   0  0  0  0  0  0  0  0  0  0  0  0
   29.8670   25.5550   16.9770 C   0  0  0  0  0  0  0  0  0  0  0  0
   28.3450   25.7220   17.0260 C   0  0  0  0  0  0  0  0  0  0  0  0
   27.5990   24.4280   16.7390 C   0  0  0  0  0  0  0  0  0  0  0  0
   26.9940   23.8360   17.9810 C   0  0  0  0  0  0  0  0  0  0  0  0
   25.5890   24.3950   18.1800 C   0  0  0  0  0  0  0  0  0  0  0  0
   24.8520   24.4150   16.8940 N   0  0  0  0  0  0  0  0  0  0  0  0
  1  5  1  0  0  0  0
  1  2  1  0  0  0  0
  2  3  2  0  0  0  0
  4  1  1  0  0  0  0
  6 29  1  0  0  0  0
  6  7  1  0  0  0  0
  6  5  1  1  0  0  0
  7 27  1  1  0  0  0
  8  7  1  6  0  0  0
  8 13  1  0  0  0  0
  9 16  1  6  0  0  0
  9 11  1  0  0  0  0
  9 10  1  0  0  0  0
 10 12  1  0  0  0  0
 11  8  1  0  0  0  0
 12 20  1  6  0  0  0
 12 13  1  0  0  0  0
 13 22  1  1  0  0  0
 14 15  1  0  0  0  0
 14  9  1  0  0  0  0
 16 17  2  0  0  0  0
 18 16  1  0  0  0  0
 19 18  1  0  0  0  0
 20 21  1  0  0  0  0
 22 24  1  0  0  0  0
 22 23  1  0  0  0  0
 23 25  1  0  0  0  0
 26 23  2  0  0  0  0
 27 28  1  0  0  0  0
 29 30  1  0  0  0  0
 31  2  1  0  0  0  0
 32 31  1  0  0  0  0
 33 34  2  0  0  0  0
 33 32  1  0  0  0  0
 35 33  1  0  0  0  0
 36 34  1  0  0  0  0
 37 35  2  0  0  0  0
 37 36  1  0  0  0  0
 38 36  1  0  0  0  0
 38 39  1  0  0  0  0
 40 42  1  0  0  0  0
 40 38  2  0  0  0  0
 41 39  2  0  0  0  0
 42 41  1  0  0  0  0
 43 40  1  0  0  0  0
 44 47  1  0  0  0  0
 44 42  1  0  0  0  0
 45 48  1  0  0  0  0
 45 43  1  0  0  0  0
 46 43  2  0  0  0  0
 48 44  2  0  0  0  0
 49 47  2  0  0  0  0
 50 51  2  0  0  0  0
 50 48  1  0  0  0  0
 51 49  1  0  0  0  0
 52 45  1  0  0  0  0
 53 52  1  0  0  0  0
 54 52  1  0  0  0  0
 55 56  1  0  0  0  0
 57 56  1  0  0  0  0
 57 58  1  0  0  0  0
 58 59  1  0  0  0  0
 60 59  1  0  0  0  0
M  END
>  <REMARK>
 VINA RESULT:    -4.333      3.112      6.773
 INTER + INTRA:         -14.862
 INTER:                  -9.554
 INTRA:                  -5.308
 UNBOUND:                -7.109
 SMILES CC(=O)N[C@@H]1[C@@H](O)C[C@](O)(C(=O)O)O[C@H]1C(O)[C@H](O)CNC(=O)OCc1cn(-c2ncn3c2c(=O)n(C(C)C)c2ccccc23)nn1
 SMILES IDX 21 1 22 2 23 3 20 5 18 6 16 7 15 8 9 9 8 10 14 11 6 12 5 13
 SMILES IDX 10 14 11 16 12 17 13 18 7 20 4 22 2 23 1 25 3 26 17 27 19 29
 SMILES IDX 24 31 25 32 26 33 27 34 47 35 28 36 46 37 29 38 30 39 33 40
 SMILES IDX 31 41 32 42 34 43 45 44 36 45 35 46 44 47 40 48 43 49 41 50
 SMILES IDX 42 51 37 52 38 53 39 54
 H PARENT 21 4 10 15 13 19 7 21 4 24 17 28 19 30
 Flexibility Score: inf
  4 active torsions:
  status: ('A' for Active; 'I' for Inactive)
    1  A    between atoms: CA   and  CB  
    2  A    between atoms: CB   and  CG  
    3  A    between atoms: CG   and  CD  
    4  A    between atoms: CD   and  CE  

>  <TORSDO>
F 16

>  <BEGIN_>
RES LYS A 131

$$$$
ligand_89_pose_17_2HRL.pdbqt
 OpenBabel07062320523D

  6  5  0  0  0  0  0  0  0  0999 V2000
   33.1930   34.6630    9.2900 C   0  0  0  0  0  0  0  0  0  0  0  0
   32.0600   35.3600   10.0340 C   0  0  0  0  0  0  0  0  0  0  0  0
   30.7550   35.3620    9.2800 C   0  0  0  0  0  0  0  0  0  0  0  0
   30.3850   36.7730    8.8510 C   0  0  0  0  0  0  0  0  0  0  0  0
   31.0610   37.7960    9.7440 C   0  0  0  0  0  0  0  0  0  0  0  0
   31.6590   38.8980    8.9400 N   0  0  0  0  0  0  0  0  0  0  0  0
  1  2  1  0  0  0  0
  3  2  1  0  0  0  0
  4  3  1  0  0  0  0
  4  5  1  0  0  0  0
  6  5  1  0  0  0  0
M  END
>  <EGIN_R>
ES LYS A 135

>  <REMARK>
  4 active torsions:
  status: ('A' for Active; 'I' for Inactive)
    5  A    between atoms: CA   and  CB  
    6  A    between atoms: CB   and  CG  
    7  A    between atoms: CG   and  CD  
    8  A    between atoms: CD   and  CE  

$$$$
