ligand_90_pose_1_2HRL.pdbqt
 OpenBabel07062320523D

 61 62  0  0  1  0  0  0  0  0999 V2000
   28.3890   37.4420   12.3100 C   0  0  0  0  0  0  0  0  0  0  0  0
   29.6850   36.8780   12.2700 O   0  0  0  0  0  0  0  0  0  0  0  0
   30.2380   36.2460   13.3700 C   0  0  0  0  0  0  0  0  0  0  0  0
   30.0790   34.8330   13.5750 N   0  0  0  0  0  0  0  0  0  0  0  0
   29.5230   34.3260   12.8570 H   0  0  0  0  0  0  0  0  0  0  0  0
   30.8790   36.9300   14.1860 O   0  0  0  0  0  0  0  0  0  0  0  0
   30.6340   34.1360   14.6830 C   0  0  0  0  0  0  0  0  0  0  0  0
   30.4220   32.6620   14.6600 C   0  0  2  0  0  0  0  0  0  0  0  0
   29.2800   32.3130   15.6010 C   0  0  1  0  0  0  0  0  0  0  0  0
   29.7070   31.4300   16.7290 C   0  0  2  0  0  0  0  0  0  0  0  0
   27.8490   30.4220   17.7080 C   0  0  2  0  0  0  0  0  0  0  0  0
   28.3330   30.5730   19.1430 C   0  0  0  0  0  0  0  0  0  0  0  0
   28.8880   30.3340   16.8250 O   0  0  0  0  0  0  0  0  0  0  0  0
   29.7630   31.0960   19.1470 C   0  0  1  0  0  0  0  0  0  0  0  0
   29.8250   32.1490   18.0320 C   0  0  1  0  0  0  0  0  0  0  0  0
   27.0990   31.5520   17.4370 O   0  0  0  0  0  0  0  0  0  0  0  0
   27.6870   32.3220   17.2290 H   0  0  0  0  0  0  0  0  0  0  0  0
   26.9650   29.2380   17.5570 C   0  0  0  0  0  0  0  0  0  0  0  0
   27.2900   28.2520   16.8360 O   0  0  0  0  0  0  0  0  0  0  0  0
   25.7440   29.1690   18.2060 O   0  0  0  0  0  0  0  0  0  0  0  0
   25.3450   29.8900   18.7800 H   0  0  0  0  0  0  0  0  0  0  0  0
   29.9980   31.6660   20.3850 O   0  0  0  0  0  0  0  0  0  0  0  0
   29.6270   32.5730   20.4750 H   0  0  0  0  0  0  0  0  0  0  0  0
   31.0780   32.8850   18.1310 N   0  0  0  0  0  0  0  0  0  0  0  0
   31.0480   34.2840   18.2970 C   0  0  0  0  0  0  0  0  0  0  0  0
   31.9660   32.3820   18.0750 H   0  0  0  0  0  0  0  0  0  0  0  0
   32.3220   35.0860   18.4050 C   0  0  0  0  0  0  0  0  0  0  0  0
   29.9880   34.9500   18.3650 O   0  0  0  0  0  0  0  0  0  0  0  0
   28.6810   33.4550   16.1090 O   0  0  0  0  0  0  0  0  0  0  0  0
   27.7080   33.4140   16.1150 H   0  0  0  0  0  0  0  0  0  0  0  0
   31.5350   31.9110   15.0020 O   0  0  0  0  0  0  0  0  0  0  0  0
   32.1190   31.7160   14.2210 H   0  0  0  0  0  0  0  0  0  0  0  0
   27.4680   36.3130   12.5840 C   0  0  0  0  0  0  0  0  0  0  0  0
   26.6140   36.2570   13.6630 C   0  0  0  0  0  0  0  0  0  0  0  0
   27.2530   35.1650   11.9250 N   0  0  0  0  0  0  0  0  0  0  0  0
   25.9030   35.0870   13.6370 N   0  0  0  0  0  0  0  0  0  0  0  0
   26.3140   34.4470   12.5700 N   0  0  0  0  0  0  0  0  0  0  0  0
   24.9330   34.7570   14.6580 C   0  0  0  0  0  0  0  0  0  0  0  0
   23.6630   34.3700   13.9240 C   0  0  0  0  0  0  0  0  0  0  0  0
   22.7530   35.2120   13.7620 O   0  0  0  0  0  0  0  0  0  0  0  0
   23.4620   33.0870   13.4100 N   0  0  0  0  0  0  0  0  0  0  0  0
   24.3140   32.4280   13.5780 H   0  0  0  0  0  0  0  0  0  0  0  0
   22.3470   32.5360   12.7300 C   0  0  0  0  0  0  0  0  0  0  0  0
   22.0750   31.1030   12.7890 C   0  0  1  0  0  0  0  0  0  0  0  0
   20.9540   30.7180   12.0050 O   0  0  0  0  0  0  0  0  0  0  0  0
   20.2130   31.3520   12.1630 H   0  0  0  0  0  0  0  0  0  0  0  0
   23.1550   30.1040   12.8270 C   0  0  0  0  0  0  0  0  0  0  0  0
   23.2150   29.3580   14.0690 N   0  0  0  0  0  0  0  0  0  0  0  0
   22.6160   28.1620   14.3030 C   0  0  0  0  0  0  0  0  0  0  0  0
   23.8540   29.7390   15.1900 C   0  0  0  0  0  0  0  0  0  0  0  0
   22.9100   27.8230   15.6100 C   0  0  0  0  0  0  0  0  0  0  0  0
   23.6630   28.7830   16.1490 N   0  0  0  0  0  0  0  0  0  0  0  0
   24.6200   30.9060   15.4290 N   0  0  0  0  0  0  0  0  0  0  0  0
   24.1880   31.7230   16.2970 O   0  0  0  0  0  0  0  0  0  0  0  0
   25.7790   31.2470   14.8180 O   0  0  0  0  0  0  0  0  0  0  0  0
   29.8670   25.5550   16.9770 C   0  0  0  0  0  0  0  0  0  0  0  0
   28.3450   25.7220   17.0260 C   0  0  0  0  0  0  0  0  0  0  0  0
   27.6020   24.3990   16.9270 C   0  0  0  0  0  0  0  0  0  0  0  0
   26.1390   24.5450   17.2440 C   0  0  0  0  0  0  0  0  0  0  0  0
   25.9780   25.2070   18.6080 C   0  0  0  0  0  0  0  0  0  0  0  0
   25.5360   24.2150   19.6170 N   0  0  0  0  0  0  0  0  0  0  0  0
  1 33  1  0  0  0  0
  2  1  1  0  0  0  0
  2  3  1  0  0  0  0
  3  4  1  0  0  0  0
  3  6  2  0  0  0  0
  4  7  1  0  0  0  0
  5  4  1  0  0  0  0
  8  7  1  1  0  0  0
  8 31  1  0  0  0  0
  8  9  1  0  0  0  0
  9 29  1  1  0  0  0
 10  9  1  6  0  0  0
 10 13  1  0  0  0  0
 10 15  1  0  0  0  0
 11 16  1  6  0  0  0
 11 12  1  0  0  0  0
 12 14  1  0  0  0  0
 13 11  1  0  0  0  0
 14 22  1  1  0  0  0
 15 24  1  6  0  0  0
 15 14  1  0  0  0  0
 17 16  1  0  0  0  0
 18 11  1  0  0  0  0
 18 20  1  0  0  0  0
 19 18  2  0  0  0  0
 20 21  1  0  0  0  0
 22 23  1  0  0  0  0
 24 25  1  0  0  0  0
 25 28  2  0  0  0  0
 25 27  1  0  0  0  0
 26 24  1  0  0  0  0
 29 30  1  0  0  0  0
 32 31  1  0  0  0  0
 33 34  2  0  0  0  0
 35 37  2  0  0  0  0
 35 33  1  0  0  0  0
 36 34  1  0  0  0  0
 36 38  1  0  0  0  0
 37 36  1  0  0  0  0
 39 38  1  0  0  0  0
 40 39  2  0  0  0  0
 41 42  1  0  0  0  0
 41 39  1  0  0  0  0
 43 41  1  0  0  0  0
 44 43  1  6  0  0  0
 44 47  1  0  0  0  0
 45 46  1  0  0  0  0
 45 44  1  0  0  0  0
 47 48  1  0  0  0  0
 48 49  1  0  0  0  0
 48 50  1  0  0  0  0
 49 51  2  0  0  0  0
 50 53  1  0  0  0  0
 50 52  2  0  0  0  0
 51 52  1  0  0  0  0
 53 54  2  0  0  0  0
 55 53  2  0  0  0  0
 56 57  1  0  0  0  0
 58 57  1  0  0  0  0
 58 59  1  0  0  0  0
 59 60  1  0  0  0  0
 60 61  1  0  0  0  0
M  END
>  <REMARK>
 VINA RESULT:    -5.384      5.123     10.146
 INTER + INTRA:         -17.123
 INTER:                  -8.644
 INTRA:                  -8.479
 UNBOUND:                -5.759
 SMILES CC(=O)N[C@@H]1[C@@H](O)C[C@](O)(C(=O)O)O[C@H]1C(O)[C@H](O)CNC(=O)OCc1cn(CC(=O)NCC(O)Cn2ccnc2[N+](=O)[O-])nn1
 SMILES IDX 25 1 24 2 22 3 21 4 23 6 20 7 18 8 16 9 15 10 9 11 8 12
 SMILES IDX 14 13 6 14 5 15 10 16 11 18 12 19 13 20 7 22 4 24 2 25 1 27
 SMILES IDX 3 28 17 29 19 31 26 33 27 34 46 35 28 36 45 37 29 38 30 39
 SMILES IDX 31 40 32 41 33 43 34 44 35 45 36 47 37 48 38 49 41 50 39 51
 SMILES IDX 40 52 42 53 43 54 44 55
 H PARENT 21 5 10 17 13 21 7 23 4 26 17 30 19 32 32 42 35 46
 Flexibility Score: inf
  4 active torsions:
  status: ('A' for Active; 'I' for Inactive)
    1  A    between atoms: CA   and  CB  
    2  A    between atoms: CB   and  CG  
    3  A    between atoms: CG   and  CD  
    4  A    between atoms: CD   and  CE  

>  <TORSDO>
F 22

>  <BEGIN_>
RES LYS A 131

$$$$
ligand_90_pose_1_2HRL.pdbqt
 OpenBabel07062320523D

  6  5  0  0  0  0  0  0  0  0999 V2000
   33.1930   34.6630    9.2900 C   0  0  0  0  0  0  0  0  0  0  0  0
   32.0600   35.3600   10.0340 C   0  0  0  0  0  0  0  0  0  0  0  0
   30.7970   35.4920    9.2220 C   0  0  0  0  0  0  0  0  0  0  0  0
   29.9390   34.2440    9.3580 C   0  0  0  0  0  0  0  0  0  0  0  0
   28.6290   34.4150    8.6130 C   0  0  0  0  0  0  0  0  0  0  0  0
   28.8240   35.1870    7.3550 N   0  0  0  0  0  0  0  0  0  0  0  0
  1  2  1  0  0  0  0
  3  4  1  0  0  0  0
  3  2  1  0  0  0  0
  5  4  1  0  0  0  0
  6  5  1  0  0  0  0
M  END
>  <EGIN_R>
ES LYS A 135

>  <REMARK>
  4 active torsions:
  status: ('A' for Active; 'I' for Inactive)
    5  A    between atoms: CA   and  CB  
    6  A    between atoms: CB   and  CG  
    7  A    between atoms: CG   and  CD  
    8  A    between atoms: CD   and  CE  

$$$$
