ligand_75_pose_3_2HRL.pdbqt
 OpenBabel07062320523D

 55 56  0  0  1  0  0  0  0  0999 V2000
   27.9200   28.4970   18.7370 N   0  0  0  0  0  0  0  0  0  0  0  0
   26.7120   28.9720   18.1780 C   0  0  0  0  0  0  0  0  0  0  0  0
   25.6130   28.4130   18.3740 O   0  0  0  0  0  0  0  0  0  0  0  0
   28.8020   29.0630   18.4840 H   0  0  0  0  0  0  0  0  0  0  0  0
   28.0690   27.3560   19.5930 C   0  0  0  0  0  0  0  0  0  0  0  0
   28.4900   27.7630   20.9680 C   0  0  2  0  0  0  0  0  0  0  0  0
   29.9380   28.2050   21.0640 C   0  0  2  0  0  0  0  0  0  0  0  0
   30.0450   29.6860   21.0520 C   0  0  2  0  0  0  0  0  0  0  0  0
   29.9080   31.6920   19.9170 C   0  0  2  0  0  0  0  0  0  0  0  0
   30.1580   32.2480   21.2920 C   0  0  0  0  0  0  0  0  0  0  0  0
   29.6920   30.3280   19.9080 O   0  0  0  0  0  0  0  0  0  0  0  0
   31.2100   31.5550   22.0780 C   0  0  1  0  0  0  0  0  0  0  0  0
   31.4150   30.1630   21.5300 C   0  0  1  0  0  0  0  0  0  0  0  0
   30.9390   32.0870   19.0660 O   0  0  0  0  0  0  0  0  0  0  0  0
   31.8210   31.7980   19.3830 H   0  0  0  0  0  0  0  0  0  0  0  0
   28.6610   32.3310   19.4100 C   0  0  0  0  0  0  0  0  0  0  0  0
   28.7480   33.3080   18.5910 O   0  0  0  0  0  0  0  0  0  0  0  0
   27.3980   31.9020   19.7950 O   0  0  0  0  0  0  0  0  0  0  0  0
   26.7790   32.4600   20.3480 H   0  0  0  0  0  0  0  0  0  0  0  0
   32.4060   32.2610   22.1530 O   0  0  0  0  0  0  0  0  0  0  0  0
   33.1470   31.6420   22.2570 H   0  0  0  0  0  0  0  0  0  0  0  0
   32.0130   29.2740   22.4770 N   0  0  0  0  0  0  0  0  0  0  0  0
   33.4180   29.1420   22.6210 C   0  0  0  0  0  0  0  0  0  0  0  0
   31.4190   28.6700   23.1190 H   0  0  0  0  0  0  0  0  0  0  0  0
   33.9890   28.2110   23.6130 C   0  0  0  0  0  0  0  0  0  0  0  0
   34.2020   29.8150   21.9070 O   0  0  0  0  0  0  0  0  0  0  0  0
   30.7500   27.5510   20.1430 O   0  0  0  0  0  0  0  0  0  0  0  0
   30.3030   26.7140   19.8890 H   0  0  0  0  0  0  0  0  0  0  0  0
   28.2760   26.7460   21.9000 O   0  0  0  0  0  0  0  0  0  0  0  0
   27.4950   26.9970   22.4660 H   0  0  0  0  0  0  0  0  0  0  0  0
   26.6940   30.1200   17.3580 O   0  0  0  0  0  0  0  0  0  0  0  0
   27.2450   30.0450   16.0820 C   0  0  0  0  0  0  0  0  0  0  0  0
   28.5190   30.7920   15.9580 C   0  0  0  0  0  0  0  0  0  0  0  0
   28.8260   31.9140   15.2250 C   0  0  0  0  0  0  0  0  0  0  0  0
   29.6580   30.4630   16.5910 N   0  0  0  0  0  0  0  0  0  0  0  0
   30.1270   32.2440   15.4230 N   0  0  0  0  0  0  0  0  0  0  0  0
   30.6050   31.3420   16.2590 N   0  0  0  0  0  0  0  0  0  0  0  0
   30.7960   33.3540   14.8220 C   0  0  0  0  0  0  0  0  0  0  0  0
   31.9480   33.8650   15.3590 C   0  0  0  0  0  0  0  0  0  0  0  0
   30.2860   33.9360   13.6840 C   0  0  0  0  0  0  0  0  0  0  0  0
   32.6190   34.9720   14.7680 C   0  0  0  0  0  0  0  0  0  0  0  0
   30.8810   34.9970   13.0700 C   0  0  0  0  0  0  0  0  0  0  0  0
   32.0630   35.5060   13.6360 C   0  0  0  0  0  0  0  0  0  0  0  0
   33.8330   35.4290   15.3490 C   0  0  0  0  0  0  0  0  0  0  0  0
   34.2640   35.8640   16.4680 C   0  0  0  0  0  0  0  0  0  0  0  0
   33.7150   36.1090   17.7420 C   0  0  0  0  0  0  0  0  0  0  0  0
   32.6120   36.8530   17.8100 O   0  0  0  0  0  0  0  0  0  0  0  0
   34.0980   35.7260   19.0020 O   0  0  0  0  0  0  0  0  0  0  0  0
   33.6880   36.0940   19.8460 H   0  0  0  0  0  0  0  0  0  0  0  0
   29.8670   25.5550   16.9770 C   0  0  0  0  0  0  0  0  0  0  0  0
   28.3450   25.7220   17.0260 C   0  0  0  0  0  0  0  0  0  0  0  0
   27.6020   24.3970   16.9470 C   0  0  0  0  0  0  0  0  0  0  0  0
   26.1610   24.5300   17.3530 C   0  0  0  0  0  0  0  0  0  0  0  0
   25.9040   23.6910   18.6000 C   0  0  0  0  0  0  0  0  0  0  0  0
   25.5040   24.5570   19.7350 N   0  0  0  0  0  0  0  0  0  0  0  0
  1  5  1  0  0  0  0
  2  3  2  0  0  0  0
  2  1  1  0  0  0  0
  4  1  1  0  0  0  0
  6  5  1  6  0  0  0
  6  7  1  0  0  0  0
  6 29  1  0  0  0  0
  7 27  1  6  0  0  0
  8  7  1  6  0  0  0
  8 13  1  0  0  0  0
  9 14  1  6  0  0  0
  9 10  1  0  0  0  0
 10 12  1  0  0  0  0
 11  9  1  0  0  0  0
 11  8  1  0  0  0  0
 12 20  1  6  0  0  0
 13 12  1  0  0  0  0
 13 22  1  1  0  0  0
 14 15  1  0  0  0  0
 16 18  1  0  0  0  0
 16  9  1  0  0  0  0
 17 16  2  0  0  0  0
 18 19  1  0  0  0  0
 20 21  1  0  0  0  0
 22 23  1  0  0  0  0
 22 24  1  0  0  0  0
 23 25  1  0  0  0  0
 26 23  2  0  0  0  0
 28 27  1  0  0  0  0
 29 30  1  0  0  0  0
 31  2  1  0  0  0  0
 32 31  1  0  0  0  0
 33 32  1  0  0  0  0
 33 35  1  0  0  0  0
 34 36  1  0  0  0  0
 34 33  2  0  0  0  0
 36 37  1  0  0  0  0
 37 35  2  0  0  0  0
 38 39  1  0  0  0  0
 38 36  1  0  0  0  0
 40 38  2  0  0  0  0
 41 44  1  0  0  0  0
 41 39  2  0  0  0  0
 42 43  2  0  0  0  0
 42 40  1  0  0  0  0
 43 41  1  0  0  0  0
 44 45  2  0  0  0  0
 45 46  1  0  0  0  0
 46 47  2  0  0  0  0
 46 48  1  0  0  0  0
 48 49  1  0  0  0  0
 50 51  1  0  0  0  0
 52 51  1  0  0  0  0
 52 53  1  0  0  0  0
 53 54  1  0  0  0  0
 54 55  1  0  0  0  0
M  END
>  <REMARK>
 VINA RESULT:    -5.122      8.169     13.397
 INTER + INTRA:         -15.931
 INTER:                  -9.118
 INTRA:                  -6.813
 UNBOUND:                -6.317
 SMILES CC(=O)N[C@@H]1[C@@H](O)C[C@](O)(C(=O)O)O[C@H]1C(O)[C@H](O)CNC(=O)OCc1cn(-c2cccc(C=CC(=O)O)c2)nn1
 SMILES IDX 21 1 22 2 23 3 20 5 18 6 16 7 15 8 9 9 8 10 14 11 6 12 5 13
 SMILES IDX 10 14 11 16 12 17 13 18 7 20 4 22 2 23 1 25 3 26 17 27 19 29
 SMILES IDX 24 31 25 32 26 33 27 34 41 35 28 36 40 37 29 38 39 39 30 40
 SMILES IDX 33 41 31 42 32 43 34 44 35 45 36 46 37 47 38 48
 H PARENT 21 4 10 15 13 19 7 21 4 24 17 28 19 30 38 49
 Flexibility Score: inf
  4 active torsions:
  status: ('A' for Active; 'I' for Inactive)
    1  A    between atoms: CA   and  CB  
    2  A    between atoms: CB   and  CG  
    3  A    between atoms: CG   and  CD  
    4  A    between atoms: CD   and  CE  

>  <TORSDO>
F 18

>  <BEGIN_>
RES LYS A 131

$$$$
ligand_75_pose_3_2HRL.pdbqt
 OpenBabel07062320523D

  6  5  0  0  0  0  0  0  0  0999 V2000
   33.1930   34.6630    9.2900 C   0  0  0  0  0  0  0  0  0  0  0  0
   32.0600   35.3600   10.0340 C   0  0  0  0  0  0  0  0  0  0  0  0
   30.7880   35.4650    9.2330 C   0  0  0  0  0  0  0  0  0  0  0  0
   29.9810   34.1800    9.3370 C   0  0  0  0  0  0  0  0  0  0  0  0
   28.6910   34.4210   10.0970 C   0  0  0  0  0  0  0  0  0  0  0  0
   27.5300   33.8120    9.3910 N   0  0  0  0  0  0  0  0  0  0  0  0
  1  2  1  0  0  0  0
  3  4  1  0  0  0  0
  3  2  1  0  0  0  0
  4  5  1  0  0  0  0
  6  5  1  0  0  0  0
M  END
>  <EGIN_R>
ES LYS A 135

>  <REMARK>
  4 active torsions:
  status: ('A' for Active; 'I' for Inactive)
    5  A    between atoms: CA   and  CB  
    6  A    between atoms: CB   and  CG  
    7  A    between atoms: CG   and  CD  
    8  A    between atoms: CD   and  CE  

$$$$
