ligand_93_pose_9_2HRL.pdbqt
 OpenBabel07062320523D

 50 51  0  0  1  0  0  0  0  0999 V2000
   26.5750   33.1160   16.5010 C   0  0  0  0  0  0  0  0  0  0  0  0
   28.0680   33.0000   16.2980 C   0  0  2  0  0  0  0  0  0  0  0  0
   28.5840   34.1430   15.4970 C   0  0  1  0  0  0  0  0  0  0  0  0
   29.9180   34.6970   15.9240 C   0  0  2  0  0  0  0  0  0  0  0  0
   31.3900   34.9260   14.0980 C   0  0  2  0  0  0  0  0  0  0  0  0
   32.4480   34.1110   14.8140 C   0  0  0  0  0  0  0  0  0  0  0  0
   30.4120   35.4140   14.8860 O   0  0  0  0  0  0  0  0  0  0  0  0
   31.7250   33.0620   15.6180 C   0  0  1  0  0  0  0  0  0  0  0  0
   30.8360   33.7670   16.6110 C   0  0  1  0  0  0  0  0  0  0  0  0
   30.8190   34.0630   13.1630 O   0  0  0  0  0  0  0  0  0  0  0  0
   31.1840   33.1480   13.3600 H   0  0  0  0  0  0  0  0  0  0  0  0
   32.1110   35.9910   13.3330 C   0  0  0  0  0  0  0  0  0  0  0  0
   31.9150   37.2130   13.5120 O   0  0  0  0  0  0  0  0  0  0  0  0
   33.0320   35.6030   12.3850 O   0  0  0  0  0  0  0  0  0  0  0  0
   33.4410   34.6670   12.3570 H   0  0  0  0  0  0  0  0  0  0  0  0
   31.0090   32.2820   14.7080 O   0  0  0  0  0  0  0  0  0  0  0  0
   30.1010   32.6360   14.5450 H   0  0  0  0  0  0  0  0  0  0  0  0
   31.7310   34.5150   17.5130 N   0  0  0  0  0  0  0  0  0  0  0  0
   31.8320   34.2070   18.8920 C   0  0  0  0  0  0  0  0  0  0  0  0
   32.3100   35.2930   17.1400 H   0  0  0  0  0  0  0  0  0  0  0  0
   32.7550   35.0050   19.7300 C   0  0  0  0  0  0  0  0  0  0  0  0
   31.1510   33.2710   19.4060 O   0  0  0  0  0  0  0  0  0  0  0  0
   28.4680   33.9400   14.1290 O   0  0  0  0  0  0  0  0  0  0  0  0
   29.3620   33.8730   13.6900 H   0  0  0  0  0  0  0  0  0  0  0  0
   28.2590   31.7670   15.6210 O   0  0  0  0  0  0  0  0  0  0  0  0
   27.9690   31.8710   14.6730 H   0  0  0  0  0  0  0  0  0  0  0  0
   25.8600   33.5680   15.3300 N   0  0  0  0  0  0  0  0  0  0  0  0
   25.2150   32.5990   14.4980 C   0  0  0  0  0  0  0  0  0  0  0  0
   25.8280   34.5820   15.1270 H   0  0  0  0  0  0  0  0  0  0  0  0
   25.2940   31.4010   14.8160 O   0  0  0  0  0  0  0  0  0  0  0  0
   24.5360   33.0590   13.3820 O   0  0  0  0  0  0  0  0  0  0  0  0
   24.4460   34.4430   13.1660 C   0  0  0  0  0  0  0  0  0  0  0  0
   25.5310   34.8350   12.2340 C   0  0  0  0  0  0  0  0  0  0  0  0
   26.0160   36.1410   12.0980 C   0  0  0  0  0  0  0  0  0  0  0  0
   26.2390   34.0930   11.3750 N   0  0  0  0  0  0  0  0  0  0  0  0
   26.9750   36.0700   11.1690 N   0  0  0  0  0  0  0  0  0  0  0  0
   27.1180   34.8370   10.7250 N   0  0  0  0  0  0  0  0  0  0  0  0
   27.7430   37.1700   10.7140 C   0  0  0  0  0  0  0  0  0  0  0  0
   28.8600   37.5620   11.4500 C   0  0  0  0  0  0  0  0  0  0  0  0
   27.3740   37.8190    9.5680 C   0  0  0  0  0  0  0  0  0  0  0  0
   29.6140   38.6310   11.0140 C   0  0  0  0  0  0  0  0  0  0  0  0
   28.1430   38.8900    9.1480 C   0  0  0  0  0  0  0  0  0  0  0  0
   25.6950   37.2650    8.4240 I   0  0  0  0  0  0  0  0  0  0  0  0
   29.2550   39.2960    9.8620 C   0  0  0  0  0  0  0  0  0  0  0  0
   29.8670   25.5550   16.9770 C   0  0  0  0  0  0  0  0  0  0  0  0
   28.3450   25.7220   17.0260 C   0  0  0  0  0  0  0  0  0  0  0  0
   27.5990   24.4250   16.7520 C   0  0  0  0  0  0  0  0  0  0  0  0
   26.8670   23.9260   17.9670 C   0  0  0  0  0  0  0  0  0  0  0  0
   25.5170   24.6270   18.0710 C   0  0  0  0  0  0  0  0  0  0  0  0
   24.7130   24.3890   16.8490 N   0  0  0  0  0  0  0  0  0  0  0  0
  2  1  1  6  0  0  0
  3 23  1  6  0  0  0
  3  2  1  0  0  0  0
  4  3  1  6  0  0  0
  4  9  1  0  0  0  0
  5 10  1  6  0  0  0
  5  6  1  0  0  0  0
  5  7  1  0  0  0  0
  6  8  1  0  0  0  0
  7  4  1  0  0  0  0
  8 16  1  6  0  0  0
  8  9  1  0  0  0  0
  9 18  1  1  0  0  0
 10 11  1  0  0  0  0
 12 13  2  0  0  0  0
 12  5  1  0  0  0  0
 14 12  1  0  0  0  0
 15 14  1  0  0  0  0
 17 16  1  0  0  0  0
 18 19  1  0  0  0  0
 19 22  2  0  0  0  0
 19 21  1  0  0  0  0
 20 18  1  0  0  0  0
 24 23  1  0  0  0  0
 25  2  1  0  0  0  0
 26 25  1  0  0  0  0
 27  1  1  0  0  0  0
 28 30  2  0  0  0  0
 28 27  1  0  0  0  0
 29 27  1  0  0  0  0
 31 28  1  0  0  0  0
 32 31  1  0  0  0  0
 33 32  1  0  0  0  0
 34 33  2  0  0  0  0
 35 33  1  0  0  0  0
 36 34  1  0  0  0  0
 37 36  1  0  0  0  0
 37 35  2  0  0  0  0
 38 36  1  0  0  0  0
 38 39  2  0  0  0  0
 40 38  1  0  0  0  0
 41 39  1  0  0  0  0
 42 40  2  0  0  0  0
 42 44  1  0  0  0  0
 43 40  1  0  0  0  0
 44 41  2  0  0  0  0
 45 46  1  0  0  0  0
 47 46  1  0  0  0  0
 47 48  1  0  0  0  0
 48 49  1  0  0  0  0
 50 49  1  0  0  0  0
M  END
>  <REMARK>
 VINA RESULT:    -4.368      2.992      5.878
 INTER + INTRA:         -13.845
 INTER:                  -8.621
 INTRA:                  -5.224
 UNBOUND:                -6.285
 SMILES CC(=O)N[C@@H]1[C@@H](O)C[C@](O)(C(=O)O)O[C@H]1C(O)[C@H](O)CNC(=O)OCc1cn(-c2ccccc2I)nn1
 SMILES IDX 20 1 18 2 16 3 15 4 9 5 8 6 14 7 6 8 5 9 10 10 11 12 12 13
 SMILES IDX 13 14 7 16 4 18 2 19 1 21 3 22 17 23 19 25 21 27 22 28 23 30
 SMILES IDX 24 31 25 32 26 33 27 34 37 35 28 36 36 37 29 38 30 39 34 40
 SMILES IDX 31 41 33 42 35 43 32 44
 H PARENT 10 11 13 15 7 17 4 20 17 24 19 26 21 29
 Flexibility Score: inf
  4 active torsions:
  status: ('A' for Active; 'I' for Inactive)
    1  A    between atoms: CA   and  CB  
    2  A    between atoms: CB   and  CG  
    3  A    between atoms: CG   and  CD  
    4  A    between atoms: CD   and  CE  

>  <TORSDO>
F 15

>  <BEGIN_>
RES LYS A 131

$$$$
ligand_93_pose_9_2HRL.pdbqt
 OpenBabel07062320523D

  6  5  0  0  0  0  0  0  0  0999 V2000
   33.1930   34.6630    9.2900 C   0  0  0  0  0  0  0  0  0  0  0  0
   32.0600   35.3600   10.0340 C   0  0  0  0  0  0  0  0  0  0  0  0
   30.6880   34.9120    9.5990 C   0  0  0  0  0  0  0  0  0  0  0  0
   30.1970   35.7490    8.4280 C   0  0  0  0  0  0  0  0  0  0  0  0
   29.0540   35.0500    7.7170 C   0  0  0  0  0  0  0  0  0  0  0  0
   28.8420   35.6170    6.3560 N   0  0  0  0  0  0  0  0  0  0  0  0
  1  2  1  0  0  0  0
  3  2  1  0  0  0  0
  4  3  1  0  0  0  0
  5  4  1  0  0  0  0
  6  5  1  0  0  0  0
M  END
>  <EGIN_R>
ES LYS A 135

>  <REMARK>
  4 active torsions:
  status: ('A' for Active; 'I' for Inactive)
    5  A    between atoms: CA   and  CB  
    6  A    between atoms: CB   and  CG  
    7  A    between atoms: CG   and  CD  
    8  A    between atoms: CD   and  CE  

$$$$
