ligand_20_pose_3_2HRL.pdbqt
 OpenBabel07062320523D

 53 55  0  0  1  0  0  0  0  0999 V2000
   25.9890   35.4300   16.1780 C   0  0  0  0  0  0  0  0  0  0  0  0
   26.3970   34.0390   16.3960 C   0  0  2  0  0  0  0  0  0  0  0  0
   27.9310   33.8930   16.2940 C   0  0  1  0  0  0  0  0  0  0  0  0
   28.4820   32.8440   17.1570 C   0  0  2  0  0  0  0  0  0  0  0  0
   30.4080   33.7310   18.1450 C   0  0  2  0  0  0  0  0  0  0  0  0
   31.1190   33.3430   16.8800 C   0  0  0  0  0  0  0  0  0  0  0  0
   29.1540   33.2110   18.2850 O   0  0  0  0  0  0  0  0  0  0  0  0
   30.7230   32.0090   16.3510 C   0  0  1  0  0  0  0  0  0  0  0  0
   29.2450   31.7830   16.3530 C   0  0  1  0  0  0  0  0  0  0  0  0
   30.3550   35.1210   18.2340 O   0  0  0  0  0  0  0  0  0  0  0  0
   30.2730   35.4340   19.1680 H   0  0  0  0  0  0  0  0  0  0  0  0
   31.2300   33.2340   19.2720 C   0  0  0  0  0  0  0  0  0  0  0  0
   32.1810   33.9100   19.6940 O   0  0  0  0  0  0  0  0  0  0  0  0
   30.9360   32.0170   19.8510 O   0  0  0  0  0  0  0  0  0  0  0  0
   30.3670   31.9220   20.7040 H   0  0  0  0  0  0  0  0  0  0  0  0
   31.2590   31.8820   15.0550 O   0  0  0  0  0  0  0  0  0  0  0  0
   31.7070   32.7420   14.8720 H   0  0  0  0  0  0  0  0  0  0  0  0
   28.8760   30.4470   16.7380 N   0  0  0  0  0  0  0  0  0  0  0  0
   27.6440   29.8550   16.3510 C   0  0  0  0  0  0  0  0  0  0  0  0
   29.5390   29.8660   17.3350 H   0  0  0  0  0  0  0  0  0  0  0  0
   27.3120   28.4800   16.7720 C   0  0  0  0  0  0  0  0  0  0  0  0
   26.8490   30.5270   15.6460 O   0  0  0  0  0  0  0  0  0  0  0  0
   28.0550   33.3980   14.9460 O   0  0  0  0  0  0  0  0  0  0  0  0
   28.8440   32.8140   14.8720 H   0  0  0  0  0  0  0  0  0  0  0  0
   25.9150   33.3210   15.2350 O   0  0  0  0  0  0  0  0  0  0  0  0
   25.7610   32.3690   15.4900 H   0  0  0  0  0  0  0  0  0  0  0  0
   26.7570   36.1840   15.2260 N   0  0  0  0  0  0  0  0  0  0  0  0
   26.3380   36.3440   13.8790 C   0  0  0  0  0  0  0  0  0  0  0  0
   27.6170   36.6750   15.5170 H   0  0  0  0  0  0  0  0  0  0  0  0
   25.2600   35.8030   13.5230 O   0  0  0  0  0  0  0  0  0  0  0  0
   27.0470   37.0570   12.9400 O   0  0  0  0  0  0  0  0  0  0  0  0
   27.8470   36.4800   11.9260 C   0  0  0  0  0  0  0  0  0  0  0  0
   29.0280   35.8330   12.5910 C   0  0  0  0  0  0  0  0  0  0  0  0
   30.0380   36.4320   13.3110 C   0  0  0  0  0  0  0  0  0  0  0  0
   29.3260   34.5030   12.6080 N   0  0  0  0  0  0  0  0  0  0  0  0
   30.8830   35.4400   13.7170 N   0  0  0  0  0  0  0  0  0  0  0  0
   30.4250   34.2820   13.2770 N   0  0  0  0  0  0  0  0  0  0  0  0
   32.0550   35.6480   14.4870 C   0  0  0  0  0  0  0  0  0  0  0  0
   33.1620   34.8510   14.2660 C   0  0  0  0  0  0  0  0  0  0  0  0
   32.1600   36.6170   15.4630 C   0  0  0  0  0  0  0  0  0  0  0  0
   34.3300   35.0070   14.9840 C   0  0  0  0  0  0  0  0  0  0  0  0
   33.3060   36.7890   16.1850 C   0  0  0  0  0  0  0  0  0  0  0  0
   34.4210   35.9850   15.9600 C   0  0  0  0  0  0  0  0  0  0  0  0
   33.6800   37.6500   17.1890 C   0  0  0  0  0  0  0  0  0  0  0  0
   35.3960   36.3670   16.8000 N   0  0  0  0  0  0  0  0  0  0  0  0
   34.9660   37.3630   17.5410 N   0  0  0  0  0  0  0  0  0  0  0  0
   36.3380   35.9370   16.8490 H   0  0  0  0  0  0  0  0  0  0  0  0
   29.8670   25.5550   16.9770 C   0  0  0  0  0  0  0  0  0  0  0  0
   28.3450   25.7220   17.0260 C   0  0  0  0  0  0  0  0  0  0  0  0
   27.6010   24.4030   16.8880 C   0  0  0  0  0  0  0  0  0  0  0  0
   26.4530   24.2960   17.8520 C   0  0  0  0  0  0  0  0  0  0  0  0
   26.4400   25.5170   18.7660 C   0  0  0  0  0  0  0  0  0  0  0  0
   25.1080   26.1660   18.7480 N   0  0  0  0  0  0  0  0  0  0  0  0
  2  1  1  6  0  0  0
  3 23  1  6  0  0  0
  3  2  1  0  0  0  0
  4  3  1  6  0  0  0
  4  7  1  0  0  0  0
  5 10  1  1  0  0  0
  5  7  1  0  0  0  0
  5 12  1  0  0  0  0
  6  5  1  0  0  0  0
  8 16  1  6  0  0  0
  8  9  1  0  0  0  0
  8  6  1  0  0  0  0
  9 18  1  1  0  0  0
  9  4  1  0  0  0  0
 10 11  1  0  0  0  0
 12 13  2  0  0  0  0
 12 14  1  0  0  0  0
 14 15  1  0  0  0  0
 17 16  1  0  0  0  0
 18 20  1  0  0  0  0
 19 18  1  0  0  0  0
 19 21  1  0  0  0  0
 22 19  2  0  0  0  0
 24 23  1  0  0  0  0
 25 26  1  0  0  0  0
 25  2  1  0  0  0  0
 27 29  1  0  0  0  0
 27  1  1  0  0  0  0
 28 27  1  0  0  0  0
 30 28  2  0  0  0  0
 31 28  1  0  0  0  0
 32 33  1  0  0  0  0
 32 31  1  0  0  0  0
 33 35  1  0  0  0  0
 33 34  2  0  0  0  0
 34 36  1  0  0  0  0
 35 37  2  0  0  0  0
 36 38  1  0  0  0  0
 37 36  1  0  0  0  0
 38 40  1  0  0  0  0
 39 38  2  0  0  0  0
 39 41  1  0  0  0  0
 40 42  2  0  0  0  0
 41 43  2  0  0  0  0
 42 44  1  0  0  0  0
 43 42  1  0  0  0  0
 43 45  1  0  0  0  0
 44 46  2  0  0  0  0
 45 47  1  0  0  0  0
 45 46  1  0  0  0  0
 48 49  1  0  0  0  0
 50 49  1  0  0  0  0
 50 51  1  0  0  0  0
 51 52  1  0  0  0  0
 53 52  1  0  0  0  0
M  END
>  <REMARK>
 VINA RESULT:    -4.976      3.131      7.294
 INTER + INTRA:         -15.103
 INTER:                  -7.972
 INTRA:                  -7.131
 UNBOUND:                -6.490
 SMILES CC(=O)N[C@@H]1[C@@H](O)C[C@](O)(C(=O)O)O[C@H]1C(O)[C@H](O)CNC(=O)OCc1cn(-c2ccc3[nH]ncc3c2)nn1
 SMILES IDX 20 1 18 2 16 3 15 4 9 5 8 6 14 7 6 8 5 9 10 10 11 12 12 13
 SMILES IDX 13 14 7 16 4 18 2 19 1 21 3 22 17 23 19 25 21 27 22 28 23 30
 SMILES IDX 24 31 25 32 26 33 27 34 39 35 28 36 38 37 29 38 30 39 37 40
 SMILES IDX 31 41 36 42 32 43 35 44 33 45 34 46
 H PARENT 10 11 13 15 7 17 4 20 17 24 19 26 21 29 33 47
 Flexibility Score: inf
  4 active torsions:
  status: ('A' for Active; 'I' for Inactive)
    1  A    between atoms: CA   and  CB  
    2  A    between atoms: CB   and  CG  
    3  A    between atoms: CG   and  CD  
    4  A    between atoms: CD   and  CE  

>  <TORSDO>
F 15

>  <BEGIN_>
RES LYS A 131

$$$$
ligand_20_pose_3_2HRL.pdbqt
 OpenBabel07062320523D

  6  5  0  0  0  0  0  0  0  0999 V2000
   33.1930   34.6630    9.2900 C   0  0  0  0  0  0  0  0  0  0  0  0
   32.0600   35.3600   10.0340 C   0  0  0  0  0  0  0  0  0  0  0  0
   30.8040   35.5090    9.2150 C   0  0  0  0  0  0  0  0  0  0  0  0
   30.0130   34.2100    9.2050 C   0  0  0  0  0  0  0  0  0  0  0  0
   28.6070   34.4470    8.6880 C   0  0  0  0  0  0  0  0  0  0  0  0
   27.6130   33.6390    9.4480 N   0  0  0  0  0  0  0  0  0  0  0  0
  1  2  1  0  0  0  0
  3  2  1  0  0  0  0
  4  3  1  0  0  0  0
  5  4  1  0  0  0  0
  5  6  1  0  0  0  0
M  END
>  <EGIN_R>
ES LYS A 135

>  <REMARK>
  4 active torsions:
  status: ('A' for Active; 'I' for Inactive)
    5  A    between atoms: CA   and  CB  
    6  A    between atoms: CB   and  CG  
    7  A    between atoms: CG   and  CD  
    8  A    between atoms: CD   and  CE  

$$$$
