ligand_48_pose_7_2HRL.pdbqt
 OpenBabel07062320523D

 49 50  0  0  1  0  0  0  0  0999 V2000
   29.3480   31.0840   15.4840 C   0  0  0  0  0  0  0  0  0  0  0  0
   30.6990   31.5210   16.0290 C   0  0  2  0  0  0  0  0  0  0  0  0
   30.4400   32.5780   17.0580 C   0  0  1  0  0  0  0  0  0  0  0  0
   31.2630   33.8370   16.9020 C   0  0  2  0  0  0  0  0  0  0  0  0
   31.3660   34.9940   18.9500 C   0  0  2  0  0  0  0  0  0  0  0  0
   30.9970   36.3010   18.2680 C   0  0  0  0  0  0  0  0  0  0  0  0
   31.9420   34.1700   18.0420 O   0  0  0  0  0  0  0  0  0  0  0  0
   30.0770   36.0650   17.1000 C   0  0  1  0  0  0  0  0  0  0  0  0
   30.5770   34.9550   16.1980 C   0  0  1  0  0  0  0  0  0  0  0  0
   30.2720   34.4670   19.6340 O   0  0  0  0  0  0  0  0  0  0  0  0
   30.5560   34.3060   20.5890 H   0  0  0  0  0  0  0  0  0  0  0  0
   32.4030   35.3560   19.9550 C   0  0  0  0  0  0  0  0  0  0  0  0
   33.0430   34.4570   20.5450 O   0  0  0  0  0  0  0  0  0  0  0  0
   32.6550   36.6690   20.2300 O   0  0  0  0  0  0  0  0  0  0  0  0
   31.9440   37.3790   20.3510 H   0  0  0  0  0  0  0  0  0  0  0  0
   28.7750   35.8360   17.5270 O   0  0  0  0  0  0  0  0  0  0  0  0
   28.6840   34.9070   17.8520 H   0  0  0  0  0  0  0  0  0  0  0  0
   31.4360   35.5360   15.1630 N   0  0  0  0  0  0  0  0  0  0  0  0
   31.2860   35.0850   13.8350 C   0  0  0  0  0  0  0  0  0  0  0  0
   32.1430   36.2630   15.3830 H   0  0  0  0  0  0  0  0  0  0  0  0
   32.1150   35.6170   12.7090 C   0  0  0  0  0  0  0  0  0  0  0  0
   30.4360   34.1980   13.5060 O   0  0  0  0  0  0  0  0  0  0  0  0
   29.1080   32.7760   17.3120 O   0  0  0  0  0  0  0  0  0  0  0  0
   28.6400   33.3050   16.5920 H   0  0  0  0  0  0  0  0  0  0  0  0
   31.4780   31.9080   14.9650 O   0  0  0  0  0  0  0  0  0  0  0  0
   31.9920   31.1490   14.6470 H   0  0  0  0  0  0  0  0  0  0  0  0
   28.8110   30.0750   16.3670 N   0  0  0  0  0  0  0  0  0  0  0  0
   27.4410   29.7320   16.4790 C   0  0  0  0  0  0  0  0  0  0  0  0
   29.4590   29.5170   17.0050 H   0  0  0  0  0  0  0  0  0  0  0  0
   26.5960   30.3330   15.7730 O   0  0  0  0  0  0  0  0  0  0  0  0
   27.0090   28.7420   17.3570 O   0  0  0  0  0  0  0  0  0  0  0  0
   26.4730   29.1030   18.6050 C   0  0  0  0  0  0  0  0  0  0  0  0
   27.4630   29.9630   19.3050 C   0  0  0  0  0  0  0  0  0  0  0  0
   28.4980   29.5220   20.1390 C   0  0  0  0  0  0  0  0  0  0  0  0
   27.5950   31.3030   19.3100 N   0  0  0  0  0  0  0  0  0  0  0  0
   29.1880   30.5820   20.5960 N   0  0  0  0  0  0  0  0  0  0  0  0
   28.6140   31.6520   20.0740 N   0  0  0  0  0  0  0  0  0  0  0  0
   30.3380   30.5550   21.4890 C   0  0  0  0  0  0  0  0  0  0  0  0
   30.8230   29.1290   21.6290 C   0  0  0  0  0  0  0  0  0  0  0  0
   31.4640   31.3780   20.9040 C   0  0  0  0  0  0  0  0  0  0  0  0
   32.0870   28.8870   20.8250 C   0  0  0  0  0  0  0  0  0  0  0  0
   32.6920   31.1070   21.7550 C   0  0  0  0  0  0  0  0  0  0  0  0
   33.2060   29.7360   21.3650 C   0  0  0  0  0  0  0  0  0  0  0  0
   29.8670   25.5550   16.9770 C   0  0  0  0  0  0  0  0  0  0  0  0
   28.3450   25.7220   17.0260 C   0  0  0  0  0  0  0  0  0  0  0  0
   27.6010   24.4020   16.8960 C   0  0  0  0  0  0  0  0  0  0  0  0
   26.2820   24.4210   17.6170 C   0  0  0  0  0  0  0  0  0  0  0  0
   26.3420   25.4290   18.7600 C   0  0  0  0  0  0  0  0  0  0  0  0
   25.4680   24.9990   19.8770 N   0  0  0  0  0  0  0  0  0  0  0  0
  1 27  1  0  0  0  0
  2  1  1  6  0  0  0
  2  3  1  0  0  0  0
  3 23  1  6  0  0  0
  4  3  1  1  0  0  0
  4  7  1  0  0  0  0
  5 10  1  1  0  0  0
  5 12  1  0  0  0  0
  6  5  1  0  0  0  0
  7  5  1  0  0  0  0
  8 16  1  1  0  0  0
  8  6  1  0  0  0  0
  9 18  1  6  0  0  0
  9  4  1  0  0  0  0
  9  8  1  0  0  0  0
 10 11  1  0  0  0  0
 12 14  1  0  0  0  0
 12 13  2  0  0  0  0
 14 15  1  0  0  0  0
 16 17  1  0  0  0  0
 18 20  1  0  0  0  0
 19 18  1  0  0  0  0
 21 19  1  0  0  0  0
 22 19  2  0  0  0  0
 24 23  1  0  0  0  0
 25  2  1  0  0  0  0
 26 25  1  0  0  0  0
 27 28  1  0  0  0  0
 27 29  1  0  0  0  0
 28 31  1  0  0  0  0
 30 28  2  0  0  0  0
 31 32  1  0  0  0  0
 32 33  1  0  0  0  0
 33 35  1  0  0  0  0
 33 34  2  0  0  0  0
 34 36  1  0  0  0  0
 35 37  2  0  0  0  0
 36 38  1  0  0  0  0
 37 36  1  0  0  0  0
 38 39  1  0  0  0  0
 40 38  1  0  0  0  0
 40 42  1  0  0  0  0
 41 43  1  0  0  0  0
 41 39  1  0  0  0  0
 43 42  1  0  0  0  0
 44 45  1  0  0  0  0
 46 45  1  0  0  0  0
 46 47  1  0  0  0  0
 47 48  1  0  0  0  0
 48 49  1  0  0  0  0
M  END
>  <REMARK>
 VINA RESULT:    -4.793      2.725      6.760
 INTER + INTRA:         -14.091
 INTER:                  -7.794
 INTRA:                  -6.297
 UNBOUND:                -5.796
 SMILES CC(=O)N[C@@H]1[C@@H](O)C[C@](O)(C(=O)O)O[C@H]1C(O)[C@H](O)CNC(=O)OCc1cn(C2CCCCC2)nn1
 SMILES IDX 20 1 18 2 16 3 15 4 9 5 8 6 14 7 6 8 5 9 10 10 11 12 12 13
 SMILES IDX 13 14 7 16 4 18 2 19 1 21 3 22 17 23 19 25 21 27 22 28 23 30
 SMILES IDX 24 31 25 32 26 33 27 34 36 35 28 36 35 37 29 38 30 39 34 40
 SMILES IDX 31 41 33 42 32 43
 H PARENT 10 11 13 15 7 17 4 20 17 24 19 26 21 29
 Flexibility Score: inf
  4 active torsions:
  status: ('A' for Active; 'I' for Inactive)
    1  A    between atoms: CA   and  CB  
    2  A    between atoms: CB   and  CG  
    3  A    between atoms: CG   and  CD  
    4  A    between atoms: CD   and  CE  

>  <TORSDO>
F 15

>  <BEGIN_>
RES LYS A 131

$$$$
ligand_48_pose_7_2HRL.pdbqt
 OpenBabel07062320523D

  6  5  0  0  0  0  0  0  0  0999 V2000
   33.1930   34.6630    9.2900 C   0  0  0  0  0  0  0  0  0  0  0  0
   32.0600   35.3600   10.0340 C   0  0  0  0  0  0  0  0  0  0  0  0
   30.8490   35.6240    9.1770 C   0  0  0  0  0  0  0  0  0  0  0  0
   30.0440   34.3500    8.9780 C   0  0  0  0  0  0  0  0  0  0  0  0
   28.9730   34.2250   10.0450 C   0  0  0  0  0  0  0  0  0  0  0  0
   27.6760   33.7900    9.4550 N   0  0  0  0  0  0  0  0  0  0  0  0
  1  2  1  0  0  0  0
  3  2  1  0  0  0  0
  4  3  1  0  0  0  0
  4  5  1  0  0  0  0
  6  5  1  0  0  0  0
M  END
>  <EGIN_R>
ES LYS A 135

>  <REMARK>
  4 active torsions:
  status: ('A' for Active; 'I' for Inactive)
    5  A    between atoms: CA   and  CB  
    6  A    between atoms: CB   and  CG  
    7  A    between atoms: CG   and  CD  
    8  A    between atoms: CD   and  CE  

$$$$
