ligand_14_pose_12_2HRL.pdbqt
 OpenBabel07062320523D

 50 51  0  0  1  0  0  0  0  0999 V2000
   27.8000   28.6840   18.0820 N   0  0  0  0  0  0  0  0  0  0  0  0
   27.3340   29.4750   17.0170 C   0  0  0  0  0  0  0  0  0  0  0  0
   26.2380   29.2430   16.4910 O   0  0  0  0  0  0  0  0  0  0  0  0
   28.7680   28.9710   18.4530 H   0  0  0  0  0  0  0  0  0  0  0  0
   27.1270   27.5790   18.6890 C   0  0  0  0  0  0  0  0  0  0  0  0
   27.3880   27.5360   20.1660 C   0  0  2  0  0  0  0  0  0  0  0  0
   28.8770   27.6730   20.4730 C   0  0  1  0  0  0  0  0  0  0  0  0
   29.0570   29.0530   21.1300 C   0  0  2  0  0  0  0  0  0  0  0  0
   30.3200   30.5730   19.8670 C   0  0  2  0  0  0  0  0  0  0  0  0
   31.5290   29.8110   20.3720 C   0  0  0  0  0  0  0  0  0  0  0  0
   29.1200   30.0230   20.1910 O   0  0  0  0  0  0  0  0  0  0  0  0
   31.4240   29.5830   21.8400 C   0  0  1  0  0  0  0  0  0  0  0  0
   30.0840   29.0310   22.2030 C   0  0  1  0  0  0  0  0  0  0  0  0
   30.4170   30.4940   18.4560 O   0  0  0  0  0  0  0  0  0  0  0  0
   29.6660   29.9130   18.1260 H   0  0  0  0  0  0  0  0  0  0  0  0
   30.4040   32.0110   20.2150 C   0  0  0  0  0  0  0  0  0  0  0  0
   31.4990   32.6060   20.1190 O   0  0  0  0  0  0  0  0  0  0  0  0
   29.2900   32.7050   20.6460 O   0  0  0  0  0  0  0  0  0  0  0  0
   28.5330   32.1930   21.0750 H   0  0  0  0  0  0  0  0  0  0  0  0
   32.4440   28.7160   22.2160 O   0  0  0  0  0  0  0  0  0  0  0  0
   32.1650   27.7720   22.0690 H   0  0  0  0  0  0  0  0  0  0  0  0
   29.5740   29.6140   23.4430 N   0  0  0  0  0  0  0  0  0  0  0  0
   28.9290   28.8560   24.4260 C   0  0  0  0  0  0  0  0  0  0  0  0
   29.7120   30.6350   23.5650 H   0  0  0  0  0  0  0  0  0  0  0  0
   28.4420   29.5320   25.6560 C   0  0  0  0  0  0  0  0  0  0  0  0
   28.7610   27.6030   24.2690 O   0  0  0  0  0  0  0  0  0  0  0  0
   29.2140   26.6680   21.3730 O   0  0  0  0  0  0  0  0  0  0  0  0
   30.0550   26.2210   21.1800 H   0  0  0  0  0  0  0  0  0  0  0  0
   26.8390   26.4550   20.8190 O   0  0  0  0  0  0  0  0  0  0  0  0
   26.7320   26.5650   21.7930 H   0  0  0  0  0  0  0  0  0  0  0  0
   28.0690   30.5470   16.5010 O   0  0  0  0  0  0  0  0  0  0  0  0
   27.4870   31.8290   16.3870 C   0  0  0  0  0  0  0  0  0  0  0  0
   28.3480   32.8940   16.9590 C   0  0  0  0  0  0  0  0  0  0  0  0
   29.6320   33.2540   16.5440 C   0  0  0  0  0  0  0  0  0  0  0  0
   28.0880   33.7280   17.9820 N   0  0  0  0  0  0  0  0  0  0  0  0
   30.0990   34.2620   17.3010 N   0  0  0  0  0  0  0  0  0  0  0  0
   29.1130   34.5210   18.1740 N   0  0  0  0  0  0  0  0  0  0  0  0
   31.3750   34.9430   17.2310 C   0  0  0  0  0  0  0  0  0  0  0  0
   32.1990   34.5190   16.0620 C   0  0  0  0  0  0  0  0  0  0  0  0
   32.5410   35.5840   15.1520 N   0  0  0  0  0  0  0  0  0  0  0  0
   33.2660   35.0030   14.0350 C   0  0  0  0  0  0  0  0  0  0  0  0
   31.3660   36.2100   14.5760 C   0  0  0  0  0  0  0  0  0  0  0  0
   32.7430   35.6190   12.7780 C   0  0  0  0  0  0  0  0  0  0  0  0
   31.9290   36.7870   13.2930 C   0  0  0  0  0  0  0  0  0  0  0  0
   29.8670   25.5550   16.9770 C   0  0  0  0  0  0  0  0  0  0  0  0
   28.3450   25.7220   17.0260 C   0  0  0  0  0  0  0  0  0  0  0  0
   27.5990   24.4340   16.7150 C   0  0  0  0  0  0  0  0  0  0  0  0
   26.1980   24.4440   17.2620 C   0  0  0  0  0  0  0  0  0  0  0  0
   26.1520   23.6400   18.5570 C   0  0  0  0  0  0  0  0  0  0  0  0
   24.9540   24.0030   19.3500 N   0  0  0  0  0  0  0  0  0  0  0  0
  1  4  1  0  0  0  0
  1  5  1  0  0  0  0
  2  1  1  0  0  0  0
  3  2  2  0  0  0  0
  6  5  1  6  0  0  0
  6  7  1  0  0  0  0
  6 29  1  0  0  0  0
  7 27  1  1  0  0  0
  8  7  1  6  0  0  0
  8 13  1  0  0  0  0
  9 14  1  6  0  0  0
  9 11  1  0  0  0  0
  9 16  1  0  0  0  0
  9 10  1  0  0  0  0
 10 12  1  0  0  0  0
 11  8  1  0  0  0  0
 12 13  1  0  0  0  0
 12 20  1  6  0  0  0
 13 22  1  1  0  0  0
 15 14  1  0  0  0  0
 16 18  1  0  0  0  0
 17 16  2  0  0  0  0
 18 19  1  0  0  0  0
 21 20  1  0  0  0  0
 22 24  1  0  0  0  0
 22 23  1  0  0  0  0
 23 25  1  0  0  0  0
 26 23  2  0  0  0  0
 28 27  1  0  0  0  0
 29 30  1  0  0  0  0
 31  2  1  0  0  0  0
 32 31  1  0  0  0  0
 32 33  1  0  0  0  0
 33 35  1  0  0  0  0
 34 33  2  0  0  0  0
 34 36  1  0  0  0  0
 35 37  2  0  0  0  0
 36 37  1  0  0  0  0
 38 36  1  0  0  0  0
 39 38  1  0  0  0  0
 40 39  1  0  0  0  0
 41 40  1  0  0  0  0
 42 40  1  0  0  0  0
 43 44  1  0  0  0  0
 43 41  1  0  0  0  0
 44 42  1  0  0  0  0
 45 46  1  0  0  0  0
 47 46  1  0  0  0  0
 47 48  1  0  0  0  0
 48 49  1  0  0  0  0
 49 50  1  0  0  0  0
M  END
>  <REMARK>
 VINA RESULT:    -4.300      6.997     12.338
 INTER + INTRA:         -13.938
 INTER:                  -7.758
 INTRA:                  -6.180
 UNBOUND:                -5.994
 SMILES CC(=O)N[C@@H]1[C@@H](O)C[C@](O)(C(=O)O)O[C@H]1C(O)[C@H](O)CNC(=O)OCc1cn(CCN2CCCC2)nn1
 SMILES IDX 21 1 22 2 23 3 20 5 18 6 16 7 15 8 9 9 8 10 14 11 6 12 5 13
 SMILES IDX 10 14 11 16 12 17 13 18 7 20 4 22 2 23 1 25 3 26 17 27 19 29
 SMILES IDX 24 31 25 32 26 33 27 34 37 35 28 36 36 37 29 38 30 39 31 40
 SMILES IDX 32 41 35 42 33 43 34 44
 H PARENT 21 4 10 15 13 19 7 21 4 24 17 28 19 30
 Flexibility Score: inf
  4 active torsions:
  status: ('A' for Active; 'I' for Inactive)
    1  A    between atoms: CA   and  CB  
    2  A    between atoms: CB   and  CG  
    3  A    between atoms: CG   and  CD  
    4  A    between atoms: CD   and  CE  

>  <TORSDO>
F 17

>  <BEGIN_>
RES LYS A 131

$$$$
ligand_14_pose_12_2HRL.pdbqt
 OpenBabel07062320523D

  6  5  0  0  0  0  0  0  0  0999 V2000
   33.1930   34.6630    9.2900 C   0  0  0  0  0  0  0  0  0  0  0  0
   32.0600   35.3600   10.0340 C   0  0  0  0  0  0  0  0  0  0  0  0
   30.8020   35.5040    9.2170 C   0  0  0  0  0  0  0  0  0  0  0  0
   29.9890   34.2190    9.2510 C   0  0  0  0  0  0  0  0  0  0  0  0
   28.7470   34.3970   10.1030 C   0  0  0  0  0  0  0  0  0  0  0  0
   27.5640   33.7520    9.4670 N   0  0  0  0  0  0  0  0  0  0  0  0
  1  2  1  0  0  0  0
  3  4  1  0  0  0  0
  3  2  1  0  0  0  0
  4  5  1  0  0  0  0
  6  5  1  0  0  0  0
M  END
>  <EGIN_R>
ES LYS A 135

>  <REMARK>
  4 active torsions:
  status: ('A' for Active; 'I' for Inactive)
    5  A    between atoms: CA   and  CB  
    6  A    between atoms: CB   and  CG  
    7  A    between atoms: CG   and  CD  
    8  A    between atoms: CD   and  CE  

$$$$
