ligand_75_pose_16_2HRL.pdbqt
 OpenBabel07062320523D

 55 56  0  0  1  0  0  0  0  0999 V2000
   28.4340   31.0560   18.2590 N   0  0  0  0  0  0  0  0  0  0  0  0
   27.9420   30.0670   19.1420 C   0  0  0  0  0  0  0  0  0  0  0  0
   28.6730   29.4640   19.9550 O   0  0  0  0  0  0  0  0  0  0  0  0
   27.7030   31.4940   17.5990 H   0  0  0  0  0  0  0  0  0  0  0  0
   29.7900   31.5150   18.1700 C   0  0  0  0  0  0  0  0  0  0  0  0
   30.4050   31.1300   16.8620 C   0  0  2  0  0  0  0  0  0  0  0  0
   30.9370   32.3040   16.0620 C   0  0  2  0  0  0  0  0  0  0  0  0
   29.9080   33.3660   15.9270 C   0  0  2  0  0  0  0  0  0  0  0  0
   27.8710   34.0850   15.1130 C   0  0  2  0  0  0  0  0  0  0  0  0
   28.2070   35.2990   15.9320 C   0  0  0  0  0  0  0  0  0  0  0  0
   28.7480   33.0350   15.3010 O   0  0  0  0  0  0  0  0  0  0  0  0
   29.6090   35.7740   15.8240 C   0  0  1  0  0  0  0  0  0  0  0  0
   30.4870   34.6490   15.3330 C   0  0  1  0  0  0  0  0  0  0  0  0
   27.7430   34.4540   13.7740 O   0  0  0  0  0  0  0  0  0  0  0  0
   27.4970   33.7000   13.1960 H   0  0  0  0  0  0  0  0  0  0  0  0
   26.5300   33.6140   15.5600 C   0  0  0  0  0  0  0  0  0  0  0  0
   25.4980   33.9270   14.8760 O   0  0  0  0  0  0  0  0  0  0  0  0
   26.3580   32.8430   16.7010 O   0  0  0  0  0  0  0  0  0  0  0  0
   25.6270   32.1680   16.7970 H   0  0  0  0  0  0  0  0  0  0  0  0
   29.7510   36.9180   15.0440 O   0  0  0  0  0  0  0  0  0  0  0  0
   29.6730   36.6860   14.1040 H   0  0  0  0  0  0  0  0  0  0  0  0
   31.8670   34.8370   15.6570 N   0  0  0  0  0  0  0  0  0  0  0  0
   32.8490   35.1360   14.6770 C   0  0  0  0  0  0  0  0  0  0  0  0
   32.2150   34.7590   16.6580 H   0  0  0  0  0  0  0  0  0  0  0  0
   34.2610   35.3220   15.0600 C   0  0  0  0  0  0  0  0  0  0  0  0
   32.5340   35.2480   13.4660 O   0  0  0  0  0  0  0  0  0  0  0  0
   31.5270   31.9030   14.8680 O   0  0  0  0  0  0  0  0  0  0  0  0
   31.0110   32.2950   14.1300 H   0  0  0  0  0  0  0  0  0  0  0  0
   29.5150   30.4140   16.0590 O   0  0  0  0  0  0  0  0  0  0  0  0
   29.3890   29.5100   16.4590 H   0  0  0  0  0  0  0  0  0  0  0  0
   26.5770   29.7110   19.1420 O   0  0  0  0  0  0  0  0  0  0  0  0
   26.1350   28.7350   18.2540 C   0  0  0  0  0  0  0  0  0  0  0  0
   25.7450   29.2880   16.9350 C   0  0  0  0  0  0  0  0  0  0  0  0
   24.5420   29.2440   16.2720 C   0  0  0  0  0  0  0  0  0  0  0  0
   26.5700   29.9690   16.1220 N   0  0  0  0  0  0  0  0  0  0  0  0
   24.6540   29.8900   15.0840 N   0  0  0  0  0  0  0  0  0  0  0  0
   25.9010   30.3200   15.0230 N   0  0  0  0  0  0  0  0  0  0  0  0
   23.6040   30.0450   14.1280 C   0  0  0  0  0  0  0  0  0  0  0  0
   23.1080   31.2830   13.8120 C   0  0  0  0  0  0  0  0  0  0  0  0
   23.0650   28.9430   13.5060 C   0  0  0  0  0  0  0  0  0  0  0  0
   22.0620   31.4470   12.8620 C   0  0  0  0  0  0  0  0  0  0  0  0
   22.0620   29.0320   12.5880 C   0  0  0  0  0  0  0  0  0  0  0  0
   21.5680   30.3110   12.2760 C   0  0  0  0  0  0  0  0  0  0  0  0
   21.6200   32.7600   12.5450 C   0  0  0  0  0  0  0  0  0  0  0  0
   20.5500   33.3610   12.1980 C   0  0  0  0  0  0  0  0  0  0  0  0
   19.2120   32.9930   11.9520 C   0  0  0  0  0  0  0  0  0  0  0  0
   18.6830   33.3220   10.7760 O   0  0  0  0  0  0  0  0  0  0  0  0
   18.2830   32.3310   12.7140 O   0  0  0  0  0  0  0  0  0  0  0  0
   18.0200   31.3690   12.5630 H   0  0  0  0  0  0  0  0  0  0  0  0
   29.8670   25.5550   16.9770 C   0  0  0  0  0  0  0  0  0  0  0  0
   28.3450   25.7220   17.0260 C   0  0  0  0  0  0  0  0  0  0  0  0
   27.6010   24.4010   16.9060 C   0  0  0  0  0  0  0  0  0  0  0  0
   26.1610   24.5220   17.3190 C   0  0  0  0  0  0  0  0  0  0  0  0
   26.0840   25.0060   18.7630 C   0  0  0  0  0  0  0  0  0  0  0  0
   24.8880   24.4460   19.4350 N   0  0  0  0  0  0  0  0  0  0  0  0
  1  2  1  0  0  0  0
  2  3  2  0  0  0  0
  4  1  1  0  0  0  0
  5  1  1  0  0  0  0
  6  5  1  1  0  0  0
  7 27  1  6  0  0  0
  7  6  1  0  0  0  0
  8  7  1  6  0  0  0
  9 14  1  6  0  0  0
  9 11  1  0  0  0  0
  9 16  1  0  0  0  0
  9 10  1  0  0  0  0
 11  8  1  0  0  0  0
 12 20  1  6  0  0  0
 12 10  1  0  0  0  0
 13 22  1  1  0  0  0
 13 12  1  0  0  0  0
 13  8  1  0  0  0  0
 15 14  1  0  0  0  0
 16 18  1  0  0  0  0
 17 16  2  0  0  0  0
 18 19  1  0  0  0  0
 21 20  1  0  0  0  0
 22 24  1  0  0  0  0
 23 25  1  0  0  0  0
 23 22  1  0  0  0  0
 26 23  2  0  0  0  0
 28 27  1  0  0  0  0
 29 30  1  0  0  0  0
 29  6  1  0  0  0  0
 31  2  1  0  0  0  0
 32 31  1  0  0  0  0
 33 32  1  0  0  0  0
 34 33  2  0  0  0  0
 35 33  1  0  0  0  0
 36 34  1  0  0  0  0
 37 36  1  0  0  0  0
 37 35  2  0  0  0  0
 38 36  1  0  0  0  0
 39 38  1  0  0  0  0
 40 38  2  0  0  0  0
 41 39  2  0  0  0  0
 42 40  1  0  0  0  0
 43 42  2  0  0  0  0
 43 41  1  0  0  0  0
 44 41  1  0  0  0  0
 45 44  2  0  0  0  0
 46 45  1  0  0  0  0
 46 48  1  0  0  0  0
 47 46  2  0  0  0  0
 49 48  1  0  0  0  0
 50 51  1  0  0  0  0
 52 51  1  0  0  0  0
 52 53  1  0  0  0  0
 53 54  1  0  0  0  0
 54 55  1  0  0  0  0
M  END
>  <REMARK>
 VINA RESULT:    -4.889      5.685     11.221
 INTER + INTRA:         -15.494
 INTER:                  -9.176
 INTRA:                  -6.317
 UNBOUND:                -6.317
 SMILES CC(=O)N[C@@H]1[C@@H](O)C[C@](O)(C(=O)O)O[C@H]1C(O)[C@H](O)CNC(=O)OCc1cn(-c2cccc(C=CC(=O)O)c2)nn1
 SMILES IDX 21 1 22 2 23 3 20 5 18 6 16 7 15 8 9 9 8 10 14 11 6 12 5 13
 SMILES IDX 10 14 11 16 12 17 13 18 7 20 4 22 2 23 1 25 3 26 17 27 19 29
 SMILES IDX 24 31 25 32 26 33 27 34 41 35 28 36 40 37 29 38 39 39 30 40
 SMILES IDX 33 41 31 42 32 43 34 44 35 45 36 46 37 47 38 48
 H PARENT 21 4 10 15 13 19 7 21 4 24 17 28 19 30 38 49
 Flexibility Score: inf
  4 active torsions:
  status: ('A' for Active; 'I' for Inactive)
    1  A    between atoms: CA   and  CB  
    2  A    between atoms: CB   and  CG  
    3  A    between atoms: CG   and  CD  
    4  A    between atoms: CD   and  CE  

>  <TORSDO>
F 18

>  <BEGIN_>
RES LYS A 131

$$$$
ligand_75_pose_16_2HRL.pdbqt
 OpenBabel07062320523D

  6  5  0  0  0  0  0  0  0  0999 V2000
   33.1930   34.6630    9.2900 C   0  0  0  0  0  0  0  0  0  0  0  0
   32.0600   35.3600   10.0340 C   0  0  0  0  0  0  0  0  0  0  0  0
   30.8110   35.5290    9.2080 C   0  0  0  0  0  0  0  0  0  0  0  0
   30.2620   34.1760    8.7830 C   0  0  0  0  0  0  0  0  0  0  0  0
   28.7820   34.0770    9.1010 C   0  0  0  0  0  0  0  0  0  0  0  0
   28.3760   35.1140   10.0900 N   0  0  0  0  0  0  0  0  0  0  0  0
  1  2  1  0  0  0  0
  3  2  1  0  0  0  0
  4  5  1  0  0  0  0
  4  3  1  0  0  0  0
  5  6  1  0  0  0  0
M  END
>  <EGIN_R>
ES LYS A 135

>  <REMARK>
  4 active torsions:
  status: ('A' for Active; 'I' for Inactive)
    5  A    between atoms: CA   and  CB  
    6  A    between atoms: CB   and  CG  
    7  A    between atoms: CG   and  CD  
    8  A    between atoms: CD   and  CE  

$$$$
