ligand_32_pose_6_2HRL.pdbqt
 OpenBabel07062320523D

 49 49  0  0  1  0  0  0  0  0999 V2000
   25.4160   35.4960   11.2630 N   0  0  0  0  0  0  0  0  0  0  0  0
   26.7080   35.8210   11.7480 C   0  0  0  0  0  0  0  0  0  0  0  0
   27.2130   36.9680   11.5570 O   0  0  0  0  0  0  0  0  0  0  0  0
   25.0370   34.5460   11.4410 H   0  0  0  0  0  0  0  0  0  0  0  0
   24.6190   36.4480   10.5270 C   0  0  0  0  0  0  0  0  0  0  0  0
   24.4580   36.1080    9.0700 C   0  0  2  0  0  0  0  0  0  0  0  0
   25.2450   37.0800    8.1910 C   0  0  1  0  0  0  0  0  0  0  0  0
   26.4530   36.3760    7.5980 C   0  0  2  0  0  0  0  0  0  0  0  0
   28.4420   35.4970    8.4500 C   0  0  2  0  0  0  0  0  0  0  0  0
   29.0480   35.5430    7.0750 C   0  0  0  0  0  0  0  0  0  0  0  0
   27.0650   35.5240    8.4590 O   0  0  0  0  0  0  0  0  0  0  0  0
   28.3550   36.4370    6.1100 C   0  0  1  0  0  0  0  0  0  0  0  0
   27.3990   37.3300    6.9170 C   0  0  1  0  0  0  0  0  0  0  0  0
   29.0060   36.5140    9.2120 O   0  0  0  0  0  0  0  0  0  0  0  0
   29.3700   36.0710   10.0280 H   0  0  0  0  0  0  0  0  0  0  0  0
   28.8510   34.2060    9.0490 C   0  0  0  0  0  0  0  0  0  0  0  0
   30.0230   33.7730    9.0290 O   0  0  0  0  0  0  0  0  0  0  0  0
   27.8970   33.4190    9.6690 O   0  0  0  0  0  0  0  0  0  0  0  0
   28.0630   32.4640    9.9610 H   0  0  0  0  0  0  0  0  0  0  0  0
   29.2280   37.2160    5.3560 O   0  0  0  0  0  0  0  0  0  0  0  0
   28.8610   37.4280    4.4540 H   0  0  0  0  0  0  0  0  0  0  0  0
   26.7000   38.2440    6.0370 N   0  0  0  0  0  0  0  0  0  0  0  0
   26.9420   39.6450    6.1120 C   0  0  0  0  0  0  0  0  0  0  0  0
   26.0030   37.9160    5.3280 H   0  0  0  0  0  0  0  0  0  0  0  0
   26.2410   40.6300    5.2200 C   0  0  0  0  0  0  0  0  0  0  0  0
   27.7780   40.1030    6.9550 O   0  0  0  0  0  0  0  0  0  0  0  0
   24.4100   37.4970    7.1590 O   0  0  0  0  0  0  0  0  0  0  0  0
   23.5160   37.0610    7.1930 H   0  0  0  0  0  0  0  0  0  0  0  0
   23.0940   36.1850    8.7790 O   0  0  0  0  0  0  0  0  0  0  0  0
   22.6090   35.5530    9.3650 H   0  0  0  0  0  0  0  0  0  0  0  0
   27.4230   34.8710   12.4410 O   0  0  0  0  0  0  0  0  0  0  0  0
   27.1470   34.5120   13.7840 C   0  0  0  0  0  0  0  0  0  0  0  0
   28.3050   34.8830   14.6660 C   0  0  0  0  0  0  0  0  0  0  0  0
   29.4480   34.1590   14.8770 C   0  0  0  0  0  0  0  0  0  0  0  0
   28.3890   36.0080   15.4050 N   0  0  0  0  0  0  0  0  0  0  0  0
   30.2110   34.8640   15.7480 N   0  0  0  0  0  0  0  0  0  0  0  0
   29.5460   35.9710   16.0460 N   0  0  0  0  0  0  0  0  0  0  0  0
   31.5090   34.4330   16.2220 C   0  0  0  0  0  0  0  0  0  0  0  0
   32.2140   33.7260   15.0670 C   0  0  0  0  0  0  0  0  0  0  0  0
   33.3130   34.6340   14.6200 C   0  0  0  0  0  0  0  0  0  0  0  0
   33.4210   35.8060   15.0030 O   0  0  0  0  0  0  0  0  0  0  0  0
   34.2420   34.0950   13.7290 O   0  0  0  0  0  0  0  0  0  0  0  0
   35.1650   33.8260   14.0660 H   0  0  0  0  0  0  0  0  0  0  0  0
   29.8670   25.5550   16.9770 C   0  0  0  0  0  0  0  0  0  0  0  0
   28.3450   25.7220   17.0260 C   0  0  0  0  0  0  0  0  0  0  0  0
   27.6010   24.4000   16.9080 C   0  0  0  0  0  0  0  0  0  0  0  0
   26.1500   24.5320   17.2760 C   0  0  0  0  0  0  0  0  0  0  0  0
   26.0070   24.5240   18.7950 C   0  0  0  0  0  0  0  0  0  0  0  0
   25.5210   23.2050   19.2630 N   0  0  0  0  0  0  0  0  0  0  0  0
  1  4  1  0  0  0  0
  1  2  1  0  0  0  0
  2 31  1  0  0  0  0
  3  2  2  0  0  0  0
  5  1  1  0  0  0  0
  6  5  1  1  0  0  0
  7 27  1  6  0  0  0
  7  6  1  0  0  0  0
  8  7  1  1  0  0  0
  8 11  1  0  0  0  0
  9 11  1  0  0  0  0
  9 16  1  1  0  0  0
  9 14  1  0  0  0  0
 10  9  1  0  0  0  0
 12 20  1  1  0  0  0
 12 13  1  0  0  0  0
 12 10  1  0  0  0  0
 13 22  1  6  0  0  0
 13  8  1  0  0  0  0
 14 15  1  0  0  0  0
 16 18  1  0  0  0  0
 17 16  2  0  0  0  0
 18 19  1  0  0  0  0
 21 20  1  0  0  0  0
 22 23  1  0  0  0  0
 23 26  2  0  0  0  0
 24 22  1  0  0  0  0
 25 23  1  0  0  0  0
 27 28  1  0  0  0  0
 29  6  1  0  0  0  0
 29 30  1  0  0  0  0
 31 32  1  0  0  0  0
 32 33  1  0  0  0  0
 33 34  2  0  0  0  0
 33 35  1  0  0  0  0
 34 36  1  0  0  0  0
 35 37  2  0  0  0  0
 36 37  1  0  0  0  0
 36 38  1  0  0  0  0
 39 38  1  0  0  0  0
 40 41  2  0  0  0  0
 40 39  1  0  0  0  0
 42 43  1  0  0  0  0
 42 40  1  0  0  0  0
 44 45  1  0  0  0  0
 46 45  1  0  0  0  0
 46 47  1  0  0  0  0
 47 48  1  0  0  0  0
 48 49  1  0  0  0  0
M  END
>  <REMARK>
 VINA RESULT:    -4.429      6.326     12.013
 INTER + INTRA:         -13.957
 INTER:                 -10.198
 INTRA:                  -3.760
 UNBOUND:                -5.644
 SMILES CC(=O)N[C@@H]1[C@@H](O)C[C@](O)(C(=O)O)O[C@H]1C(O)[C@H](O)CNC(=O)OCc1cn(CCC(=O)O)nn1
 SMILES IDX 21 1 22 2 23 3 20 5 18 6 16 7 15 8 9 9 8 10 14 11 6 12 5 13
 SMILES IDX 10 14 11 16 12 17 13 18 7 20 4 22 2 23 1 25 3 26 17 27 19 29
 SMILES IDX 24 31 25 32 26 33 27 34 35 35 28 36 34 37 29 38 30 39 31 40
 SMILES IDX 32 41 33 42
 H PARENT 21 4 10 15 13 19 7 21 4 24 17 28 19 30 33 43
 Flexibility Score: inf
  4 active torsions:
  status: ('A' for Active; 'I' for Inactive)
    1  A    between atoms: CA   and  CB  
    2  A    between atoms: CB   and  CG  
    3  A    between atoms: CG   and  CD  
    4  A    between atoms: CD   and  CE  

>  <TORSDO>
F 18

>  <BEGIN_>
RES LYS A 131

$$$$
ligand_32_pose_6_2HRL.pdbqt
 OpenBabel07062320523D

  6  5  0  0  0  0  0  0  0  0999 V2000
   33.1930   34.6630    9.2900 C   0  0  0  0  0  0  0  0  0  0  0  0
   32.0600   35.3600   10.0340 C   0  0  0  0  0  0  0  0  0  0  0  0
   32.4090   35.7300   11.4530 C   0  0  0  0  0  0  0  0  0  0  0  0
   31.9090   37.1280   11.7810 C   0  0  0  0  0  0  0  0  0  0  0  0
   30.6550   37.0600   12.6310 C   0  0  0  0  0  0  0  0  0  0  0  0
   30.0270   38.4030   12.7700 N   0  0  0  0  0  0  0  0  0  0  0  0
  1  2  1  0  0  0  0
  2  3  1  0  0  0  0
  3  4  1  0  0  0  0
  4  5  1  0  0  0  0
  5  6  1  0  0  0  0
M  END
>  <EGIN_R>
ES LYS A 135

>  <REMARK>
  4 active torsions:
  status: ('A' for Active; 'I' for Inactive)
    5  A    between atoms: CA   and  CB  
    6  A    between atoms: CB   and  CG  
    7  A    between atoms: CG   and  CD  
    8  A    between atoms: CD   and  CE  

$$$$
