ligand_49_pose_10_2HRL.pdbqt
 OpenBabel07062320523D

 48 49  0  0  1  0  0  0  0  0999 V2000
   27.8150   36.0720   18.4430 C   0  0  0  0  0  0  0  0  0  0  0  0
   27.8190   35.1660   17.2430 C   0  0  2  0  0  0  0  0  0  0  0  0
   27.3730   33.8040   17.7350 C   0  0  1  0  0  0  0  0  0  0  0  0
   28.4350   32.7620   17.5830 C   0  0  2  0  0  0  0  0  0  0  0  0
   29.3890   31.3860   15.9800 C   0  0  2  0  0  0  0  0  0  0  0  0
   30.1930   30.9600   17.1980 C   0  0  0  0  0  0  0  0  0  0  0  0
   28.2420   32.0470   16.4240 O   0  0  0  0  0  0  0  0  0  0  0  0
   29.1970   30.5560   18.2650 C   0  0  1  0  0  0  0  0  0  0  0  0
   28.5570   31.8450   18.7670 C   0  0  1  0  0  0  0  0  0  0  0  0
   29.0570   30.2220   15.2970 O   0  0  0  0  0  0  0  0  0  0  0  0
   28.5000   30.4970   14.5050 H   0  0  0  0  0  0  0  0  0  0  0  0
   30.1600   32.2590   15.0860 C   0  0  0  0  0  0  0  0  0  0  0  0
   29.6150   33.1950   14.4510 O   0  0  0  0  0  0  0  0  0  0  0  0
   31.5220   32.0720   14.9160 O   0  0  0  0  0  0  0  0  0  0  0  0
   31.9050   31.3240   14.3220 H   0  0  0  0  0  0  0  0  0  0  0  0
   28.2220   29.7670   17.6320 O   0  0  0  0  0  0  0  0  0  0  0  0
   27.3500   30.2220   17.7670 H   0  0  0  0  0  0  0  0  0  0  0  0
   29.3960   32.4030   19.8090 N   0  0  0  0  0  0  0  0  0  0  0  0
   29.4180   31.8400   21.1040 C   0  0  0  0  0  0  0  0  0  0  0  0
   29.9910   33.2270   19.6100 H   0  0  0  0  0  0  0  0  0  0  0  0
   30.2510   32.3600   22.2150 C   0  0  0  0  0  0  0  0  0  0  0  0
   28.6920   30.8440   21.3260 O   0  0  0  0  0  0  0  0  0  0  0  0
   27.1020   33.9440   19.0970 O   0  0  0  0  0  0  0  0  0  0  0  0
   26.1490   33.9180   19.3130 H   0  0  0  0  0  0  0  0  0  0  0  0
   29.0660   35.0710   16.6710 O   0  0  0  0  0  0  0  0  0  0  0  0
   29.5850   35.8950   16.8730 H   0  0  0  0  0  0  0  0  0  0  0  0
   29.0960   36.3940   18.9870 N   0  0  0  0  0  0  0  0  0  0  0  0
   29.5960   35.9800   20.2260 C   0  0  0  0  0  0  0  0  0  0  0  0
   29.7230   37.0120   18.3780 H   0  0  0  0  0  0  0  0  0  0  0  0
   28.8980   35.2630   20.9780 O   0  0  0  0  0  0  0  0  0  0  0  0
   30.8860   36.3640   20.6370 O   0  0  0  0  0  0  0  0  0  0  0  0
   31.9350   35.4360   20.4330 C   0  0  0  0  0  0  0  0  0  0  0  0
   32.0380   35.1620   18.9830 C   0  0  0  0  0  0  0  0  0  0  0  0
   32.7170   35.9820   18.0920 C   0  0  0  0  0  0  0  0  0  0  0  0
   31.5500   34.1620   18.2590 N   0  0  0  0  0  0  0  0  0  0  0  0
   32.6080   35.4400   16.8790 N   0  0  0  0  0  0  0  0  0  0  0  0
   31.8960   34.3360   16.9940 N   0  0  0  0  0  0  0  0  0  0  0  0
   33.1960   36.0210   15.6770 C   0  0  0  0  0  0  0  0  0  0  0  0
   33.4370   34.9030   14.7030 C   0  0  0  0  0  0  0  0  0  0  0  0
   32.1890   36.9550   15.0430 C   0  0  0  0  0  0  0  0  0  0  0  0
   32.7080   35.2620   13.4480 C   0  0  0  0  0  0  0  0  0  0  0  0
   31.5800   36.1380   13.9190 C   0  0  0  0  0  0  0  0  0  0  0  0
   29.8670   25.5550   16.9770 C   0  0  0  0  0  0  0  0  0  0  0  0
   28.3450   25.7220   17.0260 C   0  0  0  0  0  0  0  0  0  0  0  0
   27.6040   24.3940   17.0070 C   0  0  0  0  0  0  0  0  0  0  0  0
   26.1750   24.5360   17.4520 C   0  0  0  0  0  0  0  0  0  0  0  0
   25.5010   23.1680   17.4460 C   0  0  0  0  0  0  0  0  0  0  0  0
   24.1110   23.2760   16.9450 N   0  0  0  0  0  0  0  0  0  0  0  0
  1 27  1  0  0  0  0
  2  3  1  0  0  0  0
  2  1  1  1  0  0  0
  3 23  1  1  0  0  0
  4  3  1  1  0  0  0
  4  9  1  0  0  0  0
  5 12  1  6  0  0  0
  5  7  1  0  0  0  0
  5  6  1  0  0  0  0
  6  8  1  0  0  0  0
  7  4  1  0  0  0  0
  8 16  1  6  0  0  0
  8  9  1  0  0  0  0
  9 18  1  1  0  0  0
 10  5  1  0  0  0  0
 11 10  1  0  0  0  0
 13 12  2  0  0  0  0
 14 12  1  0  0  0  0
 15 14  1  0  0  0  0
 16 17  1  0  0  0  0
 18 19  1  0  0  0  0
 19 22  2  0  0  0  0
 19 21  1  0  0  0  0
 20 18  1  0  0  0  0
 23 24  1  0  0  0  0
 25 26  1  0  0  0  0
 25  2  1  0  0  0  0
 27 28  1  0  0  0  0
 28 31  1  0  0  0  0
 28 30  2  0  0  0  0
 29 27  1  0  0  0  0
 32 31  1  0  0  0  0
 33 32  1  0  0  0  0
 34 33  2  0  0  0  0
 35 33  1  0  0  0  0
 36 37  1  0  0  0  0
 36 34  1  0  0  0  0
 37 35  2  0  0  0  0
 38 36  1  0  0  0  0
 39 38  1  0  0  0  0
 40 38  1  0  0  0  0
 41 42  1  0  0  0  0
 41 39  1  0  0  0  0
 42 40  1  0  0  0  0
 43 44  1  0  0  0  0
 45 44  1  0  0  0  0
 45 46  1  0  0  0  0
 47 46  1  0  0  0  0
 48 47  1  0  0  0  0
M  END
>  <REMARK>
 VINA RESULT:    -4.991      3.302      6.340
 INTER + INTRA:         -13.665
 INTER:                  -6.646
 INTRA:                  -7.019
 UNBOUND:                -5.026
 SMILES CC(=O)N[C@@H]1[C@@H](O)C[C@](O)(C(=O)O)O[C@H]1C(O)[C@H](O)CNC(=O)OCc1cn(C2CCCC2)nn1
 SMILES IDX 20 1 18 2 16 3 15 4 9 5 8 6 14 7 6 8 5 9 10 10 11 12 12 13
 SMILES IDX 13 14 7 16 4 18 2 19 1 21 3 22 17 23 19 25 21 27 22 28 23 30
 SMILES IDX 24 31 25 32 26 33 27 34 35 35 28 36 34 37 29 38 30 39 33 40
 SMILES IDX 31 41 32 42
 H PARENT 10 11 13 15 7 17 4 20 17 24 19 26 21 29
 Flexibility Score: inf
  4 active torsions:
  status: ('A' for Active; 'I' for Inactive)
    1  A    between atoms: CA   and  CB  
    2  A    between atoms: CB   and  CG  
    3  A    between atoms: CG   and  CD  
    4  A    between atoms: CD   and  CE  

>  <TORSDO>
F 15

>  <BEGIN_>
RES LYS A 131

$$$$
ligand_49_pose_10_2HRL.pdbqt
 OpenBabel07062320523D

  6  5  0  0  0  0  0  0  0  0999 V2000
   33.1930   34.6630    9.2900 C   0  0  0  0  0  0  0  0  0  0  0  0
   32.0600   35.3600   10.0340 C   0  0  0  0  0  0  0  0  0  0  0  0
   30.6880   34.9160    9.5960 C   0  0  0  0  0  0  0  0  0  0  0  0
   29.9690   36.0390    8.8640 C   0  0  0  0  0  0  0  0  0  0  0  0
   29.0100   35.4740    7.8330 C   0  0  0  0  0  0  0  0  0  0  0  0
   28.0360   34.5400    8.4620 N   0  0  0  0  0  0  0  0  0  0  0  0
  1  2  1  0  0  0  0
  3  2  1  0  0  0  0
  4  3  1  0  0  0  0
  5  6  1  0  0  0  0
  5  4  1  0  0  0  0
M  END
>  <EGIN_R>
ES LYS A 135

>  <REMARK>
  4 active torsions:
  status: ('A' for Active; 'I' for Inactive)
    5  A    between atoms: CA   and  CB  
    6  A    between atoms: CB   and  CG  
    7  A    between atoms: CG   and  CD  
    8  A    between atoms: CD   and  CE  

$$$$
