ligand_61_pose_11_2HRL.pdbqt
 OpenBabel07062320523D

 49 50  0  0  1  0  0  0  0  0999 V2000
   26.3900   28.5310   17.4390 N   0  0  0  0  0  0  0  0  0  0  0  0
   25.6030   29.3910   16.6410 C   0  0  0  0  0  0  0  0  0  0  0  0
   24.3560   29.3550   16.7520 O   0  0  0  0  0  0  0  0  0  0  0  0
   27.4470   28.6080   17.3040 H   0  0  0  0  0  0  0  0  0  0  0  0
   25.8610   27.5840   18.3960 C   0  0  0  0  0  0  0  0  0  0  0  0
   26.3210   27.9670   19.7650 C   0  0  2  0  0  0  0  0  0  0  0  0
   27.4540   27.1150   20.2970 C   0  0  2  0  0  0  0  0  0  0  0  0
   28.3490   27.9650   21.1360 C   0  0  2  0  0  0  0  0  0  0  0  0
   30.5400   28.6220   21.4690 C   0  0  2  0  0  0  0  0  0  0  0  0
   29.9440   29.3380   22.6570 C   0  0  0  0  0  0  0  0  0  0  0  0
   29.5860   28.1970   20.5660 O   0  0  0  0  0  0  0  0  0  0  0  0
   28.9680   28.5040   23.4190 C   0  0  1  0  0  0  0  0  0  0  0  0
   28.5200   27.3590   22.5360 C   0  0  1  0  0  0  0  0  0  0  0  0
   31.4160   27.6060   21.8580 O   0  0  0  0  0  0  0  0  0  0  0  0
   30.9340   26.7490   21.8950 H   0  0  0  0  0  0  0  0  0  0  0  0
   31.3800   29.6450   20.7470 C   0  0  0  0  0  0  0  0  0  0  0  0
   32.3950   30.1550   21.2380 O   0  0  0  0  0  0  0  0  0  0  0  0
   31.0020   30.0410   19.4660 O   0  0  0  0  0  0  0  0  0  0  0  0
   30.2130   30.6490   19.2850 H   0  0  0  0  0  0  0  0  0  0  0  0
   29.4280   28.0790   24.6470 O   0  0  0  0  0  0  0  0  0  0  0  0
   28.7200   27.5770   25.1570 H   0  0  0  0  0  0  0  0  0  0  0  0
   27.2800   26.7710   22.9720 N   0  0  0  0  0  0  0  0  0  0  0  0
   27.2720   25.6460   23.8580 C   0  0  0  0  0  0  0  0  0  0  0  0
   26.3520   27.1350   22.6640 H   0  0  0  0  0  0  0  0  0  0  0  0
   26.0550   24.9930   24.3460 C   0  0  0  0  0  0  0  0  0  0  0  0
   28.3950   25.1840   24.2490 O   0  0  0  0  0  0  0  0  0  0  0  0
   28.1470   26.6430   19.1820 O   0  0  0  0  0  0  0  0  0  0  0  0
   28.4810   25.7300   19.3640 H   0  0  0  0  0  0  0  0  0  0  0  0
   25.2390   27.7750   20.6400 O   0  0  0  0  0  0  0  0  0  0  0  0
   25.4960   27.8520   21.5840 H   0  0  0  0  0  0  0  0  0  0  0  0
   26.2310   30.2730   15.7380 O   0  0  0  0  0  0  0  0  0  0  0  0
   26.6630   31.5050   16.3010 C   0  0  0  0  0  0  0  0  0  0  0  0
   28.1320   31.4960   16.3440 C   0  0  0  0  0  0  0  0  0  0  0  0
   29.0120   32.2130   15.5490 C   0  0  0  0  0  0  0  0  0  0  0  0
   28.8940   30.7690   17.1900 N   0  0  0  0  0  0  0  0  0  0  0  0
   30.2450   31.8810   15.9540 N   0  0  0  0  0  0  0  0  0  0  0  0
   30.1810   31.0110   16.9440 N   0  0  0  0  0  0  0  0  0  0  0  0
   31.4640   32.3960   15.3950 C   0  0  0  0  0  0  0  0  0  0  0  0
   31.6580   33.8600   15.7900 C   0  0  0  0  0  0  0  0  0  0  0  0
   31.8310   34.2300   17.0530 C   0  0  0  0  0  0  0  0  0  0  0  0
   31.6490   34.8030   14.7870 C   0  0  0  0  0  0  0  0  0  0  0  0
   32.0020   35.5530   17.3600 C   0  0  0  0  0  0  0  0  0  0  0  0
   31.9110   36.3420   15.7400 S   0  0  0  0  0  0  0  0  0  0  0  0
   29.8670   25.5550   16.9770 C   0  0  0  0  0  0  0  0  0  0  0  0
   28.3450   25.7220   17.0260 C   0  0  0  0  0  0  0  0  0  0  0  0
   27.5990   24.4490   16.6580 C   0  0  0  0  0  0  0  0  0  0  0  0
   27.0310   23.7560   17.8650 C   0  0  0  0  0  0  0  0  0  0  0  0
   25.6270   23.2510   17.5490 C   0  0  0  0  0  0  0  0  0  0  0  0
   24.7900   24.3490   17.0090 N   0  0  0  0  0  0  0  0  0  0  0  0
  1  5  1  0  0  0  0
  2  3  2  0  0  0  0
  2  1  1  0  0  0  0
  4  1  1  0  0  0  0
  6  5  1  6  0  0  0
  6  7  1  0  0  0  0
  6 29  1  0  0  0  0
  7 27  1  6  0  0  0
  8  7  1  6  0  0  0
  8 13  1  0  0  0  0
  9 16  1  6  0  0  0
  9 14  1  0  0  0  0
  9 10  1  0  0  0  0
 10 12  1  0  0  0  0
 11  8  1  0  0  0  0
 11  9  1  0  0  0  0
 12 20  1  1  0  0  0
 13 22  1  1  0  0  0
 13 12  1  0  0  0  0
 14 15  1  0  0  0  0
 16 17  2  0  0  0  0
 18 16  1  0  0  0  0
 19 18  1  0  0  0  0
 20 21  1  0  0  0  0
 22 23  1  0  0  0  0
 23 26  2  0  0  0  0
 23 25  1  0  0  0  0
 24 22  1  0  0  0  0
 27 28  1  0  0  0  0
 29 30  1  0  0  0  0
 31 32  1  0  0  0  0
 31  2  1  0  0  0  0
 32 33  1  0  0  0  0
 33 35  1  0  0  0  0
 34 36  1  0  0  0  0
 34 33  2  0  0  0  0
 36 37  1  0  0  0  0
 37 35  2  0  0  0  0
 38 39  1  0  0  0  0
 38 36  1  0  0  0  0
 39 40  1  0  0  0  0
 40 42  2  0  0  0  0
 41 43  1  0  0  0  0
 41 39  2  0  0  0  0
 43 42  1  0  0  0  0
 44 45  1  0  0  0  0
 46 45  1  0  0  0  0
 46 47  1  0  0  0  0
 48 47  1  0  0  0  0
 49 48  1  0  0  0  0
M  END
>  <REMARK>
 VINA RESULT:    -4.193      6.900     12.440
 INTER + INTRA:         -13.638
 INTER:                  -7.721
 INTRA:                  -5.917
 UNBOUND:                -6.136
 SMILES CC(=O)N[C@@H]1[C@@H](O)C[C@](O)(C(=O)O)O[C@H]1C(O)[C@H](O)CNC(=O)OCc1cn(Cc2ccsc2)nn1
 SMILES IDX 21 1 22 2 23 3 20 5 18 6 16 7 15 8 9 9 8 10 14 11 6 12 5 13
 SMILES IDX 10 14 11 16 12 17 13 18 7 20 4 22 2 23 1 25 3 26 17 27 19 29
 SMILES IDX 24 31 25 32 26 33 27 34 36 35 28 36 35 37 29 38 30 39 31 40
 SMILES IDX 34 41 32 42 33 43
 H PARENT 21 4 10 15 13 19 7 21 4 24 17 28 19 30
 Flexibility Score: inf
  4 active torsions:
  status: ('A' for Active; 'I' for Inactive)
    1  A    between atoms: CA   and  CB  
    2  A    between atoms: CB   and  CG  
    3  A    between atoms: CG   and  CD  
    4  A    between atoms: CD   and  CE  

>  <TORSDO>
F 16

>  <BEGIN_>
RES LYS A 131

$$$$
ligand_61_pose_11_2HRL.pdbqt
 OpenBabel07062320523D

  6  5  0  0  0  0  0  0  0  0999 V2000
   33.1930   34.6630    9.2900 C   0  0  0  0  0  0  0  0  0  0  0  0
   32.0600   35.3600   10.0340 C   0  0  0  0  0  0  0  0  0  0  0  0
   30.8490   35.6250    9.1770 C   0  0  0  0  0  0  0  0  0  0  0  0
   30.2390   34.3190    8.6920 C   0  0  0  0  0  0  0  0  0  0  0  0
   28.7550   34.4900    8.4310 C   0  0  0  0  0  0  0  0  0  0  0  0
   27.9440   33.7480    9.4360 N   0  0  0  0  0  0  0  0  0  0  0  0
  1  2  1  0  0  0  0
  3  2  1  0  0  0  0
  4  3  1  0  0  0  0
  5  4  1  0  0  0  0
  5  6  1  0  0  0  0
M  END
>  <EGIN_R>
ES LYS A 135

>  <REMARK>
  4 active torsions:
  status: ('A' for Active; 'I' for Inactive)
    5  A    between atoms: CA   and  CB  
    6  A    between atoms: CB   and  CG  
    7  A    between atoms: CG   and  CD  
    8  A    between atoms: CD   and  CE  

$$$$
