ligand_86_pose_10_2HRL.pdbqt
 OpenBabel07062320523D

 52 54  0  0  1  0  0  0  0  0999 V2000
   23.3000   37.4790    9.4600 C   0  0  0  0  0  0  0  0  0  0  0  0
   23.7220   37.1810    8.0630 C   0  0  2  0  0  0  0  0  0  0  0  0
   25.0750   37.7130    7.7080 C   0  0  2  0  0  0  0  0  0  0  0  0
   26.1410   36.6430    7.6990 C   0  0  2  0  0  0  0  0  0  0  0  0
   27.6560   35.5800    9.0860 C   0  0  2  0  0  0  0  0  0  0  0  0
   28.0430   34.9810    7.7600 C   0  0  0  0  0  0  0  0  0  0  0  0
   26.5400   36.3980    9.0050 O   0  0  0  0  0  0  0  0  0  0  0  0
   28.2450   35.9990    6.6790 C   0  0  1  0  0  0  0  0  0  0  0  0
   27.3510   37.1760    6.9580 C   0  0  1  0  0  0  0  0  0  0  0  0
   28.7140   36.2440    9.7020 O   0  0  0  0  0  0  0  0  0  0  0  0
   29.3130   35.6000   10.1490 H   0  0  0  0  0  0  0  0  0  0  0  0
   27.2860   34.4410    9.9860 C   0  0  0  0  0  0  0  0  0  0  0  0
   27.7040   33.2590    9.7440 O   0  0  0  0  0  0  0  0  0  0  0  0
   26.4960   34.5930   11.1010 O   0  0  0  0  0  0  0  0  0  0  0  0
   26.9410   34.9420   11.9590 H   0  0  0  0  0  0  0  0  0  0  0  0
   29.5620   36.3350    6.4690 O   0  0  0  0  0  0  0  0  0  0  0  0
   29.9880   35.5930    5.9640 H   0  0  0  0  0  0  0  0  0  0  0  0
   26.9890   37.9110    5.7720 N   0  0  0  0  0  0  0  0  0  0  0  0
   27.7780   38.9890    5.2690 C   0  0  0  0  0  0  0  0  0  0  0  0
   26.1240   37.6720    5.2370 H   0  0  0  0  0  0  0  0  0  0  0  0
   27.3520   39.7030    4.0480 C   0  0  0  0  0  0  0  0  0  0  0  0
   28.8200   39.2910    5.8960 O   0  0  0  0  0  0  0  0  0  0  0  0
   25.4440   38.6770    8.6470 O   0  0  0  0  0  0  0  0  0  0  0  0
   25.4920   38.3140    9.5490 H   0  0  0  0  0  0  0  0  0  0  0  0
   22.7930   37.7000    7.1310 O   0  0  0  0  0  0  0  0  0  0  0  0
   22.1530   38.2370    7.6780 H   0  0  0  0  0  0  0  0  0  0  0  0
   23.9300   36.6090   10.4240 N   0  0  0  0  0  0  0  0  0  0  0  0
   23.2080   35.5110   10.9600 C   0  0  0  0  0  0  0  0  0  0  0  0
   24.9150   36.7460   10.7560 H   0  0  0  0  0  0  0  0  0  0  0  0
   22.0180   35.2450   10.6380 O   0  0  0  0  0  0  0  0  0  0  0  0
   23.7690   34.6380   11.8930 O   0  0  0  0  0  0  0  0  0  0  0  0
   23.0520   33.5550   12.4510 C   0  0  0  0  0  0  0  0  0  0  0  0
   23.9490   32.7450   13.3190 C   0  0  0  0  0  0  0  0  0  0  0  0
   24.6680   33.2330   14.3900 C   0  0  0  0  0  0  0  0  0  0  0  0
   24.2420   31.4350   13.2630 N   0  0  0  0  0  0  0  0  0  0  0  0
   25.3760   32.2150   14.9530 N   0  0  0  0  0  0  0  0  0  0  0  0
   25.0810   31.1480   14.2300 N   0  0  0  0  0  0  0  0  0  0  0  0
   26.2670   32.2940   16.1070 C   0  0  2  0  0  0  0  0  0  0  0  0
   27.5460   32.9000   15.6610 C   0  0  0  0  0  0  0  0  0  0  0  0
   26.3740   30.9310   16.6930 C   0  0  0  0  0  0  0  0  0  0  0  0
   28.7650   32.4190   16.3640 C   0  0  1  0  0  0  0  0  0  0  0  0
   27.7790   30.5180   17.0460 C   0  0  2  0  0  0  0  0  0  0  0  0
   28.4510   31.6920   17.5730 N   0  0  0  0  0  0  0  0  0  0  0  0
   29.4090   31.3410   15.5050 C   0  0  0  0  0  0  0  0  0  0  0  0
   28.4960   30.1610   15.7690 C   0  0  0  0  0  0  0  0  0  0  0  0
   29.6620   31.3550   18.2790 C   0  0  0  0  0  0  0  0  0  0  0  0
   29.8670   25.5550   16.9770 C   0  0  0  0  0  0  0  0  0  0  0  0
   28.3450   25.7220   17.0260 C   0  0  0  0  0  0  0  0  0  0  0  0
   27.6010   24.4050   16.8670 C   0  0  0  0  0  0  0  0  0  0  0  0
   26.1510   24.5240   17.2490 C   0  0  0  0  0  0  0  0  0  0  0  0
   25.9610   25.7390   18.1520 C   0  0  0  0  0  0  0  0  0  0  0  0
   24.7880   26.5320   17.7140 N   0  0  0  0  0  0  0  0  0  0  0  0
  1 27  1  0  0  0  0
  2  1  1  1  0  0  0
  3  2  1  0  0  0  0
  3 23  1  1  0  0  0
  4  3  1  1  0  0  0
  4  7  1  0  0  0  0
  5 10  1  1  0  0  0
  5 12  1  0  0  0  0
  6  5  1  0  0  0  0
  7  5  1  0  0  0  0
  8 16  1  1  0  0  0
  8  9  1  0  0  0  0
  8  6  1  0  0  0  0
  9 18  1  6  0  0  0
  9  4  1  0  0  0  0
 10 11  1  0  0  0  0
 12 14  1  0  0  0  0
 13 12  2  0  0  0  0
 14 15  1  0  0  0  0
 17 16  1  0  0  0  0
 19 18  1  0  0  0  0
 19 22  2  0  0  0  0
 20 18  1  0  0  0  0
 21 19  1  0  0  0  0
 23 24  1  0  0  0  0
 25 26  1  0  0  0  0
 25  2  1  0  0  0  0
 27 29  1  0  0  0  0
 27 28  1  0  0  0  0
 28 31  1  0  0  0  0
 30 28  2  0  0  0  0
 31 32  1  0  0  0  0
 32 33  1  0  0  0  0
 33 34  2  0  0  0  0
 34 36  1  0  0  0  0
 35 33  1  0  0  0  0
 35 37  2  0  0  0  0
 37 36  1  0  0  0  0
 38 36  1  6  0  0  0
 38 40  1  0  0  0  0
 39 38  1  0  0  0  0
 39 41  1  0  0  0  0
 40 42  1  0  0  0  0
 41 44  1  6  0  0  0
 41 43  1  0  0  0  0
 42 45  1  6  0  0  0
 42 43  1  0  0  0  0
 43 46  1  0  0  0  0
 44 45  1  0  0  0  0
 47 48  1  0  0  0  0
 49 48  1  0  0  0  0
 49 50  1  0  0  0  0
 50 51  1  0  0  0  0
 52 51  1  0  0  0  0
M  END
>  <REMARK>
 VINA RESULT:    -4.398      5.808     10.862
 INTER + INTRA:         -14.167
 INTER:                  -9.773
 INTRA:                  -4.394
 UNBOUND:                -6.555
 SMILES CC(=O)N[C@@H]1[C@@H](O)C[C@](O)(C(=O)O)O[C@H]1C(O)[C@H](O)CNC(=O)OCc1cn([C@H]2C[C@H]3CC[C@@H](C2)N3C)nn1
 SMILES IDX 20 1 18 2 16 3 15 4 9 5 8 6 14 7 6 8 5 9 10 10 11 12 12 13
 SMILES IDX 13 14 7 16 4 18 2 19 1 21 3 22 17 23 19 25 21 27 22 28 23 30
 SMILES IDX 24 31 25 32 26 33 27 34 39 35 28 36 38 37 29 38 35 39 30 40
 SMILES IDX 34 41 31 42 36 43 33 44 32 45 37 46
 H PARENT 10 11 13 15 7 17 4 20 17 24 19 26 21 29
 Flexibility Score: inf
  4 active torsions:
  status: ('A' for Active; 'I' for Inactive)
    1  A    between atoms: CA   and  CB  
    2  A    between atoms: CB   and  CG  
    3  A    between atoms: CG   and  CD  
    4  A    between atoms: CD   and  CE  

>  <TORSDO>
F 15

>  <BEGIN_>
RES LYS A 131

$$$$
ligand_86_pose_10_2HRL.pdbqt
 OpenBabel07062320523D

  6  5  0  0  0  0  0  0  0  0999 V2000
   33.1930   34.6630    9.2900 C   0  0  0  0  0  0  0  0  0  0  0  0
   32.0600   35.3600   10.0340 C   0  0  0  0  0  0  0  0  0  0  0  0
   32.5350   36.2820   11.1270 C   0  0  0  0  0  0  0  0  0  0  0  0
   32.0920   35.7720   12.4900 C   0  0  0  0  0  0  0  0  0  0  0  0
   30.7280   35.1150   12.3950 C   0  0  0  0  0  0  0  0  0  0  0  0
   30.4820   34.2210   13.5600 N   0  0  0  0  0  0  0  0  0  0  0  0
  1  2  1  0  0  0  0
  2  3  1  0  0  0  0
  3  4  1  0  0  0  0
  5  4  1  0  0  0  0
  5  6  1  0  0  0  0
M  END
>  <EGIN_R>
ES LYS A 135

>  <REMARK>
  4 active torsions:
  status: ('A' for Active; 'I' for Inactive)
    5  A    between atoms: CA   and  CB  
    6  A    between atoms: CB   and  CG  
    7  A    between atoms: CG   and  CD  
    8  A    between atoms: CD   and  CE  

$$$$
