ligand_70_pose_6_2HRL.pdbqt
 OpenBabel07062320523D

 53 55  0  0  1  0  0  0  0  0999 V2000
   25.7290   29.0740   19.8680 C   0  0  0  0  0  0  0  0  0  0  0  0
   27.2280   28.9740   19.9050 C   0  0  2  0  0  0  0  0  0  0  0  0
   27.9210   30.2960   20.0950 C   0  0  1  0  0  0  0  0  0  0  0  0
   29.4140   30.2010   20.2240 C   0  0  2  0  0  0  0  0  0  0  0  0
   30.9530   28.7320   21.1470 C   0  0  2  0  0  0  0  0  0  0  0  0
   32.0440   29.7340   20.8640 C   0  0  0  0  0  0  0  0  0  0  0  0
   29.8530   28.8900   20.3440 O   0  0  0  0  0  0  0  0  0  0  0  0
   31.5200   31.1270   20.9770 C   0  0  1  0  0  0  0  0  0  0  0  0
   29.9960   31.1380   21.2250 C   0  0  1  0  0  0  0  0  0  0  0  0
   30.6740   28.7800   22.5100 O   0  0  0  0  0  0  0  0  0  0  0  0
   31.4630   28.9400   23.0610 H   0  0  0  0  0  0  0  0  0  0  0  0
   31.5200   27.3780   20.8700 C   0  0  0  0  0  0  0  0  0  0  0  0
   31.3160   26.4700   21.7150 O   0  0  0  0  0  0  0  0  0  0  0  0
   32.2530   27.0950   19.7320 O   0  0  0  0  0  0  0  0  0  0  0  0
   32.4750   27.8460   19.0710 H   0  0  0  0  0  0  0  0  0  0  0  0
   32.1620   31.8200   22.0190 O   0  0  0  0  0  0  0  0  0  0  0  0
   31.9750   32.7860   21.9410 H   0  0  0  0  0  0  0  0  0  0  0  0
   29.5040   32.4850   20.9230 N   0  0  0  0  0  0  0  0  0  0  0  0
   29.0030   33.3700   21.9130 C   0  0  0  0  0  0  0  0  0  0  0  0
   29.5120   32.8270   19.9450 H   0  0  0  0  0  0  0  0  0  0  0  0
   28.5030   34.7320   21.5860 C   0  0  0  0  0  0  0  0  0  0  0  0
   28.9670   33.0190   23.1190 O   0  0  0  0  0  0  0  0  0  0  0  0
   27.5580   31.1060   19.0020 O   0  0  0  0  0  0  0  0  0  0  0  0
   28.2410   30.9540   18.3030 H   0  0  0  0  0  0  0  0  0  0  0  0
   27.7120   28.3110   18.7590 O   0  0  0  0  0  0  0  0  0  0  0  0
   27.8170   27.3530   19.0580 H   0  0  0  0  0  0  0  0  0  0  0  0
   25.2940   29.2900   18.5080 N   0  0  0  0  0  0  0  0  0  0  0  0
   24.7530   30.5080   18.0520 C   0  0  0  0  0  0  0  0  0  0  0  0
   25.3650   28.5240   17.7810 H   0  0  0  0  0  0  0  0  0  0  0  0
   24.6150   31.4900   18.8110 O   0  0  0  0  0  0  0  0  0  0  0  0
   24.3390   30.6980   16.7270 O   0  0  0  0  0  0  0  0  0  0  0  0
   25.0650   30.0780   15.6540 C   0  0  0  0  0  0  0  0  0  0  0  0
   26.5130   30.3330   15.8000 C   0  0  0  0  0  0  0  0  0  0  0  0
   27.1940   31.4840   15.5570 C   0  0  0  0  0  0  0  0  0  0  0  0
   27.4010   29.4220   16.2120 N   0  0  0  0  0  0  0  0  0  0  0  0
   28.5030   31.2180   15.8380 N   0  0  0  0  0  0  0  0  0  0  0  0
   28.6050   29.9700   16.2310 N   0  0  0  0  0  0  0  0  0  0  0  0
   29.5800   32.1280   15.7280 C   0  0  0  0  0  0  0  0  0  0  0  0
   30.5370   32.1610   16.7260 C   0  0  0  0  0  0  0  0  0  0  0  0
   29.6520   32.9590   14.6330 C   0  0  0  0  0  0  0  0  0  0  0  0
   31.5590   33.0250   16.6210 N   0  0  0  0  0  0  0  0  0  0  0  0
   30.7190   33.8480   14.5430 C   0  0  0  0  0  0  0  0  0  0  0  0
   31.6610   33.8620   15.5510 C   0  0  0  0  0  0  0  0  0  0  0  0
   30.8160   34.6820   13.4710 C   0  0  0  0  0  0  0  0  0  0  0  0
   32.7200   34.7420   15.4640 C   0  0  0  0  0  0  0  0  0  0  0  0
   31.8830   35.5740   13.3760 C   0  0  0  0  0  0  0  0  0  0  0  0
   32.8280   35.5970   14.3740 C   0  0  0  0  0  0  0  0  0  0  0  0
   29.8670   25.5550   16.9770 C   0  0  0  0  0  0  0  0  0  0  0  0
   28.3450   25.7220   17.0260 C   0  0  0  0  0  0  0  0  0  0  0  0
   27.5990   24.4220   16.7670 C   0  0  0  0  0  0  0  0  0  0  0  0
   26.8030   23.9780   17.9620 C   0  0  0  0  0  0  0  0  0  0  0  0
   25.3420   23.7970   17.5620 C   0  0  0  0  0  0  0  0  0  0  0  0
   24.7160   25.1100   17.2750 N   0  0  0  0  0  0  0  0  0  0  0  0
  2  1  1  6  0  0  0
  2  3  1  0  0  0  0
  3 23  1  6  0  0  0
  4  3  1  1  0  0  0
  4  7  1  0  0  0  0
  4  9  1  0  0  0  0
  5 12  1  6  0  0  0
  5 10  1  0  0  0  0
  6  8  1  0  0  0  0
  6  5  1  0  0  0  0
  7  5  1  0  0  0  0
  8  9  1  0  0  0  0
  8 16  1  1  0  0  0
  9 18  1  6  0  0  0
 10 11  1  0  0  0  0
 12 13  2  0  0  0  0
 14 12  1  0  0  0  0
 15 14  1  0  0  0  0
 17 16  1  0  0  0  0
 18 19  1  0  0  0  0
 19 22  2  0  0  0  0
 20 18  1  0  0  0  0
 21 19  1  0  0  0  0
 24 23  1  0  0  0  0
 25 26  1  0  0  0  0
 25  2  1  0  0  0  0
 27  1  1  0  0  0  0
 28 27  1  0  0  0  0
 28 30  2  0  0  0  0
 29 27  1  0  0  0  0
 31 28  1  0  0  0  0
 32 33  1  0  0  0  0
 32 31  1  0  0  0  0
 33 35  1  0  0  0  0
 34 33  2  0  0  0  0
 34 36  1  0  0  0  0
 35 37  2  0  0  0  0
 36 37  1  0  0  0  0
 38 36  1  0  0  0  0
 38 39  2  0  0  0  0
 40 38  1  0  0  0  0
 41 39  1  0  0  0  0
 42 40  2  0  0  0  0
 42 43  1  0  0  0  0
 43 41  2  0  0  0  0
 44 42  1  0  0  0  0
 45 43  1  0  0  0  0
 46 44  2  0  0  0  0
 46 47  1  0  0  0  0
 47 45  2  0  0  0  0
 48 49  1  0  0  0  0
 50 49  1  0  0  0  0
 50 51  1  0  0  0  0
 52 51  1  0  0  0  0
 53 52  1  0  0  0  0
M  END
>  <REMARK>
 VINA RESULT:    -6.065      2.174      3.263
 INTER + INTRA:         -15.029
 INTER:                  -8.492
 INTRA:                  -6.537
 UNBOUND:                -4.533
 SMILES CC(=O)N[C@@H]1[C@@H](O)C[C@](O)(C(=O)O)O[C@H]1C(O)[C@H](O)CNC(=O)OCc1cn(-c2cnc3ccccc3c2)nn1
 SMILES IDX 20 1 18 2 16 3 15 4 9 5 8 6 14 7 6 8 5 9 10 10 11 12 12 13
 SMILES IDX 13 14 7 16 4 18 2 19 1 21 3 22 17 23 19 25 21 27 22 28 23 30
 SMILES IDX 24 31 25 32 26 33 27 34 40 35 28 36 39 37 29 38 30 39 38 40
 SMILES IDX 31 41 37 42 32 43 36 44 33 45 35 46 34 47
 H PARENT 10 11 13 15 7 17 4 20 17 24 19 26 21 29
 Flexibility Score: inf
  4 active torsions:
  status: ('A' for Active; 'I' for Inactive)
    1  A    between atoms: CA   and  CB  
    2  A    between atoms: CB   and  CG  
    3  A    between atoms: CG   and  CD  
    4  A    between atoms: CD   and  CE  

>  <TORSDO>
F 15

>  <BEGIN_>
RES LYS A 131

$$$$
ligand_70_pose_6_2HRL.pdbqt
 OpenBabel07062320523D

  6  5  0  0  0  0  0  0  0  0999 V2000
   33.1930   34.6630    9.2900 C   0  0  0  0  0  0  0  0  0  0  0  0
   32.0600   35.3600   10.0340 C   0  0  0  0  0  0  0  0  0  0  0  0
   30.7140   34.7150    9.8240 C   0  0  0  0  0  0  0  0  0  0  0  0
   30.2440   34.9100    8.3910 C   0  0  0  0  0  0  0  0  0  0  0  0
   28.7940   34.4900    8.2440 C   0  0  0  0  0  0  0  0  0  0  0  0
   28.2040   34.1290    9.5630 N   0  0  0  0  0  0  0  0  0  0  0  0
  1  2  1  0  0  0  0
  3  2  1  0  0  0  0
  4  3  1  0  0  0  0
  5  4  1  0  0  0  0
  5  6  1  0  0  0  0
M  END
>  <EGIN_R>
ES LYS A 135

>  <REMARK>
  4 active torsions:
  status: ('A' for Active; 'I' for Inactive)
    5  A    between atoms: CA   and  CB  
    6  A    between atoms: CB   and  CG  
    7  A    between atoms: CG   and  CD  
    8  A    between atoms: CD   and  CE  

$$$$
