ligand_38_pose_2_2HRL.pdbqt
 OpenBabel07062320523D

 51 52  0  0  1  0  0  0  0  0999 V2000
   30.9060   39.2780   10.8360 N   0  0  0  0  0  0  0  0  0  0  0  0
   30.4380   40.1400   11.8560 C   0  0  0  0  0  0  0  0  0  0  0  0
   30.3160   41.3900   11.6450 O   0  0  0  0  0  0  0  0  0  0  0  0
   30.9900   38.2620   11.0520 H   0  0  0  0  0  0  0  0  0  0  0  0
   31.2330   39.8740    9.5690 C   0  0  0  0  0  0  0  0  0  0  0  0
   30.7700   38.9890    8.4020 C   0  0  2  0  0  0  0  0  0  0  0  0
   29.2950   38.8630    8.5530 C   0  0  2  0  0  0  0  0  0  0  0  0
   28.7410   37.4690    8.5170 C   0  0  2  0  0  0  0  0  0  0  0  0
   29.1160   35.5400    7.2550 C   0  0  2  0  0  0  0  0  0  0  0  0
   27.6570   35.1910    7.4800 C   0  0  0  0  0  0  0  0  0  0  0  0
   29.2900   36.8980    7.3640 O   0  0  0  0  0  0  0  0  0  0  0  0
   26.7920   36.4410    7.4610 C   0  0  1  0  0  0  0  0  0  0  0  0
   27.2700   37.3400    8.6170 C   0  0  1  0  0  0  0  0  0  0  0  0
   29.3640   35.2380    5.8980 O   0  0  0  0  0  0  0  0  0  0  0  0
   29.2350   36.0150    5.3210 H   0  0  0  0  0  0  0  0  0  0  0  0
   30.0240   34.7210    8.0620 C   0  0  0  0  0  0  0  0  0  0  0  0
   29.5690   33.9690    8.9560 O   0  0  0  0  0  0  0  0  0  0  0  0
   31.4000   34.7280    7.8910 O   0  0  0  0  0  0  0  0  0  0  0  0
   31.9710   35.2490    8.5280 H   0  0  0  0  0  0  0  0  0  0  0  0
   26.8480   37.0780    6.2490 O   0  0  0  0  0  0  0  0  0  0  0  0
   27.3440   36.4880    5.5980 H   0  0  0  0  0  0  0  0  0  0  0  0
   26.8710   36.6030    9.8230 N   0  0  0  0  0  0  0  0  0  0  0  0
   25.6090   36.8170   10.4390 C   0  0  0  0  0  0  0  0  0  0  0  0
   27.4900   35.8970   10.2790 H   0  0  0  0  0  0  0  0  0  0  0  0
   25.2220   36.0510   11.6780 C   0  0  0  0  0  0  0  0  0  0  0  0
   24.7890   37.6320    9.9870 O   0  0  0  0  0  0  0  0  0  0  0  0
   28.7350   39.5040    7.4160 O   0  0  0  0  0  0  0  0  0  0  0  0
   27.8060   39.7400    7.6950 H   0  0  0  0  0  0  0  0  0  0  0  0
   31.4670   37.7920    8.5390 O   0  0  0  0  0  0  0  0  0  0  0  0
   32.2170   37.7960    7.9060 H   0  0  0  0  0  0  0  0  0  0  0  0
   30.0880   39.6970   13.1230 O   0  0  0  0  0  0  0  0  0  0  0  0
   28.7920   39.2400   13.4640 C   0  0  0  0  0  0  0  0  0  0  0  0
   28.6680   37.7700   13.2720 C   0  0  0  0  0  0  0  0  0  0  0  0
   28.3150   36.8370   14.2530 C   0  0  0  0  0  0  0  0  0  0  0  0
   28.8580   37.0420   12.1570 N   0  0  0  0  0  0  0  0  0  0  0  0
   28.3100   35.6200   13.6980 N   0  0  0  0  0  0  0  0  0  0  0  0
   28.6410   35.7710   12.4290 N   0  0  0  0  0  0  0  0  0  0  0  0
   28.0090   34.3480   14.3150 C   0  0  0  0  0  0  0  0  0  0  0  0
   29.1650   33.8860   15.1250 C   0  0  0  0  0  0  0  0  0  0  0  0
   30.1310   33.0640   14.5860 C   0  0  0  0  0  0  0  0  0  0  0  0
   29.2880   34.2750   16.4300 C   0  0  0  0  0  0  0  0  0  0  0  0
   31.2190   32.6280   15.3460 C   0  0  0  0  0  0  0  0  0  0  0  0
   30.3690   33.8460   17.1990 C   0  0  0  0  0  0  0  0  0  0  0  0
   31.3370   33.0200   16.6520 C   0  0  0  0  0  0  0  0  0  0  0  0
   30.5040   34.4070   19.0080 Br  0  0  0  0  0  0  0  0  0  0  0  0
   29.8670   25.5550   16.9770 C   0  0  0  0  0  0  0  0  0  0  0  0
   28.3450   25.7220   17.0260 C   0  0  0  0  0  0  0  0  0  0  0  0
   27.6010   24.4020   16.8900 C   0  0  0  0  0  0  0  0  0  0  0  0
   26.1520   24.5270   17.2720 C   0  0  0  0  0  0  0  0  0  0  0  0
   25.6380   23.1790   17.7670 C   0  0  0  0  0  0  0  0  0  0  0  0
   25.5160   23.1820   19.2440 N   0  0  0  0  0  0  0  0  0  0  0  0
  1  4  1  0  0  0  0
  1  2  1  0  0  0  0
  2 31  1  0  0  0  0
  3  2  2  0  0  0  0
  5  1  1  0  0  0  0
  6 29  1  0  0  0  0
  6  7  1  0  0  0  0
  6  5  1  1  0  0  0
  7 27  1  6  0  0  0
  8  7  1  6  0  0  0
  8 13  1  0  0  0  0
  9 14  1  6  0  0  0
  9 11  1  0  0  0  0
  9 10  1  0  0  0  0
  9 16  1  0  0  0  0
 11  8  1  0  0  0  0
 12 20  1  6  0  0  0
 12 10  1  0  0  0  0
 12 13  1  0  0  0  0
 13 22  1  1  0  0  0
 15 14  1  0  0  0  0
 16 17  2  0  0  0  0
 18 16  1  0  0  0  0
 18 19  1  0  0  0  0
 21 20  1  0  0  0  0
 22 24  1  0  0  0  0
 22 23  1  0  0  0  0
 23 25  1  0  0  0  0
 26 23  2  0  0  0  0
 27 28  1  0  0  0  0
 30 29  1  0  0  0  0
 31 32  1  0  0  0  0
 33 32  1  0  0  0  0
 33 34  2  0  0  0  0
 35 37  2  0  0  0  0
 35 33  1  0  0  0  0
 36 34  1  0  0  0  0
 36 38  1  0  0  0  0
 37 36  1  0  0  0  0
 38 39  1  0  0  0  0
 39 41  1  0  0  0  0
 40 39  2  0  0  0  0
 40 42  1  0  0  0  0
 41 43  2  0  0  0  0
 42 44  2  0  0  0  0
 43 45  1  0  0  0  0
 44 43  1  0  0  0  0
 46 47  1  0  0  0  0
 48 47  1  0  0  0  0
 48 49  1  0  0  0  0
 49 50  1  0  0  0  0
 50 51  1  0  0  0  0
M  END
>  <REMARK>
 VINA RESULT:    -4.949      5.477      8.733
 INTER + INTRA:         -15.149
 INTER:                 -10.358
 INTRA:                  -4.791
 UNBOUND:                -6.295
 SMILES CC(=O)N[C@@H]1[C@@H](O)C[C@](O)(C(=O)O)O[C@H]1C(O)[C@H](O)CNC(=O)OCc1cn(Cc2cccc(Br)c2)nn1
 SMILES IDX 21 1 22 2 23 3 20 5 18 6 16 7 15 8 9 9 8 10 14 11 6 12 5 13
 SMILES IDX 10 14 11 16 12 17 13 18 7 20 4 22 2 23 1 25 3 26 17 27 19 29
 SMILES IDX 24 31 25 32 26 33 27 34 38 35 28 36 37 37 29 38 30 39 31 40
 SMILES IDX 36 41 32 42 34 43 33 44 35 45
 H PARENT 21 4 10 15 13 19 7 21 4 24 17 28 19 30
 Flexibility Score: inf
  4 active torsions:
  status: ('A' for Active; 'I' for Inactive)
    1  A    between atoms: CA   and  CB  
    2  A    between atoms: CB   and  CG  
    3  A    between atoms: CG   and  CD  
    4  A    between atoms: CD   and  CE  

>  <TORSDO>
F 16

>  <BEGIN_>
RES LYS A 131

$$$$
ligand_38_pose_2_2HRL.pdbqt
 OpenBabel07062320523D

  6  5  0  0  0  0  0  0  0  0999 V2000
   33.1930   34.6630    9.2900 C   0  0  0  0  0  0  0  0  0  0  0  0
   32.0600   35.3600   10.0340 C   0  0  0  0  0  0  0  0  0  0  0  0
   32.5040   36.0490   11.2990 C   0  0  0  0  0  0  0  0  0  0  0  0
   31.9640   35.3240   12.5220 C   0  0  0  0  0  0  0  0  0  0  0  0
   32.7590   35.7000   13.7580 C   0  0  0  0  0  0  0  0  0  0  0  0
   31.8800   36.3000   14.7990 N   0  0  0  0  0  0  0  0  0  0  0  0
  1  2  1  0  0  0  0
  2  3  1  0  0  0  0
  3  4  1  0  0  0  0
  4  5  1  0  0  0  0
  5  6  1  0  0  0  0
M  END
>  <EGIN_R>
ES LYS A 135

>  <REMARK>
  4 active torsions:
  status: ('A' for Active; 'I' for Inactive)
    5  A    between atoms: CA   and  CB  
    6  A    between atoms: CB   and  CG  
    7  A    between atoms: CG   and  CD  
    8  A    between atoms: CD   and  CE  

$$$$
