ligand_14_pose_7_2HRL.pdbqt
 OpenBabel07062320523D

 50 51  0  0  1  0  0  0  0  0999 V2000
   26.4130   28.4220   17.2550 N   0  0  0  0  0  0  0  0  0  0  0  0
   26.1140   29.6620   16.6630 C   0  0  0  0  0  0  0  0  0  0  0  0
   25.0460   30.2380   16.9120 O   0  0  0  0  0  0  0  0  0  0  0  0
   27.3620   28.0100   16.9590 H   0  0  0  0  0  0  0  0  0  0  0  0
   25.6010   27.6920   18.1760 C   0  0  0  0  0  0  0  0  0  0  0  0
   26.2590   27.6040   19.5220 C   0  0  2  0  0  0  0  0  0  0  0  0
   27.7680   27.8110   19.4180 C   0  0  1  0  0  0  0  0  0  0  0  0
   28.1590   28.7390   20.5820 C   0  0  2  0  0  0  0  0  0  0  0  0
   27.3770   30.9400   20.3730 C   0  0  2  0  0  0  0  0  0  0  0  0
   28.5250   31.1330   19.4020 C   0  0  0  0  0  0  0  0  0  0  0  0
   27.1960   29.6610   20.7980 O   0  0  0  0  0  0  0  0  0  0  0  0
   29.7840   30.5740   19.9680 C   0  0  1  0  0  0  0  0  0  0  0  0
   29.5700   29.1890   20.4870 C   0  0  1  0  0  0  0  0  0  0  0  0
   26.2210   31.2690   19.6220 O   0  0  0  0  0  0  0  0  0  0  0  0
   26.4830   31.9590   18.9390 H   0  0  0  0  0  0  0  0  0  0  0  0
   27.4450   31.9120   21.4890 C   0  0  0  0  0  0  0  0  0  0  0  0
   27.2330   33.1230   21.2680 O   0  0  0  0  0  0  0  0  0  0  0  0
   27.7410   31.4990   22.7750 O   0  0  0  0  0  0  0  0  0  0  0  0
   27.6090   30.5270   23.0160 H   0  0  0  0  0  0  0  0  0  0  0  0
   30.7520   30.5940   18.9700 O   0  0  0  0  0  0  0  0  0  0  0  0
   31.6000   30.9800   19.3200 H   0  0  0  0  0  0  0  0  0  0  0  0
   30.2890   28.9620   21.7400 N   0  0  0  0  0  0  0  0  0  0  0  0
   30.9730   27.7720   22.0150 C   0  0  0  0  0  0  0  0  0  0  0  0
   30.2690   29.7340   22.4320 H   0  0  0  0  0  0  0  0  0  0  0  0
   31.6770   27.6280   23.3160 C   0  0  0  0  0  0  0  0  0  0  0  0
   30.9930   26.8270   21.1610 O   0  0  0  0  0  0  0  0  0  0  0  0
   28.3720   26.5680   19.5760 O   0  0  0  0  0  0  0  0  0  0  0  0
   28.8330   26.4490   20.4240 H   0  0  0  0  0  0  0  0  0  0  0  0
   25.9560   26.4710   20.2420 O   0  0  0  0  0  0  0  0  0  0  0  0
   25.3180   26.6040   20.9820 H   0  0  0  0  0  0  0  0  0  0  0  0
   26.9870   30.3010   15.7790 O   0  0  0  0  0  0  0  0  0  0  0  0
   28.3500   29.9350   15.7230 C   0  0  0  0  0  0  0  0  0  0  0  0
   29.2560   31.1050   15.8410 C   0  0  0  0  0  0  0  0  0  0  0  0
   28.9470   32.4400   15.5700 C   0  0  0  0  0  0  0  0  0  0  0  0
   30.5450   31.1370   16.2230 N   0  0  0  0  0  0  0  0  0  0  0  0
   30.0210   33.2180   15.7880 N   0  0  0  0  0  0  0  0  0  0  0  0
   30.9820   32.3720   16.1890 N   0  0  0  0  0  0  0  0  0  0  0  0
   30.1590   34.6510   15.6340 C   0  0  0  0  0  0  0  0  0  0  0  0
   31.5290   35.1440   15.9580 C   0  0  0  0  0  0  0  0  0  0  0  0
   32.0880   36.0470   14.9840 N   0  0  0  0  0  0  0  0  0  0  0  0
   32.9430   35.2770   14.0970 C   0  0  0  0  0  0  0  0  0  0  0  0
   31.0700   36.6360   14.1360 C   0  0  0  0  0  0  0  0  0  0  0  0
   32.6760   35.7270   12.6970 C   0  0  0  0  0  0  0  0  0  0  0  0
   31.8720   36.9940   12.9010 C   0  0  0  0  0  0  0  0  0  0  0  0
   29.8670   25.5550   16.9770 C   0  0  0  0  0  0  0  0  0  0  0  0
   28.3450   25.7220   17.0260 C   0  0  0  0  0  0  0  0  0  0  0  0
   27.5990   24.4210   16.7710 C   0  0  0  0  0  0  0  0  0  0  0  0
   26.8340   23.9600   17.9800 C   0  0  0  0  0  0  0  0  0  0  0  0
   25.3430   23.9350   17.6600 C   0  0  0  0  0  0  0  0  0  0  0  0
   24.8810   22.5420   17.4520 N   0  0  0  0  0  0  0  0  0  0  0  0
  1  5  1  0  0  0  0
  2  3  2  0  0  0  0
  2  1  1  0  0  0  0
  4  1  1  0  0  0  0
  6  5  1  6  0  0  0
  6 29  1  0  0  0  0
  7  6  1  0  0  0  0
  7 27  1  1  0  0  0
  8  7  1  6  0  0  0
  8 11  1  0  0  0  0
  9 14  1  6  0  0  0
  9 11  1  0  0  0  0
  9 16  1  0  0  0  0
 10 12  1  0  0  0  0
 10  9  1  0  0  0  0
 12 20  1  6  0  0  0
 12 13  1  0  0  0  0
 13  8  1  0  0  0  0
 13 22  1  1  0  0  0
 15 14  1  0  0  0  0
 16 18  1  0  0  0  0
 17 16  2  0  0  0  0
 18 19  1  0  0  0  0
 20 21  1  0  0  0  0
 22 23  1  0  0  0  0
 22 24  1  0  0  0  0
 23 25  1  0  0  0  0
 26 23  2  0  0  0  0
 27 28  1  0  0  0  0
 29 30  1  0  0  0  0
 31  2  1  0  0  0  0
 32 31  1  0  0  0  0
 32 33  1  0  0  0  0
 33 35  1  0  0  0  0
 34 36  1  0  0  0  0
 34 33  2  0  0  0  0
 36 37  1  0  0  0  0
 37 35  2  0  0  0  0
 38 36  1  0  0  0  0
 38 39  1  0  0  0  0
 40 39  1  0  0  0  0
 41 40  1  0  0  0  0
 42 40  1  0  0  0  0
 43 44  1  0  0  0  0
 43 41  1  0  0  0  0
 44 42  1  0  0  0  0
 45 46  1  0  0  0  0
 47 46  1  0  0  0  0
 47 48  1  0  0  0  0
 49 48  1  0  0  0  0
 50 49  1  0  0  0  0
M  END
>  <REMARK>
 VINA RESULT:    -4.470      6.651     11.853
 INTER + INTRA:         -14.253
 INTER:                  -8.059
 INTRA:                  -6.193
 UNBOUND:                -5.994
 SMILES CC(=O)N[C@@H]1[C@@H](O)C[C@](O)(C(=O)O)O[C@H]1C(O)[C@H](O)CNC(=O)OCc1cn(CCN2CCCC2)nn1
 SMILES IDX 21 1 22 2 23 3 20 5 18 6 16 7 15 8 9 9 8 10 14 11 6 12 5 13
 SMILES IDX 10 14 11 16 12 17 13 18 7 20 4 22 2 23 1 25 3 26 17 27 19 29
 SMILES IDX 24 31 25 32 26 33 27 34 37 35 28 36 36 37 29 38 30 39 31 40
 SMILES IDX 32 41 35 42 33 43 34 44
 H PARENT 21 4 10 15 13 19 7 21 4 24 17 28 19 30
 Flexibility Score: inf
  4 active torsions:
  status: ('A' for Active; 'I' for Inactive)
    1  A    between atoms: CA   and  CB  
    2  A    between atoms: CB   and  CG  
    3  A    between atoms: CG   and  CD  
    4  A    between atoms: CD   and  CE  

>  <TORSDO>
F 17

>  <BEGIN_>
RES LYS A 131

$$$$
ligand_14_pose_7_2HRL.pdbqt
 OpenBabel07062320523D

  6  5  0  0  0  0  0  0  0  0999 V2000
   33.1930   34.6630    9.2900 C   0  0  0  0  0  0  0  0  0  0  0  0
   32.0600   35.3600   10.0340 C   0  0  0  0  0  0  0  0  0  0  0  0
   30.7020   34.7690    9.7540 C   0  0  0  0  0  0  0  0  0  0  0  0
   30.5450   34.4630    8.2720 C   0  0  0  0  0  0  0  0  0  0  0  0
   29.3480   35.1970    7.7010 C   0  0  0  0  0  0  0  0  0  0  0  0
   28.0740   34.6560    8.2510 N   0  0  0  0  0  0  0  0  0  0  0  0
  1  2  1  0  0  0  0
  3  2  1  0  0  0  0
  4  3  1  0  0  0  0
  5  6  1  0  0  0  0
  5  4  1  0  0  0  0
M  END
>  <EGIN_R>
ES LYS A 135

>  <REMARK>
  4 active torsions:
  status: ('A' for Active; 'I' for Inactive)
    5  A    between atoms: CA   and  CB  
    6  A    between atoms: CB   and  CG  
    7  A    between atoms: CG   and  CD  
    8  A    between atoms: CD   and  CE  

$$$$
