ligand_11_pose_6_2HRL.pdbqt
 OpenBabel07062320523D

 54 54  0  0  1  0  0  0  0  0999 V2000
   25.5300   36.0460   12.7360 O   0  0  0  0  0  0  0  0  0  0  0  0
   25.8150   36.9450   11.7010 C   0  0  0  0  0  0  0  0  0  0  0  0
   25.1320   36.9310   10.4760 N   0  0  0  0  0  0  0  0  0  0  0  0
   24.3780   36.1720   10.3800 H   0  0  0  0  0  0  0  0  0  0  0  0
   26.7160   37.7720   11.9160 O   0  0  0  0  0  0  0  0  0  0  0  0
   25.3350   37.8090    9.3600 C   0  0  0  0  0  0  0  0  0  0  0  0
   26.0900   37.1490    8.2730 C   0  0  2  0  0  0  0  0  0  0  0  0
   27.5450   37.5730    8.2090 C   0  0  1  0  0  0  0  0  0  0  0  0
   27.6560   39.0230    7.7290 C   0  0  2  0  0  0  0  0  0  0  0  0
   27.9370   38.9750    5.4060 C   0  0  2  0  0  0  0  0  0  0  0  0
   29.3640   38.6270    5.7220 C   0  0  0  0  0  0  0  0  0  0  0  0
   27.1490   39.2230    6.4880 O   0  0  0  0  0  0  0  0  0  0  0  0
   29.9710   39.3730    6.8550 C   0  0  1  0  0  0  0  0  0  0  0  0
   29.0200   39.5840    7.9970 C   0  0  1  0  0  0  0  0  0  0  0  0
   27.4100   37.8690    4.7390 O   0  0  0  0  0  0  0  0  0  0  0  0
   27.1630   38.0810    3.8150 H   0  0  0  0  0  0  0  0  0  0  0  0
   27.8970   40.1230    4.4660 C   0  0  0  0  0  0  0  0  0  0  0  0
   27.0530   40.1460    3.5400 O   0  0  0  0  0  0  0  0  0  0  0  0
   28.7760   41.1970    4.5730 O   0  0  0  0  0  0  0  0  0  0  0  0
   28.6100   41.8350    5.3520 H   0  0  0  0  0  0  0  0  0  0  0  0
   31.0680   38.6430    7.3110 O   0  0  0  0  0  0  0  0  0  0  0  0
   31.1480   37.7760    6.8300 H   0  0  0  0  0  0  0  0  0  0  0  0
   28.8750   40.9660    8.3530 N   0  0  0  0  0  0  0  0  0  0  0  0
   28.7080   41.3260    9.7130 C   0  0  0  0  0  0  0  0  0  0  0  0
   28.8910   41.7160    7.6020 H   0  0  0  0  0  0  0  0  0  0  0  0
   28.5570   42.7480   10.0830 C   0  0  0  0  0  0  0  0  0  0  0  0
   28.6820   40.4700   10.6400 O   0  0  0  0  0  0  0  0  0  0  0  0
   28.1050   37.4650    9.4670 O   0  0  0  0  0  0  0  0  0  0  0  0
   29.0830   37.3460    9.3680 H   0  0  0  0  0  0  0  0  0  0  0  0
   25.4600   37.2030    7.0730 O   0  0  0  0  0  0  0  0  0  0  0  0
   25.1460   38.0930    6.7950 H   0  0  0  0  0  0  0  0  0  0  0  0
   26.0400   34.7170   12.6740 C   0  0  0  0  0  0  0  0  0  0  0  0
   27.2830   34.5700   13.4190 C   0  0  0  0  0  0  0  0  0  0  0  0
   28.5640   34.7980   12.9950 C   0  0  0  0  0  0  0  0  0  0  0  0
   27.4000   34.1720   14.6950 N   0  0  0  0  0  0  0  0  0  0  0  0
   29.4250   34.5460   13.9910 N   0  0  0  0  0  0  0  0  0  0  0  0
   28.6830   34.1660   15.0130 N   0  0  0  0  0  0  0  0  0  0  0  0
   30.8740   34.6310   14.0480 C   0  0  1  0  0  0  0  0  0  0  0  0
   31.3060   36.0470   14.1580 C   0  0  0  0  0  0  0  0  0  0  0  0
   31.5910   36.7480   12.8840 C   0  0  0  0  0  0  0  0  0  0  0  0
   30.7350   37.9080   12.6410 C   0  0  0  0  0  0  0  0  0  0  0  0
   30.8470   38.9770   13.3350 O   0  0  0  0  0  0  0  0  0  0  0  0
   29.7670   37.8610   11.6350 O   0  0  0  0  0  0  0  0  0  0  0  0
   29.8980   38.4660   10.8370 H   0  0  0  0  0  0  0  0  0  0  0  0
   31.4810   33.6710   14.9530 C   0  0  0  0  0  0  0  0  0  0  0  0
   32.2480   33.9310   15.8790 O   0  0  0  0  0  0  0  0  0  0  0  0
   31.1660   32.3150   14.7440 O   0  0  0  0  0  0  0  0  0  0  0  0
   31.7740   31.7630   14.1650 H   0  0  0  0  0  0  0  0  0  0  0  0
   29.8670   25.5550   16.9770 C   0  0  0  0  0  0  0  0  0  0  0  0
   28.3450   25.7220   17.0260 C   0  0  0  0  0  0  0  0  0  0  0  0
   27.6010   24.4020   16.8940 C   0  0  0  0  0  0  0  0  0  0  0  0
   26.1570   24.5230   17.2970 C   0  0  0  0  0  0  0  0  0  0  0  0
   25.6150   23.1460   17.6670 C   0  0  0  0  0  0  0  0  0  0  0  0
   25.4020   23.0490   19.1300 N   0  0  0  0  0  0  0  0  0  0  0  0
  2  5  2  0  0  0  0
  2  1  1  0  0  0  0
  3  2  1  0  0  0  0
  4  3  1  0  0  0  0
  6  3  1  0  0  0  0
  7  6  1  1  0  0  0
  8  7  1  0  0  0  0
  8 28  1  1  0  0  0
  9 14  1  0  0  0  0
  9  8  1  6  0  0  0
 10 17  1  6  0  0  0
 10 11  1  0  0  0  0
 10 12  1  0  0  0  0
 11 13  1  0  0  0  0
 12  9  1  0  0  0  0
 13 21  1  1  0  0  0
 13 14  1  0  0  0  0
 14 23  1  6  0  0  0
 15 10  1  0  0  0  0
 16 15  1  0  0  0  0
 17 19  1  0  0  0  0
 18 17  2  0  0  0  0
 19 20  1  0  0  0  0
 22 21  1  0  0  0  0
 23 24  1  0  0  0  0
 24 26  1  0  0  0  0
 24 27  2  0  0  0  0
 25 23  1  0  0  0  0
 29 28  1  0  0  0  0
 30  7  1  0  0  0  0
 31 30  1  0  0  0  0
 32  1  1  0  0  0  0
 32 33  1  0  0  0  0
 33 35  1  0  0  0  0
 34 33  2  0  0  0  0
 34 36  1  0  0  0  0
 35 37  2  0  0  0  0
 36 38  1  0  0  0  0
 36 37  1  0  0  0  0
 38 39  1  1  0  0  0
 38 45  1  0  0  0  0
 40 39  1  0  0  0  0
 41 40  1  0  0  0  0
 41 42  2  0  0  0  0
 43 41  1  0  0  0  0
 44 43  1  0  0  0  0
 45 46  2  0  0  0  0
 47 45  1  0  0  0  0
 48 47  1  0  0  0  0
 49 50  1  0  0  0  0
 51 50  1  0  0  0  0
 51 52  1  0  0  0  0
 52 53  1  0  0  0  0
 53 54  1  0  0  0  0
M  END
>  <REMARK>
 VINA RESULT:    -4.014      2.988      5.812
 INTER + INTRA:         -15.560
 INTER:                  -8.721
 INTRA:                  -6.839
 UNBOUND:                -7.438
 SMILES CC(=O)N[C@@H]1[C@@H](O)C[C@](O)(C(=O)O)O[C@H]1C(O)[C@H](O)CNC(=O)OCc1cn([C@@H](CCC(=O)O)C(=O)O)nn1
 SMILES IDX 24 1 22 2 21 3 23 5 20 6 18 7 16 8 15 9 9 10 8 11 14 12 6 13
 SMILES IDX 5 14 10 15 11 17 12 18 13 19 7 21 4 23 2 24 1 26 3 27 17 28
 SMILES IDX 19 30 25 32 26 33 27 34 39 35 28 36 38 37 29 38 30 39 31 40
 SMILES IDX 32 41 33 42 34 43 35 45 36 46 37 47
 H PARENT 21 4 10 16 13 20 7 22 4 25 17 29 19 31 34 44 37 48
 Flexibility Score: inf
  4 active torsions:
  status: ('A' for Active; 'I' for Inactive)
    1  A    between atoms: CA   and  CB  
    2  A    between atoms: CB   and  CG  
    3  A    between atoms: CG   and  CD  
    4  A    between atoms: CD   and  CE  

>  <TORSDO>
F 21

>  <BEGIN_>
RES LYS A 131

$$$$
ligand_11_pose_6_2HRL.pdbqt
 OpenBabel07062320523D

  6  5  0  0  0  0  0  0  0  0999 V2000
   33.1930   34.6630    9.2900 C   0  0  0  0  0  0  0  0  0  0  0  0
   32.0600   35.3600   10.0340 C   0  0  0  0  0  0  0  0  0  0  0  0
   30.7940   35.4810    9.2260 C   0  0  0  0  0  0  0  0  0  0  0  0
   30.1810   34.1110    8.9810 C   0  0  0  0  0  0  0  0  0  0  0  0
   28.7450   34.2460    8.5120 C   0  0  0  0  0  0  0  0  0  0  0  0
   27.7910   33.8290    9.5770 N   0  0  0  0  0  0  0  0  0  0  0  0
  1  2  1  0  0  0  0
  3  2  1  0  0  0  0
  4  3  1  0  0  0  0
  5  4  1  0  0  0  0
  5  6  1  0  0  0  0
M  END
>  <EGIN_R>
ES LYS A 135

>  <REMARK>
  4 active torsions:
  status: ('A' for Active; 'I' for Inactive)
    5  A    between atoms: CA   and  CB  
    6  A    between atoms: CB   and  CG  
    7  A    between atoms: CG   and  CD  
    8  A    between atoms: CD   and  CE  

$$$$
