ligand_60_pose_12_2HRL.pdbqt
 OpenBabel07062320523D

 55 56  0  0  1  0  0  0  0  0999 V2000
   31.3680   30.2170   22.4780 N   0  0  0  0  0  0  0  0  0  0  0  0
   30.6270   31.1250   23.2480 C   0  0  0  0  0  0  0  0  0  0  0  0
   29.4590   30.8700   23.5850 O   0  0  0  0  0  0  0  0  0  0  0  0
   32.3570   30.4920   22.2270 H   0  0  0  0  0  0  0  0  0  0  0  0
   30.8360   28.9740   22.0420 C   0  0  0  0  0  0  0  0  0  0  0  0
   30.0490   29.0820   20.7420 C   0  0  2  0  0  0  0  0  0  0  0  0
   29.1630   27.8760   20.6240 C   0  0  1  0  0  0  0  0  0  0  0  0
   28.1930   27.9250   19.5060 C   0  0  2  0  0  0  0  0  0  0  0  0
   27.3100   29.4650   17.9960 C   0  0  2  0  0  0  0  0  0  0  0  0
   26.8390   28.1670   17.3870 C   0  0  0  0  0  0  0  0  0  0  0  0
   28.0300   29.2900   19.1440 O   0  0  0  0  0  0  0  0  0  0  0  0
   26.1690   27.2600   18.3730 C   0  0  1  0  0  0  0  0  0  0  0  0
   26.8220   27.4060   19.7250 C   0  0  1  0  0  0  0  0  0  0  0  0
   26.2290   30.3610   18.1790 O   0  0  0  0  0  0  0  0  0  0  0  0
   26.3270   30.8570   19.0310 H   0  0  0  0  0  0  0  0  0  0  0  0
   28.1960   30.1160   16.9950 C   0  0  0  0  0  0  0  0  0  0  0  0
   27.6910   30.4690   15.8990 O   0  0  0  0  0  0  0  0  0  0  0  0
   29.5420   30.3590   17.1930 O   0  0  0  0  0  0  0  0  0  0  0  0
   30.1150   30.7620   16.4560 H   0  0  0  0  0  0  0  0  0  0  0  0
   24.8130   27.5590   18.3910 O   0  0  0  0  0  0  0  0  0  0  0  0
   24.5960   27.9300   17.4980 H   0  0  0  0  0  0  0  0  0  0  0  0
   26.6560   26.2810   20.5650 N   0  0  0  0  0  0  0  0  0  0  0  0
   25.5600   26.1430   21.4470 C   0  0  0  0  0  0  0  0  0  0  0  0
   27.3410   25.5000   20.5380 H   0  0  0  0  0  0  0  0  0  0  0  0
   25.3980   24.9400   22.3350 C   0  0  0  0  0  0  0  0  0  0  0  0
   24.7170   27.0590   21.4740 O   0  0  0  0  0  0  0  0  0  0  0  0
   29.7510   26.6710   20.9000 O   0  0  0  0  0  0  0  0  0  0  0  0
   30.7000   26.8150   21.1110 H   0  0  0  0  0  0  0  0  0  0  0  0
   30.9240   29.2810   19.7080 O   0  0  0  0  0  0  0  0  0  0  0  0
   31.2620   30.2190   19.7160 H   0  0  0  0  0  0  0  0  0  0  0  0
   31.1530   32.3540   23.6750 O   0  0  0  0  0  0  0  0  0  0  0  0
   30.7300   33.5540   23.1070 C   0  0  0  0  0  0  0  0  0  0  0  0
   31.4930   33.8920   21.8850 C   0  0  0  0  0  0  0  0  0  0  0  0
   31.0790   33.9840   20.5780 C   0  0  0  0  0  0  0  0  0  0  0  0
   32.8180   34.1890   21.8670 N   0  0  0  0  0  0  0  0  0  0  0  0
   32.1230   34.3260   19.8010 N   0  0  0  0  0  0  0  0  0  0  0  0
   33.1540   34.4400   20.6130 N   0  0  0  0  0  0  0  0  0  0  0  0
   32.1550   34.5310   18.3920 C   0  0  0  0  0  0  0  0  0  0  0  0
   32.9150   35.5280   17.8210 C   0  0  0  0  0  0  0  0  0  0  0  0
   31.4180   33.7340   17.5350 C   0  0  0  0  0  0  0  0  0  0  0  0
   32.9570   35.7390   16.4610 C   0  0  0  0  0  0  0  0  0  0  0  0
   31.4570   33.9430   16.1720 C   0  0  0  0  0  0  0  0  0  0  0  0
   32.2140   34.9370   15.5900 C   0  0  0  0  0  0  0  0  0  0  0  0
   32.2680   35.2100   13.8630 S   0  0  0  0  0  0  0  0  0  0  0  0
   31.0270   34.5990   13.2770 O   0  0  0  0  0  0  0  0  0  0  0  0
   32.1790   36.6980   13.6090 O   0  0  0  0  0  0  0  0  0  0  0  0
   33.6670   34.5480   13.1290 N   0  0  0  0  0  0  0  0  0  0  0  0
   34.3760   34.1940   13.7810 H   0  0  0  0  0  0  0  0  0  0  0  0
   33.4330   33.8600   12.3790 H   0  0  0  0  0  0  0  0  0  0  0  0
   29.8670   25.5550   16.9770 C   0  0  0  0  0  0  0  0  0  0  0  0
   28.3450   25.7220   17.0260 C   0  0  0  0  0  0  0  0  0  0  0  0
   27.5990   24.4740   16.5800 C   0  0  0  0  0  0  0  0  0  0  0  0
   27.0020   23.7260   17.7400 C   0  0  0  0  0  0  0  0  0  0  0  0
   25.5120   23.5130   17.4960 C   0  0  0  0  0  0  0  0  0  0  0  0
   24.7290   23.9050   18.6930 N   0  0  0  0  0  0  0  0  0  0  0  0
  1  2  1  0  0  0  0
  2  3  2  0  0  0  0
  2 31  1  0  0  0  0
  4  1  1  0  0  0  0
  5  1  1  0  0  0  0
  6  5  1  1  0  0  0
  7  6  1  0  0  0  0
  7 27  1  6  0  0  0
  8 13  1  0  0  0  0
  8  7  1  1  0  0  0
  9 16  1  6  0  0  0
  9 14  1  0  0  0  0
  9 11  1  0  0  0  0
 10  9  1  0  0  0  0
 10 12  1  0  0  0  0
 11  8  1  0  0  0  0
 12 20  1  1  0  0  0
 12 13  1  0  0  0  0
 13 22  1  6  0  0  0
 14 15  1  0  0  0  0
 16 18  1  0  0  0  0
 17 16  2  0  0  0  0
 19 18  1  0  0  0  0
 21 20  1  0  0  0  0
 22 23  1  0  0  0  0
 23 26  2  0  0  0  0
 23 25  1  0  0  0  0
 24 22  1  0  0  0  0
 27 28  1  0  0  0  0
 29 30  1  0  0  0  0
 29  6  1  0  0  0  0
 32 31  1  0  0  0  0
 33 32  1  0  0  0  0
 34 33  2  0  0  0  0
 35 33  1  0  0  0  0
 36 34  1  0  0  0  0
 36 37  1  0  0  0  0
 37 35  2  0  0  0  0
 38 36  1  0  0  0  0
 39 38  1  0  0  0  0
 40 38  2  0  0  0  0
 41 39  2  0  0  0  0
 42 40  1  0  0  0  0
 43 42  2  0  0  0  0
 43 41  1  0  0  0  0
 44 43  1  0  0  0  0
 45 44  2  0  0  0  0
 46 44  2  0  0  0  0
 47 48  1  0  0  0  0
 47 44  1  0  0  0  0
 49 47  1  0  0  0  0
 50 51  1  0  0  0  0
 52 51  1  0  0  0  0
 52 53  1  0  0  0  0
 54 53  1  0  0  0  0
 54 55  1  0  0  0  0
M  END
>  <REMARK>
 VINA RESULT:    -4.792      2.527      6.007
 INTER + INTRA:         -14.678
 INTER:                  -9.061
 INTRA:                  -5.617
 UNBOUND:                -5.964
 SMILES CC(=O)N[C@@H]1[C@@H](O)C[C@](O)(C(=O)O)O[C@H]1C(O)[C@H](O)CNC(=O)OCc1cn(-c2ccc(S(N)(=O)=O)cc2)nn1
 SMILES IDX 21 1 22 2 23 3 20 5 18 6 16 7 15 8 9 9 8 10 14 11 6 12 5 13
 SMILES IDX 10 14 11 16 12 17 13 18 7 20 4 22 2 23 1 25 3 26 17 27 19 29
 SMILES IDX 24 31 25 32 26 33 27 34 40 35 28 36 39 37 29 38 30 39 38 40
 SMILES IDX 31 41 37 42 32 43 33 44 35 45 36 46 34 47
 H PARENT 21 4 10 15 13 19 7 21 4 24 17 28 19 30 34 48 34 49
 Flexibility Score: inf
  4 active torsions:
  status: ('A' for Active; 'I' for Inactive)
    1  A    between atoms: CA   and  CB  
    2  A    between atoms: CB   and  CG  
    3  A    between atoms: CG   and  CD  
    4  A    between atoms: CD   and  CE  

>  <TORSDO>
F 17

>  <BEGIN_>
RES LYS A 131

$$$$
ligand_60_pose_12_2HRL.pdbqt
 OpenBabel07062320523D

  6  5  0  0  0  0  0  0  0  0999 V2000
   33.1930   34.6630    9.2900 C   0  0  0  0  0  0  0  0  0  0  0  0
   32.0600   35.3600   10.0340 C   0  0  0  0  0  0  0  0  0  0  0  0
   30.8430   35.6090    9.1810 C   0  0  0  0  0  0  0  0  0  0  0  0
   30.2380   34.2940    8.7120 C   0  0  0  0  0  0  0  0  0  0  0  0
   28.7490   34.4480    8.4710 C   0  0  0  0  0  0  0  0  0  0  0  0
   27.9600   33.7370    9.5140 N   0  0  0  0  0  0  0  0  0  0  0  0
  1  2  1  0  0  0  0
  3  2  1  0  0  0  0
  4  3  1  0  0  0  0
  5  4  1  0  0  0  0
  5  6  1  0  0  0  0
M  END
>  <EGIN_R>
ES LYS A 135

>  <REMARK>
  4 active torsions:
  status: ('A' for Active; 'I' for Inactive)
    5  A    between atoms: CA   and  CB  
    6  A    between atoms: CB   and  CG  
    7  A    between atoms: CG   and  CD  
    8  A    between atoms: CD   and  CE  

$$$$
