ligand_78_pose_5_2HRL.pdbqt
 OpenBabel07062320523D

 53 54  0  0  1  0  0  0  0  0999 V2000
   20.6400   37.1240    7.9720 N   0  0  0  0  0  0  0  0  0  0  0  0
   19.9470   35.8690    7.8260 C   0  0  0  0  0  0  0  0  0  0  0  0
   20.6020   34.8510    7.5590 O   0  0  0  0  0  0  0  0  0  0  0  0
   20.0210   37.9250    8.2010 H   0  0  0  0  0  0  0  0  0  0  0  0
   22.0810   37.1930    7.8060 C   0  0  0  0  0  0  0  0  0  0  0  0
   22.7970   37.4340    9.0920 C   0  0  2  0  0  0  0  0  0  0  0  0
   23.7170   36.3350    9.5020 C   0  0  2  0  0  0  0  0  0  0  0  0
   24.9590   36.1620    8.7040 C   0  0  2  0  0  0  0  0  0  0  0  0
   26.2060   35.2600   10.4650 C   0  0  2  0  0  0  0  0  0  0  0  0
   26.5910   36.6440   10.8720 C   0  0  0  0  0  0  0  0  0  0  0  0
   25.7150   35.1000    9.1940 O   0  0  0  0  0  0  0  0  0  0  0  0
   26.6030   37.6760    9.8140 C   0  0  1  0  0  0  0  0  0  0  0  0
   25.8910   37.2960    8.5450 C   0  0  1  0  0  0  0  0  0  0  0  0
   25.2570   34.7190   11.3340 O   0  0  0  0  0  0  0  0  0  0  0  0
   24.6420   35.3700   11.7080 H   0  0  0  0  0  0  0  0  0  0  0  0
   27.4070   34.3880   10.5530 C   0  0  0  0  0  0  0  0  0  0  0  0
   27.6370   33.5710    9.6360 O   0  0  0  0  0  0  0  0  0  0  0  0
   28.3000   34.4310   11.6170 O   0  0  0  0  0  0  0  0  0  0  0  0
   29.3060   34.2740   11.4670 H   0  0  0  0  0  0  0  0  0  0  0  0
   26.1040   38.8700   10.3300 O   0  0  0  0  0  0  0  0  0  0  0  0
   25.5080   39.3330    9.7130 H   0  0  0  0  0  0  0  0  0  0  0  0
   26.8430   36.9580    7.4820 N   0  0  0  0  0  0  0  0  0  0  0  0
   27.1680   37.8700    6.4540 C   0  0  0  0  0  0  0  0  0  0  0  0
   27.2970   36.0240    7.4720 H   0  0  0  0  0  0  0  0  0  0  0  0
   28.1350   37.5410    5.3640 C   0  0  0  0  0  0  0  0  0  0  0  0
   26.6070   38.9930    6.4840 O   0  0  0  0  0  0  0  0  0  0  0  0
   22.9550   35.1420    9.1310 O   0  0  0  0  0  0  0  0  0  0  0  0
   22.0430   35.3140    9.4250 H   0  0  0  0  0  0  0  0  0  0  0  0
   22.0260   37.9210   10.1290 O   0  0  0  0  0  0  0  0  0  0  0  0
   21.4540   37.2250   10.5350 H   0  0  0  0  0  0  0  0  0  0  0  0
   18.5770   35.7840    7.9800 O   0  0  0  0  0  0  0  0  0  0  0  0
   17.9690   35.0620    9.0360 C   0  0  0  0  0  0  0  0  0  0  0  0
   18.7790   35.1010   10.2620 C   0  0  0  0  0  0  0  0  0  0  0  0
   19.0980   34.1110   11.1480 C   0  0  0  0  0  0  0  0  0  0  0  0
   19.3790   36.2130   10.7370 N   0  0  0  0  0  0  0  0  0  0  0  0
   19.8730   34.6450   12.1250 N   0  0  0  0  0  0  0  0  0  0  0  0
   20.0260   35.9290   11.8460 N   0  0  0  0  0  0  0  0  0  0  0  0
   20.4080   33.9100   13.2400 C   0  0  0  0  0  0  0  0  0  0  0  0
   22.1200   33.4890   12.9450 S   0  0  0  0  0  0  0  0  0  0  0  0
   22.9220   33.9620   14.1300 O   0  0  0  0  0  0  0  0  0  0  0  0
   22.5550   34.2030   11.7200 O   0  0  0  0  0  0  0  0  0  0  0  0
   22.2440   31.7480   12.7670 C   0  0  0  0  0  0  0  0  0  0  0  0
   23.4890   31.1610   12.9570 C   0  0  0  0  0  0  0  0  0  0  0  0
   21.1340   31.0020   12.4480 C   0  0  0  0  0  0  0  0  0  0  0  0
   23.5840   29.7970   12.8180 C   0  0  0  0  0  0  0  0  0  0  0  0
   21.2830   29.6390   12.3190 C   0  0  0  0  0  0  0  0  0  0  0  0
   22.4880   29.0020   12.4960 C   0  0  0  0  0  0  0  0  0  0  0  0
   29.8670   25.5550   16.9770 C   0  0  0  0  0  0  0  0  0  0  0  0
   28.3450   25.7220   17.0260 C   0  0  0  0  0  0  0  0  0  0  0  0
   27.6020   24.3990   16.9250 C   0  0  0  0  0  0  0  0  0  0  0  0
   26.1640   24.5230   17.3460 C   0  0  0  0  0  0  0  0  0  0  0  0
   25.5550   23.1330   17.4940 C   0  0  0  0  0  0  0  0  0  0  0  0
   24.1050   23.1660   17.1850 N   0  0  0  0  0  0  0  0  0  0  0  0
  1  4  1  0  0  0  0
  2  1  1  0  0  0  0
  2 31  1  0  0  0  0
  3  2  2  0  0  0  0
  5  1  1  0  0  0  0
  6  5  1  6  0  0  0
  6  7  1  0  0  0  0
  6 29  1  0  0  0  0
  7 27  1  6  0  0  0
  8 11  1  0  0  0  0
  8  7  1  1  0  0  0
  9 16  1  1  0  0  0
  9 10  1  0  0  0  0
  9 14  1  0  0  0  0
 11  9  1  0  0  0  0
 12 20  1  1  0  0  0
 12 10  1  0  0  0  0
 13 22  1  6  0  0  0
 13  8  1  0  0  0  0
 13 12  1  0  0  0  0
 14 15  1  0  0  0  0
 16 18  1  0  0  0  0
 17 16  2  0  0  0  0
 19 18  1  0  0  0  0
 21 20  1  0  0  0  0
 23 26  2  0  0  0  0
 23 22  1  0  0  0  0
 24 22  1  0  0  0  0
 25 23  1  0  0  0  0
 27 28  1  0  0  0  0
 29 30  1  0  0  0  0
 31 32  1  0  0  0  0
 32 33  1  0  0  0  0
 33 35  1  0  0  0  0
 33 34  2  0  0  0  0
 34 36  1  0  0  0  0
 35 37  2  0  0  0  0
 36 38  1  0  0  0  0
 37 36  1  0  0  0  0
 39 38  1  0  0  0  0
 39 40  2  0  0  0  0
 41 39  2  0  0  0  0
 42 39  1  0  0  0  0
 42 43  2  0  0  0  0
 44 42  1  0  0  0  0
 45 43  1  0  0  0  0
 46 44  2  0  0  0  0
 46 47  1  0  0  0  0
 47 45  2  0  0  0  0
 48 49  1  0  0  0  0
 50 49  1  0  0  0  0
 50 51  1  0  0  0  0
 51 52  1  0  0  0  0
 53 52  1  0  0  0  0
M  END
>  <REMARK>
 VINA RESULT:    -5.563      6.882     12.176
 INTER + INTRA:         -15.291
 INTER:                  -9.679
 INTRA:                  -5.612
 UNBOUND:                -5.011
 SMILES CC(=O)N[C@@H]1[C@@H](O)C[C@](O)(C(=O)O)O[C@H]1C(O)[C@H](O)CNC(=O)OCc1cn(CS(=O)(=O)c2ccccc2)nn1
 SMILES IDX 21 1 22 2 23 3 20 5 18 6 16 7 15 8 9 9 8 10 14 11 6 12 5 13
 SMILES IDX 10 14 11 16 12 17 13 18 7 20 4 22 2 23 1 25 3 26 17 27 19 29
 SMILES IDX 24 31 25 32 26 33 27 34 40 35 28 36 39 37 29 38 30 39 31 40
 SMILES IDX 32 41 33 42 34 43 38 44 35 45 37 46 36 47
 H PARENT 21 4 10 15 13 19 7 21 4 24 17 28 19 30
 Flexibility Score: inf
  4 active torsions:
  status: ('A' for Active; 'I' for Inactive)
    1  A    between atoms: CA   and  CB  
    2  A    between atoms: CB   and  CG  
    3  A    between atoms: CG   and  CD  
    4  A    between atoms: CD   and  CE  

>  <TORSDO>
F 17

>  <BEGIN_>
RES LYS A 131

$$$$
ligand_78_pose_5_2HRL.pdbqt
 OpenBabel07062320523D

  6  5  0  0  0  0  0  0  0  0999 V2000
   33.1930   34.6630    9.2900 C   0  0  0  0  0  0  0  0  0  0  0  0
   32.0600   35.3600   10.0340 C   0  0  0  0  0  0  0  0  0  0  0  0
   30.7160   35.2000    9.3720 C   0  0  0  0  0  0  0  0  0  0  0  0
   30.2550   36.5170    8.7680 C   0  0  0  0  0  0  0  0  0  0  0  0
   30.7670   37.6870    9.5870 C   0  0  0  0  0  0  0  0  0  0  0  0
   31.3820   38.7240    8.7140 N   0  0  0  0  0  0  0  0  0  0  0  0
  1  2  1  0  0  0  0
  3  2  1  0  0  0  0
  4  3  1  0  0  0  0
  4  5  1  0  0  0  0
  6  5  1  0  0  0  0
M  END
>  <EGIN_R>
ES LYS A 135

>  <REMARK>
  4 active torsions:
  status: ('A' for Active; 'I' for Inactive)
    5  A    between atoms: CA   and  CB  
    6  A    between atoms: CB   and  CG  
    7  A    between atoms: CG   and  CD  
    8  A    between atoms: CD   and  CE  

$$$$
