ligand_48_pose_11_2HRL.pdbqt
 OpenBabel07062320523D

 49 50  0  0  1  0  0  0  0  0999 V2000
   26.5990   32.8510   16.2510 C   0  0  0  0  0  0  0  0  0  0  0  0
   27.4470   34.0430   16.6710 C   0  0  2  0  0  0  0  0  0  0  0  0
   28.5230   34.2040   15.6430 C   0  0  1  0  0  0  0  0  0  0  0  0
   29.8750   34.6060   16.1900 C   0  0  2  0  0  0  0  0  0  0  0  0
   31.3270   35.1690   14.4250 C   0  0  2  0  0  0  0  0  0  0  0  0
   32.4250   34.2930   15.0040 C   0  0  0  0  0  0  0  0  0  0  0  0
   30.4960   35.5530   15.4230 O   0  0  0  0  0  0  0  0  0  0  0  0
   31.8490   33.0950   15.7110 C   0  0  1  0  0  0  0  0  0  0  0  0
   30.7270   33.4780   16.6550 C   0  0  1  0  0  0  0  0  0  0  0  0
   30.7160   34.5450   13.3390 O   0  0  0  0  0  0  0  0  0  0  0  0
   30.7330   35.1910   12.5640 H   0  0  0  0  0  0  0  0  0  0  0  0
   32.0220   36.3860   13.9220 C   0  0  0  0  0  0  0  0  0  0  0  0
   32.3550   36.4640   12.7180 O   0  0  0  0  0  0  0  0  0  0  0  0
   32.2940   37.4160   14.7750 O   0  0  0  0  0  0  0  0  0  0  0  0
   31.5980   38.0340   15.1730 H   0  0  0  0  0  0  0  0  0  0  0  0
   31.4500   32.1220   14.8040 O   0  0  0  0  0  0  0  0  0  0  0  0
   31.7200   32.3800   13.8890 H   0  0  0  0  0  0  0  0  0  0  0  0
   31.2930   33.7510   17.9780 N   0  0  0  0  0  0  0  0  0  0  0  0
   30.9400   32.9030   19.0490 C   0  0  0  0  0  0  0  0  0  0  0  0
   31.9410   34.5450   18.1430 H   0  0  0  0  0  0  0  0  0  0  0  0
   31.4650   33.1000   20.4360 C   0  0  0  0  0  0  0  0  0  0  0  0
   30.1510   31.9150   18.9070 O   0  0  0  0  0  0  0  0  0  0  0  0
   28.5430   33.1990   14.7120 O   0  0  0  0  0  0  0  0  0  0  0  0
   29.1430   33.3960   13.9250 H   0  0  0  0  0  0  0  0  0  0  0  0
   27.8820   33.8190   17.9550 O   0  0  0  0  0  0  0  0  0  0  0  0
   27.5510   34.5210   18.5370 H   0  0  0  0  0  0  0  0  0  0  0  0
   26.8870   31.7550   17.1470 N   0  0  0  0  0  0  0  0  0  0  0  0
   27.5790   30.5710   16.7930 C   0  0  0  0  0  0  0  0  0  0  0  0
   26.5730   31.7950   18.1650 H   0  0  0  0  0  0  0  0  0  0  0  0
   27.9890   30.4250   15.6160 O   0  0  0  0  0  0  0  0  0  0  0  0
   27.8160   29.5630   17.7230 O   0  0  0  0  0  0  0  0  0  0  0  0
   27.0760   29.5270   18.9170 C   0  0  0  0  0  0  0  0  0  0  0  0
   28.0270   29.6170   20.0560 C   0  0  0  0  0  0  0  0  0  0  0  0
   29.1530   28.8090   20.2600 C   0  0  0  0  0  0  0  0  0  0  0  0
   28.0350   30.4500   21.1140 N   0  0  0  0  0  0  0  0  0  0  0  0
   29.7710   29.1780   21.3950 N   0  0  0  0  0  0  0  0  0  0  0  0
   29.0660   30.1790   21.8930 N   0  0  0  0  0  0  0  0  0  0  0  0
   30.9760   28.5900   21.9620 C   0  0  0  0  0  0  0  0  0  0  0  0
   32.1040   28.7090   20.9610 C   0  0  0  0  0  0  0  0  0  0  0  0
   31.3770   29.3420   23.2120 C   0  0  0  0  0  0  0  0  0  0  0  0
   33.0770   29.8080   21.3430 C   0  0  0  0  0  0  0  0  0  0  0  0
   32.7550   28.8370   23.6040 C   0  0  0  0  0  0  0  0  0  0  0  0
   33.7460   29.4690   22.6480 C   0  0  0  0  0  0  0  0  0  0  0  0
   29.8670   25.5550   16.9770 C   0  0  0  0  0  0  0  0  0  0  0  0
   28.3450   25.7220   17.0260 C   0  0  0  0  0  0  0  0  0  0  0  0
   27.6010   24.4020   16.8890 C   0  0  0  0  0  0  0  0  0  0  0  0
   26.1450   24.5340   17.2410 C   0  0  0  0  0  0  0  0  0  0  0  0
   25.9290   24.0920   18.6850 C   0  0  0  0  0  0  0  0  0  0  0  0
   25.7640   25.2700   19.5690 N   0  0  0  0  0  0  0  0  0  0  0  0
  1 27  1  0  0  0  0
  2  1  1  6  0  0  0
  2 25  1  0  0  0  0
  3 23  1  1  0  0  0
  3  2  1  0  0  0  0
  4  3  1  6  0  0  0
  4  9  1  0  0  0  0
  5 10  1  6  0  0  0
  5  6  1  0  0  0  0
  5  7  1  0  0  0  0
  6  8  1  0  0  0  0
  7  4  1  0  0  0  0
  8 16  1  6  0  0  0
  8  9  1  0  0  0  0
  9 18  1  1  0  0  0
 11 10  1  0  0  0  0
 12  5  1  0  0  0  0
 12 14  1  0  0  0  0
 13 12  2  0  0  0  0
 14 15  1  0  0  0  0
 17 16  1  0  0  0  0
 18 20  1  0  0  0  0
 18 19  1  0  0  0  0
 19 21  1  0  0  0  0
 22 19  2  0  0  0  0
 24 23  1  0  0  0  0
 25 26  1  0  0  0  0
 27 29  1  0  0  0  0
 28 27  1  0  0  0  0
 28 31  1  0  0  0  0
 30 28  2  0  0  0  0
 31 32  1  0  0  0  0
 32 33  1  0  0  0  0
 33 34  2  0  0  0  0
 33 35  1  0  0  0  0
 34 36  1  0  0  0  0
 35 37  2  0  0  0  0
 36 37  1  0  0  0  0
 36 38  1  0  0  0  0
 38 40  1  0  0  0  0
 39 41  1  0  0  0  0
 39 38  1  0  0  0  0
 40 42  1  0  0  0  0
 41 43  1  0  0  0  0
 43 42  1  0  0  0  0
 44 45  1  0  0  0  0
 46 45  1  0  0  0  0
 46 47  1  0  0  0  0
 47 48  1  0  0  0  0
 48 49  1  0  0  0  0
M  END
>  <REMARK>
 VINA RESULT:    -4.720      3.010      6.641
 INTER + INTRA:         -13.965
 INTER:                  -7.898
 INTRA:                  -6.066
 UNBOUND:                -5.796
 SMILES CC(=O)N[C@@H]1[C@@H](O)C[C@](O)(C(=O)O)O[C@H]1C(O)[C@H](O)CNC(=O)OCc1cn(C2CCCCC2)nn1
 SMILES IDX 20 1 18 2 16 3 15 4 9 5 8 6 14 7 6 8 5 9 10 10 11 12 12 13
 SMILES IDX 13 14 7 16 4 18 2 19 1 21 3 22 17 23 19 25 21 27 22 28 23 30
 SMILES IDX 24 31 25 32 26 33 27 34 36 35 28 36 35 37 29 38 30 39 34 40
 SMILES IDX 31 41 33 42 32 43
 H PARENT 10 11 13 15 7 17 4 20 17 24 19 26 21 29
 Flexibility Score: inf
  4 active torsions:
  status: ('A' for Active; 'I' for Inactive)
    1  A    between atoms: CA   and  CB  
    2  A    between atoms: CB   and  CG  
    3  A    between atoms: CG   and  CD  
    4  A    between atoms: CD   and  CE  

>  <TORSDO>
F 15

>  <BEGIN_>
RES LYS A 131

$$$$
ligand_48_pose_11_2HRL.pdbqt
 OpenBabel07062320523D

  6  5  0  0  0  0  0  0  0  0999 V2000
   33.1930   34.6630    9.2900 C   0  0  0  0  0  0  0  0  0  0  0  0
   32.0600   35.3600   10.0340 C   0  0  0  0  0  0  0  0  0  0  0  0
   30.8080   35.5200    9.2110 C   0  0  0  0  0  0  0  0  0  0  0  0
   30.1580   34.1690    8.9550 C   0  0  0  0  0  0  0  0  0  0  0  0
   28.6960   34.3420    8.5890 C   0  0  0  0  0  0  0  0  0  0  0  0
   27.8110   33.6950    9.5970 N   0  0  0  0  0  0  0  0  0  0  0  0
  1  2  1  0  0  0  0
  3  2  1  0  0  0  0
  4  3  1  0  0  0  0
  5  4  1  0  0  0  0
  5  6  1  0  0  0  0
M  END
>  <EGIN_R>
ES LYS A 135

>  <REMARK>
  4 active torsions:
  status: ('A' for Active; 'I' for Inactive)
    5  A    between atoms: CA   and  CB  
    6  A    between atoms: CB   and  CG  
    7  A    between atoms: CG   and  CD  
    8  A    between atoms: CD   and  CE  

$$$$
