ligand_3_pose_1_2HRL.pdbqt
 OpenBabel07062320523D

 49 50  0  0  1  0  0  0  0  0999 V2000
   27.4170   28.5660   19.8600 C   0  0  0  0  0  0  0  0  0  0  0  0
   28.1370   27.3600   20.4290 C   0  0  2  0  0  0  0  0  0  0  0  0
   29.5880   27.6610   20.7300 C   0  0  1  0  0  0  0  0  0  0  0  0
   29.7590   28.8260   21.6470 C   0  0  2  0  0  0  0  0  0  0  0  0
   30.7580   30.5730   20.4360 C   0  0  2  0  0  0  0  0  0  0  0  0
   32.1180   30.2660   20.9560 C   0  0  0  0  0  0  0  0  0  0  0  0
   29.7030   30.0430   21.0760 O   0  0  0  0  0  0  0  0  0  0  0  0
   32.2130   29.0150   21.7780 C   0  0  1  0  0  0  0  0  0  0  0  0
   30.9610   28.7150   22.5400 C   0  0  1  0  0  0  0  0  0  0  0  0
   30.7310   30.1210   19.0990 O   0  0  0  0  0  0  0  0  0  0  0  0
   30.9210   30.9140   18.5230 H   0  0  0  0  0  0  0  0  0  0  0  0
   30.5680   32.0460   20.3570 C   0  0  0  0  0  0  0  0  0  0  0  0
   30.6080   32.7860   21.3640 O   0  0  0  0  0  0  0  0  0  0  0  0
   30.3400   32.6410   19.1360 O   0  0  0  0  0  0  0  0  0  0  0  0
   30.6690   33.5620   18.8770 H   0  0  0  0  0  0  0  0  0  0  0  0
   32.5490   27.9210   20.9610 O   0  0  0  0  0  0  0  0  0  0  0  0
   32.8100   28.1940   20.0600 H   0  0  0  0  0  0  0  0  0  0  0  0
   30.8230   29.7380   23.5790 N   0  0  0  0  0  0  0  0  0  0  0  0
   30.6280   29.3950   24.9450 C   0  0  0  0  0  0  0  0  0  0  0  0
   30.8650   30.7530   23.3460 H   0  0  0  0  0  0  0  0  0  0  0  0
   30.4870   30.4180   26.0140 C   0  0  0  0  0  0  0  0  0  0  0  0
   30.5670   28.1870   25.3040 O   0  0  0  0  0  0  0  0  0  0  0  0
   30.0960   26.4860   21.3080 O   0  0  0  0  0  0  0  0  0  0  0  0
   29.5610   26.3680   22.1500 H   0  0  0  0  0  0  0  0  0  0  0  0
   27.9560   26.2400   19.6370 O   0  0  0  0  0  0  0  0  0  0  0  0
   27.1720   25.7100   19.8890 H   0  0  0  0  0  0  0  0  0  0  0  0
   27.9250   28.9930   18.5940 N   0  0  0  0  0  0  0  0  0  0  0  0
   27.2180   28.8460   17.3700 C   0  0  0  0  0  0  0  0  0  0  0  0
   28.8680   29.4440   18.5300 H   0  0  0  0  0  0  0  0  0  0  0  0
   26.0950   28.3280   17.3330 O   0  0  0  0  0  0  0  0  0  0  0  0
   27.7600   29.2780   16.1650 O   0  0  0  0  0  0  0  0  0  0  0  0
   27.5520   30.6150   15.7330 C   0  0  0  0  0  0  0  0  0  0  0  0
   28.8590   31.3070   15.7930 C   0  0  0  0  0  0  0  0  0  0  0  0
   29.2330   32.4430   15.1110 C   0  0  0  0  0  0  0  0  0  0  0  0
   29.9150   30.9270   16.5410 N   0  0  0  0  0  0  0  0  0  0  0  0
   30.4990   32.6990   15.4770 N   0  0  0  0  0  0  0  0  0  0  0  0
   30.8950   31.7830   16.3360 N   0  0  0  0  0  0  0  0  0  0  0  0
   31.2750   33.7940   15.0030 C   0  0  0  0  0  0  0  0  0  0  0  0
   32.3350   34.2520   15.7660 C   0  0  0  0  0  0  0  0  0  0  0  0
   30.9790   34.3980   13.7960 C   0  0  0  0  0  0  0  0  0  0  0  0
   33.0690   35.3170   15.2760 C   0  0  0  0  0  0  0  0  0  0  0  0
   31.7180   35.4540   13.3240 C   0  0  0  0  0  0  0  0  0  0  0  0
   32.7750   35.9140   14.0790 C   0  0  0  0  0  0  0  0  0  0  0  0
   29.8670   25.5550   16.9770 C   0  0  0  0  0  0  0  0  0  0  0  0
   28.3450   25.7220   17.0260 C   0  0  0  0  0  0  0  0  0  0  0  0
   27.6000   24.4110   16.8260 C   0  0  0  0  0  0  0  0  0  0  0  0
   26.1400   24.5320   17.1650 C   0  0  0  0  0  0  0  0  0  0  0  0
   25.5680   23.1470   17.4520 C   0  0  0  0  0  0  0  0  0  0  0  0
   24.1010   23.1380   17.2400 N   0  0  0  0  0  0  0  0  0  0  0  0
  2  1  1  6  0  0  0
  2  3  1  0  0  0  0
  3 23  1  1  0  0  0
  4  3  1  6  0  0  0
  4  9  1  0  0  0  0
  5 10  1  6  0  0  0
  5  6  1  0  0  0  0
  5  7  1  0  0  0  0
  6  8  1  0  0  0  0
  7  4  1  0  0  0  0
  8 16  1  6  0  0  0
  8  9  1  0  0  0  0
  9 18  1  1  0  0  0
 11 10  1  0  0  0  0
 12  5  1  0  0  0  0
 12 13  2  0  0  0  0
 14 12  1  0  0  0  0
 15 14  1  0  0  0  0
 17 16  1  0  0  0  0
 18 19  1  0  0  0  0
 19 22  2  0  0  0  0
 19 21  1  0  0  0  0
 20 18  1  0  0  0  0
 23 24  1  0  0  0  0
 25 26  1  0  0  0  0
 25  2  1  0  0  0  0
 27  1  1  0  0  0  0
 28 27  1  0  0  0  0
 29 27  1  0  0  0  0
 30 28  2  0  0  0  0
 31 28  1  0  0  0  0
 32 33  1  0  0  0  0
 32 31  1  0  0  0  0
 33 35  1  0  0  0  0
 34 36  1  0  0  0  0
 34 33  2  0  0  0  0
 36 37  1  0  0  0  0
 37 35  2  0  0  0  0
 38 36  1  0  0  0  0
 38 39  2  0  0  0  0
 40 38  1  0  0  0  0
 41 39  1  0  0  0  0
 42 40  2  0  0  0  0
 42 43  1  0  0  0  0
 43 41  2  0  0  0  0
 44 45  1  0  0  0  0
 46 45  1  0  0  0  0
 46 47  1  0  0  0  0
 47 48  1  0  0  0  0
 49 48  1  0  0  0  0
M  END
>  <REMARK>
 VINA RESULT:    -6.049      9.044     14.323
 INTER + INTRA:         -14.955
 INTER:                  -8.894
 INTRA:                  -6.061
 UNBOUND:                -4.485
 SMILES CC(=O)N[C@@H]1[C@@H](O)C[C@](O)(C(=O)O)O[C@H]1C(O)[C@H](O)CNC(=O)OCc1cn(-c2ccccc2)nn1
 SMILES IDX 20 1 18 2 16 3 15 4 9 5 8 6 14 7 6 8 5 9 10 10 11 12 12 13
 SMILES IDX 13 14 7 16 4 18 2 19 1 21 3 22 17 23 19 25 21 27 22 28 23 30
 SMILES IDX 24 31 25 32 26 33 27 34 36 35 28 36 35 37 29 38 30 39 34 40
 SMILES IDX 31 41 33 42 32 43
 H PARENT 10 11 13 15 7 17 4 20 17 24 19 26 21 29
 Flexibility Score: inf
  4 active torsions:
  status: ('A' for Active; 'I' for Inactive)
    1  A    between atoms: CA   and  CB  
    2  A    between atoms: CB   and  CG  
    3  A    between atoms: CG   and  CD  
    4  A    between atoms: CD   and  CE  

>  <TORSDO>
F 15

>  <BEGIN_>
RES LYS A 131

$$$$
ligand_3_pose_1_2HRL.pdbqt
 OpenBabel07062320523D

  6  5  0  0  0  0  0  0  0  0999 V2000
   33.1930   34.6630    9.2900 C   0  0  0  0  0  0  0  0  0  0  0  0
   32.0600   35.3600   10.0340 C   0  0  0  0  0  0  0  0  0  0  0  0
   30.7070   34.7460    9.7840 C   0  0  0  0  0  0  0  0  0  0  0  0
   30.4860   34.5220    8.2950 C   0  0  0  0  0  0  0  0  0  0  0  0
   29.0670   34.8890    7.9070 C   0  0  0  0  0  0  0  0  0  0  0  0
   28.0800   34.2790    8.8410 N   0  0  0  0  0  0  0  0  0  0  0  0
  1  2  1  0  0  0  0
  3  2  1  0  0  0  0
  4  3  1  0  0  0  0
  5  4  1  0  0  0  0
  5  6  1  0  0  0  0
M  END
>  <EGIN_R>
ES LYS A 135

>  <REMARK>
  4 active torsions:
  status: ('A' for Active; 'I' for Inactive)
    5  A    between atoms: CA   and  CB  
    6  A    between atoms: CB   and  CG  
    7  A    between atoms: CG   and  CD  
    8  A    between atoms: CD   and  CE  

$$$$
