ligand_73_pose_15_2HRL.pdbqt
 OpenBabel07062320523D

 54 55  0  0  1  0  0  0  0  0999 V2000
   28.4570   29.0830   18.9330 N   0  0  0  0  0  0  0  0  0  0  0  0
   27.4140   28.5970   18.1010 C   0  0  0  0  0  0  0  0  0  0  0  0
   26.4270   27.9420   18.5750 O   0  0  0  0  0  0  0  0  0  0  0  0
   29.2350   29.6150   18.5120 H   0  0  0  0  0  0  0  0  0  0  0  0
   28.4010   28.8320   20.3440 C   0  0  0  0  0  0  0  0  0  0  0  0
   29.4550   27.9470   20.9050 C   0  0  2  0  0  0  0  0  0  0  0  0
   30.8710   28.3090   20.5400 C   0  0  1  0  0  0  0  0  0  0  0  0
   31.6780   28.8770   21.6650 C   0  0  2  0  0  0  0  0  0  0  0  0
   32.6920   28.4260   23.6750 C   0  0  2  0  0  0  0  0  0  0  0  0
   33.3570   29.7370   23.3220 C   0  0  0  0  0  0  0  0  0  0  0  0
   31.8000   27.9820   22.7150 O   0  0  0  0  0  0  0  0  0  0  0  0
   32.3110   30.7740   23.0870 C   0  0  1  0  0  0  0  0  0  0  0  0
   31.3130   30.2660   22.0400 C   0  0  1  0  0  0  0  0  0  0  0  0
   32.0110   28.6260   24.8680 O   0  0  0  0  0  0  0  0  0  0  0  0
   31.6410   29.5500   24.8380 H   0  0  0  0  0  0  0  0  0  0  0  0
   33.7700   27.4340   23.9130 C   0  0  0  0  0  0  0  0  0  0  0  0
   34.3430   27.3460   25.0300 O   0  0  0  0  0  0  0  0  0  0  0  0
   34.1680   26.5790   22.9030 O   0  0  0  0  0  0  0  0  0  0  0  0
   34.7270   25.7600   23.0540 H   0  0  0  0  0  0  0  0  0  0  0  0
   31.6760   31.0080   24.3210 O   0  0  0  0  0  0  0  0  0  0  0  0
   32.1570   31.7890   24.7310 H   0  0  0  0  0  0  0  0  0  0  0  0
   31.4990   31.0930   20.8370 N   0  0  0  0  0  0  0  0  0  0  0  0
   30.5300   32.0130   20.3860 C   0  0  0  0  0  0  0  0  0  0  0  0
   32.3900   30.9910   20.2970 H   0  0  0  0  0  0  0  0  0  0  0  0
   30.7550   32.8270   19.1670 C   0  0  0  0  0  0  0  0  0  0  0  0
   29.4710   32.1460   21.0140 O   0  0  0  0  0  0  0  0  0  0  0  0
   31.5590   27.2080   20.0300 O   0  0  0  0  0  0  0  0  0  0  0  0
   32.0820   27.4060   19.2360 H   0  0  0  0  0  0  0  0  0  0  0  0
   29.1670   26.6480   20.4570 O   0  0  0  0  0  0  0  0  0  0  0  0
   29.6170   26.5370   19.5710 H   0  0  0  0  0  0  0  0  0  0  0  0
   27.4900   28.8500   16.7520 O   0  0  0  0  0  0  0  0  0  0  0  0
   27.2350   30.1340   16.2700 C   0  0  0  0  0  0  0  0  0  0  0  0
   28.4680   30.9250   16.0130 C   0  0  0  0  0  0  0  0  0  0  0  0
   28.5750   32.1800   15.4320 C   0  0  0  0  0  0  0  0  0  0  0  0
   29.7370   30.5760   16.2950 N   0  0  0  0  0  0  0  0  0  0  0  0
   29.8630   32.5520   15.3760 N   0  0  0  0  0  0  0  0  0  0  0  0
   30.5530   31.5580   15.9090 N   0  0  0  0  0  0  0  0  0  0  0  0
   30.4260   33.7540   14.8630 C   0  0  0  0  0  0  0  0  0  0  0  0
   29.9390   34.3030   13.6950 C   0  0  0  0  0  0  0  0  0  0  0  0
   31.4620   34.4190   15.4850 C   0  0  0  0  0  0  0  0  0  0  0  0
   30.4720   35.4720   13.1770 C   0  0  0  0  0  0  0  0  0  0  0  0
   32.0280   35.5890   15.0050 C   0  0  0  0  0  0  0  0  0  0  0  0
   31.5050   36.1080   13.8240 C   0  0  0  0  0  0  0  0  0  0  0  0
   33.0870   36.2570   15.6540 N   0  0  0  0  0  0  0  0  0  0  0  0
   34.1590   35.6740   15.8240 O   0  0  0  0  0  0  0  0  0  0  0  0
   32.9210   37.5350   16.0870 O   0  0  0  0  0  0  0  0  0  0  0  0
   32.0750   37.2850   13.3430 O   0  0  0  0  0  0  0  0  0  0  0  0
   31.4850   38.1280   13.3090 H   0  0  0  0  0  0  0  0  0  0  0  0
   29.8670   25.5550   16.9770 C   0  0  0  0  0  0  0  0  0  0  0  0
   28.3450   25.7220   17.0260 C   0  0  0  0  0  0  0  0  0  0  0  0
   27.6020   24.3980   16.9290 C   0  0  0  0  0  0  0  0  0  0  0  0
   26.1600   24.5270   17.3350 C   0  0  0  0  0  0  0  0  0  0  0  0
   25.9360   23.8010   18.6570 C   0  0  0  0  0  0  0  0  0  0  0  0
   25.5310   24.7580   19.7130 N   0  0  0  0  0  0  0  0  0  0  0  0
  1  5  1  0  0  0  0
  2  3  2  0  0  0  0
  2  1  1  0  0  0  0
  4  1  1  0  0  0  0
  6  5  1  6  0  0  0
  7 27  1  1  0  0  0
  7  6  1  0  0  0  0
  8  7  1  6  0  0  0
  8 13  1  0  0  0  0
  8 11  1  0  0  0  0
  9 16  1  1  0  0  0
  9 14  1  0  0  0  0
 10  9  1  0  0  0  0
 11  9  1  0  0  0  0
 12 10  1  0  0  0  0
 12 20  1  1  0  0  0
 13 22  1  6  0  0  0
 13 12  1  0  0  0  0
 15 14  1  0  0  0  0
 16 17  2  0  0  0  0
 18 19  1  0  0  0  0
 18 16  1  0  0  0  0
 20 21  1  0  0  0  0
 23 22  1  0  0  0  0
 23 26  2  0  0  0  0
 24 22  1  0  0  0  0
 25 23  1  0  0  0  0
 28 27  1  0  0  0  0
 29  6  1  0  0  0  0
 30 29  1  0  0  0  0
 31  2  1  0  0  0  0
 32 31  1  0  0  0  0
 33 32  1  0  0  0  0
 33 35  1  0  0  0  0
 34 33  2  0  0  0  0
 36 34  1  0  0  0  0
 36 37  1  0  0  0  0
 37 35  2  0  0  0  0
 38 36  1  0  0  0  0
 38 40  2  0  0  0  0
 39 38  1  0  0  0  0
 41 39  2  0  0  0  0
 41 43  1  0  0  0  0
 42 40  1  0  0  0  0
 42 44  1  0  0  0  0
 43 42  2  0  0  0  0
 44 45  2  0  0  0  0
 44 46  2  0  0  0  0
 47 43  1  0  0  0  0
 48 47  1  0  0  0  0
 49 50  1  0  0  0  0
 51 50  1  0  0  0  0
 51 52  1  0  0  0  0
 52 53  1  0  0  0  0
 53 54  1  0  0  0  0
M  END
>  <REMARK>
 VINA RESULT:    -3.942      2.879      6.659
 INTER + INTRA:         -14.478
 INTER:                  -9.311
 INTRA:                  -5.167
 UNBOUND:                -7.311
 SMILES CC(=O)N[C@@H]1[C@@H](O)C[C@](O)(C(=O)O)O[C@H]1C(O)[C@H](O)CNC(=O)OCc1cn(-c2ccc(O)c([N+](=O)[O-])c2)nn1
 SMILES IDX 21 1 22 2 23 3 20 5 18 6 16 7 15 8 9 9 8 10 14 11 6 12 5 13
 SMILES IDX 10 14 11 16 12 17 13 18 7 20 4 22 2 23 1 25 3 26 17 27 19 29
 SMILES IDX 24 31 25 32 26 33 27 34 40 35 28 36 39 37 29 38 30 39 38 40
 SMILES IDX 31 41 34 42 32 43 35 44 36 45 37 46 33 47
 H PARENT 21 4 10 15 13 19 7 21 4 24 17 28 19 30 33 48
 Flexibility Score: inf
  4 active torsions:
  status: ('A' for Active; 'I' for Inactive)
    1  A    between atoms: CA   and  CB  
    2  A    between atoms: CB   and  CG  
    3  A    between atoms: CG   and  CD  
    4  A    between atoms: CD   and  CE  

>  <TORSDO>
F 17

>  <BEGIN_>
RES LYS A 131

$$$$
ligand_73_pose_15_2HRL.pdbqt
 OpenBabel07062320523D

  6  5  0  0  0  0  0  0  0  0999 V2000
   33.1930   34.6630    9.2900 C   0  0  0  0  0  0  0  0  0  0  0  0
   32.0600   35.3600   10.0340 C   0  0  0  0  0  0  0  0  0  0  0  0
   30.7920   35.4750    9.2290 C   0  0  0  0  0  0  0  0  0  0  0  0
   29.9970   34.1800    9.2910 C   0  0  0  0  0  0  0  0  0  0  0  0
   28.7290   34.3720   10.1010 C   0  0  0  0  0  0  0  0  0  0  0  0
   27.5580   33.7550    9.4190 N   0  0  0  0  0  0  0  0  0  0  0  0
  1  2  1  0  0  0  0
  3  4  1  0  0  0  0
  3  2  1  0  0  0  0
  4  5  1  0  0  0  0
  6  5  1  0  0  0  0
M  END
>  <EGIN_R>
ES LYS A 135

>  <REMARK>
  4 active torsions:
  status: ('A' for Active; 'I' for Inactive)
    5  A    between atoms: CA   and  CB  
    6  A    between atoms: CB   and  CG  
    7  A    between atoms: CG   and  CD  
    8  A    between atoms: CD   and  CE  

$$$$
