ligand_55_pose_6_2HRL.pdbqt
 OpenBabel07062320523D

 51 51  0  0  1  0  0  0  0  0999 V2000
   28.4130   33.5930   17.1800 N   0  0  0  0  0  0  0  0  0  0  0  0
   27.6080   33.7340   16.0310 C   0  0  0  0  0  0  0  0  0  0  0  0
   28.0440   34.1140   14.9320 O   0  0  0  0  0  0  0  0  0  0  0  0
   27.9270   33.2500   18.0630 H   0  0  0  0  0  0  0  0  0  0  0  0
   29.7990   33.8640   17.2630 C   0  0  0  0  0  0  0  0  0  0  0  0
   30.7340   32.6820   17.2080 C   0  0  2  0  0  0  0  0  0  0  0  0
   31.2650   32.6080   15.8100 C   0  0  2  0  0  0  0  0  0  0  0  0
   31.5170   33.9030   15.1070 C   0  0  2  0  0  0  0  0  0  0  0  0
   31.2600   34.8630   12.9840 C   0  0  2  0  0  0  0  0  0  0  0  0
   32.4810   35.6960   13.1820 C   0  0  0  0  0  0  0  0  0  0  0  0
   31.0240   33.8830   13.8670 O   0  0  0  0  0  0  0  0  0  0  0  0
   33.5110   35.0520   14.0700 C   0  0  1  0  0  0  0  0  0  0  0  0
   32.9000   34.4500   15.2880 C   0  0  1  0  0  0  0  0  0  0  0  0
   31.3130   34.3090   11.6990 O   0  0  0  0  0  0  0  0  0  0  0  0
   30.6780   33.5620   11.6550 H   0  0  0  0  0  0  0  0  0  0  0  0
   30.0800   35.7760   12.9850 C   0  0  0  0  0  0  0  0  0  0  0  0
   30.0910   36.9280   13.4570 O   0  0  0  0  0  0  0  0  0  0  0  0
   28.8620   35.3470   12.4270 O   0  0  0  0  0  0  0  0  0  0  0  0
   28.8280   34.8970   11.5210 H   0  0  0  0  0  0  0  0  0  0  0  0
   34.2580   34.1630   13.3070 O   0  0  0  0  0  0  0  0  0  0  0  0
   33.7230   33.9640   12.4960 H   0  0  0  0  0  0  0  0  0  0  0  0
   32.9640   35.4370   16.3500 N   0  0  0  0  0  0  0  0  0  0  0  0
   34.1770   36.0130   16.8150 C   0  0  0  0  0  0  0  0  0  0  0  0
   32.0870   35.7850   16.8400 H   0  0  0  0  0  0  0  0  0  0  0  0
   34.1910   37.0320   17.9180 C   0  0  0  0  0  0  0  0  0  0  0  0
   35.2390   35.6290   16.2600 O   0  0  0  0  0  0  0  0  0  0  0  0
   30.2940   31.8390   15.1030 O   0  0  0  0  0  0  0  0  0  0  0  0
   29.7580   32.4120   14.5150 H   0  0  0  0  0  0  0  0  0  0  0  0
   30.0830   31.5700   17.6680 O   0  0  0  0  0  0  0  0  0  0  0  0
   29.1860   31.4930   17.3220 H   0  0  0  0  0  0  0  0  0  0  0  0
   26.2510   33.4390   16.1040 O   0  0  0  0  0  0  0  0  0  0  0  0
   25.6720   32.2760   15.5690 C   0  0  0  0  0  0  0  0  0  0  0  0
   26.4200   31.0760   15.9910 C   0  0  0  0  0  0  0  0  0  0  0  0
   25.9920   30.0200   16.7700 C   0  0  0  0  0  0  0  0  0  0  0  0
   27.6830   30.8050   15.6740 N   0  0  0  0  0  0  0  0  0  0  0  0
   27.0000   29.1460   16.9030 N   0  0  0  0  0  0  0  0  0  0  0  0
   28.0200   29.6540   16.2210 N   0  0  0  0  0  0  0  0  0  0  0  0
   27.0600   27.8950   17.6120 C   0  0  0  0  0  0  0  0  0  0  0  0
   27.5670   28.0650   19.0330 C   0  0  0  0  0  0  0  0  0  0  0  0
   28.5560   29.1210   19.0160 N   0  0  0  0  0  0  0  0  0  0  0  0
   28.5600   29.6390   18.1260 H   0  0  0  0  0  0  0  0  0  0  0  0
   28.3740   30.2060   20.3380 S   0  0  0  0  0  0  0  0  0  0  0  0
   27.7210   29.4410   21.4590 O   0  0  0  0  0  0  0  0  0  0  0  0
   29.7130   30.7400   20.7350 O   0  0  0  0  0  0  0  0  0  0  0  0
   27.3050   31.5590   19.9020 C   0  0  0  0  0  0  0  0  0  0  0  0
   29.8670   25.5550   16.9770 C   0  0  0  0  0  0  0  0  0  0  0  0
   28.3450   25.7220   17.0260 C   0  0  0  0  0  0  0  0  0  0  0  0
   27.6000   24.4080   16.8460 C   0  0  0  0  0  0  0  0  0  0  0  0
   26.5990   24.1690   17.9420 C   0  0  0  0  0  0  0  0  0  0  0  0
   25.2450   23.8270   17.3300 C   0  0  0  0  0  0  0  0  0  0  0  0
   24.2110   23.7170   18.3860 N   0  0  0  0  0  0  0  0  0  0  0  0
  1  5  1  0  0  0  0
  1  4  1  0  0  0  0
  2 31  1  0  0  0  0
  2  1  1  0  0  0  0
  3  2  2  0  0  0  0
  6  5  1  6  0  0  0
  6 29  1  0  0  0  0
  7 27  1  6  0  0  0
  7  6  1  0  0  0  0
  8 13  1  0  0  0  0
  8  7  1  6  0  0  0
  9 14  1  6  0  0  0
  9 16  1  0  0  0  0
  9 10  1  0  0  0  0
  9 11  1  0  0  0  0
 10 12  1  0  0  0  0
 11  8  1  0  0  0  0
 12 20  1  6  0  0  0
 12 13  1  0  0  0  0
 13 22  1  1  0  0  0
 15 14  1  0  0  0  0
 16 17  2  0  0  0  0
 18 16  1  0  0  0  0
 19 18  1  0  0  0  0
 21 20  1  0  0  0  0
 22 23  1  0  0  0  0
 22 24  1  0  0  0  0
 23 25  1  0  0  0  0
 26 23  2  0  0  0  0
 28 27  1  0  0  0  0
 30 29  1  0  0  0  0
 32 33  1  0  0  0  0
 32 31  1  0  0  0  0
 33 34  2  0  0  0  0
 34 36  1  0  0  0  0
 35 33  1  0  0  0  0
 35 37  2  0  0  0  0
 36 38  1  0  0  0  0
 37 36  1  0  0  0  0
 38 39  1  0  0  0  0
 40 39  1  0  0  0  0
 40 42  1  0  0  0  0
 41 40  1  0  0  0  0
 42 44  2  0  0  0  0
 42 43  2  0  0  0  0
 45 42  1  0  0  0  0
 46 47  1  0  0  0  0
 48 47  1  0  0  0  0
 48 49  1  0  0  0  0
 50 49  1  0  0  0  0
 50 51  1  0  0  0  0
M  END
>  <REMARK>
 VINA RESULT:    -4.583      2.757      5.005
 INTER + INTRA:         -15.012
 INTER:                  -8.827
 INTRA:                  -6.186
 UNBOUND:                -6.277
 SMILES CC(=O)N[C@@H]1[C@@H](O)C[C@](O)(C(=O)O)O[C@H]1C(O)[C@H](O)CNC(=O)OCc1cn(CCNS(C)(=O)=O)nn1
 SMILES IDX 21 1 22 2 23 3 20 5 18 6 16 7 15 8 9 9 8 10 14 11 6 12 5 13
 SMILES IDX 10 14 11 16 12 17 13 18 7 20 4 22 2 23 1 25 3 26 17 27 19 29
 SMILES IDX 24 31 25 32 26 33 27 34 37 35 28 36 36 37 29 38 30 39 31 40
 SMILES IDX 32 42 34 43 35 44 33 45
 H PARENT 21 4 10 15 13 19 7 21 4 24 17 28 19 30 31 41
 Flexibility Score: inf
  4 active torsions:
  status: ('A' for Active; 'I' for Inactive)
    1  A    between atoms: CA   and  CB  
    2  A    between atoms: CB   and  CG  
    3  A    between atoms: CG   and  CD  
    4  A    between atoms: CD   and  CE  

>  <TORSDO>
F 18

>  <BEGIN_>
RES LYS A 131

$$$$
ligand_55_pose_6_2HRL.pdbqt
 OpenBabel07062320523D

  6  5  0  0  0  0  0  0  0  0999 V2000
   33.1930   34.6630    9.2900 C   0  0  0  0  0  0  0  0  0  0  0  0
   32.0600   35.3600   10.0340 C   0  0  0  0  0  0  0  0  0  0  0  0
   30.9180   35.7720    9.1420 C   0  0  0  0  0  0  0  0  0  0  0  0
   30.3270   34.5640    8.4330 C   0  0  0  0  0  0  0  0  0  0  0  0
   28.9310   34.8720    7.9270 C   0  0  0  0  0  0  0  0  0  0  0  0
   27.8950   34.2540    8.8010 N   0  0  0  0  0  0  0  0  0  0  0  0
  1  2  1  0  0  0  0
  3  2  1  0  0  0  0
  4  3  1  0  0  0  0
  5  4  1  0  0  0  0
  5  6  1  0  0  0  0
M  END
>  <EGIN_R>
ES LYS A 135

>  <REMARK>
  4 active torsions:
  status: ('A' for Active; 'I' for Inactive)
    5  A    between atoms: CA   and  CB  
    6  A    between atoms: CB   and  CG  
    7  A    between atoms: CG   and  CD  
    8  A    between atoms: CD   and  CE  

$$$$
