ligand_51_pose_8_2HRL.pdbqt
 OpenBabel07062320523D

 53 56  0  0  1  0  0  0  0  0999 V2000
   20.1590   36.4150    7.7160 C   0  0  0  0  0  0  0  0  0  0  0  0
   21.4640   37.0750    8.0780 C   0  0  2  0  0  0  0  0  0  0  0  0
   22.5460   36.0740    8.4300 C   0  0  1  0  0  0  0  0  0  0  0  0
   23.5640   36.7110    9.3820 C   0  0  2  0  0  0  0  0  0  0  0  0
   25.1780   37.9990    8.2690 C   0  0  2  0  0  0  0  0  0  0  0  0
   25.8390   36.6910    7.9140 C   0  0  0  0  0  0  0  0  0  0  0  0
   24.0140   37.9180    8.9510 O   0  0  0  0  0  0  0  0  0  0  0  0
   25.9160   35.8260    9.1230 C   0  0  1  0  0  0  0  0  0  0  0  0
   24.5980   35.7520    9.8450 C   0  0  1  0  0  0  0  0  0  0  0  0
   24.8910   38.6080    7.0250 O   0  0  0  0  0  0  0  0  0  0  0  0
   24.4450   39.4730    7.2290 H   0  0  0  0  0  0  0  0  0  0  0  0
   26.2060   38.8410    8.9290 C   0  0  0  0  0  0  0  0  0  0  0  0
   27.2850   39.1580    8.3580 O   0  0  0  0  0  0  0  0  0  0  0  0
   25.9940   39.3050   10.2100 O   0  0  0  0  0  0  0  0  0  0  0  0
   26.6750   39.1840   10.9600 H   0  0  0  0  0  0  0  0  0  0  0  0
   26.3600   34.5500    8.7040 O   0  0  0  0  0  0  0  0  0  0  0  0
   27.3360   34.5520    8.6100 H   0  0  0  0  0  0  0  0  0  0  0  0
   24.8110   35.9540   11.2720 N   0  0  0  0  0  0  0  0  0  0  0  0
   25.4790   35.0010   12.0840 C   0  0  0  0  0  0  0  0  0  0  0  0
   24.4580   36.8440   11.7320 H   0  0  0  0  0  0  0  0  0  0  0  0
   25.6510   35.2870   13.5150 C   0  0  0  0  0  0  0  0  0  0  0  0
   25.9010   33.9380   11.5360 O   0  0  0  0  0  0  0  0  0  0  0  0
   22.0600   34.8910    8.8970 O   0  0  0  0  0  0  0  0  0  0  0  0
   22.7070   34.2160    9.1500 H   0  0  0  0  0  0  0  0  0  0  0  0
   21.2140   37.9610    9.1220 O   0  0  0  0  0  0  0  0  0  0  0  0
   21.3490   37.4690    9.9930 H   0  0  0  0  0  0  0  0  0  0  0  0
   19.4720   36.1180    8.9600 N   0  0  0  0  0  0  0  0  0  0  0  0
   18.8630   34.8400    9.2050 C   0  0  0  0  0  0  0  0  0  0  0  0
   19.3790   36.8070    9.7430 H   0  0  0  0  0  0  0  0  0  0  0  0
   18.9460   33.9770    8.2970 O   0  0  0  0  0  0  0  0  0  0  0  0
   18.2100   34.5440   10.3770 O   0  0  0  0  0  0  0  0  0  0  0  0
   18.7030   35.0650   11.5910 C   0  0  0  0  0  0  0  0  0  0  0  0
   20.0200   34.4020   11.8550 C   0  0  0  0  0  0  0  0  0  0  0  0
   20.1580   33.1500   12.4240 C   0  0  0  0  0  0  0  0  0  0  0  0
   21.2600   34.8280   11.6280 N   0  0  0  0  0  0  0  0  0  0  0  0
   21.4520   32.8790   12.5140 N   0  0  0  0  0  0  0  0  0  0  0  0
   22.1130   33.9080   12.0260 N   0  0  0  0  0  0  0  0  0  0  0  0
   22.0040   31.6400   13.0660 C   0  0  2  0  0  0  0  0  0  0  0  0
   23.5120   31.7220   12.8740 C   0  0  0  0  0  0  0  0  0  0  0  0
   21.4510   30.4440   12.3540 C   0  0  0  0  0  0  0  0  0  0  0  0
   21.6530   31.5460   14.5300 C   0  0  0  0  0  0  0  0  0  0  0  0
   24.1550   30.4750   13.4510 C   0  0  1  0  0  0  0  0  0  0  0  0
   22.1380   29.2110   12.8950 C   0  0  1  0  0  0  0  0  0  0  0  0
   22.3070   30.3100   15.1100 C   0  0  2  0  0  0  0  0  0  0  0  0
   23.8100   30.3960   14.9090 C   0  0  0  0  0  0  0  0  0  0  0  0
   23.6210   29.2900   12.6860 C   0  0  0  0  0  0  0  0  0  0  0  0
   21.7880   29.1070   14.3620 C   0  0  0  0  0  0  0  0  0  0  0  0
   29.8670   25.5550   16.9770 C   0  0  0  0  0  0  0  0  0  0  0  0
   28.3450   25.7220   17.0260 C   0  0  0  0  0  0  0  0  0  0  0  0
   27.6010   24.4040   16.8780 C   0  0  0  0  0  0  0  0  0  0  0  0
   26.2300   24.4550   17.4930 C   0  0  0  0  0  0  0  0  0  0  0  0
   26.2260   25.4530   18.6460 C   0  0  0  0  0  0  0  0  0  0  0  0
   25.4910   24.9000   19.8080 N   0  0  0  0  0  0  0  0  0  0  0  0
  1 27  1  0  0  0  0
  2  1  1  1  0  0  0
  2  3  1  0  0  0  0
  2 25  1  0  0  0  0
  3 23  1  1  0  0  0
  4  3  1  6  0  0  0
  4  9  1  0  0  0  0
  5 10  1  6  0  0  0
  5 12  1  0  0  0  0
  5  7  1  0  0  0  0
  6  5  1  0  0  0  0
  6  8  1  0  0  0  0
  7  4  1  0  0  0  0
  8 16  1  6  0  0  0
  8  9  1  0  0  0  0
  9 18  1  1  0  0  0
 10 11  1  0  0  0  0
 12 14  1  0  0  0  0
 13 12  2  0  0  0  0
 14 15  1  0  0  0  0
 17 16  1  0  0  0  0
 18 20  1  0  0  0  0
 18 19  1  0  0  0  0
 19 21  1  0  0  0  0
 22 19  2  0  0  0  0
 23 24  1  0  0  0  0
 25 26  1  0  0  0  0
 27 28  1  0  0  0  0
 27 29  1  0  0  0  0
 28 31  1  0  0  0  0
 30 28  2  0  0  0  0
 31 32  1  0  0  0  0
 32 33  1  0  0  0  0
 33 34  2  0  0  0  0
 34 36  1  0  0  0  0
 35 33  1  0  0  0  0
 35 37  2  0  0  0  0
 36 38  1  0  0  0  0
 37 36  1  0  0  0  0
 38 40  1  6  0  0  0
 38 41  1  0  0  0  0
 39 38  1  0  0  0  0
 39 42  1  0  0  0  0
 41 44  1  0  0  0  0
 42 46  1  6  0  0  0
 42 45  1  0  0  0  0
 43 40  1  1  0  0  0
 43 47  1  0  0  0  0
 44 47  1  6  0  0  0
 45 44  1  0  0  0  0
 46 43  1  0  0  0  0
 48 49  1  0  0  0  0
 50 49  1  0  0  0  0
 50 51  1  0  0  0  0
 51 52  1  0  0  0  0
 52 53  1  0  0  0  0
M  END
>  <REMARK>
 VINA RESULT:    -4.887      7.453     12.927
 INTER + INTRA:         -15.013
 INTER:                  -8.747
 INTRA:                  -6.266
 UNBOUND:                -6.554
 SMILES CC(=O)N[C@@H]1[C@@H](O)C[C@](O)(C(=O)O)O[C@H]1C(O)[C@H](O)CNC(=O)OCc1cn(C23CC4CC(CC(C4)C2)C3)nn1
 SMILES IDX 20 1 18 2 16 3 15 4 9 5 8 6 14 7 6 8 5 9 10 10 11 12 12 13
 SMILES IDX 13 14 7 16 4 18 2 19 1 21 3 22 17 23 19 25 21 27 22 28 23 30
 SMILES IDX 24 31 25 32 26 33 27 34 40 35 28 36 39 37 29 38 38 39 37 40
 SMILES IDX 30 41 33 42 35 43 31 44 32 45 34 46 36 47
 H PARENT 10 11 13 15 7 17 4 20 17 24 19 26 21 29
 Flexibility Score: inf
  4 active torsions:
  status: ('A' for Active; 'I' for Inactive)
    1  A    between atoms: CA   and  CB  
    2  A    between atoms: CB   and  CG  
    3  A    between atoms: CG   and  CD  
    4  A    between atoms: CD   and  CE  

>  <TORSDO>
F 15

>  <BEGIN_>
RES LYS A 131

$$$$
ligand_51_pose_8_2HRL.pdbqt
 OpenBabel07062320523D

  6  5  0  0  0  0  0  0  0  0999 V2000
   33.1930   34.6630    9.2900 C   0  0  0  0  0  0  0  0  0  0  0  0
   32.0600   35.3600   10.0340 C   0  0  0  0  0  0  0  0  0  0  0  0
   30.7190   34.6980    9.8470 C   0  0  0  0  0  0  0  0  0  0  0  0
   30.3800   34.5820    8.3690 C   0  0  0  0  0  0  0  0  0  0  0  0
   29.5540   35.7710    7.9170 C   0  0  0  0  0  0  0  0  0  0  0  0
   28.9580   35.5310    6.5740 N   0  0  0  0  0  0  0  0  0  0  0  0
  1  2  1  0  0  0  0
  3  2  1  0  0  0  0
  4  3  1  0  0  0  0
  5  4  1  0  0  0  0
  6  5  1  0  0  0  0
M  END
>  <EGIN_R>
ES LYS A 135

>  <REMARK>
  4 active torsions:
  status: ('A' for Active; 'I' for Inactive)
    5  A    between atoms: CA   and  CB  
    6  A    between atoms: CB   and  CG  
    7  A    between atoms: CG   and  CD  
    8  A    between atoms: CD   and  CE  

$$$$
