ligand_34_pose_9_2HRL.pdbqt
 OpenBabel07062320523D

 69 73  0  0  1  0  0  0  0  0999 V2000
   30.5270   30.2810   19.7110 N   0  0  0  0  0  0  0  0  0  0  0  0
   29.8970   31.2420   18.8470 C   0  0  0  0  0  0  0  0  0  0  0  0
   28.6470   31.3700   18.9570 O   0  0  0  0  0  0  0  0  0  0  0  0
   31.5520   30.1350   19.6630 H   0  0  0  0  0  0  0  0  0  0  0  0
   29.7570   29.5060   20.6530 C   0  0  0  0  0  0  0  0  0  0  0  0
   29.5580   28.1290   20.1100 C   0  0  2  0  0  0  0  0  0  0  0  0
   28.3200   27.4550   20.7000 C   0  0  2  0  0  0  0  0  0  0  0  0
   27.4020   26.9700   19.5890 C   0  0  2  0  0  0  0  0  0  0  0  0
   26.6350   28.5160   18.0240 C   0  0  2  0  0  0  0  0  0  0  0  0
   25.4260   27.6690   17.6900 C   0  0  0  0  0  0  0  0  0  0  0  0
   27.6570   27.7200   18.4770 O   0  0  0  0  0  0  0  0  0  0  0  0
   25.0090   26.8550   18.8600 C   0  0  1  0  0  0  0  0  0  0  0  0
   25.9770   26.9090   20.0160 C   0  0  1  0  0  0  0  0  0  0  0  0
   26.2340   29.4870   18.9060 O   0  0  0  0  0  0  0  0  0  0  0  0
   25.4170   29.9550   18.6530 H   0  0  0  0  0  0  0  0  0  0  0  0
   27.0790   29.1480   16.7580 C   0  0  0  0  0  0  0  0  0  0  0  0
   26.2930   29.8890   16.1180 O   0  0  0  0  0  0  0  0  0  0  0  0
   28.3440   28.9630   16.2250 O   0  0  0  0  0  0  0  0  0  0  0  0
   28.6910   28.0250   15.9700 H   0  0  0  0  0  0  0  0  0  0  0  0
   23.7530   27.2270   19.3350 O   0  0  0  0  0  0  0  0  0  0  0  0
   23.0100   26.7730   18.8810 H   0  0  0  0  0  0  0  0  0  0  0  0
   25.7350   25.6870   20.7980 N   0  0  0  0  0  0  0  0  0  0  0  0
   25.4630   25.6880   22.1770 C   0  0  0  0  0  0  0  0  0  0  0  0
   25.7710   24.7810   20.2770 H   0  0  0  0  0  0  0  0  0  0  0  0
   25.2310   24.4140   22.8950 C   0  0  0  0  0  0  0  0  0  0  0  0
   25.4310   26.8240   22.7540 O   0  0  0  0  0  0  0  0  0  0  0  0
   27.6900   28.4320   21.4790 O   0  0  0  0  0  0  0  0  0  0  0  0
   27.2420   27.9490   22.2250 H   0  0  0  0  0  0  0  0  0  0  0  0
   30.6860   27.3320   20.2870 O   0  0  0  0  0  0  0  0  0  0  0  0
   31.2430   27.6280   21.0450 H   0  0  0  0  0  0  0  0  0  0  0  0
   30.5820   31.9980   17.9430 O   0  0  0  0  0  0  0  0  0  0  0  0
   30.4510   31.7920   16.5570 C   0  0  0  0  0  0  0  0  0  0  0  0
   29.8830   33.0090   15.9450 C   0  0  0  0  0  0  0  0  0  0  0  0
   29.7300   33.2730   14.5820 C   0  0  0  0  0  0  0  0  0  0  0  0
   29.4120   34.0980   16.5690 N   0  0  0  0  0  0  0  0  0  0  0  0
   29.1800   34.4920   14.4360 N   0  0  0  0  0  0  0  0  0  0  0  0
   29.0000   34.9630   15.6520 N   0  0  0  0  0  0  0  0  0  0  0  0
   28.8900   35.0800   13.1780 C   0  0  0  0  0  0  0  0  0  0  0  0
   28.9300   34.4280   11.9820 C   0  0  0  0  0  0  0  0  0  0  0  0
   28.5380   36.4330   13.1580 C   0  0  0  0  0  0  0  0  0  0  0  0
   28.6400   35.0470   10.7700 C   0  0  0  0  0  0  0  0  0  0  0  0
   28.2480   37.0640   11.9790 C   0  0  0  0  0  0  0  0  0  0  0  0
   28.2990   36.3640   10.7740 C   0  0  0  0  0  0  0  0  0  0  0  0
   28.6930   34.3140    9.5070 C   0  0  0  0  0  0  0  0  0  0  0  0
   29.7660   34.2500    8.8290 O   0  0  0  0  0  0  0  0  0  0  0  0
   27.5810   33.6770    9.0280 O   0  0  0  0  0  0  0  0  0  0  0  0
   27.9750   37.1240    9.5780 C   0  0  0  0  0  0  0  0  0  0  0  0
   28.8920   37.8320    8.8320 C   0  0  0  0  0  0  0  0  0  0  0  0
   26.6580   37.1440    9.1490 C   0  0  0  0  0  0  0  0  0  0  0  0
   30.2160   37.8370    9.2280 C   0  0  0  0  0  0  0  0  0  0  0  0
   28.5200   38.5380    7.6940 C   0  0  0  0  0  0  0  0  0  0  0  0
   26.3190   37.8970    7.9510 C   0  0  0  0  0  0  0  0  0  0  0  0
   25.6640   36.4710    9.8220 C   0  0  0  0  0  0  0  0  0  0  0  0
   31.1760   38.5340    8.5090 C   0  0  0  0  0  0  0  0  0  0  0  0
   29.4490   39.2390    6.9610 C   0  0  0  0  0  0  0  0  0  0  0  0
   27.2720   38.5530    7.2930 O   0  0  0  0  0  0  0  0  0  0  0  0
   25.0250   37.9210    7.5210 C   0  0  0  0  0  0  0  0  0  0  0  0
   24.3830   36.5260    9.3510 C   0  0  0  0  0  0  0  0  0  0  0  0
   30.7760   39.2260    7.3840 C   0  0  0  0  0  0  0  0  0  0  0  0
   24.0460   37.2400    8.2110 C   0  0  0  0  0  0  0  0  0  0  0  0
   22.8500   37.2590    7.8170 O   0  0  0  0  0  0  0  0  0  0  0  0
   31.7280   39.9250    6.6610 O   0  0  0  0  0  0  0  0  0  0  0  0
   31.5440   40.3990    5.7970 H   0  0  0  0  0  0  0  0  0  0  0  0
   29.8670   25.5550   16.9770 C   0  0  0  0  0  0  0  0  0  0  0  0
   28.3450   25.7220   17.0260 C   0  0  0  0  0  0  0  0  0  0  0  0
   27.5990   24.4490   16.6560 C   0  0  0  0  0  0  0  0  0  0  0  0
   27.0320   23.7540   17.8620 C   0  0  0  0  0  0  0  0  0  0  0  0
   25.5770   23.3800   17.5980 C   0  0  0  0  0  0  0  0  0  0  0  0
   24.9540   22.8230   18.8220 N   0  0  0  0  0  0  0  0  0  0  0  0
  1  5  1  0  0  0  0
  2  3  2  0  0  0  0
  2  1  1  0  0  0  0
  4  1  1  0  0  0  0
  6 29  1  0  0  0  0
  6  5  1  1  0  0  0
  6  7  1  0  0  0  0
  7 27  1  1  0  0  0
  8 13  1  0  0  0  0
  8  7  1  1  0  0  0
  9 16  1  6  0  0  0
  9 11  1  0  0  0  0
  9 14  1  0  0  0  0
 10  9  1  0  0  0  0
 10 12  1  0  0  0  0
 11  8  1  0  0  0  0
 12 20  1  1  0  0  0
 12 13  1  0  0  0  0
 13 22  1  1  0  0  0
 15 14  1  0  0  0  0
 17 16  2  0  0  0  0
 18 16  1  0  0  0  0
 19 18  1  0  0  0  0
 21 20  1  0  0  0  0
 22 23  1  0  0  0  0
 23 26  2  0  0  0  0
 23 25  1  0  0  0  0
 24 22  1  0  0  0  0
 27 28  1  0  0  0  0
 29 30  1  0  0  0  0
 31  2  1  0  0  0  0
 32 31  1  0  0  0  0
 33 32  1  0  0  0  0
 33 35  1  0  0  0  0
 34 33  2  0  0  0  0
 36 34  1  0  0  0  0
 36 37  1  0  0  0  0
 37 35  2  0  0  0  0
 38 36  1  0  0  0  0
 39 38  2  0  0  0  0
 40 38  1  0  0  0  0
 41 43  2  0  0  0  0
 41 39  1  0  0  0  0
 42 40  2  0  0  0  0
 43 42  1  0  0  0  0
 44 41  1  0  0  0  0
 45 44  2  0  0  0  0
 46 44  1  0  0  0  0
 47 43  1  0  0  0  0
 48 50  2  0  0  0  0
 48 47  1  0  0  0  0
 49 47  2  0  0  0  0
 49 53  1  0  0  0  0
 51 48  1  0  0  0  0
 52 49  1  0  0  0  0
 54 50  1  0  0  0  0
 55 59  1  0  0  0  0
 55 51  2  0  0  0  0
 56 51  1  0  0  0  0
 56 52  1  0  0  0  0
 57 52  2  0  0  0  0
 57 60  1  0  0  0  0
 58 53  2  0  0  0  0
 59 54  2  0  0  0  0
 60 58  1  0  0  0  0
 61 60  2  0  0  0  0
 62 59  1  0  0  0  0
 63 62  1  0  0  0  0
 64 65  1  0  0  0  0
 66 65  1  0  0  0  0
 66 67  1  0  0  0  0
 68 67  1  0  0  0  0
 68 69  1  0  0  0  0
M  END
>  <REMARK>
 VINA RESULT:    -5.452      3.908      7.427
 INTER + INTRA:         -17.950
 INTER:                 -12.906
 INTRA:                  -5.044
 UNBOUND:                -7.717
 SMILES CC(=O)N[C@@H]1[C@@H](O)C[C@](O)(C(=O)O)O[C@H]1C(O)[C@H](O)CNC(=O)OCc1cn(-c2ccc(-c3c4ccc(=O)cc-4oc4cc(O)ccc34)c(C(=O)[O-])c2)nn1
 SMILES IDX 21 1 22 2 23 3 20 5 18 6 16 7 15 8 9 9 8 10 14 11 6 12 5 13
 SMILES IDX 10 14 11 16 12 17 13 18 7 20 4 22 2 23 1 25 3 26 17 27 19 29
 SMILES IDX 24 31 25 32 26 33 27 34 55 35 28 36 54 37 29 38 53 39 30 40
 SMILES IDX 49 41 31 42 32 43 50 44 51 45 52 46 33 47 48 48 34 49 47 50
 SMILES IDX 42 51 40 52 35 53 46 54 43 55 41 56 39 57 36 58 44 59 37 60
 SMILES IDX 38 61 45 62
 H PARENT 21 4 10 15 13 19 7 21 4 24 17 28 19 30 45 63
 Flexibility Score: inf
  4 active torsions:
  status: ('A' for Active; 'I' for Inactive)
    1  A    between atoms: CA   and  CB  
    2  A    between atoms: CB   and  CG  
    3  A    between atoms: CG   and  CD  
    4  A    between atoms: CD   and  CE  

>  <TORSDO>
F 18

>  <BEGIN_>
RES LYS A 131

$$$$
ligand_34_pose_9_2HRL.pdbqt
 OpenBabel07062320523D

  6  5  0  0  0  0  0  0  0  0999 V2000
   33.1930   34.6630    9.2900 C   0  0  0  0  0  0  0  0  0  0  0  0
   32.0600   35.3600   10.0340 C   0  0  0  0  0  0  0  0  0  0  0  0
   32.2320   35.3590   11.5310 C   0  0  0  0  0  0  0  0  0  0  0  0
   32.1480   36.7740   12.0820 C   0  0  0  0  0  0  0  0  0  0  0  0
   32.1090   36.7530   13.5980 C   0  0  0  0  0  0  0  0  0  0  0  0
   32.5930   35.4490   14.1300 N   0  0  0  0  0  0  0  0  0  0  0  0
  1  2  1  0  0  0  0
  2  3  1  0  0  0  0
  3  4  1  0  0  0  0
  4  5  1  0  0  0  0
  5  6  1  0  0  0  0
M  END
>  <EGIN_R>
ES LYS A 135

>  <REMARK>
  4 active torsions:
  status: ('A' for Active; 'I' for Inactive)
    5  A    between atoms: CA   and  CB  
    6  A    between atoms: CB   and  CG  
    7  A    between atoms: CG   and  CD  
    8  A    between atoms: CD   and  CE  

$$$$
