ligand_17_pose_18_2HRL.pdbqt
 OpenBabel07062320523D

 50 50  0  0  1  0  0  0  0  0999 V2000
   29.1150   30.4920   19.4330 N   0  0  0  0  0  0  0  0  0  0  0  0
   29.2680   29.2700   20.1570 C   0  0  0  0  0  0  0  0  0  0  0  0
   30.3930   28.9110   20.5440 O   0  0  0  0  0  0  0  0  0  0  0  0
   28.1500   30.7270   19.1410 H   0  0  0  0  0  0  0  0  0  0  0  0
   30.1990   31.3670   19.1100 C   0  0  0  0  0  0  0  0  0  0  0  0
   29.9270   32.2700   17.9400 C   0  0  2  0  0  0  0  0  0  0  0  0
   28.5190   32.0590   17.4280 C   0  0  1  0  0  0  0  0  0  0  0  0
   27.8870   33.3520   16.9980 C   0  0  2  0  0  0  0  0  0  0  0  0
   25.6720   32.7700   17.5360 C   0  0  2  0  0  0  0  0  0  0  0  0
   25.4270   32.4670   16.0640 C   0  0  0  0  0  0  0  0  0  0  0  0
   26.7580   33.5690   17.7460 O   0  0  0  0  0  0  0  0  0  0  0  0
   26.1550   33.5610   15.2740 C   0  0  1  0  0  0  0  0  0  0  0  0
   27.6090   33.3980   15.5360 C   0  0  1  0  0  0  0  0  0  0  0  0
   25.6890   31.5510   18.2100 O   0  0  0  0  0  0  0  0  0  0  0  0
   25.1950   31.6150   19.0760 H   0  0  0  0  0  0  0  0  0  0  0  0
   24.4820   33.5320   18.0320 C   0  0  0  0  0  0  0  0  0  0  0  0
   24.5910   34.5460   18.7540 O   0  0  0  0  0  0  0  0  0  0  0  0
   23.2220   33.0990   17.6780 O   0  0  0  0  0  0  0  0  0  0  0  0
   23.0100   32.6530   16.7900 H   0  0  0  0  0  0  0  0  0  0  0  0
   25.8140   33.4060   13.9310 O   0  0  0  0  0  0  0  0  0  0  0  0
   26.0060   32.4400   13.7090 H   0  0  0  0  0  0  0  0  0  0  0  0
   28.4270   34.3690   14.8350 N   0  0  0  0  0  0  0  0  0  0  0  0
   29.6930   34.0550   14.2650 C   0  0  0  0  0  0  0  0  0  0  0  0
   28.1090   35.3730   14.7140 H   0  0  0  0  0  0  0  0  0  0  0  0
   30.4960   35.0990   13.5520 C   0  0  0  0  0  0  0  0  0  0  0  0
   30.1520   32.9010   14.3550 O   0  0  0  0  0  0  0  0  0  0  0  0
   28.6640   31.1630   16.3530 O   0  0  0  0  0  0  0  0  0  0  0  0
   29.3620   30.5170   16.6410 H   0  0  0  0  0  0  0  0  0  0  0  0
   30.9070   32.1470   16.9970 O   0  0  0  0  0  0  0  0  0  0  0  0
   30.5020   32.0890   16.0960 H   0  0  0  0  0  0  0  0  0  0  0  0
   28.1970   28.4450   20.4560 O   0  0  0  0  0  0  0  0  0  0  0  0
   27.8170   27.3630   19.6160 C   0  0  0  0  0  0  0  0  0  0  0  0
   26.9630   27.9070   18.5300 C   0  0  0  0  0  0  0  0  0  0  0  0
   25.6320   27.5400   18.3370 C   0  0  0  0  0  0  0  0  0  0  0  0
   27.2310   28.7940   17.5620 N   0  0  0  0  0  0  0  0  0  0  0  0
   25.1700   28.2110   17.2850 N   0  0  0  0  0  0  0  0  0  0  0  0
   26.1450   28.9650   16.8260 N   0  0  0  0  0  0  0  0  0  0  0  0
   23.8420   28.1290   16.7390 C   0  0  0  0  0  0  0  0  0  0  0  0
   23.5400   29.4190   15.9980 C   0  0  0  0  0  0  0  0  0  0  0  0
   22.5380   29.2790   14.9920 N   0  0  0  0  0  0  0  0  0  0  0  0
   21.2280   29.0030   15.4780 C   0  0  0  0  0  0  0  0  0  0  0  0
   20.6870   27.8220   14.6590 C   0  0  0  0  0  0  0  0  0  0  0  0
   22.9670   28.5390   13.8530 C   0  0  0  0  0  0  0  0  0  0  0  0
   23.6300   29.3670   12.7960 C   0  0  0  0  0  0  0  0  0  0  0  0
   29.8670   25.5550   16.9770 C   0  0  0  0  0  0  0  0  0  0  0  0
   28.3450   25.7220   17.0260 C   0  0  0  0  0  0  0  0  0  0  0  0
   27.6000   24.4160   16.7950 C   0  0  0  0  0  0  0  0  0  0  0  0
   26.8070   23.9960   18.0020 C   0  0  0  0  0  0  0  0  0  0  0  0
   25.5010   23.3490   17.5520 C   0  0  0  0  0  0  0  0  0  0  0  0
   24.6370   24.3430   16.8730 N   0  0  0  0  0  0  0  0  0  0  0  0
  1  2  1  0  0  0  0
  2 31  1  0  0  0  0
  2  3  2  0  0  0  0
  4  1  1  0  0  0  0
  5  1  1  0  0  0  0
  6  5  1  1  0  0  0
  7 27  1  6  0  0  0
  7  6  1  0  0  0  0
  8  7  1  1  0  0  0
  8 11  1  0  0  0  0
  9 11  1  0  0  0  0
  9 16  1  1  0  0  0
  9 14  1  0  0  0  0
 10  9  1  0  0  0  0
 12 20  1  6  0  0  0
 12 13  1  0  0  0  0
 12 10  1  0  0  0  0
 13 22  1  1  0  0  0
 13  8  1  0  0  0  0
 14 15  1  0  0  0  0
 16 17  2  0  0  0  0
 18 16  1  0  0  0  0
 19 18  1  0  0  0  0
 21 20  1  0  0  0  0
 23 26  2  0  0  0  0
 23 22  1  0  0  0  0
 24 22  1  0  0  0  0
 25 23  1  0  0  0  0
 27 28  1  0  0  0  0
 29  6  1  0  0  0  0
 30 29  1  0  0  0  0
 32 31  1  0  0  0  0
 33 32  1  0  0  0  0
 34 33  2  0  0  0  0
 35 33  1  0  0  0  0
 36 34  1  0  0  0  0
 37 36  1  0  0  0  0
 37 35  2  0  0  0  0
 38 36  1  0  0  0  0
 39 38  1  0  0  0  0
 40 41  1  0  0  0  0
 40 39  1  0  0  0  0
 42 41  1  0  0  0  0
 43 40  1  0  0  0  0
 44 43  1  0  0  0  0
 45 46  1  0  0  0  0
 47 46  1  0  0  0  0
 47 48  1  0  0  0  0
 49 48  1  0  0  0  0
 50 49  1  0  0  0  0
M  END
>  <REMARK>
 VINA RESULT:    -3.383      2.957      7.196
 INTER + INTRA:         -13.804
 INTER:                  -6.647
 INTRA:                  -7.158
 UNBOUND:                -7.158
 SMILES CCN(CC)CCn1cc(COC(=O)NC[C@@H](O)C(O)[C@@H]2O[C@@](O)(C(=O)O)C[C@H](O)[C@H]2NC(C)=O)nn1
 SMILES IDX 15 1 13 2 14 3 16 5 17 6 19 7 21 8 23 9 28 10 22 11 29 12
 SMILES IDX 31 13 24 14 25 16 26 17 27 18 30 20 32 22 33 23 34 25 35 26
 SMILES IDX 20 27 18 29 12 31 11 32 10 33 9 34 36 35 8 36 37 37 7 38
 SMILES IDX 6 39 3 40 2 41 1 42 4 43 5 44
 H PARENT 15 4 24 15 27 19 30 21 32 24 20 28 18 30
 Flexibility Score: inf
  4 active torsions:
  status: ('A' for Active; 'I' for Inactive)
    1  A    between atoms: CA   and  CB  
    2  A    between atoms: CB   and  CG  
    3  A    between atoms: CG   and  CD  
    4  A    between atoms: CD   and  CE  

>  <TORSDO>
F 19

>  <BEGIN_>
RES LYS A 131

$$$$
ligand_17_pose_18_2HRL.pdbqt
 OpenBabel07062320523D

  6  5  0  0  0  0  0  0  0  0999 V2000
   33.1930   34.6630    9.2900 C   0  0  0  0  0  0  0  0  0  0  0  0
   32.0600   35.3600   10.0340 C   0  0  0  0  0  0  0  0  0  0  0  0
   30.7110   34.7270    9.8070 C   0  0  0  0  0  0  0  0  0  0  0  0
   30.3890   34.6700    8.3220 C   0  0  0  0  0  0  0  0  0  0  0  0
   29.2720   35.6380    7.9810 C   0  0  0  0  0  0  0  0  0  0  0  0
   28.9040   35.5480    6.5410 N   0  0  0  0  0  0  0  0  0  0  0  0
  1  2  1  0  0  0  0
  3  2  1  0  0  0  0
  4  3  1  0  0  0  0
  5  4  1  0  0  0  0
  6  5  1  0  0  0  0
M  END
>  <EGIN_R>
ES LYS A 135

>  <REMARK>
  4 active torsions:
  status: ('A' for Active; 'I' for Inactive)
    5  A    between atoms: CA   and  CB  
    6  A    between atoms: CB   and  CG  
    7  A    between atoms: CG   and  CD  
    8  A    between atoms: CD   and  CE  

$$$$
