ligand_83_pose_17_2HRL.pdbqt
 OpenBabel07062320523D

 56 57  0  0  1  0  0  0  0  0999 V2000
   31.2300   34.8480   14.2470 O   0  0  0  0  0  0  0  0  0  0  0  0
   30.9460   33.8900   15.2360 C   0  0  0  0  0  0  0  0  0  0  0  0
   31.0300   32.5130   15.0080 N   0  0  0  0  0  0  0  0  0  0  0  0
   31.3200   32.1970   14.0340 H   0  0  0  0  0  0  0  0  0  0  0  0
   30.6120   34.3320   16.3440 O   0  0  0  0  0  0  0  0  0  0  0  0
   30.7500   31.4980   15.9950 C   0  0  0  0  0  0  0  0  0  0  0  0
   29.2880   31.1500   15.9150 C   0  0  2  0  0  0  0  0  0  0  0  0
   28.6790   31.3600   17.2810 C   0  0  2  0  0  0  0  0  0  0  0  0
   27.2840   31.9610   17.1700 C   0  0  2  0  0  0  0  0  0  0  0  0
   25.7620   32.5530   15.5100 C   0  0  2  0  0  0  0  0  0  0  0  0
   25.4060   33.7030   16.4320 C   0  0  0  0  0  0  0  0  0  0  0  0
   27.0040   32.0650   15.8350 O   0  0  0  0  0  0  0  0  0  0  0  0
   26.6750   34.3260   16.9710 C   0  0  1  0  0  0  0  0  0  0  0  0
   27.2950   33.2910   17.9030 C   0  0  1  0  0  0  0  0  0  0  0  0
   25.8380   33.0030   14.1770 O   0  0  0  0  0  0  0  0  0  0  0  0
   25.7980   32.2020   13.6060 H   0  0  0  0  0  0  0  0  0  0  0  0
   24.7800   31.4630   15.5730 C   0  0  0  0  0  0  0  0  0  0  0  0
   23.7310   31.5930   16.2230 O   0  0  0  0  0  0  0  0  0  0  0  0
   25.0150   30.2740   14.9060 O   0  0  0  0  0  0  0  0  0  0  0  0
   25.7710   29.6720   15.1760 H   0  0  0  0  0  0  0  0  0  0  0  0
   27.6180   34.5840   15.9890 O   0  0  0  0  0  0  0  0  0  0  0  0
   27.9030   33.7520   15.5610 H   0  0  0  0  0  0  0  0  0  0  0  0
   26.5340   33.2440   19.1190 N   0  0  0  0  0  0  0  0  0  0  0  0
   27.1720   33.3190   20.3730 C   0  0  0  0  0  0  0  0  0  0  0  0
   25.4840   33.1510   19.1400 H   0  0  0  0  0  0  0  0  0  0  0  0
   26.3740   33.2690   21.6350 C   0  0  0  0  0  0  0  0  0  0  0  0
   28.4230   33.4300   20.4560 O   0  0  0  0  0  0  0  0  0  0  0  0
   29.4530   32.2760   17.9660 O   0  0  0  0  0  0  0  0  0  0  0  0
   29.1440   33.2050   17.8490 H   0  0  0  0  0  0  0  0  0  0  0  0
   29.0780   29.8580   15.4430 O   0  0  0  0  0  0  0  0  0  0  0  0
   29.9030   29.5950   14.9620 H   0  0  0  0  0  0  0  0  0  0  0  0
   30.7490   34.6440   12.9090 C   0  0  0  0  0  0  0  0  0  0  0  0
   29.3570   35.0610   12.7700 C   0  0  0  0  0  0  0  0  0  0  0  0
   28.9120   36.1790   12.1080 C   0  0  0  0  0  0  0  0  0  0  0  0
   28.2920   34.4160   13.2680 N   0  0  0  0  0  0  0  0  0  0  0  0
   27.5760   36.1790   12.2260 N   0  0  0  0  0  0  0  0  0  0  0  0
   27.2280   35.1220   12.9190 N   0  0  0  0  0  0  0  0  0  0  0  0
   26.6980   37.2140   11.6540 C   0  0  0  0  0  0  0  0  0  0  0  0
   25.4990   36.5670   10.9970 C   0  0  2  0  0  0  0  0  0  0  0  0
   25.5460   36.9800    9.6480 O   0  0  0  0  0  0  0  0  0  0  0  0
   26.1400   37.7410    9.5110 H   0  0  0  0  0  0  0  0  0  0  0  0
   24.2500   37.0470   11.6660 C   0  0  0  0  0  0  0  0  0  0  0  0
   23.4690   35.8750   12.0680 N   0  0  0  0  0  0  0  0  0  0  0  0
   23.4880   35.2790   13.2830 C   0  0  0  0  0  0  0  0  0  0  0  0
   22.6160   35.2420   11.2820 C   0  0  0  0  0  0  0  0  0  0  0  0
   22.6140   34.2410   13.2400 C   0  0  0  0  0  0  0  0  0  0  0  0
   22.0860   34.2250   12.0170 N   0  0  0  0  0  0  0  0  0  0  0  0
   22.2800   35.5290    9.9140 N   0  0  0  0  0  0  0  0  0  0  0  0
   23.0270   35.2570    8.9600 O   0  0  0  0  0  0  0  0  0  0  0  0
   21.0710   36.1330    9.6360 O   0  0  0  0  0  0  0  0  0  0  0  0
   29.8670   25.5550   16.9770 C   0  0  0  0  0  0  0  0  0  0  0  0
   28.3450   25.7220   17.0260 C   0  0  0  0  0  0  0  0  0  0  0  0
   27.6020   24.3990   16.9220 C   0  0  0  0  0  0  0  0  0  0  0  0
   26.6120   24.2160   18.0390 C   0  0  0  0  0  0  0  0  0  0  0  0
   26.4380   25.5350   18.7860 C   0  0  0  0  0  0  0  0  0  0  0  0
   25.5060   25.3660   19.9260 N   0  0  0  0  0  0  0  0  0  0  0  0
  1  2  1  0  0  0  0
  2  5  2  0  0  0  0
  3  2  1  0  0  0  0
  3  6  1  0  0  0  0
  4  3  1  0  0  0  0
  7  6  1  1  0  0  0
  7  8  1  0  0  0  0
  8 28  1  1  0  0  0
  9  8  1  6  0  0  0
  9 14  1  0  0  0  0
 10 15  1  6  0  0  0
 10 17  1  0  0  0  0
 10 12  1  0  0  0  0
 10 11  1  0  0  0  0
 11 13  1  0  0  0  0
 12  9  1  0  0  0  0
 13 21  1  6  0  0  0
 13 14  1  0  0  0  0
 14 23  1  1  0  0  0
 16 15  1  0  0  0  0
 17 18  2  0  0  0  0
 19 20  1  0  0  0  0
 19 17  1  0  0  0  0
 22 21  1  0  0  0  0
 23 25  1  0  0  0  0
 23 24  1  0  0  0  0
 24 27  2  0  0  0  0
 24 26  1  0  0  0  0
 29 28  1  0  0  0  0
 30  7  1  0  0  0  0
 31 30  1  0  0  0  0
 32  1  1  0  0  0  0
 33 32  1  0  0  0  0
 33 35  1  0  0  0  0
 34 36  1  0  0  0  0
 34 33  2  0  0  0  0
 36 37  1  0  0  0  0
 37 35  2  0  0  0  0
 38 36  1  0  0  0  0
 39 38  1  1  0  0  0
 39 42  1  0  0  0  0
 40 39  1  0  0  0  0
 41 40  1  0  0  0  0
 42 43  1  0  0  0  0
 43 44  1  0  0  0  0
 45 47  2  0  0  0  0
 45 43  1  0  0  0  0
 46 44  2  0  0  0  0
 47 46  1  0  0  0  0
 48 45  1  0  0  0  0
 49 48  2  0  0  0  0
 50 48  2  0  0  0  0
 51 52  1  0  0  0  0
 53 52  1  0  0  0  0
 53 54  1  0  0  0  0
 54 55  1  0  0  0  0
 55 56  1  0  0  0  0
M  END
>  <REMARK>
 VINA RESULT:    -3.563      4.123      6.970
 INTER + INTRA:         -15.551
 INTER:                  -7.387
 INTRA:                  -8.164
 UNBOUND:                -8.446
 SMILES CC(=O)N[C@@H]1[C@@H](O)C[C@](O)(C(=O)O)O[C@H]1C(O)[C@H](O)CNC(=O)OCc1cn(CC(O)Cn2ccnc2[N+](=O)[O-])nn1
 SMILES IDX 24 1 22 2 21 3 23 5 20 6 18 7 16 8 15 9 9 10 8 11 14 12 6 13
 SMILES IDX 5 14 10 15 11 17 12 18 13 19 7 21 4 23 2 24 1 26 3 27 17 28
 SMILES IDX 19 30 25 32 26 33 27 34 42 35 28 36 41 37 29 38 30 39 31 40
 SMILES IDX 32 42 33 43 34 44 37 45 35 46 36 47 38 48 39 49 40 50
 H PARENT 21 4 10 16 13 20 7 22 4 25 17 29 19 31 31 41
 Flexibility Score: inf
  4 active torsions:
  status: ('A' for Active; 'I' for Inactive)
    1  A    between atoms: CA   and  CB  
    2  A    between atoms: CB   and  CG  
    3  A    between atoms: CG   and  CD  
    4  A    between atoms: CD   and  CE  

>  <TORSDO>
F 20

>  <BEGIN_>
RES LYS A 131

$$$$
ligand_83_pose_17_2HRL.pdbqt
 OpenBabel07062320523D

  6  5  0  0  0  0  0  0  0  0999 V2000
   33.1930   34.6630    9.2900 C   0  0  0  0  0  0  0  0  0  0  0  0
   32.0600   35.3600   10.0340 C   0  0  0  0  0  0  0  0  0  0  0  0
   30.8080   35.5210    9.2110 C   0  0  0  0  0  0  0  0  0  0  0  0
   30.0780   34.1940    9.0780 C   0  0  0  0  0  0  0  0  0  0  0  0
   28.6130   34.4210    8.7580 C   0  0  0  0  0  0  0  0  0  0  0  0
   27.7360   33.6510    9.6820 N   0  0  0  0  0  0  0  0  0  0  0  0
  1  2  1  0  0  0  0
  3  2  1  0  0  0  0
  4  3  1  0  0  0  0
  5  4  1  0  0  0  0
  5  6  1  0  0  0  0
M  END
>  <EGIN_R>
ES LYS A 135

>  <REMARK>
  4 active torsions:
  status: ('A' for Active; 'I' for Inactive)
    5  A    between atoms: CA   and  CB  
    6  A    between atoms: CB   and  CG  
    7  A    between atoms: CG   and  CD  
    8  A    between atoms: CD   and  CE  

$$$$
