ligand_78_pose_12_2HRL.pdbqt
 OpenBabel07062320523D

 53 54  0  0  1  0  0  0  0  0999 V2000
   24.8870   36.9970    9.4040 N   0  0  0  0  0  0  0  0  0  0  0  0
   25.8320   36.0020    9.8440 C   0  0  0  0  0  0  0  0  0  0  0  0
   25.8010   34.8760    9.3270 O   0  0  0  0  0  0  0  0  0  0  0  0
   24.9840   37.9130    9.8810 H   0  0  0  0  0  0  0  0  0  0  0  0
   23.9130   36.6830    8.3750 C   0  0  0  0  0  0  0  0  0  0  0  0
   22.5760   36.3290    8.9350 C   0  0  2  0  0  0  0  0  0  0  0  0
   21.4210   36.8820    8.1720 C   0  0  2  0  0  0  0  0  0  0  0  0
   20.2580   35.9810    7.9610 C   0  0  2  0  0  0  0  0  0  0  0  0
   18.6620   37.6890    8.0390 C   0  0  2  0  0  0  0  0  0  0  0  0
   18.5930   37.5270    9.5220 C   0  0  0  0  0  0  0  0  0  0  0  0
   19.2190   36.6570    7.3270 O   0  0  0  0  0  0  0  0  0  0  0  0
   18.9400   36.1980   10.0690 C   0  0  1  0  0  0  0  0  0  0  0  0
   19.6540   35.2830    9.1140 C   0  0  1  0  0  0  0  0  0  0  0  0
   19.3590   38.8450    7.6850 O   0  0  0  0  0  0  0  0  0  0  0  0
   18.9530   39.6680    8.0010 H   0  0  0  0  0  0  0  0  0  0  0  0
   17.2810   37.8500    7.5150 C   0  0  0  0  0  0  0  0  0  0  0  0
   16.8630   38.9940    7.2350 O   0  0  0  0  0  0  0  0  0  0  0  0
   16.4150   36.7820    7.3160 O   0  0  0  0  0  0  0  0  0  0  0  0
   15.4070   36.8770    7.5040 H   0  0  0  0  0  0  0  0  0  0  0  0
   19.6660   36.3600   11.2470 O   0  0  0  0  0  0  0  0  0  0  0  0
   19.8370   37.2950   11.4630 H   0  0  0  0  0  0  0  0  0  0  0  0
   18.7570   34.2440    8.5990 N   0  0  0  0  0  0  0  0  0  0  0  0
   18.0830   33.3470    9.4560 C   0  0  0  0  0  0  0  0  0  0  0  0
   18.6030   34.1550    7.5760 H   0  0  0  0  0  0  0  0  0  0  0  0
   17.1660   32.2840    8.9470 C   0  0  0  0  0  0  0  0  0  0  0  0
   18.2830   33.4720   10.6900 O   0  0  0  0  0  0  0  0  0  0  0  0
   21.9680   36.9850    6.8180 O   0  0  0  0  0  0  0  0  0  0  0  0
   22.8260   37.4330    6.9190 H   0  0  0  0  0  0  0  0  0  0  0  0
   22.4440   36.4580   10.3030 O   0  0  0  0  0  0  0  0  0  0  0  0
   23.1550   35.9830   10.7990 H   0  0  0  0  0  0  0  0  0  0  0  0
   26.7660   36.2830   10.8230 O   0  0  0  0  0  0  0  0  0  0  0  0
   26.7570   35.6540   12.0920 C   0  0  0  0  0  0  0  0  0  0  0  0
   25.3980   35.5640   12.6470 C   0  0  0  0  0  0  0  0  0  0  0  0
   24.7390   34.5120   13.2160 C   0  0  0  0  0  0  0  0  0  0  0  0
   24.5250   36.5930   12.6790 N   0  0  0  0  0  0  0  0  0  0  0  0
   23.4980   34.9270   13.5730 N   0  0  0  0  0  0  0  0  0  0  0  0
   23.3970   36.2020   13.2320 N   0  0  0  0  0  0  0  0  0  0  0  0
   22.5060   34.0980   14.2050 C   0  0  0  0  0  0  0  0  0  0  0  0
   21.4790   33.3080   12.9740 S   0  0  0  0  0  0  0  0  0  0  0  0
   21.6420   34.0660   11.6820 O   0  0  0  0  0  0  0  0  0  0  0  0
   20.0730   33.3910   13.4380 O   0  0  0  0  0  0  0  0  0  0  0  0
   22.0090   31.6460   12.7890 C   0  0  0  0  0  0  0  0  0  0  0  0
   21.0630   30.6980   12.4150 C   0  0  0  0  0  0  0  0  0  0  0  0
   23.3220   31.3070   13.0110 C   0  0  0  0  0  0  0  0  0  0  0  0
   21.4800   29.3970   12.2700 C   0  0  0  0  0  0  0  0  0  0  0  0
   23.6890   29.9880   12.8530 C   0  0  0  0  0  0  0  0  0  0  0  0
   22.7990   29.0080   12.4850 C   0  0  0  0  0  0  0  0  0  0  0  0
   29.8670   25.5550   16.9770 C   0  0  0  0  0  0  0  0  0  0  0  0
   28.3450   25.7220   17.0260 C   0  0  0  0  0  0  0  0  0  0  0  0
   27.6010   24.4030   16.8810 C   0  0  0  0  0  0  0  0  0  0  0  0
   26.6920   24.1340   18.0480 C   0  0  0  0  0  0  0  0  0  0  0  0
   25.5490   23.2280   17.6050 C   0  0  0  0  0  0  0  0  0  0  0  0
   24.4970   24.0170   16.9200 N   0  0  0  0  0  0  0  0  0  0  0  0
  1  2  1  0  0  0  0
  1  4  1  0  0  0  0
  2 31  1  0  0  0  0
  3  2  2  0  0  0  0
  5  1  1  0  0  0  0
  6  5  1  6  0  0  0
  6 29  1  0  0  0  0
  7 27  1  6  0  0  0
  7  6  1  0  0  0  0
  8  7  1  1  0  0  0
  8 13  1  0  0  0  0
  9 16  1  6  0  0  0
  9 10  1  0  0  0  0
 10 12  1  0  0  0  0
 11  8  1  0  0  0  0
 11  9  1  0  0  0  0
 12 20  1  1  0  0  0
 13 22  1  6  0  0  0
 13 12  1  0  0  0  0
 14 15  1  0  0  0  0
 14  9  1  0  0  0  0
 17 16  2  0  0  0  0
 18 19  1  0  0  0  0
 18 16  1  0  0  0  0
 20 21  1  0  0  0  0
 22 23  1  0  0  0  0
 23 26  2  0  0  0  0
 24 22  1  0  0  0  0
 25 23  1  0  0  0  0
 27 28  1  0  0  0  0
 29 30  1  0  0  0  0
 31 32  1  0  0  0  0
 32 33  1  0  0  0  0
 33 35  1  0  0  0  0
 33 34  2  0  0  0  0
 34 36  1  0  0  0  0
 35 37  2  0  0  0  0
 36 38  1  0  0  0  0
 37 36  1  0  0  0  0
 39 41  2  0  0  0  0
 39 38  1  0  0  0  0
 40 39  2  0  0  0  0
 42 39  1  0  0  0  0
 42 44  2  0  0  0  0
 43 42  1  0  0  0  0
 45 43  2  0  0  0  0
 45 47  1  0  0  0  0
 46 44  1  0  0  0  0
 47 46  2  0  0  0  0
 48 49  1  0  0  0  0
 50 49  1  0  0  0  0
 50 51  1  0  0  0  0
 52 51  1  0  0  0  0
 53 52  1  0  0  0  0
M  END
>  <REMARK>
 VINA RESULT:    -5.248      8.032     11.889
 INTER + INTRA:         -14.709
 INTER:                  -8.445
 INTRA:                  -6.263
 UNBOUND:                -5.011
 SMILES CC(=O)N[C@@H]1[C@@H](O)C[C@](O)(C(=O)O)O[C@H]1C(O)[C@H](O)CNC(=O)OCc1cn(CS(=O)(=O)c2ccccc2)nn1
 SMILES IDX 21 1 22 2 23 3 20 5 18 6 16 7 15 8 9 9 8 10 14 11 6 12 5 13
 SMILES IDX 10 14 11 16 12 17 13 18 7 20 4 22 2 23 1 25 3 26 17 27 19 29
 SMILES IDX 24 31 25 32 26 33 27 34 40 35 28 36 39 37 29 38 30 39 31 40
 SMILES IDX 32 41 33 42 34 43 38 44 35 45 37 46 36 47
 H PARENT 21 4 10 15 13 19 7 21 4 24 17 28 19 30
 Flexibility Score: inf
  4 active torsions:
  status: ('A' for Active; 'I' for Inactive)
    1  A    between atoms: CA   and  CB  
    2  A    between atoms: CB   and  CG  
    3  A    between atoms: CG   and  CD  
    4  A    between atoms: CD   and  CE  

>  <TORSDO>
F 17

>  <BEGIN_>
RES LYS A 131

$$$$
ligand_78_pose_12_2HRL.pdbqt
 OpenBabel07062320523D

  6  5  0  0  0  0  0  0  0  0999 V2000
   33.1930   34.6630    9.2900 C   0  0  0  0  0  0  0  0  0  0  0  0
   32.0600   35.3600   10.0340 C   0  0  0  0  0  0  0  0  0  0  0  0
   30.9320   35.8020    9.1370 C   0  0  0  0  0  0  0  0  0  0  0  0
   30.5160   34.6750    8.2040 C   0  0  0  0  0  0  0  0  0  0  0  0
   29.0270   34.4120    8.3170 C   0  0  0  0  0  0  0  0  0  0  0  0
   28.7040   33.6950    9.5820 N   0  0  0  0  0  0  0  0  0  0  0  0
  1  2  1  0  0  0  0
  3  2  1  0  0  0  0
  4  5  1  0  0  0  0
  4  3  1  0  0  0  0
  5  6  1  0  0  0  0
M  END
>  <EGIN_R>
ES LYS A 135

>  <REMARK>
  4 active torsions:
  status: ('A' for Active; 'I' for Inactive)
    5  A    between atoms: CA   and  CB  
    6  A    between atoms: CB   and  CG  
    7  A    between atoms: CG   and  CD  
    8  A    between atoms: CD   and  CE  

$$$$
