ligand_51_pose_14_2HRL.pdbqt
 OpenBabel07062320523D

 53 56  0  0  1  0  0  0  0  0999 V2000
   29.4790   30.6620   19.5110 C   0  0  0  0  0  0  0  0  0  0  0  0
   29.6450   31.3540   18.1830 C   0  0  2  0  0  0  0  0  0  0  0  0
   28.6510   32.4790   17.9830 C   0  0  1  0  0  0  0  0  0  0  0  0
   29.3410   33.6850   17.3350 C   0  0  2  0  0  0  0  0  0  0  0  0
   28.5880   34.1110   15.1560 C   0  0  2  0  0  0  0  0  0  0  0  0
   29.4690   32.9650   14.7280 C   0  0  0  0  0  0  0  0  0  0  0  0
   28.5340   34.3670   16.4820 O   0  0  0  0  0  0  0  0  0  0  0  0
   30.8090   33.1010   15.3630 C   0  0  1  0  0  0  0  0  0  0  0  0
   30.7050   33.3700   16.8410 C   0  0  1  0  0  0  0  0  0  0  0  0
   27.2850   33.7380   14.7500 O   0  0  0  0  0  0  0  0  0  0  0  0
   26.8470   34.5610   14.4090 H   0  0  0  0  0  0  0  0  0  0  0  0
   28.9710   35.2850   14.3320 C   0  0  0  0  0  0  0  0  0  0  0  0
   29.0390   36.4500   14.8100 O   0  0  0  0  0  0  0  0  0  0  0  0
   29.2650   35.1190   12.9960 O   0  0  0  0  0  0  0  0  0  0  0  0
   28.6050   34.7140   12.3310 H   0  0  0  0  0  0  0  0  0  0  0  0
   31.5280   31.9140   15.0940 O   0  0  0  0  0  0  0  0  0  0  0  0
   32.4500   32.1330   14.8410 H   0  0  0  0  0  0  0  0  0  0  0  0
   31.5920   34.4680   17.2000 N   0  0  0  0  0  0  0  0  0  0  0  0
   32.1240   34.6200   18.5070 C   0  0  0  0  0  0  0  0  0  0  0  0
   31.8590   35.1870   16.4650 H   0  0  0  0  0  0  0  0  0  0  0  0
   33.0130   35.7580   18.7820 C   0  0  0  0  0  0  0  0  0  0  0  0
   31.8060   33.7630   19.3860 O   0  0  0  0  0  0  0  0  0  0  0  0
   27.5260   32.0990   17.3160 O   0  0  0  0  0  0  0  0  0  0  0  0
   27.2810   32.6130   16.5320 H   0  0  0  0  0  0  0  0  0  0  0  0
   29.5450   30.3870   17.1870 O   0  0  0  0  0  0  0  0  0  0  0  0
   30.1310   29.6060   17.4440 H   0  0  0  0  0  0  0  0  0  0  0  0
   28.1230   30.1430   19.5540 N   0  0  0  0  0  0  0  0  0  0  0  0
   27.8480   28.7590   19.8250 C   0  0  0  0  0  0  0  0  0  0  0  0
   27.2760   30.7360   19.3920 H   0  0  0  0  0  0  0  0  0  0  0  0
   28.8310   28.0030   20.0270 O   0  0  0  0  0  0  0  0  0  0  0  0
   26.5720   28.2530   19.8680 O   0  0  0  0  0  0  0  0  0  0  0  0
   26.1150   27.4430   18.8080 C   0  0  0  0  0  0  0  0  0  0  0  0
   25.8520   28.3450   17.6420 C   0  0  0  0  0  0  0  0  0  0  0  0
   24.6430   28.4200   16.9780 C   0  0  0  0  0  0  0  0  0  0  0  0
   26.6530   29.2070   17.0220 N   0  0  0  0  0  0  0  0  0  0  0  0
   24.7640   29.3090   16.0020 N   0  0  0  0  0  0  0  0  0  0  0  0
   25.9920   29.7810   16.0400 N   0  0  0  0  0  0  0  0  0  0  0  0
   23.6920   29.6710   15.0710 C   0  0  2  0  0  0  0  0  0  0  0  0
   24.3770   30.2050   13.8200 C   0  0  0  0  0  0  0  0  0  0  0  0
   22.7990   30.7170   15.6640 C   0  0  0  0  0  0  0  0  0  0  0  0
   22.8720   28.4460   14.7540 C   0  0  0  0  0  0  0  0  0  0  0  0
   23.3210   30.5760   12.7970 C   0  0  1  0  0  0  0  0  0  0  0  0
   21.7860   31.1230   14.6190 C   0  0  1  0  0  0  0  0  0  0  0  0
   21.8280   28.8130   13.7220 C   0  0  2  0  0  0  0  0  0  0  0  0
   22.5170   29.3500   12.4800 C   0  0  0  0  0  0  0  0  0  0  0  0
   22.4660   31.6640   13.3970 C   0  0  0  0  0  0  0  0  0  0  0  0
   20.9560   29.9010   14.2980 C   0  0  0  0  0  0  0  0  0  0  0  0
   29.8670   25.5550   16.9770 C   0  0  0  0  0  0  0  0  0  0  0  0
   28.3450   25.7220   17.0260 C   0  0  0  0  0  0  0  0  0  0  0  0
   27.5990   24.4790   16.5650 C   0  0  0  0  0  0  0  0  0  0  0  0
   26.9000   23.7850   17.7000 C   0  0  0  0  0  0  0  0  0  0  0  0
   25.3920   23.8350   17.4760 C   0  0  0  0  0  0  0  0  0  0  0  0
   24.7730   22.5320   17.8150 N   0  0  0  0  0  0  0  0  0  0  0  0
  1 27  1  0  0  0  0
  2  1  1  1  0  0  0
  3 23  1  6  0  0  0
  3  2  1  0  0  0  0
  4  3  1  6  0  0  0
  5 12  1  6  0  0  0
  5  7  1  0  0  0  0
  6  5  1  0  0  0  0
  6  8  1  0  0  0  0
  7  4  1  0  0  0  0
  8 16  1  1  0  0  0
  8  9  1  0  0  0  0
  9 18  1  6  0  0  0
  9  4  1  0  0  0  0
 10  5  1  0  0  0  0
 11 10  1  0  0  0  0
 12 13  2  0  0  0  0
 14 12  1  0  0  0  0
 15 14  1  0  0  0  0
 17 16  1  0  0  0  0
 18 19  1  0  0  0  0
 19 21  1  0  0  0  0
 19 22  2  0  0  0  0
 20 18  1  0  0  0  0
 24 23  1  0  0  0  0
 25 26  1  0  0  0  0
 25  2  1  0  0  0  0
 27 28  1  0  0  0  0
 28 31  1  0  0  0  0
 28 30  2  0  0  0  0
 29 27  1  0  0  0  0
 32 31  1  0  0  0  0
 33 32  1  0  0  0  0
 34 33  2  0  0  0  0
 35 33  1  0  0  0  0
 36 37  1  0  0  0  0
 36 34  1  0  0  0  0
 37 35  2  0  0  0  0
 38 39  1  6  0  0  0
 38 40  1  0  0  0  0
 38 36  1  0  0  0  0
 41 38  1  0  0  0  0
 42 45  1  1  0  0  0
 42 46  1  0  0  0  0
 42 39  1  0  0  0  0
 43 46  1  6  0  0  0
 43 40  1  0  0  0  0
 44 45  1  6  0  0  0
 44 47  1  0  0  0  0
 44 41  1  0  0  0  0
 47 43  1  0  0  0  0
 48 49  1  0  0  0  0
 50 49  1  0  0  0  0
 50 51  1  0  0  0  0
 52 51  1  0  0  0  0
 52 53  1  0  0  0  0
M  END
>  <REMARK>
 VINA RESULT:    -4.654      3.731      7.755
 INTER + INTRA:         -14.610
 INTER:                  -8.671
 INTRA:                  -5.939
 UNBOUND:                -6.554
 SMILES CC(=O)N[C@@H]1[C@@H](O)C[C@](O)(C(=O)O)O[C@H]1C(O)[C@H](O)CNC(=O)OCc1cn(C23CC4CC(CC(C4)C2)C3)nn1
 SMILES IDX 20 1 18 2 16 3 15 4 9 5 8 6 14 7 6 8 5 9 10 10 11 12 12 13
 SMILES IDX 13 14 7 16 4 18 2 19 1 21 3 22 17 23 19 25 21 27 22 28 23 30
 SMILES IDX 24 31 25 32 26 33 27 34 40 35 28 36 39 37 29 38 38 39 37 40
 SMILES IDX 30 41 33 42 35 43 31 44 32 45 34 46 36 47
 H PARENT 10 11 13 15 7 17 4 20 17 24 19 26 21 29
 Flexibility Score: inf
  4 active torsions:
  status: ('A' for Active; 'I' for Inactive)
    1  A    between atoms: CA   and  CB  
    2  A    between atoms: CB   and  CG  
    3  A    between atoms: CG   and  CD  
    4  A    between atoms: CD   and  CE  

>  <TORSDO>
F 15

>  <BEGIN_>
RES LYS A 131

$$$$
ligand_51_pose_14_2HRL.pdbqt
 OpenBabel07062320523D

  6  5  0  0  0  0  0  0  0  0999 V2000
   33.1930   34.6630    9.2900 C   0  0  0  0  0  0  0  0  0  0  0  0
   32.0600   35.3600   10.0340 C   0  0  0  0  0  0  0  0  0  0  0  0
   30.7100   34.7330    9.8000 C   0  0  0  0  0  0  0  0  0  0  0  0
   30.4540   34.5490    8.3120 C   0  0  0  0  0  0  0  0  0  0  0  0
   29.0040   34.8440    7.9810 C   0  0  0  0  0  0  0  0  0  0  0  0
   28.8860   35.5750    6.6890 N   0  0  0  0  0  0  0  0  0  0  0  0
  1  2  1  0  0  0  0
  3  2  1  0  0  0  0
  4  3  1  0  0  0  0
  5  4  1  0  0  0  0
  6  5  1  0  0  0  0
M  END
>  <EGIN_R>
ES LYS A 135

>  <REMARK>
  4 active torsions:
  status: ('A' for Active; 'I' for Inactive)
    5  A    between atoms: CA   and  CB  
    6  A    between atoms: CB   and  CG  
    7  A    between atoms: CG   and  CD  
    8  A    between atoms: CD   and  CE  

$$$$
