ligand_83_pose_8_2HRL.pdbqt
 OpenBabel07062320523D

 56 57  0  0  1  0  0  0  0  0999 V2000
   31.5720   32.5610   21.8140 O   0  0  0  0  0  0  0  0  0  0  0  0
   32.2610   31.3400   21.7210 C   0  0  0  0  0  0  0  0  0  0  0  0
   31.6170   30.1140   21.5230 N   0  0  0  0  0  0  0  0  0  0  0  0
   30.5550   30.1290   21.4450 H   0  0  0  0  0  0  0  0  0  0  0  0
   33.4940   31.4000   21.8240 O   0  0  0  0  0  0  0  0  0  0  0  0
   32.2870   28.8400   21.4190 C   0  0  0  0  0  0  0  0  0  0  0  0
   31.5000   27.9670   20.4790 C   0  0  2  0  0  0  0  0  0  0  0  0
   30.6540   27.0290   21.3070 C   0  0  2  0  0  0  0  0  0  0  0  0
   29.1760   27.3850   21.1970 C   0  0  2  0  0  0  0  0  0  0  0  0
   27.8210   28.8830   20.0400 C   0  0  2  0  0  0  0  0  0  0  0  0
   26.9990   28.9170   21.3140 C   0  0  0  0  0  0  0  0  0  0  0  0
   29.0870   28.4280   20.3170 O   0  0  0  0  0  0  0  0  0  0  0  0
   27.9240   29.0340   22.5050 C   0  0  1  0  0  0  0  0  0  0  0  0
   28.6760   27.7110   22.5930 C   0  0  1  0  0  0  0  0  0  0  0  0
   27.9610   30.1830   19.5160 O   0  0  0  0  0  0  0  0  0  0  0  0
   28.9240   30.3900   19.5290 H   0  0  0  0  0  0  0  0  0  0  0  0
   27.2150   28.0340   19.0070 C   0  0  0  0  0  0  0  0  0  0  0  0
   26.3010   27.2430   19.2940 O   0  0  0  0  0  0  0  0  0  0  0  0
   27.6570   28.1040   17.6980 O   0  0  0  0  0  0  0  0  0  0  0  0
   27.0940   27.7540   16.9450 H   0  0  0  0  0  0  0  0  0  0  0  0
   28.8840   30.0220   22.3570 O   0  0  0  0  0  0  0  0  0  0  0  0
   28.8730   30.6280   23.1240 H   0  0  0  0  0  0  0  0  0  0  0  0
   27.7860   26.7030   23.0960 N   0  0  0  0  0  0  0  0  0  0  0  0
   28.1350   25.9300   24.2220 C   0  0  0  0  0  0  0  0  0  0  0  0
   26.8490   26.4900   22.6630 H   0  0  0  0  0  0  0  0  0  0  0  0
   27.2050   24.8820   24.7410 C   0  0  0  0  0  0  0  0  0  0  0  0
   29.2330   26.1070   24.8120 O   0  0  0  0  0  0  0  0  0  0  0  0
   31.0020   27.1860   22.6340 O   0  0  0  0  0  0  0  0  0  0  0  0
   31.6180   27.9400   22.7840 H   0  0  0  0  0  0  0  0  0  0  0  0
   32.3170   27.2820   19.5860 O   0  0  0  0  0  0  0  0  0  0  0  0
   33.1160   27.8490   19.4410 H   0  0  0  0  0  0  0  0  0  0  0  0
   30.4380   32.7960   20.9650 C   0  0  0  0  0  0  0  0  0  0  0  0
   30.8450   33.1000   19.5970 C   0  0  0  0  0  0  0  0  0  0  0  0
   30.7010   32.2750   18.5090 C   0  0  0  0  0  0  0  0  0  0  0  0
   31.4260   34.2370   19.1870 N   0  0  0  0  0  0  0  0  0  0  0  0
   31.2040   32.9420   17.4610 N   0  0  0  0  0  0  0  0  0  0  0  0
   31.6300   34.1080   17.8860 N   0  0  0  0  0  0  0  0  0  0  0  0
   31.2460   32.4110   16.0870 C   0  0  0  0  0  0  0  0  0  0  0  0
   29.9110   32.6240   15.4110 C   0  0  2  0  0  0  0  0  0  0  0  0
   29.4700   31.3340   15.0410 O   0  0  0  0  0  0  0  0  0  0  0  0
   29.9990   30.6270   15.4560 H   0  0  0  0  0  0  0  0  0  0  0  0
   30.0970   33.4960   14.2110 C   0  0  0  0  0  0  0  0  0  0  0  0
   30.2270   34.8820   14.6700 N   0  0  0  0  0  0  0  0  0  0  0  0
   29.3140   35.5750   15.3890 C   0  0  0  0  0  0  0  0  0  0  0  0
   31.2820   35.6460   14.4460 C   0  0  0  0  0  0  0  0  0  0  0  0
   29.8280   36.8110   15.6140 C   0  0  0  0  0  0  0  0  0  0  0  0
   31.0280   36.8460   15.0360 N   0  0  0  0  0  0  0  0  0  0  0  0
   32.4820   35.3220   13.7240 N   0  0  0  0  0  0  0  0  0  0  0  0
   32.6820   35.6660   12.5490 O   0  0  0  0  0  0  0  0  0  0  0  0
   33.4670   34.5940   14.3610 O   0  0  0  0  0  0  0  0  0  0  0  0
   29.8670   25.5550   16.9770 C   0  0  0  0  0  0  0  0  0  0  0  0
   28.3450   25.7220   17.0260 C   0  0  0  0  0  0  0  0  0  0  0  0
   27.6000   24.4100   16.8320 C   0  0  0  0  0  0  0  0  0  0  0  0
   26.1700   24.4980   17.2870 C   0  0  0  0  0  0  0  0  0  0  0  0
   25.8530   23.3190   18.2010 C   0  0  0  0  0  0  0  0  0  0  0  0
   25.4730   23.7960   19.5520 N   0  0  0  0  0  0  0  0  0  0  0  0
  2  1  1  0  0  0  0
  2  5  2  0  0  0  0
  3  2  1  0  0  0  0
  4  3  1  0  0  0  0
  6  3  1  0  0  0  0
  7  8  1  0  0  0  0
  7  6  1  1  0  0  0
  8 28  1  1  0  0  0
  9  8  1  1  0  0  0
  9 14  1  0  0  0  0
 10 17  1  6  0  0  0
 10 12  1  0  0  0  0
 10 11  1  0  0  0  0
 11 13  1  0  0  0  0
 12  9  1  0  0  0  0
 13 21  1  6  0  0  0
 13 14  1  0  0  0  0
 14 23  1  6  0  0  0
 15 16  1  0  0  0  0
 15 10  1  0  0  0  0
 17 18  2  0  0  0  0
 19 17  1  0  0  0  0
 20 19  1  0  0  0  0
 21 22  1  0  0  0  0
 23 24  1  0  0  0  0
 24 26  1  0  0  0  0
 24 27  2  0  0  0  0
 25 23  1  0  0  0  0
 28 29  1  0  0  0  0
 30  7  1  0  0  0  0
 31 30  1  0  0  0  0
 32  1  1  0  0  0  0
 33 32  1  0  0  0  0
 34 33  2  0  0  0  0
 35 33  1  0  0  0  0
 36 37  1  0  0  0  0
 36 34  1  0  0  0  0
 37 35  2  0  0  0  0
 38 36  1  0  0  0  0
 39 42  1  6  0  0  0
 39 38  1  0  0  0  0
 40 39  1  0  0  0  0
 40 41  1  0  0  0  0
 42 43  1  0  0  0  0
 43 44  1  0  0  0  0
 44 46  2  0  0  0  0
 45 43  1  0  0  0  0
 45 47  2  0  0  0  0
 47 46  1  0  0  0  0
 48 50  2  0  0  0  0
 48 45  1  0  0  0  0
 49 48  2  0  0  0  0
 51 52  1  0  0  0  0
 53 52  1  0  0  0  0
 53 54  1  0  0  0  0
 54 55  1  0  0  0  0
 55 56  1  0  0  0  0
M  END
>  <REMARK>
 VINA RESULT:    -3.670      1.828      2.680
 INTER + INTRA:         -15.763
 INTER:                  -8.831
 INTRA:                  -6.932
 UNBOUND:                -8.446
 SMILES CC(=O)N[C@@H]1[C@@H](O)C[C@](O)(C(=O)O)O[C@H]1C(O)[C@H](O)CNC(=O)OCc1cn(CC(O)Cn2ccnc2[N+](=O)[O-])nn1
 SMILES IDX 24 1 22 2 21 3 23 5 20 6 18 7 16 8 15 9 9 10 8 11 14 12 6 13
 SMILES IDX 5 14 10 15 11 17 12 18 13 19 7 21 4 23 2 24 1 26 3 27 17 28
 SMILES IDX 19 30 25 32 26 33 27 34 42 35 28 36 41 37 29 38 30 39 31 40
 SMILES IDX 32 42 33 43 34 44 37 45 35 46 36 47 38 48 39 49 40 50
 H PARENT 21 4 10 16 13 20 7 22 4 25 17 29 19 31 31 41
 Flexibility Score: inf
  4 active torsions:
  status: ('A' for Active; 'I' for Inactive)
    1  A    between atoms: CA   and  CB  
    2  A    between atoms: CB   and  CG  
    3  A    between atoms: CG   and  CD  
    4  A    between atoms: CD   and  CE  

>  <TORSDO>
F 20

>  <BEGIN_>
RES LYS A 131

$$$$
ligand_83_pose_8_2HRL.pdbqt
 OpenBabel07062320523D

  6  5  0  0  0  0  0  0  0  0999 V2000
   33.1930   34.6630    9.2900 C   0  0  0  0  0  0  0  0  0  0  0  0
   32.0600   35.3600   10.0340 C   0  0  0  0  0  0  0  0  0  0  0  0
   30.8290   35.5750    9.1920 C   0  0  0  0  0  0  0  0  0  0  0  0
   30.2210   34.2430    8.7800 C   0  0  0  0  0  0  0  0  0  0  0  0
   28.7320   34.3900    8.5340 C   0  0  0  0  0  0  0  0  0  0  0  0
   27.9430   33.6630    9.5670 N   0  0  0  0  0  0  0  0  0  0  0  0
  1  2  1  0  0  0  0
  3  2  1  0  0  0  0
  4  3  1  0  0  0  0
  5  4  1  0  0  0  0
  5  6  1  0  0  0  0
M  END
>  <EGIN_R>
ES LYS A 135

>  <REMARK>
  4 active torsions:
  status: ('A' for Active; 'I' for Inactive)
    5  A    between atoms: CA   and  CB  
    6  A    between atoms: CB   and  CG  
    7  A    between atoms: CG   and  CD  
    8  A    between atoms: CD   and  CE  

$$$$
