ligand_11_pose_10_2HRL.pdbqt
 OpenBabel07062320523D

 54 54  0  0  1  0  0  0  0  0999 V2000
   25.8960   35.6800   12.8230 O   0  0  0  0  0  0  0  0  0  0  0  0
   25.3360   35.5650   11.5450 C   0  0  0  0  0  0  0  0  0  0  0  0
   25.9070   36.1620   10.4120 N   0  0  0  0  0  0  0  0  0  0  0  0
   26.8030   36.7260   10.5930 H   0  0  0  0  0  0  0  0  0  0  0  0
   24.2910   34.9000   11.4540 O   0  0  0  0  0  0  0  0  0  0  0  0
   25.4250   36.0980    9.0620 C   0  0  0  0  0  0  0  0  0  0  0  0
   26.1490   37.0350    8.1760 C   0  0  2  0  0  0  0  0  0  0  0  0
   26.6970   38.2480    8.9030 C   0  0  1  0  0  0  0  0  0  0  0  0
   28.2290   38.2270    8.8900 C   0  0  2  0  0  0  0  0  0  0  0  0
   28.9480   38.1630   11.1170 C   0  0  2  0  0  0  0  0  0  0  0  0
   28.6420   39.6340   11.1170 C   0  0  0  0  0  0  0  0  0  0  0  0
   28.7690   37.5350    9.9230 O   0  0  0  0  0  0  0  0  0  0  0  0
   29.0370   40.3720    9.8890 C   0  0  1  0  0  0  0  0  0  0  0  0
   28.7910   39.5930    8.6300 C   0  0  1  0  0  0  0  0  0  0  0  0
   28.0710   37.5870   12.0370 O   0  0  0  0  0  0  0  0  0  0  0  0
   27.1390   37.6420   11.7410 H   0  0  0  0  0  0  0  0  0  0  0  0
   30.3280   37.9370   11.6150 C   0  0  0  0  0  0  0  0  0  0  0  0
   31.3070   38.1140   10.8530 O   0  0  0  0  0  0  0  0  0  0  0  0
   30.5840   37.5280   12.9210 O   0  0  0  0  0  0  0  0  0  0  0  0
   31.1320   36.6730   13.0220 H   0  0  0  0  0  0  0  0  0  0  0  0
   28.2980   41.5520    9.8410 O   0  0  0  0  0  0  0  0  0  0  0  0
   28.5830   42.1250    9.0810 H   0  0  0  0  0  0  0  0  0  0  0  0
   29.9690   39.4460    7.8250 N   0  0  0  0  0  0  0  0  0  0  0  0
   29.9890   39.9720    6.5090 C   0  0  0  0  0  0  0  0  0  0  0  0
   30.8210   38.9460    8.2120 H   0  0  0  0  0  0  0  0  0  0  0  0
   31.2010   39.8220    5.6770 C   0  0  0  0  0  0  0  0  0  0  0  0
   29.0010   40.5730    6.0070 O   0  0  0  0  0  0  0  0  0  0  0  0
   26.2510   39.3940    8.2730 O   0  0  0  0  0  0  0  0  0  0  0  0
   26.8860   39.6220    7.5480 H   0  0  0  0  0  0  0  0  0  0  0  0
   25.4610   37.3460    7.0490 O   0  0  0  0  0  0  0  0  0  0  0  0
   24.5100   37.5620    7.1750 H   0  0  0  0  0  0  0  0  0  0  0  0
   26.3530   34.5110   13.4980 C   0  0  0  0  0  0  0  0  0  0  0  0
   27.8010   34.4960   13.6540 C   0  0  0  0  0  0  0  0  0  0  0  0
   28.5390   34.1150   14.7420 C   0  0  0  0  0  0  0  0  0  0  0  0
   28.7020   34.8630   12.7300 N   0  0  0  0  0  0  0  0  0  0  0  0
   29.8460   34.2490   14.4770 N   0  0  0  0  0  0  0  0  0  0  0  0
   29.9110   34.7070   13.2410 N   0  0  0  0  0  0  0  0  0  0  0  0
   31.0200   33.9850   15.2890 C   0  0  1  0  0  0  0  0  0  0  0  0
   31.2320   32.5220   15.4350 C   0  0  0  0  0  0  0  0  0  0  0  0
   30.7640   31.9130   16.7030 C   0  0  0  0  0  0  0  0  0  0  0  0
   29.6170   31.0210   16.5430 C   0  0  0  0  0  0  0  0  0  0  0  0
   28.9330   30.6270   17.5510 O   0  0  0  0  0  0  0  0  0  0  0  0
   29.2500   30.5800   15.2700 O   0  0  0  0  0  0  0  0  0  0  0  0
   28.3270   30.8280   14.9420 H   0  0  0  0  0  0  0  0  0  0  0  0
   32.1700   34.7990   14.9380 C   0  0  0  0  0  0  0  0  0  0  0  0
   33.2720   34.3830   14.5820 O   0  0  0  0  0  0  0  0  0  0  0  0
   32.0080   36.1950   15.0200 O   0  0  0  0  0  0  0  0  0  0  0  0
   31.1610   36.5580   15.4200 H   0  0  0  0  0  0  0  0  0  0  0  0
   29.8670   25.5550   16.9770 C   0  0  0  0  0  0  0  0  0  0  0  0
   28.3450   25.7220   17.0260 C   0  0  0  0  0  0  0  0  0  0  0  0
   27.6010   24.4020   16.8950 C   0  0  0  0  0  0  0  0  0  0  0  0
   26.5470   24.2380   17.9540 C   0  0  0  0  0  0  0  0  0  0  0  0
   25.2210   23.8660   17.2990 C   0  0  0  0  0  0  0  0  0  0  0  0
   24.9020   22.4400   17.5460 N   0  0  0  0  0  0  0  0  0  0  0  0
  1 32  1  0  0  0  0
  2  1  1  0  0  0  0
  3  4  1  0  0  0  0
  3  2  1  0  0  0  0
  5  2  2  0  0  0  0
  6  3  1  0  0  0  0
  7  8  1  0  0  0  0
  7  6  1  1  0  0  0
  8 28  1  6  0  0  0
  9  8  1  1  0  0  0
  9 12  1  0  0  0  0
 10 17  1  1  0  0  0
 10 15  1  0  0  0  0
 11 10  1  0  0  0  0
 12 10  1  0  0  0  0
 13 21  1  6  0  0  0
 13 11  1  0  0  0  0
 14 23  1  1  0  0  0
 14  9  1  0  0  0  0
 14 13  1  0  0  0  0
 16 15  1  0  0  0  0
 17 19  1  0  0  0  0
 18 17  2  0  0  0  0
 19 20  1  0  0  0  0
 22 21  1  0  0  0  0
 23 25  1  0  0  0  0
 24 23  1  0  0  0  0
 26 24  1  0  0  0  0
 27 24  2  0  0  0  0
 29 28  1  0  0  0  0
 30 31  1  0  0  0  0
 30  7  1  0  0  0  0
 32 33  1  0  0  0  0
 33 34  2  0  0  0  0
 35 37  2  0  0  0  0
 35 33  1  0  0  0  0
 36 34  1  0  0  0  0
 36 38  1  0  0  0  0
 37 36  1  0  0  0  0
 38 39  1  6  0  0  0
 39 40  1  0  0  0  0
 41 40  1  0  0  0  0
 41 42  2  0  0  0  0
 43 41  1  0  0  0  0
 44 43  1  0  0  0  0
 45 47  1  0  0  0  0
 45 38  1  0  0  0  0
 46 45  2  0  0  0  0
 47 48  1  0  0  0  0
 49 50  1  0  0  0  0
 51 50  1  0  0  0  0
 51 52  1  0  0  0  0
 53 54  1  0  0  0  0
 53 52  1  0  0  0  0
M  END
>  <REMARK>
 VINA RESULT:    -3.952      3.327      6.921
 INTER + INTRA:         -15.432
 INTER:                  -8.331
 INTRA:                  -7.102
 UNBOUND:                -7.438
 SMILES CC(=O)N[C@@H]1[C@@H](O)C[C@](O)(C(=O)O)O[C@H]1C(O)[C@H](O)CNC(=O)OCc1cn([C@@H](CCC(=O)O)C(=O)O)nn1
 SMILES IDX 24 1 22 2 21 3 23 5 20 6 18 7 16 8 15 9 9 10 8 11 14 12 6 13
 SMILES IDX 5 14 10 15 11 17 12 18 13 19 7 21 4 23 2 24 1 26 3 27 17 28
 SMILES IDX 19 30 25 32 26 33 27 34 39 35 28 36 38 37 29 38 30 39 31 40
 SMILES IDX 32 41 33 42 34 43 35 45 36 46 37 47
 H PARENT 21 4 10 16 13 20 7 22 4 25 17 29 19 31 34 44 37 48
 Flexibility Score: inf
  4 active torsions:
  status: ('A' for Active; 'I' for Inactive)
    1  A    between atoms: CA   and  CB  
    2  A    between atoms: CB   and  CG  
    3  A    between atoms: CG   and  CD  
    4  A    between atoms: CD   and  CE  

>  <TORSDO>
F 21

>  <BEGIN_>
RES LYS A 131

$$$$
ligand_11_pose_10_2HRL.pdbqt
 OpenBabel07062320523D

  6  5  0  0  0  0  0  0  0  0999 V2000
   33.1930   34.6630    9.2900 C   0  0  0  0  0  0  0  0  0  0  0  0
   32.0600   35.3600   10.0340 C   0  0  0  0  0  0  0  0  0  0  0  0
   30.7190   34.6990    9.8460 C   0  0  0  0  0  0  0  0  0  0  0  0
   30.3270   34.6880    8.3760 C   0  0  0  0  0  0  0  0  0  0  0  0
   28.8300   34.4980    8.2260 C   0  0  0  0  0  0  0  0  0  0  0  0
   28.2580   33.7880    9.4030 N   0  0  0  0  0  0  0  0  0  0  0  0
  1  2  1  0  0  0  0
  3  2  1  0  0  0  0
  4  3  1  0  0  0  0
  5  4  1  0  0  0  0
  5  6  1  0  0  0  0
M  END
>  <EGIN_R>
ES LYS A 135

>  <REMARK>
  4 active torsions:
  status: ('A' for Active; 'I' for Inactive)
    5  A    between atoms: CA   and  CB  
    6  A    between atoms: CB   and  CG  
    7  A    between atoms: CG   and  CD  
    8  A    between atoms: CD   and  CE  

$$$$
