ligand_0_pose_7_2HRL.pdbqt
 OpenBabel07062320523D

 54 55  0  0  1  0  0  0  0  0999 V2000
   28.9680   30.1760   18.1960 N   0  0  0  0  0  0  0  0  0  0  0  0
   27.9520   29.5140   18.9340 C   0  0  0  0  0  0  0  0  0  0  0  0
   27.6340   29.9520   20.0540 O   0  0  0  0  0  0  0  0  0  0  0  0
   29.1910   29.7510   17.2510 H   0  0  0  0  0  0  0  0  0  0  0  0
   29.6820   31.3460   18.6460 C   0  0  0  0  0  0  0  0  0  0  0  0
   29.8770   32.3680   17.5390 C   0  0  2  0  0  0  0  0  0  0  0  0
   29.3400   31.8810   16.2260 C   0  0  1  0  0  0  0  0  0  0  0  0
   28.7220   32.9290   15.3800 C   0  0  2  0  0  0  0  0  0  0  0  0
   29.2720   35.0450   14.5480 C   0  0  2  0  0  0  0  0  0  0  0  0
   28.0060   34.8280   13.7730 C   0  0  0  0  0  0  0  0  0  0  0  0
   29.6740   33.9780   15.2860 O   0  0  0  0  0  0  0  0  0  0  0  0
   26.8840   34.2670   14.5780 C   0  0  1  0  0  0  0  0  0  0  0  0
   27.4540   33.5560   15.8000 C   0  0  1  0  0  0  0  0  0  0  0  0
   29.1420   36.2220   15.3220 O   0  0  0  0  0  0  0  0  0  0  0  0
   30.0560   36.4650   15.6530 H   0  0  0  0  0  0  0  0  0  0  0  0
   30.3400   35.3420   13.5500 C   0  0  0  0  0  0  0  0  0  0  0  0
   30.5100   34.5210   12.5980 O   0  0  0  0  0  0  0  0  0  0  0  0
   31.1510   36.4540   13.6030 O   0  0  0  0  0  0  0  0  0  0  0  0
   31.8370   36.6350   12.8880 H   0  0  0  0  0  0  0  0  0  0  0  0
   26.0310   35.2960   14.9440 O   0  0  0  0  0  0  0  0  0  0  0  0
   25.1290   35.2250   14.5420 H   0  0  0  0  0  0  0  0  0  0  0  0
   26.4930   32.7820   16.4860 N   0  0  0  0  0  0  0  0  0  0  0  0
   26.1640   33.0170   17.8380 C   0  0  0  0  0  0  0  0  0  0  0  0
   25.9760   32.0200   16.0040 H   0  0  0  0  0  0  0  0  0  0  0  0
   25.1670   32.2400   18.6040 C   0  0  0  0  0  0  0  0  0  0  0  0
   26.7550   33.9470   18.4280 O   0  0  0  0  0  0  0  0  0  0  0  0
   30.0970   30.9240   15.5940 O   0  0  0  0  0  0  0  0  0  0  0  0
   30.7410   30.5110   16.2460 H   0  0  0  0  0  0  0  0  0  0  0  0
   31.1420   32.8820   17.5150 O   0  0  0  0  0  0  0  0  0  0  0  0
   31.1800   33.7290   16.9910 H   0  0  0  0  0  0  0  0  0  0  0  0
   27.2950   28.3890   18.4490 O   0  0  0  0  0  0  0  0  0  0  0  0
   25.8970   28.3720   18.2180 C   0  0  0  0  0  0  0  0  0  0  0  0
   25.5750   29.0690   16.9360 C   0  0  0  0  0  0  0  0  0  0  0  0
   24.3450   29.0620   16.3060 C   0  0  0  0  0  0  0  0  0  0  0  0
   26.3870   29.8120   16.1700 N   0  0  0  0  0  0  0  0  0  0  0  0
   24.4640   29.8120   15.1690 N   0  0  0  0  0  0  0  0  0  0  0  0
   25.6900   30.2430   15.1180 N   0  0  0  0  0  0  0  0  0  0  0  0
   23.4090   30.0460   14.2280 C   0  0  0  0  0  0  0  0  0  0  0  0
   22.6220   31.1720   14.2790 C   0  0  0  0  0  0  0  0  0  0  0  0
   23.1930   29.0900   13.2420 C   0  0  0  0  0  0  0  0  0  0  0  0
   21.6130   31.3290   13.3250 C   0  0  0  0  0  0  0  0  0  0  0  0
   22.1950   29.2610   12.3130 C   0  0  0  0  0  0  0  0  0  0  0  0
   21.4110   30.3830   12.3650 C   0  0  0  0  0  0  0  0  0  0  0  0
   22.7970   32.2100   15.2840 C   0  0  0  0  0  0  0  0  0  0  0  0
   22.3180   31.9880   16.4430 O   0  0  0  0  0  0  0  0  0  0  0  0
   23.4680   33.4340   15.0210 N   0  0  0  0  0  0  0  0  0  0  0  0
   24.4900   33.4910   14.8910 H   0  0  0  0  0  0  0  0  0  0  0  0
   22.8570   34.3050   14.9720 H   0  0  0  0  0  0  0  0  0  0  0  0
   29.8670   25.5550   16.9770 C   0  0  0  0  0  0  0  0  0  0  0  0
   28.3450   25.7220   17.0260 C   0  0  0  0  0  0  0  0  0  0  0  0
   27.6020   24.3990   16.9180 C   0  0  0  0  0  0  0  0  0  0  0  0
   26.1530   24.5310   17.2990 C   0  0  0  0  0  0  0  0  0  0  0  0
   25.6790   23.2360   17.9510 C   0  0  0  0  0  0  0  0  0  0  0  0
   24.4460   22.7440   17.2920 N   0  0  0  0  0  0  0  0  0  0  0  0
  1  5  1  0  0  0  0
  1  2  1  0  0  0  0
  2  3  2  0  0  0  0
  4  1  1  0  0  0  0
  6  5  1  1  0  0  0
  7 27  1  6  0  0  0
  7  6  1  0  0  0  0
  8 13  1  0  0  0  0
  8  7  1  1  0  0  0
  9 16  1  6  0  0  0
  9 11  1  0  0  0  0
  9 14  1  0  0  0  0
 10  9  1  0  0  0  0
 10 12  1  0  0  0  0
 11  8  1  0  0  0  0
 12 20  1  1  0  0  0
 12 13  1  0  0  0  0
 13 22  1  6  0  0  0
 14 15  1  0  0  0  0
 16 18  1  0  0  0  0
 17 16  2  0  0  0  0
 19 18  1  0  0  0  0
 21 20  1  0  0  0  0
 22 23  1  0  0  0  0
 23 26  2  0  0  0  0
 23 25  1  0  0  0  0
 24 22  1  0  0  0  0
 27 28  1  0  0  0  0
 29  6  1  0  0  0  0
 30 29  1  0  0  0  0
 31  2  1  0  0  0  0
 32 31  1  0  0  0  0
 33 32  1  0  0  0  0
 34 33  2  0  0  0  0
 35 33  1  0  0  0  0
 36 34  1  0  0  0  0
 37 36  1  0  0  0  0
 37 35  2  0  0  0  0
 38 39  1  0  0  0  0
 38 36  1  0  0  0  0
 39 44  1  0  0  0  0
 40 38  2  0  0  0  0
 41 39  2  0  0  0  0
 42 43  2  0  0  0  0
 42 40  1  0  0  0  0
 43 41  1  0  0  0  0
 44 45  2  0  0  0  0
 46 44  1  0  0  0  0
 47 46  1  0  0  0  0
 48 46  1  0  0  0  0
 49 50  1  0  0  0  0
 51 50  1  0  0  0  0
 51 52  1  0  0  0  0
 52 53  1  0  0  0  0
 54 53  1  0  0  0  0
M  END
>  <REMARK>
 VINA RESULT:    -5.283      3.041      7.232
 INTER + INTRA:         -14.867
 INTER:                  -7.706
 INTRA:                  -7.161
 UNBOUND:                -5.414
 SMILES CC(=O)N[C@@H]1[C@@H](O)C[C@](O)(C(=O)O)O[C@H]1C(O)[C@H](O)CNC(=O)OCc1cn(-c2ccccc2C(N)=O)nn1
 SMILES IDX 21 1 22 2 23 3 20 5 18 6 16 7 15 8 9 9 8 10 14 11 6 12 5 13
 SMILES IDX 10 14 11 16 12 17 13 18 7 20 4 22 2 23 1 25 3 26 17 27 19 29
 SMILES IDX 24 31 25 32 26 33 27 34 39 35 28 36 38 37 29 38 34 39 30 40
 SMILES IDX 33 41 31 42 32 43 35 44 37 45 36 46
 H PARENT 21 4 10 15 13 19 7 21 4 24 17 28 19 30 36 47 36 48
 Flexibility Score: inf
  4 active torsions:
  status: ('A' for Active; 'I' for Inactive)
    1  A    between atoms: CA   and  CB  
    2  A    between atoms: CB   and  CG  
    3  A    between atoms: CG   and  CD  
    4  A    between atoms: CD   and  CE  

>  <TORSDO>
F 16

>  <BEGIN_>
RES LYS A 131

$$$$
ligand_0_pose_7_2HRL.pdbqt
 OpenBabel07062320523D

  6  5  0  0  0  0  0  0  0  0999 V2000
   33.1930   34.6630    9.2900 C   0  0  0  0  0  0  0  0  0  0  0  0
   32.0600   35.3600   10.0340 C   0  0  0  0  0  0  0  0  0  0  0  0
   30.8030   35.5080    9.2160 C   0  0  0  0  0  0  0  0  0  0  0  0
   30.1320   34.1580    9.0140 C   0  0  0  0  0  0  0  0  0  0  0  0
   28.6690   34.3380    8.6600 C   0  0  0  0  0  0  0  0  0  0  0  0
   27.7890   33.6580    9.6500 N   0  0  0  0  0  0  0  0  0  0  0  0
  1  2  1  0  0  0  0
  3  2  1  0  0  0  0
  4  3  1  0  0  0  0
  5  4  1  0  0  0  0
  5  6  1  0  0  0  0
M  END
>  <EGIN_R>
ES LYS A 135

>  <REMARK>
  4 active torsions:
  status: ('A' for Active; 'I' for Inactive)
    5  A    between atoms: CA   and  CB  
    6  A    between atoms: CB   and  CG  
    7  A    between atoms: CG   and  CD  
    8  A    between atoms: CD   and  CE  

$$$$
