ligand_35_pose_12_2HRL.pdbqt
 OpenBabel07062320523D

 49 49  0  0  1  0  0  0  0  0999 V2000
   27.9930   29.3490   16.7760 N   0  0  0  0  0  0  0  0  0  0  0  0
   26.7980   29.5340   17.5080 C   0  0  0  0  0  0  0  0  0  0  0  0
   26.0920   30.5650   17.3730 O   0  0  0  0  0  0  0  0  0  0  0  0
   28.5400   28.4810   16.9240 H   0  0  0  0  0  0  0  0  0  0  0  0
   28.4680   30.3240   15.8370 C   0  0  0  0  0  0  0  0  0  0  0  0
   29.8830   30.8190   16.1560 C   0  0  2  0  0  0  0  0  0  0  0  0
   29.8230   31.5050   17.4770 C   0  0  2  0  0  0  0  0  0  0  0  0
   30.7340   32.6710   17.6650 C   0  0  2  0  0  0  0  0  0  0  0  0
   29.9880   33.3740   19.7630 C   0  0  2  0  0  0  0  0  0  0  0  0
   28.9140   34.0910   19.0470 C   0  0  0  0  0  0  0  0  0  0  0  0
   30.9810   32.7890   19.0250 O   0  0  0  0  0  0  0  0  0  0  0  0
   29.2500   34.6840   17.7250 C   0  0  1  0  0  0  0  0  0  0  0  0
   30.3550   33.9500   17.0210 C   0  0  1  0  0  0  0  0  0  0  0  0
   29.3570   32.3040   20.4510 O   0  0  0  0  0  0  0  0  0  0  0  0
   28.3980   32.5090   20.4810 H   0  0  0  0  0  0  0  0  0  0  0  0
   30.5540   34.2600   20.8170 C   0  0  0  0  0  0  0  0  0  0  0  0
   30.5190   33.9500   22.0390 O   0  0  0  0  0  0  0  0  0  0  0  0
   31.1470   35.4660   20.4880 O   0  0  0  0  0  0  0  0  0  0  0  0
   31.9200   35.8700   21.0050 H   0  0  0  0  0  0  0  0  0  0  0  0
   28.0690   34.6960   16.9590 O   0  0  0  0  0  0  0  0  0  0  0  0
   27.8470   33.7490   16.7860 H   0  0  0  0  0  0  0  0  0  0  0  0
   31.5640   34.7980   17.0450 N   0  0  0  0  0  0  0  0  0  0  0  0
   32.4830   34.7920   15.9730 C   0  0  0  0  0  0  0  0  0  0  0  0
   31.7810   35.4230   17.8430 H   0  0  0  0  0  0  0  0  0  0  0  0
   33.7030   35.6220   15.9530 C   0  0  0  0  0  0  0  0  0  0  0  0
   32.2720   34.0440   14.9620 O   0  0  0  0  0  0  0  0  0  0  0  0
   30.2890   30.5310   18.4180 O   0  0  0  0  0  0  0  0  0  0  0  0
   29.4610   30.1110   18.7620 H   0  0  0  0  0  0  0  0  0  0  0  0
   30.1990   31.7000   15.1290 O   0  0  0  0  0  0  0  0  0  0  0  0
   29.4750   31.6350   14.4550 H   0  0  0  0  0  0  0  0  0  0  0  0
   26.3530   28.5600   18.4220 O   0  0  0  0  0  0  0  0  0  0  0  0
   27.2560   27.6190   18.9730 C   0  0  0  0  0  0  0  0  0  0  0  0
   28.1880   28.2670   19.9300 C   0  0  0  0  0  0  0  0  0  0  0  0
   29.3910   27.7340   20.4000 C   0  0  0  0  0  0  0  0  0  0  0  0
   28.0900   29.4700   20.5390 N   0  0  0  0  0  0  0  0  0  0  0  0
   29.9510   28.6060   21.2440 N   0  0  0  0  0  0  0  0  0  0  0  0
   29.1620   29.6480   21.3230 N   0  0  0  0  0  0  0  0  0  0  0  0
   31.2190   28.4450   21.9630 C   0  0  1  0  0  0  0  0  0  0  0  0
   31.8010   27.0710   21.6780 C   0  0  0  0  0  0  0  0  0  0  0  0
   32.1800   29.4910   21.6170 C   0  0  0  0  0  0  0  0  0  0  0  0
   33.3950   29.3360   21.8790 O   0  0  0  0  0  0  0  0  0  0  0  0
   31.8320   30.6890   20.9970 O   0  0  0  0  0  0  0  0  0  0  0  0
   31.8190   31.5610   21.5140 H   0  0  0  0  0  0  0  0  0  0  0  0
   29.8670   25.5550   16.9770 C   0  0  0  0  0  0  0  0  0  0  0  0
   28.3450   25.7220   17.0260 C   0  0  0  0  0  0  0  0  0  0  0  0
   27.6020   24.4000   16.9140 C   0  0  0  0  0  0  0  0  0  0  0  0
   26.1550   24.5280   17.3040 C   0  0  0  0  0  0  0  0  0  0  0  0
   25.8700   23.6300   18.5030 C   0  0  0  0  0  0  0  0  0  0  0  0
   25.5170   24.4460   19.6900 N   0  0  0  0  0  0  0  0  0  0  0  0
  1  4  1  0  0  0  0
  1  2  1  0  0  0  0
  2 31  1  0  0  0  0
  3  2  2  0  0  0  0
  5  1  1  0  0  0  0
  6  5  1  6  0  0  0
  6  7  1  0  0  0  0
  7 27  1  1  0  0  0
  8  7  1  1  0  0  0
  8 11  1  0  0  0  0
  9 14  1  1  0  0  0
  9 16  1  0  0  0  0
 10  9  1  0  0  0  0
 11  9  1  0  0  0  0
 12 20  1  6  0  0  0
 12 10  1  0  0  0  0
 13 22  1  1  0  0  0
 13  8  1  0  0  0  0
 13 12  1  0  0  0  0
 14 15  1  0  0  0  0
 16 17  2  0  0  0  0
 18 16  1  0  0  0  0
 18 19  1  0  0  0  0
 21 20  1  0  0  0  0
 22 24  1  0  0  0  0
 23 22  1  0  0  0  0
 25 23  1  0  0  0  0
 26 23  2  0  0  0  0
 27 28  1  0  0  0  0
 29  6  1  0  0  0  0
 30 29  1  0  0  0  0
 31 32  1  0  0  0  0
 32 33  1  0  0  0  0
 33 34  2  0  0  0  0
 33 35  1  0  0  0  0
 34 36  1  0  0  0  0
 35 37  2  0  0  0  0
 36 37  1  0  0  0  0
 36 38  1  0  0  0  0
 38 39  1  6  0  0  0
 40 41  2  0  0  0  0
 40 38  1  0  0  0  0
 42 43  1  0  0  0  0
 42 40  1  0  0  0  0
 44 45  1  0  0  0  0
 46 45  1  0  0  0  0
 46 47  1  0  0  0  0
 47 48  1  0  0  0  0
 48 49  1  0  0  0  0
M  END
>  <REMARK>
 VINA RESULT:    -4.937      2.399      5.167
 INTER + INTRA:         -13.702
 INTER:                  -7.165
 INTRA:                  -6.537
 UNBOUND:                -4.724
 SMILES CC(=O)N[C@@H]1[C@@H](O)C[C@](O)(C(=O)O)O[C@H]1C(O)[C@H](O)CNC(=O)OCc1cn([C@@H](C)C(=O)O)nn1
 SMILES IDX 21 1 22 2 23 3 20 5 18 6 16 7 15 8 9 9 8 10 14 11 6 12 5 13
 SMILES IDX 10 14 11 16 12 17 13 18 7 20 4 22 2 23 1 25 3 26 17 27 19 29
 SMILES IDX 24 31 25 32 26 33 27 34 35 35 28 36 34 37 29 38 30 39 31 40
 SMILES IDX 32 41 33 42
 H PARENT 21 4 10 15 13 19 7 21 4 24 17 28 19 30 33 43
 Flexibility Score: inf
  4 active torsions:
  status: ('A' for Active; 'I' for Inactive)
    1  A    between atoms: CA   and  CB  
    2  A    between atoms: CB   and  CG  
    3  A    between atoms: CG   and  CD  
    4  A    between atoms: CD   and  CE  

>  <TORSDO>
F 17

>  <BEGIN_>
RES LYS A 131

$$$$
ligand_35_pose_12_2HRL.pdbqt
 OpenBabel07062320523D

  6  5  0  0  0  0  0  0  0  0999 V2000
   33.1930   34.6630    9.2900 C   0  0  0  0  0  0  0  0  0  0  0  0
   32.0600   35.3600   10.0340 C   0  0  0  0  0  0  0  0  0  0  0  0
   30.7780   35.4340    9.2460 C   0  0  0  0  0  0  0  0  0  0  0  0
   30.2190   34.0410    8.9990 C   0  0  0  0  0  0  0  0  0  0  0  0
   28.7270   34.0100    9.2710 C   0  0  0  0  0  0  0  0  0  0  0  0
   28.3140   35.1540   10.1300 N   0  0  0  0  0  0  0  0  0  0  0  0
  1  2  1  0  0  0  0
  3  2  1  0  0  0  0
  4  3  1  0  0  0  0
  4  5  1  0  0  0  0
  5  6  1  0  0  0  0
M  END
>  <EGIN_R>
ES LYS A 135

>  <REMARK>
  4 active torsions:
  status: ('A' for Active; 'I' for Inactive)
    5  A    between atoms: CA   and  CB  
    6  A    between atoms: CB   and  CG  
    7  A    between atoms: CG   and  CD  
    8  A    between atoms: CD   and  CE  

$$$$
