ligand_71_pose_10_2HRL.pdbqt
 OpenBabel07062320523D

 54 55  0  0  1  0  0  0  0  0999 V2000
   33.3810   35.4380   18.8090 N   0  0  0  0  0  0  0  0  0  0  0  0
   32.6280   36.1440   19.8090 C   0  0  0  0  0  0  0  0  0  0  0  0
   32.5070   37.3930   19.7660 O   0  0  0  0  0  0  0  0  0  0  0  0
   33.4670   34.4100   18.8610 H   0  0  0  0  0  0  0  0  0  0  0  0
   33.9900   36.2110   17.7620 C   0  0  0  0  0  0  0  0  0  0  0  0
   33.4730   35.8700   16.3860 C   0  0  2  0  0  0  0  0  0  0  0  0
   32.7040   37.0680   15.8860 C   0  0  1  0  0  0  0  0  0  0  0  0
   31.6230   36.6520   14.8850 C   0  0  2  0  0  0  0  0  0  0  0  0
   31.1510   35.1820   13.2390 C   0  0  2  0  0  0  0  0  0  0  0  0
   30.2180   36.1690   12.6380 C   0  0  0  0  0  0  0  0  0  0  0  0
   32.1440   35.7900   13.9520 O   0  0  0  0  0  0  0  0  0  0  0  0
   30.5920   37.6210   12.8240 C   0  0  1  0  0  0  0  0  0  0  0  0
   31.1150   37.9110   14.2030 C   0  0  1  0  0  0  0  0  0  0  0  0
   31.8370   34.4980   12.1780 O   0  0  0  0  0  0  0  0  0  0  0  0
   32.7790   34.8230   12.1560 H   0  0  0  0  0  0  0  0  0  0  0  0
   30.4330   34.1000   13.9730 C   0  0  0  0  0  0  0  0  0  0  0  0
   29.2040   34.0880   14.0440 O   0  0  0  0  0  0  0  0  0  0  0  0
   31.1240   33.0630   14.6060 O   0  0  0  0  0  0  0  0  0  0  0  0
   32.1040   32.9020   14.4530 H   0  0  0  0  0  0  0  0  0  0  0  0
   31.5430   37.9200   11.8460 O   0  0  0  0  0  0  0  0  0  0  0  0
   32.4550   37.6110   12.1110 H   0  0  0  0  0  0  0  0  0  0  0  0
   30.1980   38.5680   15.0690 N   0  0  0  0  0  0  0  0  0  0  0  0
   30.0420   39.9730   15.1730 C   0  0  0  0  0  0  0  0  0  0  0  0
   29.5770   37.9950   15.6910 H   0  0  0  0  0  0  0  0  0  0  0  0
   29.0590   40.5970   16.1120 C   0  0  0  0  0  0  0  0  0  0  0  0
   30.7580   40.6880   14.4510 O   0  0  0  0  0  0  0  0  0  0  0  0
   32.1560   37.8010   16.9210 O   0  0  0  0  0  0  0  0  0  0  0  0
   31.6680   38.5850   16.5210 H   0  0  0  0  0  0  0  0  0  0  0  0
   32.6560   34.7480   16.5080 O   0  0  0  0  0  0  0  0  0  0  0  0
   32.9330   34.2750   17.3380 H   0  0  0  0  0  0  0  0  0  0  0  0
   32.0150   35.4770   20.8440 O   0  0  0  0  0  0  0  0  0  0  0  0
   30.7160   34.9620   20.8420 C   0  0  0  0  0  0  0  0  0  0  0  0
   30.4900   34.1510   19.6270 C   0  0  0  0  0  0  0  0  0  0  0  0
   30.4840   32.7780   19.4930 C   0  0  0  0  0  0  0  0  0  0  0  0
   30.2350   34.6570   18.4090 N   0  0  0  0  0  0  0  0  0  0  0  0
   30.2290   32.5070   18.2140 N   0  0  0  0  0  0  0  0  0  0  0  0
   30.0840   33.6610   17.5880 N   0  0  0  0  0  0  0  0  0  0  0  0
   30.1250   31.1550   17.6560 C   0  0  0  0  0  0  0  0  0  0  0  0
   29.0840   31.1290   16.5860 C   0  0  0  0  0  0  0  0  0  0  0  0
   29.2930   30.7680   15.4160 O   0  0  0  0  0  0  0  0  0  0  0  0
   27.7590   31.5490   16.9340 N   0  0  0  0  0  0  0  0  0  0  0  0
   27.5550   31.8590   17.9110 H   0  0  0  0  0  0  0  0  0  0  0  0
   26.7050   31.5540   15.9920 C   0  0  0  0  0  0  0  0  0  0  0  0
   26.0100   30.4520   15.6500 N   0  0  0  0  0  0  0  0  0  0  0  0
   26.3480   32.7020   15.3860 N   0  0  0  0  0  0  0  0  0  0  0  0
   25.0080   30.4860   14.7490 C   0  0  0  0  0  0  0  0  0  0  0  0
   25.3690   32.8030   14.4900 C   0  0  0  0  0  0  0  0  0  0  0  0
   24.6570   31.6730   14.1390 C   0  0  0  0  0  0  0  0  0  0  0  0
   29.8670   25.5550   16.9770 C   0  0  0  0  0  0  0  0  0  0  0  0
   28.3450   25.7220   17.0260 C   0  0  0  0  0  0  0  0  0  0  0  0
   27.6020   24.3990   16.9240 C   0  0  0  0  0  0  0  0  0  0  0  0
   26.5470   24.2590   17.9860 C   0  0  0  0  0  0  0  0  0  0  0  0
   25.8640   25.6050   18.2060 C   0  0  0  0  0  0  0  0  0  0  0  0
   24.4600   25.5570   17.7350 N   0  0  0  0  0  0  0  0  0  0  0  0
  1  4  1  0  0  0  0
  1  2  1  0  0  0  0
  2 31  1  0  0  0  0
  3  2  2  0  0  0  0
  5  1  1  0  0  0  0
  6 29  1  0  0  0  0
  6  5  1  1  0  0  0
  7  6  1  0  0  0  0
  7 27  1  1  0  0  0
  8  7  1  1  0  0  0
  9 14  1  6  0  0  0
  9 11  1  0  0  0  0
  9 16  1  0  0  0  0
 10 12  1  0  0  0  0
 10  9  1  0  0  0  0
 11  8  1  0  0  0  0
 12 20  1  6  0  0  0
 12 13  1  0  0  0  0
 13  8  1  0  0  0  0
 13 22  1  1  0  0  0
 15 14  1  0  0  0  0
 16 17  2  0  0  0  0
 16 18  1  0  0  0  0
 19 18  1  0  0  0  0
 20 21  1  0  0  0  0
 22 23  1  0  0  0  0
 22 24  1  0  0  0  0
 23 25  1  0  0  0  0
 26 23  2  0  0  0  0
 28 27  1  0  0  0  0
 29 30  1  0  0  0  0
 32 31  1  0  0  0  0
 33 32  1  0  0  0  0
 34 33  2  0  0  0  0
 35 33  1  0  0  0  0
 36 34  1  0  0  0  0
 37 36  1  0  0  0  0
 37 35  2  0  0  0  0
 38 36  1  0  0  0  0
 39 41  1  0  0  0  0
 39 38  1  0  0  0  0
 40 39  2  0  0  0  0
 41 42  1  0  0  0  0
 43 41  1  0  0  0  0
 44 43  2  0  0  0  0
 45 43  1  0  0  0  0
 46 44  1  0  0  0  0
 47 45  2  0  0  0  0
 48 47  1  0  0  0  0
 48 46  2  0  0  0  0
 49 50  1  0  0  0  0
 51 50  1  0  0  0  0
 51 52  1  0  0  0  0
 52 53  1  0  0  0  0
 54 53  1  0  0  0  0
M  END
>  <REMARK>
 VINA RESULT:    -3.888      2.630      4.841
 INTER + INTRA:         -14.749
 INTER:                  -7.081
 INTRA:                  -7.668
 UNBOUND:                -7.565
 SMILES CC(=O)N[C@@H]1[C@@H](O)C[C@](O)(C(=O)O)O[C@H]1C(O)[C@H](O)CNC(=O)OCc1cn(CC(=O)Nc2ncccn2)nn1
 SMILES IDX 21 1 22 2 23 3 20 5 18 6 16 7 15 8 9 9 8 10 14 11 6 12 5 13
 SMILES IDX 10 14 11 16 12 17 13 18 7 20 4 22 2 23 1 25 3 26 17 27 19 29
 SMILES IDX 24 31 25 32 26 33 27 34 40 35 28 36 39 37 29 38 30 39 31 40
 SMILES IDX 32 41 33 43 34 44 38 45 35 46 37 47 36 48
 H PARENT 21 4 10 15 13 19 7 21 4 24 17 28 19 30 32 42
 Flexibility Score: inf
  4 active torsions:
  status: ('A' for Active; 'I' for Inactive)
    1  A    between atoms: CA   and  CB  
    2  A    between atoms: CB   and  CG  
    3  A    between atoms: CG   and  CD  
    4  A    between atoms: CD   and  CE  

>  <TORSDO>
F 17

>  <BEGIN_>
RES LYS A 131

$$$$
ligand_71_pose_10_2HRL.pdbqt
 OpenBabel07062320523D

  6  5  0  0  0  0  0  0  0  0999 V2000
   33.1930   34.6630    9.2900 C   0  0  0  0  0  0  0  0  0  0  0  0
   32.0600   35.3600   10.0340 C   0  0  0  0  0  0  0  0  0  0  0  0
   30.8530   35.6330    9.1740 C   0  0  0  0  0  0  0  0  0  0  0  0
   30.2360   34.3310    8.6860 C   0  0  0  0  0  0  0  0  0  0  0  0
   28.7520   34.5090    8.4280 C   0  0  0  0  0  0  0  0  0  0  0  0
   27.9410   33.7690    9.4340 N   0  0  0  0  0  0  0  0  0  0  0  0
  1  2  1  0  0  0  0
  3  2  1  0  0  0  0
  4  3  1  0  0  0  0
  5  4  1  0  0  0  0
  5  6  1  0  0  0  0
M  END
>  <EGIN_R>
ES LYS A 135

>  <REMARK>
  4 active torsions:
  status: ('A' for Active; 'I' for Inactive)
    5  A    between atoms: CA   and  CB  
    6  A    between atoms: CB   and  CG  
    7  A    between atoms: CG   and  CD  
    8  A    between atoms: CD   and  CE  

$$$$
