ligand_58_pose_9_2HRL.pdbqt
 OpenBabel07062320523D

 56 58  0  0  1  0  0  0  0  0999 V2000
   30.0660   32.2130   17.2480 N   0  0  0  0  0  0  0  0  0  0  0  0
   28.9480   32.6000   18.0190 C   0  0  0  0  0  0  0  0  0  0  0  0
   28.8230   33.7900   18.3950 O   0  0  0  0  0  0  0  0  0  0  0  0
   30.1420   31.2180   16.9550 H   0  0  0  0  0  0  0  0  0  0  0  0
   31.0760   33.1500   16.8700 C   0  0  0  0  0  0  0  0  0  0  0  0
   31.5240   32.8420   15.4410 C   0  0  2  0  0  0  0  0  0  0  0  0
   30.8320   33.8750   14.5660 C   0  0  2  0  0  0  0  0  0  0  0  0
   31.0550   35.3020   14.9790 C   0  0  2  0  0  0  0  0  0  0  0  0
   30.0770   36.4280   13.1570 C   0  0  2  0  0  0  0  0  0  0  0  0
   31.4360   36.8700   12.6630 C   0  0  0  0  0  0  0  0  0  0  0  0
   30.0130   36.0400   14.4530 O   0  0  0  0  0  0  0  0  0  0  0  0
   32.5470   35.9780   13.1300 C   0  0  1  0  0  0  0  0  0  0  0  0
   32.3930   35.8090   14.6120 C   0  0  1  0  0  0  0  0  0  0  0  0
   29.7210   35.3440   12.3520 O   0  0  0  0  0  0  0  0  0  0  0  0
   28.7800   35.5050   12.0580 H   0  0  0  0  0  0  0  0  0  0  0  0
   29.0870   37.5250   12.8550 C   0  0  0  0  0  0  0  0  0  0  0  0
   28.1710   37.8030   13.6350 O   0  0  0  0  0  0  0  0  0  0  0  0
   29.2270   38.2190   11.6760 O   0  0  0  0  0  0  0  0  0  0  0  0
   28.4050   38.6790   11.2670 H   0  0  0  0  0  0  0  0  0  0  0  0
   32.5020   34.8160   12.4150 O   0  0  0  0  0  0  0  0  0  0  0  0
   32.1080   34.0720   12.9480 H   0  0  0  0  0  0  0  0  0  0  0  0
   32.6440   37.1320   15.2200 N   0  0  0  0  0  0  0  0  0  0  0  0
   33.3410   37.2790   16.4310 C   0  0  0  0  0  0  0  0  0  0  0  0
   32.2820   37.9730   14.7230 H   0  0  0  0  0  0  0  0  0  0  0  0
   33.5720   38.6290   17.0090 C   0  0  0  0  0  0  0  0  0  0  0  0
   33.7810   36.2670   17.0440 O   0  0  0  0  0  0  0  0  0  0  0  0
   29.4260   33.5930   14.7360 O   0  0  0  0  0  0  0  0  0  0  0  0
   28.9730   33.5710   13.8790 H   0  0  0  0  0  0  0  0  0  0  0  0
   31.0790   31.5530   15.1890 O   0  0  0  0  0  0  0  0  0  0  0  0
   30.7440   31.4290   14.2800 H   0  0  0  0  0  0  0  0  0  0  0  0
   27.9610   31.6930   18.3860 O   0  0  0  0  0  0  0  0  0  0  0  0
   27.7540   30.5590   17.5890 C   0  0  0  0  0  0  0  0  0  0  0  0
   26.5580   30.7790   16.7360 C   0  0  0  0  0  0  0  0  0  0  0  0
   26.5840   31.2330   15.4140 C   0  0  0  0  0  0  0  0  0  0  0  0
   25.2520   30.6120   17.0040 N   0  0  0  0  0  0  0  0  0  0  0  0
   25.3320   31.3170   14.9600 N   0  0  0  0  0  0  0  0  0  0  0  0
   24.5410   30.9400   15.9300 N   0  0  0  0  0  0  0  0  0  0  0  0
   24.8840   31.7440   13.6430 C   0  0  0  0  0  0  0  0  0  0  0  0
   23.7510   30.9450   13.1740 C   0  0  0  0  0  0  0  0  0  0  0  0
   22.4900   31.5080   12.9410 C   0  0  0  0  0  0  0  0  0  0  0  0
   23.9110   29.5960   12.9290 C   0  0  0  0  0  0  0  0  0  0  0  0
   21.4460   30.7360   12.4830 C   0  0  0  0  0  0  0  0  0  0  0  0
   22.8480   28.8440   12.4710 C   0  0  0  0  0  0  0  0  0  0  0  0
   21.6010   29.3860   12.2370 C   0  0  0  0  0  0  0  0  0  0  0  0
   24.7540   33.1970   13.5120 C   0  0  0  0  0  0  0  0  0  0  0  0
   24.1880   33.9580   14.5500 C   0  0  0  0  0  0  0  0  0  0  0  0
   25.1890   33.8400   12.3780 C   0  0  0  0  0  0  0  0  0  0  0  0
   24.0710   35.3190   14.4350 C   0  0  0  0  0  0  0  0  0  0  0  0
   25.0630   35.2300   12.2720 C   0  0  0  0  0  0  0  0  0  0  0  0
   24.5080   35.9600   13.2970 C   0  0  0  0  0  0  0  0  0  0  0  0
   29.8670   25.5550   16.9770 C   0  0  0  0  0  0  0  0  0  0  0  0
   28.3450   25.7220   17.0260 C   0  0  0  0  0  0  0  0  0  0  0  0
   27.6010   24.4030   16.8830 C   0  0  0  0  0  0  0  0  0  0  0  0
   26.1620   24.5160   17.3060 C   0  0  0  0  0  0  0  0  0  0  0  0
   26.0550   25.4550   18.5030 C   0  0  0  0  0  0  0  0  0  0  0  0
   25.4660   24.7490   19.6650 N   0  0  0  0  0  0  0  0  0  0  0  0
  1  2  1  0  0  0  0
  2 31  1  0  0  0  0
  2  3  2  0  0  0  0
  4  1  1  0  0  0  0
  5  1  1  0  0  0  0
  6  5  1  1  0  0  0
  7 27  1  1  0  0  0
  7  6  1  0  0  0  0
  8  7  1  6  0  0  0
  9 14  1  6  0  0  0
  9 11  1  0  0  0  0
 10 12  1  0  0  0  0
 10  9  1  0  0  0  0
 11  8  1  0  0  0  0
 12 20  1  6  0  0  0
 12 13  1  0  0  0  0
 13  8  1  0  0  0  0
 13 22  1  1  0  0  0
 15 14  1  0  0  0  0
 16  9  1  0  0  0  0
 16 17  2  0  0  0  0
 18 16  1  0  0  0  0
 19 18  1  0  0  0  0
 20 21  1  0  0  0  0
 22 23  1  0  0  0  0
 23 25  1  0  0  0  0
 23 26  2  0  0  0  0
 24 22  1  0  0  0  0
 28 27  1  0  0  0  0
 29  6  1  0  0  0  0
 30 29  1  0  0  0  0
 32 31  1  0  0  0  0
 33 35  1  0  0  0  0
 33 32  1  0  0  0  0
 34 33  2  0  0  0  0
 36 34  1  0  0  0  0
 36 37  1  0  0  0  0
 37 35  2  0  0  0  0
 38 36  1  0  0  0  0
 39 38  1  0  0  0  0
 40 39  1  0  0  0  0
 41 39  2  0  0  0  0
 42 40  2  0  0  0  0
 43 41  1  0  0  0  0
 44 43  2  0  0  0  0
 44 42  1  0  0  0  0
 45 38  1  0  0  0  0
 45 46  2  0  0  0  0
 47 45  1  0  0  0  0
 48 46  1  0  0  0  0
 49 47  2  0  0  0  0
 49 50  1  0  0  0  0
 50 48  2  0  0  0  0
 51 52  1  0  0  0  0
 53 52  1  0  0  0  0
 53 54  1  0  0  0  0
 54 55  1  0  0  0  0
 55 56  1  0  0  0  0
M  END
>  <REMARK>
 VINA RESULT:    -5.743      3.294      6.844
 INTER + INTRA:         -16.101
 INTER:                 -10.357
 INTRA:                  -5.744
 UNBOUND:                -5.490
 SMILES CC(=O)N[C@@H]1[C@@H](O)C[C@](O)(C(=O)O)O[C@H]1C(O)[C@H](O)CNC(=O)OCc1cn(C(c2ccccc2)c2ccccc2)nn1
 SMILES IDX 21 1 22 2 23 3 20 5 18 6 16 7 15 8 9 9 8 10 14 11 6 12 5 13
 SMILES IDX 10 14 11 16 12 17 13 18 7 20 4 22 2 23 1 25 3 26 17 27 19 29
 SMILES IDX 24 31 25 32 26 33 27 34 43 35 28 36 42 37 29 38 30 39 31 40
 SMILES IDX 35 41 32 42 34 43 33 44 36 45 37 46 41 47 38 48 40 49 39 50
 H PARENT 21 4 10 15 13 19 7 21 4 24 17 28 19 30
 Flexibility Score: inf
  4 active torsions:
  status: ('A' for Active; 'I' for Inactive)
    1  A    between atoms: CA   and  CB  
    2  A    between atoms: CB   and  CG  
    3  A    between atoms: CG   and  CD  
    4  A    between atoms: CD   and  CE  

>  <TORSDO>
F 17

>  <BEGIN_>
RES LYS A 131

$$$$
ligand_58_pose_9_2HRL.pdbqt
 OpenBabel07062320523D

  6  5  0  0  0  0  0  0  0  0999 V2000
   33.1930   34.6630    9.2900 C   0  0  0  0  0  0  0  0  0  0  0  0
   32.0600   35.3600   10.0340 C   0  0  0  0  0  0  0  0  0  0  0  0
   30.8150   35.5400    9.2040 C   0  0  0  0  0  0  0  0  0  0  0  0
   30.1360   34.2020    8.9590 C   0  0  0  0  0  0  0  0  0  0  0  0
   28.7350   34.4080    8.4140 C   0  0  0  0  0  0  0  0  0  0  0  0
   28.6740   35.6050    7.5300 N   0  0  0  0  0  0  0  0  0  0  0  0
  1  2  1  0  0  0  0
  3  2  1  0  0  0  0
  4  3  1  0  0  0  0
  5  4  1  0  0  0  0
  6  5  1  0  0  0  0
M  END
>  <EGIN_R>
ES LYS A 135

>  <REMARK>
  4 active torsions:
  status: ('A' for Active; 'I' for Inactive)
    5  A    between atoms: CA   and  CB  
    6  A    between atoms: CB   and  CG  
    7  A    between atoms: CG   and  CD  
    8  A    between atoms: CD   and  CE  

$$$$
