ligand_86_pose_18_2HRL.pdbqt
 OpenBabel07062320523D

 52 54  0  0  1  0  0  0  0  0999 V2000
   26.5590   36.6720   15.8080 C   0  0  0  0  0  0  0  0  0  0  0  0
   27.8190   35.9500   15.4710 C   0  0  2  0  0  0  0  0  0  0  0  0
   27.7250   34.4630   15.6160 C   0  0  2  0  0  0  0  0  0  0  0  0
   28.9760   33.8530   16.2050 C   0  0  2  0  0  0  0  0  0  0  0  0
   31.1030   33.1600   15.6220 C   0  0  2  0  0  0  0  0  0  0  0  0
   31.0570   32.7000   17.0540 C   0  0  0  0  0  0  0  0  0  0  0  0
   29.9790   33.8800   15.2470 O   0  0  0  0  0  0  0  0  0  0  0  0
   29.8250   31.9170   17.3930 C   0  0  1  0  0  0  0  0  0  0  0  0
   28.6990   32.3970   16.5190 C   0  0  1  0  0  0  0  0  0  0  0  0
   31.3420   32.1140   14.7320 O   0  0  0  0  0  0  0  0  0  0  0  0
   32.3110   31.9800   14.6090 H   0  0  0  0  0  0  0  0  0  0  0  0
   32.2680   34.0940   15.5030 C   0  0  0  0  0  0  0  0  0  0  0  0
   32.5980   34.8500   16.4770 O   0  0  0  0  0  0  0  0  0  0  0  0
   33.0370   34.1910   14.3660 O   0  0  0  0  0  0  0  0  0  0  0  0
   33.5960   33.3730   14.0960 H   0  0  0  0  0  0  0  0  0  0  0  0
   30.0070   30.5540   17.3710 O   0  0  0  0  0  0  0  0  0  0  0  0
   30.1300   30.2490   18.3080 H   0  0  0  0  0  0  0  0  0  0  0  0
   27.3970   32.1990   17.1050 N   0  0  0  0  0  0  0  0  0  0  0  0
   26.6270   31.0190   16.8790 C   0  0  0  0  0  0  0  0  0  0  0  0
   26.9720   32.9260   17.7240 H   0  0  0  0  0  0  0  0  0  0  0  0
   25.2990   30.8770   17.5100 C   0  0  0  0  0  0  0  0  0  0  0  0
   27.1190   30.1340   16.1410 O   0  0  0  0  0  0  0  0  0  0  0  0
   27.5240   33.8960   14.3590 O   0  0  0  0  0  0  0  0  0  0  0  0
   27.4300   32.9280   14.4010 H   0  0  0  0  0  0  0  0  0  0  0  0
   28.8900   36.3990   16.2780 O   0  0  0  0  0  0  0  0  0  0  0  0
   29.7010   35.9580   15.8980 H   0  0  0  0  0  0  0  0  0  0  0  0
   25.6220   36.6860   14.7100 N   0  0  0  0  0  0  0  0  0  0  0  0
   24.3370   36.1050   14.8730 C   0  0  0  0  0  0  0  0  0  0  0  0
   25.8430   37.1110   13.7780 H   0  0  0  0  0  0  0  0  0  0  0  0
   23.9570   35.5630   15.9460 O   0  0  0  0  0  0  0  0  0  0  0  0
   23.3930   36.0920   13.8460 O   0  0  0  0  0  0  0  0  0  0  0  0
   23.2100   34.9790   12.9930 C   0  0  0  0  0  0  0  0  0  0  0  0
   24.3900   34.8230   12.1000 C   0  0  0  0  0  0  0  0  0  0  0  0
   24.4410   35.2140   10.7790 C   0  0  0  0  0  0  0  0  0  0  0  0
   25.6000   34.3010   12.3630 N   0  0  0  0  0  0  0  0  0  0  0  0
   25.6720   34.9200   10.2740 N   0  0  0  0  0  0  0  0  0  0  0  0
   26.3330   34.3680   11.2770 N   0  0  0  0  0  0  0  0  0  0  0  0
   26.1490   35.1660    8.9160 C   0  0  2  0  0  0  0  0  0  0  0  0
   27.3670   34.3470    8.7000 C   0  0  0  0  0  0  0  0  0  0  0  0
   26.3290   36.6350    8.7570 C   0  0  0  0  0  0  0  0  0  0  0  0
   28.3890   34.9390    7.7980 C   0  0  1  0  0  0  0  0  0  0  0  0
   27.6170   37.0300    8.0830 C   0  0  2  0  0  0  0  0  0  0  0  0
   27.8710   36.0550    7.0380 N   0  0  0  0  0  0  0  0  0  0  0  0
   29.4480   35.6080    8.6610 C   0  0  0  0  0  0  0  0  0  0  0  0
   28.7350   36.8760    9.0830 C   0  0  0  0  0  0  0  0  0  0  0  0
   28.8580   36.5140    6.0940 C   0  0  0  0  0  0  0  0  0  0  0  0
   29.8670   25.5550   16.9770 C   0  0  0  0  0  0  0  0  0  0  0  0
   28.3450   25.7220   17.0260 C   0  0  0  0  0  0  0  0  0  0  0  0
   27.6010   24.4020   16.8930 C   0  0  0  0  0  0  0  0  0  0  0  0
   26.1520   24.5280   17.2710 C   0  0  0  0  0  0  0  0  0  0  0  0
   25.6350   23.1800   17.7640 C   0  0  0  0  0  0  0  0  0  0  0  0
   25.5210   23.1760   19.2410 N   0  0  0  0  0  0  0  0  0  0  0  0
  2  3  1  0  0  0  0
  2  1  1  1  0  0  0
  2 25  1  0  0  0  0
  3 23  1  6  0  0  0
  4  3  1  6  0  0  0
  4  9  1  0  0  0  0
  5 10  1  6  0  0  0
  5  6  1  0  0  0  0
  6  8  1  0  0  0  0
  7  5  1  0  0  0  0
  7  4  1  0  0  0  0
  8 16  1  6  0  0  0
  9 18  1  1  0  0  0
  9  8  1  0  0  0  0
 11 10  1  0  0  0  0
 12  5  1  0  0  0  0
 12 13  2  0  0  0  0
 14 12  1  0  0  0  0
 15 14  1  0  0  0  0
 16 17  1  0  0  0  0
 18 20  1  0  0  0  0
 19 18  1  0  0  0  0
 19 21  1  0  0  0  0
 22 19  2  0  0  0  0
 23 24  1  0  0  0  0
 26 25  1  0  0  0  0
 27 28  1  0  0  0  0
 27  1  1  0  0  0  0
 28 30  2  0  0  0  0
 29 27  1  0  0  0  0
 31 28  1  0  0  0  0
 32 31  1  0  0  0  0
 33 35  1  0  0  0  0
 33 32  1  0  0  0  0
 34 33  2  0  0  0  0
 36 34  1  0  0  0  0
 36 37  1  0  0  0  0
 37 35  2  0  0  0  0
 38 39  1  1  0  0  0
 38 36  1  0  0  0  0
 40 38  1  0  0  0  0
 41 44  1  1  0  0  0
 41 39  1  0  0  0  0
 42 40  1  1  0  0  0
 42 45  1  0  0  0  0
 43 41  1  0  0  0  0
 43 42  1  0  0  0  0
 44 45  1  0  0  0  0
 46 43  1  0  0  0  0
 47 48  1  0  0  0  0
 49 48  1  0  0  0  0
 49 50  1  0  0  0  0
 50 51  1  0  0  0  0
 51 52  1  0  0  0  0
M  END
>  <REMARK>
 VINA RESULT:    -4.112      3.401      6.179
 INTER + INTRA:         -13.671
 INTER:                  -9.177
 INTRA:                  -4.494
 UNBOUND:                -6.555
 SMILES CC(=O)N[C@@H]1[C@@H](O)C[C@](O)(C(=O)O)O[C@H]1C(O)[C@H](O)CNC(=O)OCc1cn([C@H]2C[C@H]3CC[C@@H](C2)N3C)nn1
 SMILES IDX 20 1 18 2 16 3 15 4 9 5 8 6 14 7 6 8 5 9 10 10 11 12 12 13
 SMILES IDX 13 14 7 16 4 18 2 19 1 21 3 22 17 23 19 25 21 27 22 28 23 30
 SMILES IDX 24 31 25 32 26 33 27 34 39 35 28 36 38 37 29 38 35 39 30 40
 SMILES IDX 34 41 31 42 36 43 33 44 32 45 37 46
 H PARENT 10 11 13 15 7 17 4 20 17 24 19 26 21 29
 Flexibility Score: inf
  4 active torsions:
  status: ('A' for Active; 'I' for Inactive)
    1  A    between atoms: CA   and  CB  
    2  A    between atoms: CB   and  CG  
    3  A    between atoms: CG   and  CD  
    4  A    between atoms: CD   and  CE  

>  <TORSDO>
F 15

>  <BEGIN_>
RES LYS A 131

$$$$
ligand_86_pose_18_2HRL.pdbqt
 OpenBabel07062320523D

  6  5  0  0  0  0  0  0  0  0999 V2000
   33.1930   34.6630    9.2900 C   0  0  0  0  0  0  0  0  0  0  0  0
   32.0600   35.3600   10.0340 C   0  0  0  0  0  0  0  0  0  0  0  0
   32.5010   36.0360   11.3060 C   0  0  0  0  0  0  0  0  0  0  0  0
   31.8870   37.4230   11.4180 C   0  0  0  0  0  0  0  0  0  0  0  0
   30.9070   37.4810   12.5730 C   0  0  0  0  0  0  0  0  0  0  0  0
   29.8150   38.4570   12.3020 N   0  0  0  0  0  0  0  0  0  0  0  0
  1  2  1  0  0  0  0
  2  3  1  0  0  0  0
  3  4  1  0  0  0  0
  4  5  1  0  0  0  0
  6  5  1  0  0  0  0
M  END
>  <EGIN_R>
ES LYS A 135

>  <REMARK>
  4 active torsions:
  status: ('A' for Active; 'I' for Inactive)
    5  A    between atoms: CA   and  CB  
    6  A    between atoms: CB   and  CG  
    7  A    between atoms: CG   and  CD  
    8  A    between atoms: CD   and  CE  

$$$$
