ligand_77_pose_2_2HRL.pdbqt
 OpenBabel07062320523D

 61 63  0  0  1  0  0  0  0  0999 V2000
   23.8850   38.3890   10.9510 N   0  0  0  0  0  0  0  0  0  0  0  0
   22.6570   37.7000   11.0940 C   0  0  0  0  0  0  0  0  0  0  0  0
   21.9150   37.5470   10.1170 O   0  0  0  0  0  0  0  0  0  0  0  0
   24.4610   38.4710   11.8460 H   0  0  0  0  0  0  0  0  0  0  0  0
   24.3810   38.9620    9.7210 C   0  0  0  0  0  0  0  0  0  0  0  0
   25.5740   38.1940    9.2660 C   0  0  2  0  0  0  0  0  0  0  0  0
   25.2730   37.2710    8.1030 C   0  0  1  0  0  0  0  0  0  0  0  0
   26.4600   36.5520    7.5580 C   0  0  2  0  0  0  0  0  0  0  0  0
   28.3830   35.5390    8.3600 C   0  0  2  0  0  0  0  0  0  0  0  0
   28.9160   35.4910    6.9620 C   0  0  0  0  0  0  0  0  0  0  0  0
   27.0040   35.6300    8.4220 O   0  0  0  0  0  0  0  0  0  0  0  0
   28.3440   36.5100    6.0430 C   0  0  1  0  0  0  0  0  0  0  0  0
   27.4640   37.4520    6.8830 C   0  0  1  0  0  0  0  0  0  0  0  0
   29.0030   36.5620    9.1140 O   0  0  0  0  0  0  0  0  0  0  0  0
   28.9470   37.3920    8.6110 H   0  0  0  0  0  0  0  0  0  0  0  0
   28.7650   34.2620    9.0310 C   0  0  0  0  0  0  0  0  0  0  0  0
   27.8490   33.5470    9.5410 O   0  0  0  0  0  0  0  0  0  0  0  0
   30.0540   33.8040    9.1330 O   0  0  0  0  0  0  0  0  0  0  0  0
   30.2950   33.0820    9.8090 H   0  0  0  0  0  0  0  0  0  0  0  0
   29.2980   37.2290    5.3400 O   0  0  0  0  0  0  0  0  0  0  0  0
   29.8900   37.7200    5.9940 H   0  0  0  0  0  0  0  0  0  0  0  0
   26.7330   38.3240    5.9710 N   0  0  0  0  0  0  0  0  0  0  0  0
   27.1990   39.6370    5.7170 C   0  0  0  0  0  0  0  0  0  0  0  0
   25.8620   38.0180    5.4870 H   0  0  0  0  0  0  0  0  0  0  0  0
   26.4650   40.5630    4.7830 C   0  0  0  0  0  0  0  0  0  0  0  0
   28.2320   40.1020    6.2450 O   0  0  0  0  0  0  0  0  0  0  0  0
   24.2870   36.3910    8.5650 O   0  0  0  0  0  0  0  0  0  0  0  0
   24.3290   35.5790    8.0170 H   0  0  0  0  0  0  0  0  0  0  0  0
   26.1900   37.5480   10.3280 O   0  0  0  0  0  0  0  0  0  0  0  0
   27.1050   37.9140   10.4310 H   0  0  0  0  0  0  0  0  0  0  0  0
   22.2260   37.1710   12.3060 O   0  0  0  0  0  0  0  0  0  0  0  0
   22.4200   35.8060   12.6430 C   0  0  0  0  0  0  0  0  0  0  0  0
   23.8340   35.3810   12.4370 C   0  0  0  0  0  0  0  0  0  0  0  0
   24.7110   35.1110   13.4520 C   0  0  0  0  0  0  0  0  0  0  0  0
   24.4890   35.1890   11.2840 N   0  0  0  0  0  0  0  0  0  0  0  0
   25.8910   34.7580   12.8930 N   0  0  0  0  0  0  0  0  0  0  0  0
   25.7130   34.8180   11.6020 N   0  0  0  0  0  0  0  0  0  0  0  0
   27.0380   34.4090   13.6500 C   0  0  0  0  0  0  0  0  0  0  0  0
   28.2990   34.6880   13.1690 C   0  0  0  0  0  0  0  0  0  0  0  0
   26.9520   33.7860   14.8760 C   0  0  0  0  0  0  0  0  0  0  0  0
   29.4450   34.3650   13.8760 C   0  0  0  0  0  0  0  0  0  0  0  0
   28.1030   33.4550   15.5980 C   0  0  0  0  0  0  0  0  0  0  0  0
   29.3490   33.7440   15.0970 C   0  0  0  0  0  0  0  0  0  0  0  0
   30.7800   33.3410   15.9780 S   0  0  0  0  0  0  0  0  0  0  0  0
   31.5470   32.2900   15.2510 O   0  0  0  0  0  0  0  0  0  0  0  0
   30.4830   32.8250   17.3560 O   0  0  0  0  0  0  0  0  0  0  0  0
   31.7270   34.8140   16.1610 C   0  0  0  0  0  0  0  0  0  0  0  0
   31.1670   35.8840   16.8060 C   0  0  0  0  0  0  0  0  0  0  0  0
   33.0250   34.9100   15.6680 C   0  0  0  0  0  0  0  0  0  0  0  0
   31.8780   37.0650   16.9740 C   0  0  0  0  0  0  0  0  0  0  0  0
   33.7620   36.0740   15.8170 C   0  0  0  0  0  0  0  0  0  0  0  0
   33.1630   37.1250   16.4700 C   0  0  0  0  0  0  0  0  0  0  0  0
   33.8970   38.3210   16.6340 N   0  0  0  0  0  0  0  0  0  0  0  0
   34.9260   38.3200   16.5420 H   0  0  0  0  0  0  0  0  0  0  0  0
   33.3950   39.2000   16.8470 H   0  0  0  0  0  0  0  0  0  0  0  0
   29.8670   25.5550   16.9770 C   0  0  0  0  0  0  0  0  0  0  0  0
   28.3450   25.7220   17.0260 C   0  0  0  0  0  0  0  0  0  0  0  0
   27.6000   24.4150   16.8040 C   0  0  0  0  0  0  0  0  0  0  0  0
   26.7810   24.0190   18.0010 C   0  0  0  0  0  0  0  0  0  0  0  0
   25.5890   23.1820   17.5490 C   0  0  0  0  0  0  0  0  0  0  0  0
   24.5600   24.0420   16.9190 N   0  0  0  0  0  0  0  0  0  0  0  0
  1  2  1  0  0  0  0
  1  4  1  0  0  0  0
  2 31  1  0  0  0  0
  3  2  2  0  0  0  0
  5  1  1  0  0  0  0
  6  5  1  1  0  0  0
  6 29  1  0  0  0  0
  7 27  1  1  0  0  0
  7  6  1  0  0  0  0
  8  7  1  1  0  0  0
  8 11  1  0  0  0  0
  9 11  1  0  0  0  0
  9 16  1  1  0  0  0
  9 14  1  0  0  0  0
 10  9  1  0  0  0  0
 12 20  1  1  0  0  0
 12 13  1  0  0  0  0
 12 10  1  0  0  0  0
 13 22  1  6  0  0  0
 13  8  1  0  0  0  0
 15 14  1  0  0  0  0
 16 18  1  0  0  0  0
 16 17  2  0  0  0  0
 18 19  1  0  0  0  0
 20 21  1  0  0  0  0
 23 22  1  0  0  0  0
 23 26  2  0  0  0  0
 24 22  1  0  0  0  0
 25 23  1  0  0  0  0
 28 27  1  0  0  0  0
 29 30  1  0  0  0  0
 31 32  1  0  0  0  0
 33 32  1  0  0  0  0
 33 34  2  0  0  0  0
 35 37  2  0  0  0  0
 35 33  1  0  0  0  0
 36 34  1  0  0  0  0
 36 38  1  0  0  0  0
 37 36  1  0  0  0  0
 38 40  1  0  0  0  0
 39 38  2  0  0  0  0
 39 41  1  0  0  0  0
 40 42  2  0  0  0  0
 41 43  2  0  0  0  0
 43 42  1  0  0  0  0
 43 44  1  0  0  0  0
 44 47  1  0  0  0  0
 44 46  2  0  0  0  0
 45 44  2  0  0  0  0
 47 48  2  0  0  0  0
 48 50  1  0  0  0  0
 49 51  2  0  0  0  0
 49 47  1  0  0  0  0
 51 52  1  0  0  0  0
 52 53  1  0  0  0  0
 52 50  2  0  0  0  0
 53 55  1  0  0  0  0
 54 53  1  0  0  0  0
 56 57  1  0  0  0  0
 58 57  1  0  0  0  0
 58 59  1  0  0  0  0
 60 59  1  0  0  0  0
 61 60  1  0  0  0  0
M  END
>  <REMARK>
 VINA RESULT:    -5.467      5.288     11.581
 INTER + INTRA:         -16.789
 INTER:                 -11.031
 INTRA:                  -5.758
 UNBOUND:                -6.527
 SMILES CC(=O)N[C@@H]1[C@@H](O)C[C@](O)(C(=O)O)O[C@H]1C(O)[C@H](O)CNC(=O)OCc1cn(-c2ccc(S(=O)(=O)c3ccc(N)cc3)cc2)nn1
 SMILES IDX 21 1 22 2 23 3 20 5 18 6 16 7 15 8 9 9 8 10 14 11 6 12 5 13
 SMILES IDX 10 14 11 16 12 17 13 18 7 20 4 22 2 23 1 25 3 26 17 27 19 29
 SMILES IDX 24 31 25 32 26 33 27 34 46 35 28 36 45 37 29 38 30 39 44 40
 SMILES IDX 31 41 43 42 32 43 33 44 34 45 35 46 36 47 37 48 42 49 38 50
 SMILES IDX 41 51 39 52 40 53
 H PARENT 21 4 10 15 13 19 7 21 4 24 17 28 19 30 40 54 40 55
 Flexibility Score: inf
  4 active torsions:
  status: ('A' for Active; 'I' for Inactive)
    1  A    between atoms: CA   and  CB  
    2  A    between atoms: CB   and  CG  
    3  A    between atoms: CG   and  CD  
    4  A    between atoms: CD   and  CE  

>  <TORSDO>
F 18

>  <BEGIN_>
RES LYS A 131

$$$$
ligand_77_pose_2_2HRL.pdbqt
 OpenBabel07062320523D

  6  5  0  0  0  0  0  0  0  0999 V2000
   33.1930   34.6630    9.2900 C   0  0  0  0  0  0  0  0  0  0  0  0
   32.0600   35.3600   10.0340 C   0  0  0  0  0  0  0  0  0  0  0  0
   32.2280   35.3520   11.5320 C   0  0  0  0  0  0  0  0  0  0  0  0
   32.2250   36.7710   12.0800 C   0  0  0  0  0  0  0  0  0  0  0  0
   31.9400   37.7680   10.9730 C   0  0  0  0  0  0  0  0  0  0  0  0
   30.8270   38.6830   11.3500 N   0  0  0  0  0  0  0  0  0  0  0  0
  1  2  1  0  0  0  0
  2  3  1  0  0  0  0
  3  4  1  0  0  0  0
  5  6  1  0  0  0  0
  5  4  1  0  0  0  0
M  END
>  <EGIN_R>
ES LYS A 135

>  <REMARK>
  4 active torsions:
  status: ('A' for Active; 'I' for Inactive)
    5  A    between atoms: CA   and  CB  
    6  A    between atoms: CB   and  CG  
    7  A    between atoms: CG   and  CD  
    8  A    between atoms: CD   and  CE  

$$$$
