ligand_36_pose_5_2HRL.pdbqt
 OpenBabel07062320523D

 52 53  0  0  1  0  0  0  0  0999 V2000
   26.3530   34.9250   11.0660 N   0  0  0  0  0  0  0  0  0  0  0  0
   27.2250   35.7160   11.8710 C   0  0  0  0  0  0  0  0  0  0  0  0
   26.8770   36.9110   12.1730 O   0  0  0  0  0  0  0  0  0  0  0  0
   26.6550   33.9600   10.8380 H   0  0  0  0  0  0  0  0  0  0  0  0
   25.1260   35.4730   10.6160 C   0  0  0  0  0  0  0  0  0  0  0  0
   24.9440   35.5700    9.1200 C   0  0  2  0  0  0  0  0  0  0  0  0
   25.6800   36.7420    8.5030 C   0  0  2  0  0  0  0  0  0  0  0  0
   26.8940   36.3290    7.7430 C   0  0  2  0  0  0  0  0  0  0  0  0
   29.1070   35.6800    8.0570 C   0  0  2  0  0  0  0  0  0  0  0  0
   29.0580   35.5020    6.5560 C   0  0  0  0  0  0  0  0  0  0  0  0
   27.8820   35.8710    8.6230 O   0  0  0  0  0  0  0  0  0  0  0  0
   28.3910   36.6310    5.8540 C   0  0  1  0  0  0  0  0  0  0  0  0
   27.5290   37.3780    6.8860 C   0  0  1  0  0  0  0  0  0  0  0  0
   30.0040   36.7310    8.3480 O   0  0  0  0  0  0  0  0  0  0  0  0
   30.6790   36.7600    7.6090 H   0  0  0  0  0  0  0  0  0  0  0  0
   29.6910   34.4420    8.6140 C   0  0  0  0  0  0  0  0  0  0  0  0
   29.0010   33.7220    9.3700 O   0  0  0  0  0  0  0  0  0  0  0  0
   30.9820   34.0790    8.3070 O   0  0  0  0  0  0  0  0  0  0  0  0
   31.2500   33.2290    7.8450 H   0  0  0  0  0  0  0  0  0  0  0  0
   29.2580   37.4960    5.2160 O   0  0  0  0  0  0  0  0  0  0  0  0
   29.9050   36.9280    4.6940 H   0  0  0  0  0  0  0  0  0  0  0  0
   26.6370   38.2860    6.2340 N   0  0  0  0  0  0  0  0  0  0  0  0
   26.9760   39.6720    6.0670 C   0  0  0  0  0  0  0  0  0  0  0  0
   25.7020   37.9800    5.8390 H   0  0  0  0  0  0  0  0  0  0  0  0
   26.0370   40.6110    5.3830 C   0  0  0  0  0  0  0  0  0  0  0  0
   28.0670   40.1240    6.4930 O   0  0  0  0  0  0  0  0  0  0  0  0
   25.8640   37.7270    9.4180 O   0  0  0  0  0  0  0  0  0  0  0  0
   25.5970   37.5350   10.3180 H   0  0  0  0  0  0  0  0  0  0  0  0
   23.5480   35.7630    8.9550 O   0  0  0  0  0  0  0  0  0  0  0  0
   23.0740   34.9190    8.8420 H   0  0  0  0  0  0  0  0  0  0  0  0
   28.4440   35.2880   12.3630 O   0  0  0  0  0  0  0  0  0  0  0  0
   29.0160   35.9730   13.4550 C   0  0  0  0  0  0  0  0  0  0  0  0
   29.5740   35.0430   14.4650 C   0  0  0  0  0  0  0  0  0  0  0  0
   29.8170   33.6840   14.3350 C   0  0  0  0  0  0  0  0  0  0  0  0
   29.9500   35.3720   15.7060 N   0  0  0  0  0  0  0  0  0  0  0  0
   30.3270   33.2410   15.4870 N   0  0  0  0  0  0  0  0  0  0  0  0
   30.3940   34.2800   16.2920 N   0  0  0  0  0  0  0  0  0  0  0  0
   30.7380   31.8910   15.8050 C   0  0  0  0  0  0  0  0  0  0  0  0
   29.7070   31.0960   16.4740 C   0  0  0  0  0  0  0  0  0  0  0  0
   28.8200   30.3590   15.7340 C   0  0  0  0  0  0  0  0  0  0  0  0
   29.6250   31.0950   17.8580 C   0  0  0  0  0  0  0  0  0  0  0  0
   27.8380   29.6080   16.3510 C   0  0  0  0  0  0  0  0  0  0  0  0
   28.6480   30.3490   18.5030 C   0  0  0  0  0  0  0  0  0  0  0  0
   27.7560   29.6060   17.7280 C   0  0  0  0  0  0  0  0  0  0  0  0
   26.7390   28.8330   18.3790 C   0  0  0  0  0  0  0  0  0  0  0  0
   25.9210   28.1950   18.9220 N   0  0  0  0  0  0  0  0  0  0  0  0
   29.8670   25.5550   16.9770 C   0  0  0  0  0  0  0  0  0  0  0  0
   28.3450   25.7220   17.0260 C   0  0  0  0  0  0  0  0  0  0  0  0
   27.6010   24.4020   16.8920 C   0  0  0  0  0  0  0  0  0  0  0  0
   26.1740   24.5070   17.3520 C   0  0  0  0  0  0  0  0  0  0  0  0
   25.6050   23.1090   17.5690 C   0  0  0  0  0  0  0  0  0  0  0  0
   24.2090   23.0340   17.0770 N   0  0  0  0  0  0  0  0  0  0  0  0
  1  2  1  0  0  0  0
  2  3  2  0  0  0  0
  2 31  1  0  0  0  0
  4  1  1  0  0  0  0
  5  1  1  0  0  0  0
  6  5  1  1  0  0  0
  7  6  1  0  0  0  0
  7 27  1  1  0  0  0
  8  7  1  1  0  0  0
  8 11  1  0  0  0  0
  9 14  1  1  0  0  0
  9 16  1  0  0  0  0
  9 11  1  0  0  0  0
 10  9  1  0  0  0  0
 12 20  1  1  0  0  0
 12 10  1  0  0  0  0
 12 13  1  0  0  0  0
 13 22  1  6  0  0  0
 13  8  1  0  0  0  0
 15 14  1  0  0  0  0
 16 17  2  0  0  0  0
 18 16  1  0  0  0  0
 19 18  1  0  0  0  0
 21 20  1  0  0  0  0
 23 22  1  0  0  0  0
 23 26  2  0  0  0  0
 24 22  1  0  0  0  0
 25 23  1  0  0  0  0
 27 28  1  0  0  0  0
 29  6  1  0  0  0  0
 30 29  1  0  0  0  0
 31 32  1  0  0  0  0
 32 33  1  0  0  0  0
 33 35  1  0  0  0  0
 34 33  2  0  0  0  0
 34 36  1  0  0  0  0
 35 37  2  0  0  0  0
 36 38  1  0  0  0  0
 36 37  1  0  0  0  0
 38 39  1  0  0  0  0
 39 41  2  0  0  0  0
 40 42  2  0  0  0  0
 40 39  1  0  0  0  0
 41 43  1  0  0  0  0
 42 44  1  0  0  0  0
 44 45  1  0  0  0  0
 44 43  2  0  0  0  0
 45 46  3  0  0  0  0
 47 48  1  0  0  0  0
 49 48  1  0  0  0  0
 49 50  1  0  0  0  0
 50 51  1  0  0  0  0
 52 51  1  0  0  0  0
M  END
>  <REMARK>
 VINA RESULT:    -4.403      5.824     11.786
 INTER + INTRA:         -15.116
 INTER:                 -10.949
 INTRA:                  -4.167
 UNBOUND:                -6.980
 SMILES CC(=O)N[C@@H]1[C@@H](O)C[C@](O)(C(=O)O)O[C@H]1C(O)[C@H](O)CNC(=O)OCc1cn(Cc2ccc(C#N)cc2)nn1
 SMILES IDX 21 1 22 2 23 3 20 5 18 6 16 7 15 8 9 9 8 10 14 11 6 12 5 13
 SMILES IDX 10 14 11 16 12 17 13 18 7 20 4 22 2 23 1 25 3 26 17 27 19 29
 SMILES IDX 24 31 25 32 26 33 27 34 39 35 28 36 38 37 29 38 30 39 31 40
 SMILES IDX 37 41 32 42 36 43 33 44 34 45 35 46
 H PARENT 21 4 10 15 13 19 7 21 4 24 17 28 19 30
 Flexibility Score: inf
  4 active torsions:
  status: ('A' for Active; 'I' for Inactive)
    1  A    between atoms: CA   and  CB  
    2  A    between atoms: CB   and  CG  
    3  A    between atoms: CG   and  CD  
    4  A    between atoms: CD   and  CE  

>  <TORSDO>
F 17

>  <BEGIN_>
RES LYS A 131

$$$$
ligand_36_pose_5_2HRL.pdbqt
 OpenBabel07062320523D

  6  5  0  0  0  0  0  0  0  0999 V2000
   33.1930   34.6630    9.2900 C   0  0  0  0  0  0  0  0  0  0  0  0
   32.0600   35.3600   10.0340 C   0  0  0  0  0  0  0  0  0  0  0  0
   31.9660   34.9730   11.4870 C   0  0  0  0  0  0  0  0  0  0  0  0
   32.8050   35.9070   12.3470 C   0  0  0  0  0  0  0  0  0  0  0  0
   33.0640   35.2890   13.7070 C   0  0  0  0  0  0  0  0  0  0  0  0
   34.3490   34.5350   13.7180 N   0  0  0  0  0  0  0  0  0  0  0  0
  1  2  1  0  0  0  0
  2  3  1  0  0  0  0
  3  4  1  0  0  0  0
  4  5  1  0  0  0  0
  5  6  1  0  0  0  0
M  END
>  <EGIN_R>
ES LYS A 135

>  <REMARK>
  4 active torsions:
  status: ('A' for Active; 'I' for Inactive)
    5  A    between atoms: CA   and  CB  
    6  A    between atoms: CB   and  CG  
    7  A    between atoms: CG   and  CD  
    8  A    between atoms: CD   and  CE  

$$$$
