ligand_37_pose_16_2HRL.pdbqt
 OpenBabel07062320523D

 55 56  0  0  1  0  0  0  0  0999 V2000
   26.6980   36.8360   12.3410 O   0  0  0  0  0  0  0  0  0  0  0  0
   25.7970   35.8470   11.8850 C   0  0  0  0  0  0  0  0  0  0  0  0
   24.7010   36.2000   11.0690 N   0  0  0  0  0  0  0  0  0  0  0  0
   24.6100   37.2420   10.8510 H   0  0  0  0  0  0  0  0  0  0  0  0
   26.0460   34.6830   12.2510 O   0  0  0  0  0  0  0  0  0  0  0  0
   23.7610   35.2540   10.5580 C   0  0  0  0  0  0  0  0  0  0  0  0
   23.4430   35.4930    9.1200 C   0  0  2  0  0  0  0  0  0  0  0  0
   23.6290   36.9700    8.7820 C   0  0  2  0  0  0  0  0  0  0  0  0
   22.4730   37.5630    8.0380 C   0  0  2  0  0  0  0  0  0  0  0  0
   23.0560   39.8220    8.2470 C   0  0  2  0  0  0  0  0  0  0  0  0
   22.0360   39.9580    9.3320 C   0  0  0  0  0  0  0  0  0  0  0  0
   22.8440   38.7600    7.4020 O   0  0  0  0  0  0  0  0  0  0  0  0
   20.7940   39.1860    8.9380 C   0  0  1  0  0  0  0  0  0  0  0  0
   21.2100   37.7280    8.8180 C   0  0  1  0  0  0  0  0  0  0  0  0
   24.3230   39.7970    8.7810 O   0  0  0  0  0  0  0  0  0  0  0  0
   25.0320   40.0150    8.1140 H   0  0  0  0  0  0  0  0  0  0  0  0
   22.9700   41.0510    7.3760 C   0  0  0  0  0  0  0  0  0  0  0  0
   23.9400   41.8470    7.2930 O   0  0  0  0  0  0  0  0  0  0  0  0
   21.8340   41.3510    6.6380 O   0  0  0  0  0  0  0  0  0  0  0  0
   21.2980   40.6210    6.1440 H   0  0  0  0  0  0  0  0  0  0  0  0
   19.7900   39.3620    9.8690 O   0  0  0  0  0  0  0  0  0  0  0  0
   20.1030   39.2570   10.8030 H   0  0  0  0  0  0  0  0  0  0  0  0
   20.0940   36.9560    8.2630 N   0  0  0  0  0  0  0  0  0  0  0  0
   19.2130   36.1850    9.0780 C   0  0  0  0  0  0  0  0  0  0  0  0
   19.9060   36.9460    7.2270 H   0  0  0  0  0  0  0  0  0  0  0  0
   18.0920   35.4180    8.4540 C   0  0  0  0  0  0  0  0  0  0  0  0
   19.3840   36.1560   10.3190 O   0  0  0  0  0  0  0  0  0  0  0  0
   24.7780   37.1070    7.9920 O   0  0  0  0  0  0  0  0  0  0  0  0
   25.5590   37.2740    8.5860 H   0  0  0  0  0  0  0  0  0  0  0  0
   22.1240   35.1200    8.8610 O   0  0  0  0  0  0  0  0  0  0  0  0
   22.0670   34.2970    8.2940 H   0  0  0  0  0  0  0  0  0  0  0  0
   27.9680   36.9290   11.7290 C   0  0  0  0  0  0  0  0  0  0  0  0
   27.9160   37.6660   10.4520 C   0  0  0  0  0  0  0  0  0  0  0  0
   28.9400   37.9640    9.5840 C   0  0  0  0  0  0  0  0  0  0  0  0
   26.8100   38.1890    9.8970 N   0  0  0  0  0  0  0  0  0  0  0  0
   28.4400   38.6560    8.5330 N   0  0  0  0  0  0  0  0  0  0  0  0
   27.1580   38.7760    8.7480 N   0  0  0  0  0  0  0  0  0  0  0  0
   29.1980   39.1490    7.4140 C   0  0  1  0  0  0  0  0  0  0  0  0
   30.6760   38.9220    7.6440 C   0  0  0  0  0  0  0  0  0  0  0  0
   28.7100   38.5210    6.1790 C   0  0  0  0  0  0  0  0  0  0  0  0
   28.0990   39.2250    5.3210 O   0  0  0  0  0  0  0  0  0  0  0  0
   28.8870   37.1820    5.9040 O   0  0  0  0  0  0  0  0  0  0  0  0
   27.9260   36.1780    5.9990 C   0  0  0  0  0  0  0  0  0  0  0  0
   28.1920   35.3600    7.2150 C   0  0  0  0  0  0  0  0  0  0  0  0
   29.4860   35.0790    7.5950 C   0  0  0  0  0  0  0  0  0  0  0  0
   27.1500   34.8880    7.9650 C   0  0  0  0  0  0  0  0  0  0  0  0
   29.7360   34.3280    8.7180 C   0  0  0  0  0  0  0  0  0  0  0  0
   27.3690   34.1390    9.0870 C   0  0  0  0  0  0  0  0  0  0  0  0
   28.6610   33.8600    9.4610 C   0  0  0  0  0  0  0  0  0  0  0  0
   29.8670   25.5550   16.9770 C   0  0  0  0  0  0  0  0  0  0  0  0
   28.3450   25.7220   17.0260 C   0  0  0  0  0  0  0  0  0  0  0  0
   27.6750   24.7540   17.9890 C   0  0  0  0  0  0  0  0  0  0  0  0
   26.8720   23.7050   17.2700 C   0  0  0  0  0  0  0  0  0  0  0  0
   25.4520   23.6810   17.8270 C   0  0  0  0  0  0  0  0  0  0  0  0
   24.4960   24.2250   16.8340 N   0  0  0  0  0  0  0  0  0  0  0  0
  2  5  2  0  0  0  0
  2  1  1  0  0  0  0
  3  2  1  0  0  0  0
  4  3  1  0  0  0  0
  6  3  1  0  0  0  0
  7  6  1  1  0  0  0
  8 28  1  6  0  0  0
  8  7  1  0  0  0  0
  9  8  1  1  0  0  0
  9 14  1  0  0  0  0
 10 17  1  6  0  0  0
 10 15  1  0  0  0  0
 10 11  1  0  0  0  0
 12  9  1  0  0  0  0
 12 10  1  0  0  0  0
 13 11  1  0  0  0  0
 13 21  1  1  0  0  0
 14 23  1  6  0  0  0
 14 13  1  0  0  0  0
 16 15  1  0  0  0  0
 18 17  2  0  0  0  0
 19 17  1  0  0  0  0
 20 19  1  0  0  0  0
 21 22  1  0  0  0  0
 23 24  1  0  0  0  0
 24 27  2  0  0  0  0
 25 23  1  0  0  0  0
 26 24  1  0  0  0  0
 28 29  1  0  0  0  0
 30  7  1  0  0  0  0
 31 30  1  0  0  0  0
 32  1  1  0  0  0  0
 33 32  1  0  0  0  0
 34 33  2  0  0  0  0
 35 33  1  0  0  0  0
 36 37  1  0  0  0  0
 36 34  1  0  0  0  0
 37 35  2  0  0  0  0
 38 39  1  1  0  0  0
 38 36  1  0  0  0  0
 40 38  1  0  0  0  0
 41 40  2  0  0  0  0
 42 43  1  0  0  0  0
 42 40  1  0  0  0  0
 43 44  1  0  0  0  0
 44 45  2  0  0  0  0
 44 46  1  0  0  0  0
 45 47  1  0  0  0  0
 46 48  2  0  0  0  0
 47 49  2  0  0  0  0
 48 49  1  0  0  0  0
 50 51  1  0  0  0  0
 51 52  1  0  0  0  0
 53 54  1  0  0  0  0
 53 52  1  0  0  0  0
 55 54  1  0  0  0  0
M  END
>  <REMARK>
 VINA RESULT:    -5.387      1.836      3.464
 INTER + INTRA:         -15.693
 INTER:                 -10.583
 INTRA:                  -5.110
 UNBOUND:                -5.110
 SMILES CC(=O)N[C@@H]1[C@@H](O)C[C@](O)(C(=O)O)O[C@H]1C(O)[C@H](O)CNC(=O)OCc1cn([C@@H](C)C(=O)OCc2ccccc2)nn1
 SMILES IDX 24 1 22 2 21 3 23 5 20 6 18 7 16 8 15 9 9 10 8 11 14 12 6 13
 SMILES IDX 5 14 10 15 11 17 12 18 13 19 7 21 4 23 2 24 1 26 3 27 17 28
 SMILES IDX 19 30 25 32 26 33 27 34 42 35 28 36 41 37 29 38 30 39 31 40
 SMILES IDX 32 41 33 42 34 43 35 44 36 45 40 46 37 47 39 48 38 49
 H PARENT 21 4 10 16 13 20 7 22 4 25 17 29 19 31
 Flexibility Score: inf
  4 active torsions:
  status: ('A' for Active; 'I' for Inactive)
    1  A    between atoms: CA   and  CB  
    2  A    between atoms: CB   and  CG  
    3  A    between atoms: CG   and  CD  
    4  A    between atoms: CD   and  CE  

>  <TORSDO>
F 19

>  <BEGIN_>
RES LYS A 131

$$$$
ligand_37_pose_16_2HRL.pdbqt
 OpenBabel07062320523D

  6  5  0  0  0  0  0  0  0  0999 V2000
   33.1930   34.6630    9.2900 C   0  0  0  0  0  0  0  0  0  0  0  0
   32.0600   35.3600   10.0340 C   0  0  0  0  0  0  0  0  0  0  0  0
   32.5360   36.3490   11.0670 C   0  0  0  0  0  0  0  0  0  0  0  0
   31.9750   36.0050   12.4380 C   0  0  0  0  0  0  0  0  0  0  0  0
   33.0090   35.2680   13.2670 C   0  0  0  0  0  0  0  0  0  0  0  0
   32.4110   34.7370   14.5230 N   0  0  0  0  0  0  0  0  0  0  0  0
  1  2  1  0  0  0  0
  2  3  1  0  0  0  0
  3  4  1  0  0  0  0
  4  5  1  0  0  0  0
  5  6  1  0  0  0  0
M  END
>  <EGIN_R>
ES LYS A 135

>  <REMARK>
  4 active torsions:
  status: ('A' for Active; 'I' for Inactive)
    5  A    between atoms: CA   and  CB  
    6  A    between atoms: CB   and  CG  
    7  A    between atoms: CG   and  CD  
    8  A    between atoms: CD   and  CE  

$$$$
