ligand_32_pose_12_2HRL.pdbqt
 OpenBabel07062320523D

 49 49  0  0  1  0  0  0  0  0999 V2000
   26.9150   37.8160   12.0300 N   0  0  0  0  0  0  0  0  0  0  0  0
   27.5940   38.3440   13.1580 C   0  0  0  0  0  0  0  0  0  0  0  0
   27.5630   37.7530   14.2790 O   0  0  0  0  0  0  0  0  0  0  0  0
   26.9650   38.3290   11.1290 H   0  0  0  0  0  0  0  0  0  0  0  0
   26.1570   36.5910   12.1040 C   0  0  0  0  0  0  0  0  0  0  0  0
   26.4100   35.6500   10.9580 C   0  0  2  0  0  0  0  0  0  0  0  0
   25.7830   36.1780    9.6680 C   0  0  1  0  0  0  0  0  0  0  0  0
   26.6600   35.8150    8.4820 C   0  0  2  0  0  0  0  0  0  0  0  0
   28.9600   35.6720    8.1040 C   0  0  2  0  0  0  0  0  0  0  0  0
   28.7190   35.7560    6.6230 C   0  0  0  0  0  0  0  0  0  0  0  0
   27.8570   35.2820    8.8320 O   0  0  0  0  0  0  0  0  0  0  0  0
   27.3900   36.2940    6.2300 C   0  0  1  0  0  0  0  0  0  0  0  0
   26.7660   36.9350    7.4800 C   0  0  1  0  0  0  0  0  0  0  0  0
   29.4870   36.8850    8.5340 O   0  0  0  0  0  0  0  0  0  0  0  0
   28.7750   37.3070    9.0900 H   0  0  0  0  0  0  0  0  0  0  0  0
   29.9970   34.6340    8.3060 C   0  0  0  0  0  0  0  0  0  0  0  0
   29.9110   33.7260    9.1600 O   0  0  0  0  0  0  0  0  0  0  0  0
   31.1320   34.6540    7.5150 O   0  0  0  0  0  0  0  0  0  0  0  0
   31.8700   33.9630    7.5780 H   0  0  0  0  0  0  0  0  0  0  0  0
   27.4550   37.2170    5.1910 O   0  0  0  0  0  0  0  0  0  0  0  0
   26.6830   37.1370    4.5660 H   0  0  0  0  0  0  0  0  0  0  0  0
   25.4690   37.4980    7.1630 N   0  0  0  0  0  0  0  0  0  0  0  0
   25.1680   38.8480    7.4980 C   0  0  0  0  0  0  0  0  0  0  0  0
   24.7190   36.9440    6.6870 H   0  0  0  0  0  0  0  0  0  0  0  0
   23.8390   39.4750    7.1890 C   0  0  0  0  0  0  0  0  0  0  0  0
   26.0400   39.5710    8.0780 O   0  0  0  0  0  0  0  0  0  0  0  0
   24.5390   35.5720    9.5160 O   0  0  0  0  0  0  0  0  0  0  0  0
   24.1180   35.7840    8.6390 H   0  0  0  0  0  0  0  0  0  0  0  0
   25.8470   34.4200   11.3040 O   0  0  0  0  0  0  0  0  0  0  0  0
   25.7330   34.3890   12.2870 H   0  0  0  0  0  0  0  0  0  0  0  0
   28.2990   39.5180   13.0280 O   0  0  0  0  0  0  0  0  0  0  0  0
   29.6670   39.5710   12.6610 C   0  0  0  0  0  0  0  0  0  0  0  0
   29.7970   39.7830   11.1800 C   0  0  0  0  0  0  0  0  0  0  0  0
   30.8400   40.3760   10.5190 C   0  0  0  0  0  0  0  0  0  0  0  0
   28.8810   39.4200   10.2600 N   0  0  0  0  0  0  0  0  0  0  0  0
   30.5340   40.3610    9.1980 N   0  0  0  0  0  0  0  0  0  0  0  0
   29.3490   39.7800    9.0760 N   0  0  0  0  0  0  0  0  0  0  0  0
   31.3910   40.8960    8.1610 C   0  0  0  0  0  0  0  0  0  0  0  0
   31.9870   39.7160    7.3980 C   0  0  0  0  0  0  0  0  0  0  0  0
   31.2050   39.5900    6.1300 C   0  0  0  0  0  0  0  0  0  0  0  0
   31.4990   40.1950    5.0910 O   0  0  0  0  0  0  0  0  0  0  0  0
   30.0990   38.7410    6.1640 O   0  0  0  0  0  0  0  0  0  0  0  0
   29.1930   39.0810    5.8430 H   0  0  0  0  0  0  0  0  0  0  0  0
   29.8670   25.5550   16.9770 C   0  0  0  0  0  0  0  0  0  0  0  0
   28.3450   25.7220   17.0260 C   0  0  0  0  0  0  0  0  0  0  0  0
   27.6010   24.4020   16.8950 C   0  0  0  0  0  0  0  0  0  0  0  0
   26.6410   24.1770   18.0300 C   0  0  0  0  0  0  0  0  0  0  0  0
   25.5890   23.1550   17.6110 C   0  0  0  0  0  0  0  0  0  0  0  0
   24.4630   23.8240   16.9160 N   0  0  0  0  0  0  0  0  0  0  0  0
  1  5  1  0  0  0  0
  1  2  1  0  0  0  0
  2  3  2  0  0  0  0
  4  1  1  0  0  0  0
  6 29  1  0  0  0  0
  6  5  1  1  0  0  0
  7 27  1  6  0  0  0
  7  6  1  0  0  0  0
  8 11  1  0  0  0  0
  8  7  1  1  0  0  0
  9 16  1  1  0  0  0
  9 14  1  0  0  0  0
  9 11  1  0  0  0  0
 10  9  1  0  0  0  0
 12 20  1  6  0  0  0
 12 10  1  0  0  0  0
 12 13  1  0  0  0  0
 13 22  1  6  0  0  0
 13  8  1  0  0  0  0
 14 15  1  0  0  0  0
 16 17  2  0  0  0  0
 18 19  1  0  0  0  0
 18 16  1  0  0  0  0
 21 20  1  0  0  0  0
 22 23  1  0  0  0  0
 23 26  2  0  0  0  0
 24 22  1  0  0  0  0
 25 23  1  0  0  0  0
 28 27  1  0  0  0  0
 29 30  1  0  0  0  0
 31  2  1  0  0  0  0
 32 31  1  0  0  0  0
 33 32  1  0  0  0  0
 34 33  2  0  0  0  0
 35 33  1  0  0  0  0
 36 34  1  0  0  0  0
 37 36  1  0  0  0  0
 37 35  2  0  0  0  0
 38 36  1  0  0  0  0
 39 38  1  0  0  0  0
 40 42  1  0  0  0  0
 40 39  1  0  0  0  0
 41 40  2  0  0  0  0
 43 42  1  0  0  0  0
 44 45  1  0  0  0  0
 46 45  1  0  0  0  0
 46 47  1  0  0  0  0
 48 47  1  0  0  0  0
 49 48  1  0  0  0  0
M  END
>  <REMARK>
 VINA RESULT:    -4.276      7.668     12.915
 INTER + INTRA:         -13.669
 INTER:                  -8.479
 INTRA:                  -5.190
 UNBOUND:                -5.644
 SMILES CC(=O)N[C@@H]1[C@@H](O)C[C@](O)(C(=O)O)O[C@H]1C(O)[C@H](O)CNC(=O)OCc1cn(CCC(=O)O)nn1
 SMILES IDX 21 1 22 2 23 3 20 5 18 6 16 7 15 8 9 9 8 10 14 11 6 12 5 13
 SMILES IDX 10 14 11 16 12 17 13 18 7 20 4 22 2 23 1 25 3 26 17 27 19 29
 SMILES IDX 24 31 25 32 26 33 27 34 35 35 28 36 34 37 29 38 30 39 31 40
 SMILES IDX 32 41 33 42
 H PARENT 21 4 10 15 13 19 7 21 4 24 17 28 19 30 33 43
 Flexibility Score: inf
  4 active torsions:
  status: ('A' for Active; 'I' for Inactive)
    1  A    between atoms: CA   and  CB  
    2  A    between atoms: CB   and  CG  
    3  A    between atoms: CG   and  CD  
    4  A    between atoms: CD   and  CE  

>  <TORSDO>
F 18

>  <BEGIN_>
RES LYS A 131

$$$$
ligand_32_pose_12_2HRL.pdbqt
 OpenBabel07062320523D

  6  5  0  0  0  0  0  0  0  0999 V2000
   33.1930   34.6630    9.2900 C   0  0  0  0  0  0  0  0  0  0  0  0
   32.0600   35.3600   10.0340 C   0  0  0  0  0  0  0  0  0  0  0  0
   32.2370   35.3680   11.5300 C   0  0  0  0  0  0  0  0  0  0  0  0
   32.2680   36.7930   12.0600 C   0  0  0  0  0  0  0  0  0  0  0  0
   31.9350   36.8190   13.5390 C   0  0  0  0  0  0  0  0  0  0  0  0
   30.6100   36.1930   13.8030 N   0  0  0  0  0  0  0  0  0  0  0  0
  1  2  1  0  0  0  0
  2  3  1  0  0  0  0
  3  4  1  0  0  0  0
  4  5  1  0  0  0  0
  5  6  1  0  0  0  0
M  END
>  <EGIN_R>
ES LYS A 135

>  <REMARK>
  4 active torsions:
  status: ('A' for Active; 'I' for Inactive)
    5  A    between atoms: CA   and  CB  
    6  A    between atoms: CB   and  CG  
    7  A    between atoms: CG   and  CD  
    8  A    between atoms: CD   and  CE  

$$$$
