ligand_84_pose_15_2HRL.pdbqt
 OpenBabel07062320523D

 60 62  0  0  1  0  0  0  0  0999 V2000
   17.9070   28.5010   10.8310 O   0  0  0  0  0  0  0  0  0  0  0  0
   17.3270   29.1710    9.7640 C   0  0  0  0  0  0  0  0  0  0  0  0
   17.2330   30.5870    9.6660 N   0  0  0  0  0  0  0  0  0  0  0  0
   17.6220   31.1330   10.4590 H   0  0  0  0  0  0  0  0  0  0  0  0
   16.8690   28.4440    8.8410 O   0  0  0  0  0  0  0  0  0  0  0  0
   16.6180   31.1160    8.4930 C   0  0  0  0  0  0  0  0  0  0  0  0
   17.2560   32.3000    7.8850 C   0  0  2  0  0  0  0  0  0  0  0  0
   16.4710   33.5960    7.9920 C   0  0  1  0  0  0  0  0  0  0  0  0
   17.4520   34.5730    8.6430 C   0  0  2  0  0  0  0  0  0  0  0  0
   19.6680   35.2500    8.3720 C   0  0  2  0  0  0  0  0  0  0  0  0
   19.8350   35.2980    9.8640 C   0  0  0  0  0  0  0  0  0  0  0  0
   18.6250   34.4720    7.9480 O   0  0  0  0  0  0  0  0  0  0  0  0
   18.5640   35.3360   10.6340 C   0  0  1  0  0  0  0  0  0  0  0  0
   17.6590   34.2160   10.0770 C   0  0  1  0  0  0  0  0  0  0  0  0
   20.8500   34.6250    7.8960 O   0  0  0  0  0  0  0  0  0  0  0  0
   20.7070   33.6750    7.7340 H   0  0  0  0  0  0  0  0  0  0  0  0
   19.6460   36.6060    7.7460 C   0  0  0  0  0  0  0  0  0  0  0  0
   20.5120   37.4610    8.0600 O   0  0  0  0  0  0  0  0  0  0  0  0
   18.6970   36.9890    6.8100 O   0  0  0  0  0  0  0  0  0  0  0  0
   17.7360   37.2210    7.0290 H   0  0  0  0  0  0  0  0  0  0  0  0
   18.8410   35.0450   11.9700 O   0  0  0  0  0  0  0  0  0  0  0  0
   19.5540   35.6410   12.3190 H   0  0  0  0  0  0  0  0  0  0  0  0
   16.4340   34.1550   10.8310 N   0  0  0  0  0  0  0  0  0  0  0  0
   16.2540   33.2080   11.8640 C   0  0  0  0  0  0  0  0  0  0  0  0
   15.6730   34.8180   10.6090 H   0  0  0  0  0  0  0  0  0  0  0  0
   14.9440   33.2320   12.5810 C   0  0  0  0  0  0  0  0  0  0  0  0
   17.1250   32.3770   12.1930 O   0  0  0  0  0  0  0  0  0  0  0  0
   16.1300   34.0210    6.6980 O   0  0  0  0  0  0  0  0  0  0  0  0
   15.3000   34.5540    6.7950 H   0  0  0  0  0  0  0  0  0  0  0  0
   17.3080   32.0580    6.4840 O   0  0  0  0  0  0  0  0  0  0  0  0
   17.1430   32.9560    6.0790 H   0  0  0  0  0  0  0  0  0  0  0  0
   18.2080   29.1820   12.0380 C   0  0  0  0  0  0  0  0  0  0  0  0
   19.6660   29.4120   12.1530 C   0  0  0  0  0  0  0  0  0  0  0  0
   20.2380   30.6520   12.4480 C   0  0  0  0  0  0  0  0  0  0  0  0
   20.7150   28.5880   12.0320 N   0  0  0  0  0  0  0  0  0  0  0  0
   21.5740   30.5490   12.4980 N   0  0  0  0  0  0  0  0  0  0  0  0
   21.8400   29.2510   12.2320 N   0  0  0  0  0  0  0  0  0  0  0  0
   22.5720   31.5610   12.7910 C   0  0  0  0  0  0  0  0  0  0  0  0
   21.9360   32.6650   13.6460 C   0  0  1  0  0  0  0  0  0  0  0  0
   22.2070   32.4740   15.0910 C   0  0  0  0  0  0  0  0  0  0  0  0
   22.1140   33.9960   13.0450 C   0  0  0  0  0  0  0  0  0  0  0  0
   23.3410   34.1450   12.3270 N   0  0  0  0  0  0  0  0  0  0  0  0
   23.1630   35.1330   11.2280 C   0  0  0  0  0  0  0  0  0  0  0  0
   24.3410   34.7730   13.1830 C   0  0  0  0  0  0  0  0  0  0  0  0
   24.4540   35.4400   10.5560 C   0  0  0  0  0  0  0  0  0  0  0  0
   25.6810   34.4270   12.5150 C   0  0  0  0  0  0  0  0  0  0  0  0
   25.6300   34.8950   11.1590 N   0  0  0  0  0  0  0  0  0  0  0  0
   26.8240   34.8090   10.3900 C   0  0  0  0  0  0  0  0  0  0  0  0
   26.7560   34.9350    9.0200 C   0  0  0  0  0  0  0  0  0  0  0  0
   28.0520   34.5920   10.9990 C   0  0  0  0  0  0  0  0  0  0  0  0
   27.9120   34.8430    8.2800 C   0  0  0  0  0  0  0  0  0  0  0  0
   29.1970   34.5010   10.2510 C   0  0  0  0  0  0  0  0  0  0  0  0
   29.1200   34.6300    8.8740 C   0  0  0  0  0  0  0  0  0  0  0  0
   30.5850   34.5040    7.9370 Cl  0  0  0  0  0  0  0  0  0  0  0  0
   29.8670   25.5550   16.9770 C   0  0  0  0  0  0  0  0  0  0  0  0
   28.3450   25.7220   17.0260 C   0  0  0  0  0  0  0  0  0  0  0  0
   27.6020   24.3980   16.9320 C   0  0  0  0  0  0  0  0  0  0  0  0
   26.5290   24.2750   17.9780 C   0  0  0  0  0  0  0  0  0  0  0  0
   25.6690   23.0510   17.6830 C   0  0  0  0  0  0  0  0  0  0  0  0
   24.3390   23.1850   18.3240 N   0  0  0  0  0  0  0  0  0  0  0  0
  1 32  1  0  0  0  0
  2  1  1  0  0  0  0
  3  2  1  0  0  0  0
  3  4  1  0  0  0  0
  5  2  2  0  0  0  0
  6  3  1  0  0  0  0
  7  8  1  0  0  0  0
  7  6  1  1  0  0  0
  8 28  1  6  0  0  0
  9  8  1  6  0  0  0
  9 14  1  0  0  0  0
 10 17  1  6  0  0  0
 10 11  1  0  0  0  0
 11 13  1  0  0  0  0
 12 10  1  0  0  0  0
 12  9  1  0  0  0  0
 13 21  1  1  0  0  0
 14 13  1  0  0  0  0
 14 23  1  1  0  0  0
 15 10  1  0  0  0  0
 16 15  1  0  0  0  0
 17 18  2  0  0  0  0
 19 20  1  0  0  0  0
 19 17  1  0  0  0  0
 21 22  1  0  0  0  0
 23 24  1  0  0  0  0
 24 27  2  0  0  0  0
 24 26  1  0  0  0  0
 25 23  1  0  0  0  0
 28 29  1  0  0  0  0
 30  7  1  0  0  0  0
 31 30  1  0  0  0  0
 32 33  1  0  0  0  0
 33 34  2  0  0  0  0
 34 36  1  0  0  0  0
 35 33  1  0  0  0  0
 35 37  2  0  0  0  0
 36 38  1  0  0  0  0
 37 36  1  0  0  0  0
 38 39  1  0  0  0  0
 39 40  1  1  0  0  0
 41 39  1  0  0  0  0
 42 41  1  0  0  0  0
 42 44  1  0  0  0  0
 43 42  1  0  0  0  0
 45 47  1  0  0  0  0
 45 43  1  0  0  0  0
 46 44  1  0  0  0  0
 47 46  1  0  0  0  0
 48 50  1  0  0  0  0
 48 47  1  0  0  0  0
 49 48  2  0  0  0  0
 51 53  2  0  0  0  0
 51 49  1  0  0  0  0
 52 50  2  0  0  0  0
 53 52  1  0  0  0  0
 54 53  1  0  0  0  0
 55 56  1  0  0  0  0
 57 56  1  0  0  0  0
 57 58  1  0  0  0  0
 59 58  1  0  0  0  0
 59 60  1  0  0  0  0
M  END
>  <REMARK>
 VINA RESULT:    -4.882      4.626      8.083
 INTER + INTRA:         -15.711
 INTER:                 -10.904
 INTRA:                  -4.808
 UNBOUND:                -6.121
 SMILES CC(=O)N[C@@H]1[C@@H](O)C[C@](O)(C(=O)O)O[C@H]1C(O)[C@H](O)CNC(=O)OCc1cn(C[C@@H](C)CN2CCN(c3ccc(Cl)cc3)CC2)nn1
 SMILES IDX 24 1 22 2 21 3 23 5 20 6 18 7 16 8 15 9 9 10 8 11 14 12 6 13
 SMILES IDX 5 14 10 15 11 17 12 18 13 19 7 21 4 23 2 24 1 26 3 27 17 28
 SMILES IDX 19 30 25 32 26 33 27 34 47 35 28 36 46 37 29 38 30 39 31 40
 SMILES IDX 32 41 33 42 34 43 45 44 35 45 44 46 36 47 37 48 38 49 43 50
 SMILES IDX 39 51 42 52 40 53 41 54
 H PARENT 21 4 10 16 13 20 7 22 4 25 17 29 19 31
 Flexibility Score: inf
  4 active torsions:
  status: ('A' for Active; 'I' for Inactive)
    1  A    between atoms: CA   and  CB  
    2  A    between atoms: CB   and  CG  
    3  A    between atoms: CG   and  CD  
    4  A    between atoms: CD   and  CE  

>  <TORSDO>
F 19

>  <BEGIN_>
RES LYS A 131

$$$$
ligand_84_pose_15_2HRL.pdbqt
 OpenBabel07062320523D

  6  5  0  0  0  0  0  0  0  0999 V2000
   33.1930   34.6630    9.2900 C   0  0  0  0  0  0  0  0  0  0  0  0
   32.0600   35.3600   10.0340 C   0  0  0  0  0  0  0  0  0  0  0  0
   32.4760   35.9340   11.3640 C   0  0  0  0  0  0  0  0  0  0  0  0
   31.8840   37.3220   11.5580 C   0  0  0  0  0  0  0  0  0  0  0  0
   30.5910   37.2430   12.3470 C   0  0  0  0  0  0  0  0  0  0  0  0
   30.6340   36.1320   13.3380 N   0  0  0  0  0  0  0  0  0  0  0  0
  1  2  1  0  0  0  0
  2  3  1  0  0  0  0
  3  4  1  0  0  0  0
  4  5  1  0  0  0  0
  5  6  1  0  0  0  0
M  END
>  <EGIN_R>
ES LYS A 135

>  <REMARK>
  4 active torsions:
  status: ('A' for Active; 'I' for Inactive)
    5  A    between atoms: CA   and  CB  
    6  A    between atoms: CB   and  CG  
    7  A    between atoms: CG   and  CD  
    8  A    between atoms: CD   and  CE  

$$$$
