ligand_53_pose_14_2HRL.pdbqt
 OpenBabel07062320523D

 48 48  0  0  1  0  0  0  0  0999 V2000
   28.3560   27.9980   19.4200 N   0  0  0  0  0  0  0  0  0  0  0  0
   27.1310   27.7620   18.7670 C   0  0  0  0  0  0  0  0  0  0  0  0
   26.1420   27.3340   19.3610 O   0  0  0  0  0  0  0  0  0  0  0  0
   29.1310   28.3760   18.7950 H   0  0  0  0  0  0  0  0  0  0  0  0
   28.6470   27.7780   20.8130 C   0  0  0  0  0  0  0  0  0  0  0  0
   30.0940   27.7970   21.1860 C   0  0  2  0  0  0  0  0  0  0  0  0
   30.9120   28.7380   20.3850 C   0  0  1  0  0  0  0  0  0  0  0  0
   30.8240   30.1830   20.7970 C   0  0  2  0  0  0  0  0  0  0  0  0
   30.7310   32.3380   19.8550 C   0  0  2  0  0  0  0  0  0  0  0  0
   31.5210   32.9250   20.9770 C   0  0  0  0  0  0  0  0  0  0  0  0
   30.8010   31.0020   19.6580 O   0  0  0  0  0  0  0  0  0  0  0  0
   31.4910   32.0340   22.1790 C   0  0  1  0  0  0  0  0  0  0  0  0
   31.9530   30.6540   21.6730 C   0  0  1  0  0  0  0  0  0  0  0  0
   31.1330   33.0390   18.6800 O   0  0  0  0  0  0  0  0  0  0  0  0
   31.8850   32.5030   18.3060 H   0  0  0  0  0  0  0  0  0  0  0  0
   29.3030   32.7370   20.0370 C   0  0  0  0  0  0  0  0  0  0  0  0
   28.9150   33.6570   20.7860 O   0  0  0  0  0  0  0  0  0  0  0  0
   28.3360   32.0490   19.3350 O   0  0  0  0  0  0  0  0  0  0  0  0
   28.2430   32.1030   18.3230 H   0  0  0  0  0  0  0  0  0  0  0  0
   32.3270   32.4780   23.1990 O   0  0  0  0  0  0  0  0  0  0  0  0
   32.0160   32.0450   24.0360 H   0  0  0  0  0  0  0  0  0  0  0  0
   32.2850   29.8410   22.7970 N   0  0  0  0  0  0  0  0  0  0  0  0
   33.5970   29.3150   23.0020 C   0  0  0  0  0  0  0  0  0  0  0  0
   31.5660   29.6210   23.5090 H   0  0  0  0  0  0  0  0  0  0  0  0
   33.9780   28.4670   24.1540 C   0  0  0  0  0  0  0  0  0  0  0  0
   34.4760   29.5930   22.1530 O   0  0  0  0  0  0  0  0  0  0  0  0
   32.2120   28.2850   20.2290 O   0  0  0  0  0  0  0  0  0  0  0  0
   32.2830   27.5880   19.5290 H   0  0  0  0  0  0  0  0  0  0  0  0
   30.5880   26.4850   21.1030 O   0  0  0  0  0  0  0  0  0  0  0  0
   30.2910   26.0330   20.2810 H   0  0  0  0  0  0  0  0  0  0  0  0
   26.9890   28.0100   17.4040 O   0  0  0  0  0  0  0  0  0  0  0  0
   26.5680   29.2150   16.8480 C   0  0  0  0  0  0  0  0  0  0  0  0
   27.6620   30.1690   16.5400 C   0  0  0  0  0  0  0  0  0  0  0  0
   27.6770   31.2370   15.6990 C   0  0  0  0  0  0  0  0  0  0  0  0
   28.9120   30.1270   17.0850 N   0  0  0  0  0  0  0  0  0  0  0  0
   28.8950   31.8060   15.7470 N   0  0  0  0  0  0  0  0  0  0  0  0
   29.6290   31.1260   16.5870 N   0  0  0  0  0  0  0  0  0  0  0  0
   29.3060   32.9710   14.9910 C   0  0  0  0  0  0  0  0  0  0  0  0
   30.7280   33.2630   15.2580 C   0  0  0  0  0  0  0  0  0  0  0  0
   31.0320   34.3000   15.9130 O   0  0  0  0  0  0  0  0  0  0  0  0
   31.7170   32.4170   14.8020 O   0  0  0  0  0  0  0  0  0  0  0  0
   32.6480   32.8240   14.6740 H   0  0  0  0  0  0  0  0  0  0  0  0
   29.8670   25.5550   16.9770 C   0  0  0  0  0  0  0  0  0  0  0  0
   28.3450   25.7220   17.0260 C   0  0  0  0  0  0  0  0  0  0  0  0
   27.6010   24.4020   16.8890 C   0  0  0  0  0  0  0  0  0  0  0  0
   26.1530   24.5260   17.2750 C   0  0  0  0  0  0  0  0  0  0  0  0
   25.8750   23.6510   18.4930 C   0  0  0  0  0  0  0  0  0  0  0  0
   24.8410   22.6370   18.1780 N   0  0  0  0  0  0  0  0  0  0  0  0
  1  5  1  0  0  0  0
  2  3  2  0  0  0  0
  2  1  1  0  0  0  0
  4  1  1  0  0  0  0
  6  5  1  6  0  0  0
  7 27  1  1  0  0  0
  7  6  1  0  0  0  0
  8  7  1  6  0  0  0
  8 13  1  0  0  0  0
  9 14  1  6  0  0  0
  9 16  1  0  0  0  0
  9 10  1  0  0  0  0
 10 12  1  0  0  0  0
 11  9  1  0  0  0  0
 11  8  1  0  0  0  0
 12 20  1  1  0  0  0
 13 12  1  0  0  0  0
 13 22  1  1  0  0  0
 15 14  1  0  0  0  0
 16 17  2  0  0  0  0
 18 16  1  0  0  0  0
 19 18  1  0  0  0  0
 20 21  1  0  0  0  0
 22 23  1  0  0  0  0
 22 24  1  0  0  0  0
 23 25  1  0  0  0  0
 26 23  2  0  0  0  0
 28 27  1  0  0  0  0
 29  6  1  0  0  0  0
 30 29  1  0  0  0  0
 31  2  1  0  0  0  0
 32 31  1  0  0  0  0
 33 32  1  0  0  0  0
 33 35  1  0  0  0  0
 34 36  1  0  0  0  0
 34 33  2  0  0  0  0
 36 37  1  0  0  0  0
 37 35  2  0  0  0  0
 38 39  1  0  0  0  0
 38 36  1  0  0  0  0
 39 40  2  0  0  0  0
 41 39  1  0  0  0  0
 42 41  1  0  0  0  0
 43 44  1  0  0  0  0
 45 44  1  0  0  0  0
 45 46  1  0  0  0  0
 46 47  1  0  0  0  0
 48 47  1  0  0  0  0
M  END
>  <REMARK>
 VINA RESULT:    -3.949      3.343      6.038
 INTER + INTRA:         -13.543
 INTER:                  -7.382
 INTRA:                  -6.161
 UNBOUND:                -6.362
 SMILES CC(=O)N[C@@H]1[C@@H](O)C[C@](O)(C(=O)O)O[C@H]1C(O)[C@H](O)CNC(=O)OCc1cn(CC(=O)O)nn1
 SMILES IDX 21 1 22 2 23 3 20 5 18 6 16 7 15 8 9 9 8 10 14 11 6 12 5 13
 SMILES IDX 10 14 11 16 12 17 13 18 7 20 4 22 2 23 1 25 3 26 17 27 19 29
 SMILES IDX 24 31 25 32 26 33 27 34 34 35 28 36 33 37 29 38 30 39 31 40
 SMILES IDX 32 41
 H PARENT 21 4 10 15 13 19 7 21 4 24 17 28 19 30 32 42
 Flexibility Score: inf
  4 active torsions:
  status: ('A' for Active; 'I' for Inactive)
    1  A    between atoms: CA   and  CB  
    2  A    between atoms: CB   and  CG  
    3  A    between atoms: CG   and  CD  
    4  A    between atoms: CD   and  CE  

>  <TORSDO>
F 17

>  <BEGIN_>
RES LYS A 131

$$$$
ligand_53_pose_14_2HRL.pdbqt
 OpenBabel07062320523D

  6  5  0  0  0  0  0  0  0  0999 V2000
   33.1930   34.6630    9.2900 C   0  0  0  0  0  0  0  0  0  0  0  0
   32.0600   35.3600   10.0340 C   0  0  0  0  0  0  0  0  0  0  0  0
   30.7060   34.7490    9.7800 C   0  0  0  0  0  0  0  0  0  0  0  0
   30.4960   34.5100    8.2930 C   0  0  0  0  0  0  0  0  0  0  0  0
   29.0840   34.8860    7.8870 C   0  0  0  0  0  0  0  0  0  0  0  0
   28.3360   35.4740    9.0330 N   0  0  0  0  0  0  0  0  0  0  0  0
  1  2  1  0  0  0  0
  3  2  1  0  0  0  0
  4  3  1  0  0  0  0
  5  4  1  0  0  0  0
  5  6  1  0  0  0  0
M  END
>  <EGIN_R>
ES LYS A 135

>  <REMARK>
  4 active torsions:
  status: ('A' for Active; 'I' for Inactive)
    5  A    between atoms: CA   and  CB  
    6  A    between atoms: CB   and  CG  
    7  A    between atoms: CG   and  CD  
    8  A    between atoms: CD   and  CE  

$$$$
