ligand_67_pose_8_2HRL.pdbqt
 OpenBabel07062320523D

 50 51  0  0  1  0  0  0  0  0999 V2000
   26.3340   27.9750   18.0690 N   0  0  0  0  0  0  0  0  0  0  0  0
   25.3250   28.7860   17.4940 C   0  0  0  0  0  0  0  0  0  0  0  0
   24.4340   29.3010   18.2520 O   0  0  0  0  0  0  0  0  0  0  0  0
   27.0590   27.5550   17.4650 H   0  0  0  0  0  0  0  0  0  0  0  0
   26.3390   27.7470   19.4760 C   0  0  0  0  0  0  0  0  0  0  0  0
   27.7130   27.7660   20.0870 C   0  0  2  0  0  0  0  0  0  0  0  0
   28.3750   29.1080   20.0020 C   0  0  1  0  0  0  0  0  0  0  0  0
   29.6050   29.1490   20.8830 C   0  0  2  0  0  0  0  0  0  0  0  0
   30.5600   28.0010   22.6650 C   0  0  2  0  0  0  0  0  0  0  0  0
   30.9550   29.3230   23.2560 C   0  0  0  0  0  0  0  0  0  0  0  0
   29.5700   28.0660   21.7210 O   0  0  0  0  0  0  0  0  0  0  0  0
   29.7770   30.2620   23.1030 C   0  0  1  0  0  0  0  0  0  0  0  0
   29.5860   30.4860   21.6090 C   0  0  1  0  0  0  0  0  0  0  0  0
   30.0570   27.2100   23.7250 O   0  0  0  0  0  0  0  0  0  0  0  0
   29.4830   27.7260   24.3230 H   0  0  0  0  0  0  0  0  0  0  0  0
   31.7750   27.2710   22.1810 C   0  0  0  0  0  0  0  0  0  0  0  0
   32.8540   27.2140   22.8110 O   0  0  0  0  0  0  0  0  0  0  0  0
   31.6760   26.6270   20.9560 O   0  0  0  0  0  0  0  0  0  0  0  0
   31.9800   25.6730   20.7900 H   0  0  0  0  0  0  0  0  0  0  0  0
   28.6340   29.6190   23.6030 O   0  0  0  0  0  0  0  0  0  0  0  0
   27.9390   30.2610   23.8810 H   0  0  0  0  0  0  0  0  0  0  0  0
   30.6510   31.3600   21.1430 N   0  0  0  0  0  0  0  0  0  0  0  0
   30.3560   32.3510   20.1730 C   0  0  0  0  0  0  0  0  0  0  0  0
   31.6380   31.2640   21.5190 H   0  0  0  0  0  0  0  0  0  0  0  0
   31.3730   33.2900   19.6340 C   0  0  0  0  0  0  0  0  0  0  0  0
   29.1650   32.4320   19.7540 O   0  0  0  0  0  0  0  0  0  0  0  0
   28.6540   29.4520   18.6800 O   0  0  0  0  0  0  0  0  0  0  0  0
   28.8840   28.6860   18.1110 H   0  0  0  0  0  0  0  0  0  0  0  0
   28.5020   26.8160   19.4550 O   0  0  0  0  0  0  0  0  0  0  0  0
   28.7540   26.0670   20.0260 H   0  0  0  0  0  0  0  0  0  0  0  0
   25.2250   29.0700   16.1620 O   0  0  0  0  0  0  0  0  0  0  0  0
   25.5490   30.3000   15.5440 C   0  0  0  0  0  0  0  0  0  0  0  0
   26.9690   30.6750   15.7430 C   0  0  0  0  0  0  0  0  0  0  0  0
   27.4630   31.9430   15.9440 C   0  0  0  0  0  0  0  0  0  0  0  0
   28.0330   29.8570   15.7610 N   0  0  0  0  0  0  0  0  0  0  0  0
   28.8040   31.8590   16.0780 N   0  0  0  0  0  0  0  0  0  0  0  0
   29.1220   30.5830   15.9620 N   0  0  0  0  0  0  0  0  0  0  0  0
   29.7640   32.9300   16.3110 C   0  0  0  0  0  0  0  0  0  0  0  0
   31.1670   32.4670   15.9830 C   0  0  0  0  0  0  0  0  0  0  0  0
   31.9400   33.5310   15.2800 C   0  0  0  0  0  0  0  0  0  0  0  0
   32.4860   34.4900   16.1230 O   0  0  0  0  0  0  0  0  0  0  0  0
   31.2180   34.2150   14.3130 O   0  0  0  0  0  0  0  0  0  0  0  0
   32.7000   35.6220   15.3410 C   0  0  0  0  0  0  0  0  0  0  0  0
   31.7770   35.4620   14.1690 C   0  0  0  0  0  0  0  0  0  0  0  0
   29.8670   25.5550   16.9770 C   0  0  0  0  0  0  0  0  0  0  0  0
   28.3450   25.7220   17.0260 C   0  0  0  0  0  0  0  0  0  0  0  0
   27.6010   24.4040   16.8770 C   0  0  0  0  0  0  0  0  0  0  0  0
   26.4750   24.2740   17.8660 C   0  0  0  0  0  0  0  0  0  0  0  0
   25.1480   24.5370   17.1630 C   0  0  0  0  0  0  0  0  0  0  0  0
   24.1710   25.1330   18.1040 N   0  0  0  0  0  0  0  0  0  0  0  0
  1  5  1  0  0  0  0
  2  1  1  0  0  0  0
  2  3  2  0  0  0  0
  4  1  1  0  0  0  0
  6  5  1  6  0  0  0
  7 27  1  6  0  0  0
  7  6  1  0  0  0  0
  8  7  1  6  0  0  0
  8 13  1  0  0  0  0
  8 11  1  0  0  0  0
  9 16  1  6  0  0  0
  9 10  1  0  0  0  0
  9 14  1  0  0  0  0
 11  9  1  0  0  0  0
 12 10  1  0  0  0  0
 12 20  1  6  0  0  0
 13 22  1  6  0  0  0
 13 12  1  0  0  0  0
 14 15  1  0  0  0  0
 16 17  2  0  0  0  0
 18 16  1  0  0  0  0
 19 18  1  0  0  0  0
 20 21  1  0  0  0  0
 22 24  1  0  0  0  0
 23 22  1  0  0  0  0
 25 23  1  0  0  0  0
 26 23  2  0  0  0  0
 28 27  1  0  0  0  0
 29 30  1  0  0  0  0
 29  6  1  0  0  0  0
 31  2  1  0  0  0  0
 32 33  1  0  0  0  0
 32 31  1  0  0  0  0
 33 35  1  0  0  0  0
 33 34  2  0  0  0  0
 34 36  1  0  0  0  0
 35 37  2  0  0  0  0
 36 38  1  0  0  0  0
 37 36  1  0  0  0  0
 39 38  1  0  0  0  0
 40 39  1  0  0  0  0
 40 41  1  0  0  0  0
 42 40  1  0  0  0  0
 43 41  1  0  0  0  0
 44 42  1  0  0  0  0
 44 43  1  0  0  0  0
 45 46  1  0  0  0  0
 47 46  1  0  0  0  0
 47 48  1  0  0  0  0
 49 48  1  0  0  0  0
 49 50  1  0  0  0  0
M  END
>  <REMARK>
 VINA RESULT:    -4.344      3.205      6.849
 INTER + INTRA:         -14.319
 INTER:                  -8.362
 INTRA:                  -5.956
 UNBOUND:                -6.292
 SMILES CC(=O)N[C@@H]1[C@@H](O)C[C@](O)(C(=O)O)O[C@H]1C(O)[C@H](O)CNC(=O)OCc1cn(CCC2OCCO2)nn1
 SMILES IDX 21 1 22 2 23 3 20 5 18 6 16 7 15 8 9 9 8 10 14 11 6 12 5 13
 SMILES IDX 10 14 11 16 12 17 13 18 7 20 4 22 2 23 1 25 3 26 17 27 19 29
 SMILES IDX 24 31 25 32 26 33 27 34 37 35 28 36 36 37 29 38 30 39 31 40
 SMILES IDX 32 41 35 42 33 43 34 44
 H PARENT 21 4 10 15 13 19 7 21 4 24 17 28 19 30
 Flexibility Score: inf
  4 active torsions:
  status: ('A' for Active; 'I' for Inactive)
    1  A    between atoms: CA   and  CB  
    2  A    between atoms: CB   and  CG  
    3  A    between atoms: CG   and  CD  
    4  A    between atoms: CD   and  CE  

>  <TORSDO>
F 17

>  <BEGIN_>
RES LYS A 131

$$$$
ligand_67_pose_8_2HRL.pdbqt
 OpenBabel07062320523D

  6  5  0  0  0  0  0  0  0  0999 V2000
   33.1930   34.6630    9.2900 C   0  0  0  0  0  0  0  0  0  0  0  0
   32.0600   35.3600   10.0340 C   0  0  0  0  0  0  0  0  0  0  0  0
   30.7160   34.7100    9.8310 C   0  0  0  0  0  0  0  0  0  0  0  0
   30.4770   34.4200    8.3570 C   0  0  0  0  0  0  0  0  0  0  0  0
   29.1160   34.9340    7.9270 C   0  0  0  0  0  0  0  0  0  0  0  0
   29.1540   36.3990    7.6620 N   0  0  0  0  0  0  0  0  0  0  0  0
  1  2  1  0  0  0  0
  3  2  1  0  0  0  0
  4  3  1  0  0  0  0
  5  4  1  0  0  0  0
  6  5  1  0  0  0  0
M  END
>  <EGIN_R>
ES LYS A 135

>  <REMARK>
  4 active torsions:
  status: ('A' for Active; 'I' for Inactive)
    5  A    between atoms: CA   and  CB  
    6  A    between atoms: CB   and  CG  
    7  A    between atoms: CG   and  CD  
    8  A    between atoms: CD   and  CE  

$$$$
