ligand_88_pose_18_2HRL.pdbqt
 OpenBabel07062320523D

 54 55  0  0  1  0  0  0  0  0999 V2000
   32.3810   34.7150   15.0110 N   0  0  0  0  0  0  0  0  0  0  0  0
   32.4250   36.0800   14.6090 C   0  0  0  0  0  0  0  0  0  0  0  0
   32.3570   36.9730   15.4840 O   0  0  0  0  0  0  0  0  0  0  0  0
   32.4390   33.9970   14.2680 H   0  0  0  0  0  0  0  0  0  0  0  0
   32.2590   34.3280   16.3900 C   0  0  0  0  0  0  0  0  0  0  0  0
   30.9650   33.6070   16.6370 C   0  0  2  0  0  0  0  0  0  0  0  0
   30.9490   32.2310   16.0070 C   0  0  1  0  0  0  0  0  0  0  0  0
   29.8010   31.4050   16.6160 C   0  0  2  0  0  0  0  0  0  0  0  0
   27.5230   31.9860   16.5070 C   0  0  2  0  0  0  0  0  0  0  0  0
   27.3980   31.2830   17.8670 C   0  0  0  0  0  0  0  0  0  0  0  0
   28.6990   31.6780   15.9090 O   0  0  0  0  0  0  0  0  0  0  0  0
   28.4870   31.9380   18.7020 C   0  0  1  0  0  0  0  0  0  0  0  0
   29.7950   31.5460   18.0790 C   0  0  1  0  0  0  0  0  0  0  0  0
   27.3310   33.3290   16.7640 O   0  0  0  0  0  0  0  0  0  0  0  0
   27.5110   33.5860   17.7010 H   0  0  0  0  0  0  0  0  0  0  0  0
   26.4260   31.5190   15.6220 C   0  0  0  0  0  0  0  0  0  0  0  0
   26.2980   30.2850   15.4200 O   0  0  0  0  0  0  0  0  0  0  0  0
   25.5370   32.3970   15.0110 O   0  0  0  0  0  0  0  0  0  0  0  0
   25.9390   33.3010   14.7220 H   0  0  0  0  0  0  0  0  0  0  0  0
   28.3130   33.3200   18.7460 O   0  0  0  0  0  0  0  0  0  0  0  0
   28.5490   33.6750   17.8650 H   0  0  0  0  0  0  0  0  0  0  0  0
   30.2500   30.3430   18.7750 N   0  0  0  0  0  0  0  0  0  0  0  0
   30.9910   30.3770   19.9820 C   0  0  0  0  0  0  0  0  0  0  0  0
   30.0360   29.3800   18.3910 H   0  0  0  0  0  0  0  0  0  0  0  0
   31.4370   29.1210   20.6590 C   0  0  0  0  0  0  0  0  0  0  0  0
   31.2840   31.4860   20.4990 O   0  0  0  0  0  0  0  0  0  0  0  0
   30.9150   32.2430   14.6350 O   0  0  0  0  0  0  0  0  0  0  0  0
   31.5960   31.6640   14.2330 H   0  0  0  0  0  0  0  0  0  0  0  0
   29.8990   34.4020   16.2820 O   0  0  0  0  0  0  0  0  0  0  0  0
   29.0240   34.0240   16.4920 H   0  0  0  0  0  0  0  0  0  0  0  0
   32.5410   36.4190   13.2830 O   0  0  0  0  0  0  0  0  0  0  0  0
   31.4250   36.8280   12.5130 C   0  0  0  0  0  0  0  0  0  0  0  0
   30.2420   36.0260   12.9250 C   0  0  0  0  0  0  0  0  0  0  0  0
   29.0070   36.5130   13.3330 C   0  0  0  0  0  0  0  0  0  0  0  0
   30.1040   34.6890   12.9940 N   0  0  0  0  0  0  0  0  0  0  0  0
   28.1980   35.4830   13.6230 N   0  0  0  0  0  0  0  0  0  0  0  0
   28.9000   34.3590   13.4050 N   0  0  0  0  0  0  0  0  0  0  0  0
   26.8370   35.5300   14.0800 C   0  0  0  0  0  0  0  0  0  0  0  0
   25.9570   36.3430   13.2020 C   0  0  0  0  0  0  0  0  0  0  0  0
   25.5300   35.7870   12.0120 C   0  0  0  0  0  0  0  0  0  0  0  0
   25.5500   37.6180   13.5150 C   0  0  0  0  0  0  0  0  0  0  0  0
   24.7140   36.4520   11.1230 C   0  0  0  0  0  0  0  0  0  0  0  0
   24.7220   38.3150   12.6290 C   0  0  0  0  0  0  0  0  0  0  0  0
   24.1400   35.6620    9.4930 Br  0  0  0  0  0  0  0  0  0  0  0  0
   24.3110   37.7400   11.4520 C   0  0  0  0  0  0  0  0  0  0  0  0
   24.2000   40.0900   13.1440 Br  0  0  0  0  0  0  0  0  0  0  0  0
   25.9590   38.2030   14.6980 O   0  0  0  0  0  0  0  0  0  0  0  0
   26.7570   37.8210   15.1870 H   0  0  0  0  0  0  0  0  0  0  0  0
   29.8670   25.5550   16.9770 C   0  0  0  0  0  0  0  0  0  0  0  0
   28.3450   25.7220   17.0260 C   0  0  0  0  0  0  0  0  0  0  0  0
   27.6010   24.4060   16.8640 C   0  0  0  0  0  0  0  0  0  0  0  0
   26.3730   24.3390   17.7290 C   0  0  0  0  0  0  0  0  0  0  0  0
   26.4250   25.4490   18.7740 C   0  0  0  0  0  0  0  0  0  0  0  0
   25.5080   25.1480   19.8980 N   0  0  0  0  0  0  0  0  0  0  0  0
  1  5  1  0  0  0  0
  2  1  1  0  0  0  0
  2  3  2  0  0  0  0
  4  1  1  0  0  0  0
  6  5  1  6  0  0  0
  7 27  1  6  0  0  0
  7  6  1  0  0  0  0
  8  7  1  6  0  0  0
  8 13  1  0  0  0  0
  9 16  1  6  0  0  0
  9 14  1  0  0  0  0
  9 10  1  0  0  0  0
 10 12  1  0  0  0  0
 11  9  1  0  0  0  0
 11  8  1  0  0  0  0
 12 20  1  6  0  0  0
 13 12  1  0  0  0  0
 13 22  1  1  0  0  0
 14 15  1  0  0  0  0
 17 16  2  0  0  0  0
 18 16  1  0  0  0  0
 19 18  1  0  0  0  0
 21 20  1  0  0  0  0
 22 23  1  0  0  0  0
 23 26  2  0  0  0  0
 23 25  1  0  0  0  0
 24 22  1  0  0  0  0
 28 27  1  0  0  0  0
 29 30  1  0  0  0  0
 29  6  1  0  0  0  0
 31  2  1  0  0  0  0
 32 33  1  0  0  0  0
 32 31  1  0  0  0  0
 33 35  1  0  0  0  0
 33 34  2  0  0  0  0
 34 36  1  0  0  0  0
 35 37  2  0  0  0  0
 36 38  1  0  0  0  0
 37 36  1  0  0  0  0
 39 41  1  0  0  0  0
 39 38  1  0  0  0  0
 40 39  2  0  0  0  0
 41 47  1  0  0  0  0
 42 45  2  0  0  0  0
 42 40  1  0  0  0  0
 43 46  1  0  0  0  0
 43 41  2  0  0  0  0
 44 42  1  0  0  0  0
 45 43  1  0  0  0  0
 47 48  1  0  0  0  0
 49 50  1  0  0  0  0
 51 50  1  0  0  0  0
 51 52  1  0  0  0  0
 52 53  1  0  0  0  0
 53 54  1  0  0  0  0
M  END
>  <REMARK>
 VINA RESULT:    -4.960      3.661      6.953
 INTER + INTRA:         -14.814
 INTER:                  -8.138
 INTRA:                  -6.676
 UNBOUND:                -5.794
 SMILES CC(=O)N[C@@H]1[C@@H](O)C[C@](O)(C(=O)O)O[C@H]1C(O)[C@H](O)CNC(=O)OCc1cn(Cc2cc(Br)cc(Br)c2O)nn1
 SMILES IDX 21 1 22 2 23 3 20 5 18 6 16 7 15 8 9 9 8 10 14 11 6 12 5 13
 SMILES IDX 10 14 11 16 12 17 13 18 7 20 4 22 2 23 1 25 3 26 17 27 19 29
 SMILES IDX 24 31 25 32 26 33 27 34 40 35 28 36 39 37 29 38 30 39 31 40
 SMILES IDX 37 41 32 42 35 43 33 44 34 45 36 46 38 47
 H PARENT 21 4 10 15 13 19 7 21 4 24 17 28 19 30 38 48
 Flexibility Score: inf
  4 active torsions:
  status: ('A' for Active; 'I' for Inactive)
    1  A    between atoms: CA   and  CB  
    2  A    between atoms: CB   and  CG  
    3  A    between atoms: CG   and  CD  
    4  A    between atoms: CD   and  CE  

>  <TORSDO>
F 17

>  <BEGIN_>
RES LYS A 131

$$$$
ligand_88_pose_18_2HRL.pdbqt
 OpenBabel07062320523D

  6  5  0  0  0  0  0  0  0  0999 V2000
   33.1930   34.6630    9.2900 C   0  0  0  0  0  0  0  0  0  0  0  0
   32.0600   35.3600   10.0340 C   0  0  0  0  0  0  0  0  0  0  0  0
   30.7730   35.4200    9.2520 C   0  0  0  0  0  0  0  0  0  0  0  0
   30.1850   34.0280    9.0800 C   0  0  0  0  0  0  0  0  0  0  0  0
   28.7000   34.0350    9.3910 C   0  0  0  0  0  0  0  0  0  0  0  0
   28.2600   35.3720    9.8770 N   0  0  0  0  0  0  0  0  0  0  0  0
  1  2  1  0  0  0  0
  3  2  1  0  0  0  0
  4  3  1  0  0  0  0
  4  5  1  0  0  0  0
  5  6  1  0  0  0  0
M  END
>  <EGIN_R>
ES LYS A 135

>  <REMARK>
  4 active torsions:
  status: ('A' for Active; 'I' for Inactive)
    5  A    between atoms: CA   and  CB  
    6  A    between atoms: CB   and  CG  
    7  A    between atoms: CG   and  CD  
    8  A    between atoms: CD   and  CE  

$$$$
