ligand_68_pose_11_2HRL.pdbqt
 OpenBabel07062320523D

 53 54  0  0  1  0  0  0  0  0999 V2000
   30.1080   31.7540   17.2700 N   0  0  0  0  0  0  0  0  0  0  0  0
   28.7090   31.7160   17.4940 C   0  0  0  0  0  0  0  0  0  0  0  0
   28.0630   32.7880   17.4510 O   0  0  0  0  0  0  0  0  0  0  0  0
   30.5810   30.7990   17.3200 H   0  0  0  0  0  0  0  0  0  0  0  0
   30.8700   32.9500   16.9960 C   0  0  0  0  0  0  0  0  0  0  0  0
   31.4600   32.9440   15.6010 C   0  0  2  0  0  0  0  0  0  0  0  0
   30.8140   34.0380   14.7500 C   0  0  2  0  0  0  0  0  0  0  0  0
   31.2130   35.4340   15.1490 C   0  0  2  0  0  0  0  0  0  0  0  0
   30.6050   36.4310   13.1200 C   0  0  2  0  0  0  0  0  0  0  0  0
   31.8670   35.9340   12.5410 C   0  0  0  0  0  0  0  0  0  0  0  0
   30.3960   36.3280   14.4540 O   0  0  0  0  0  0  0  0  0  0  0  0
   33.0220   35.7350   13.4720 C   0  0  1  0  0  0  0  0  0  0  0  0
   32.6420   35.7010   14.9330 C   0  0  1  0  0  0  0  0  0  0  0  0
   29.5640   35.6690   12.5080 O   0  0  0  0  0  0  0  0  0  0  0  0
   29.9130   35.4230   11.6240 H   0  0  0  0  0  0  0  0  0  0  0  0
   30.3670   37.8350   12.6160 C   0  0  0  0  0  0  0  0  0  0  0  0
   30.8780   38.8380   13.1680 O   0  0  0  0  0  0  0  0  0  0  0  0
   29.5580   38.0400   11.5020 O   0  0  0  0  0  0  0  0  0  0  0  0
   28.6920   38.5550   11.5300 H   0  0  0  0  0  0  0  0  0  0  0  0
   33.7150   34.5420   13.1190 O   0  0  0  0  0  0  0  0  0  0  0  0
   34.4020   34.8010   12.4760 H   0  0  0  0  0  0  0  0  0  0  0  0
   33.0990   36.9640   15.4910 N   0  0  0  0  0  0  0  0  0  0  0  0
   33.9290   37.0710   16.6330 C   0  0  0  0  0  0  0  0  0  0  0  0
   32.7730   37.8180   14.9880 H   0  0  0  0  0  0  0  0  0  0  0  0
   34.3790   38.3760   17.1760 C   0  0  0  0  0  0  0  0  0  0  0  0
   34.2700   35.9840   17.1680 O   0  0  0  0  0  0  0  0  0  0  0  0
   29.4210   33.9090   15.1240 O   0  0  0  0  0  0  0  0  0  0  0  0
   29.0470   33.0770   14.7970 H   0  0  0  0  0  0  0  0  0  0  0  0
   31.3240   31.6860   15.0640 O   0  0  0  0  0  0  0  0  0  0  0  0
   31.0950   31.0680   15.7970 H   0  0  0  0  0  0  0  0  0  0  0  0
   28.0160   30.5440   17.7570 O   0  0  0  0  0  0  0  0  0  0  0  0
   27.7480   29.5780   16.7600 C   0  0  0  0  0  0  0  0  0  0  0  0
   26.3570   29.7500   16.2940 C   0  0  0  0  0  0  0  0  0  0  0  0
   25.9130   30.6630   15.3510 C   0  0  0  0  0  0  0  0  0  0  0  0
   25.2400   29.0820   16.6660 N   0  0  0  0  0  0  0  0  0  0  0  0
   24.5860   30.5280   15.1840 N   0  0  0  0  0  0  0  0  0  0  0  0
   24.2080   29.5660   15.9910 N   0  0  0  0  0  0  0  0  0  0  0  0
   23.7600   31.3220   14.2640 C   0  0  0  0  0  0  0  0  0  0  0  0
   23.5830   30.5510   12.9790 C   0  0  1  0  0  0  0  0  0  0  0  0
   24.0380   29.2350   13.2250 O   0  0  0  0  0  0  0  0  0  0  0  0
   23.5410   28.6060   12.6340 H   0  0  0  0  0  0  0  0  0  0  0  0
   22.1490   30.4730   12.6360 C   0  0  0  0  0  0  0  0  0  0  0  0
   21.3310   31.5840   12.5970 C   0  0  0  0  0  0  0  0  0  0  0  0
   21.5920   29.2220   12.3370 C   0  0  0  0  0  0  0  0  0  0  0  0
   20.0000   31.4910   12.2740 C   0  0  0  0  0  0  0  0  0  0  0  0
   20.2690   29.1270   12.0150 C   0  0  0  0  0  0  0  0  0  0  0  0
   19.4780   30.2520   11.9840 C   0  0  0  0  0  0  0  0  0  0  0  0
   29.8670   25.5550   16.9770 C   0  0  0  0  0  0  0  0  0  0  0  0
   28.3450   25.7220   17.0260 C   0  0  0  0  0  0  0  0  0  0  0  0
   27.6020   24.4000   16.9140 C   0  0  0  0  0  0  0  0  0  0  0  0
   26.1530   24.5300   17.2970 C   0  0  0  0  0  0  0  0  0  0  0  0
   26.0450   25.2160   18.6550 C   0  0  0  0  0  0  0  0  0  0  0  0
   25.4860   24.2850   19.6630 N   0  0  0  0  0  0  0  0  0  0  0  0
  1  4  1  0  0  0  0
  1  2  1  0  0  0  0
  2 31  1  0  0  0  0
  3  2  2  0  0  0  0
  5  1  1  0  0  0  0
  6  5  1  1  0  0  0
  7 27  1  1  0  0  0
  7  6  1  0  0  0  0
  8  7  1  6  0  0  0
  9 14  1  6  0  0  0
  9 11  1  0  0  0  0
 10  9  1  0  0  0  0
 10 12  1  0  0  0  0
 11  8  1  0  0  0  0
 12 20  1  6  0  0  0
 12 13  1  0  0  0  0
 13  8  1  0  0  0  0
 13 22  1  6  0  0  0
 15 14  1  0  0  0  0
 16  9  1  0  0  0  0
 16 17  2  0  0  0  0
 18 19  1  0  0  0  0
 18 16  1  0  0  0  0
 21 20  1  0  0  0  0
 22 23  1  0  0  0  0
 23 26  2  0  0  0  0
 23 25  1  0  0  0  0
 24 22  1  0  0  0  0
 28 27  1  0  0  0  0
 29  6  1  0  0  0  0
 29 30  1  0  0  0  0
 32 31  1  0  0  0  0
 33 35  1  0  0  0  0
 33 32  1  0  0  0  0
 34 33  2  0  0  0  0
 36 34  1  0  0  0  0
 36 37  1  0  0  0  0
 37 35  2  0  0  0  0
 38 36  1  0  0  0  0
 39 40  1  0  0  0  0
 39 38  1  1  0  0  0
 41 40  1  0  0  0  0
 42 39  1  0  0  0  0
 43 42  1  0  0  0  0
 44 42  2  0  0  0  0
 45 43  2  0  0  0  0
 46 44  1  0  0  0  0
 47 46  2  0  0  0  0
 47 45  1  0  0  0  0
 48 49  1  0  0  0  0
 50 49  1  0  0  0  0
 50 51  1  0  0  0  0
 51 52  1  0  0  0  0
 52 53  1  0  0  0  0
M  END
>  <REMARK>
 VINA RESULT:    -5.442      4.643      8.723
 INTER + INTRA:         -15.225
 INTER:                 -10.133
 INTRA:                  -5.093
 UNBOUND:                -5.012
 SMILES CC(=O)N[C@@H]1[C@@H](O)C[C@](O)(C(=O)O)O[C@H]1C(O)[C@H](O)CNC(=O)OCc1cn(CC(O)c2ccccc2)nn1
 SMILES IDX 21 1 22 2 23 3 20 5 18 6 16 7 15 8 9 9 8 10 14 11 6 12 5 13
 SMILES IDX 10 14 11 16 12 17 13 18 7 20 4 22 2 23 1 25 3 26 17 27 19 29
 SMILES IDX 24 31 25 32 26 33 27 34 39 35 28 36 38 37 29 38 30 39 31 40
 SMILES IDX 32 42 33 43 37 44 34 45 36 46 35 47
 H PARENT 21 4 10 15 13 19 7 21 4 24 17 28 19 30 31 41
 Flexibility Score: inf
  4 active torsions:
  status: ('A' for Active; 'I' for Inactive)
    1  A    between atoms: CA   and  CB  
    2  A    between atoms: CB   and  CG  
    3  A    between atoms: CG   and  CD  
    4  A    between atoms: CD   and  CE  

>  <TORSDO>
F 18

>  <BEGIN_>
RES LYS A 131

$$$$
ligand_68_pose_11_2HRL.pdbqt
 OpenBabel07062320523D

  6  5  0  0  0  0  0  0  0  0999 V2000
   33.1930   34.6630    9.2900 C   0  0  0  0  0  0  0  0  0  0  0  0
   32.0600   35.3600   10.0340 C   0  0  0  0  0  0  0  0  0  0  0  0
   30.8580   35.6460    9.1710 C   0  0  0  0  0  0  0  0  0  0  0  0
   30.2490   34.3520    8.6530 C   0  0  0  0  0  0  0  0  0  0  0  0
   28.9020   34.1000    9.3030 C   0  0  0  0  0  0  0  0  0  0  0  0
   27.7880   34.4980    8.3990 N   0  0  0  0  0  0  0  0  0  0  0  0
  1  2  1  0  0  0  0
  3  2  1  0  0  0  0
  4  3  1  0  0  0  0
  4  5  1  0  0  0  0
  6  5  1  0  0  0  0
M  END
>  <EGIN_R>
ES LYS A 135

>  <REMARK>
  4 active torsions:
  status: ('A' for Active; 'I' for Inactive)
    5  A    between atoms: CA   and  CB  
    6  A    between atoms: CB   and  CG  
    7  A    between atoms: CG   and  CD  
    8  A    between atoms: CD   and  CE  

$$$$
