ligand_19_pose_17_2HRL.pdbqt
 OpenBabel07062320523D

 49 49  0  0  1  0  0  0  0  0999 V2000
   31.8580   34.3910   20.4200 N   0  0  0  0  0  0  0  0  0  0  0  0
   31.3790   33.9410   21.6700 C   0  0  0  0  0  0  0  0  0  0  0  0
   30.2310   34.2220   22.0440 O   0  0  0  0  0  0  0  0  0  0  0  0
   32.8490   34.1110   20.1810 H   0  0  0  0  0  0  0  0  0  0  0  0
   31.0970   35.1830   19.4770 C   0  0  0  0  0  0  0  0  0  0  0  0
   31.0760   34.5720   18.1280 C   0  0  2  0  0  0  0  0  0  0  0  0
   30.1900   33.3570   17.9580 C   0  0  2  0  0  0  0  0  0  0  0  0
   29.1390   33.4820   16.8970 C   0  0  2  0  0  0  0  0  0  0  0  0
   28.9120   31.1730   16.7170 C   0  0  2  0  0  0  0  0  0  0  0  0
   30.0420   31.1420   15.7620 C   0  0  0  0  0  0  0  0  0  0  0  0
   28.2850   32.3800   16.8830 O   0  0  0  0  0  0  0  0  0  0  0  0
   30.3470   32.4050   15.0400 C   0  0  1  0  0  0  0  0  0  0  0  0
   29.6200   33.6250   15.4890 C   0  0  1  0  0  0  0  0  0  0  0  0
   29.3060   30.7520   18.0110 O   0  0  0  0  0  0  0  0  0  0  0  0
   30.0680   30.1280   17.9690 H   0  0  0  0  0  0  0  0  0  0  0  0
   27.8590   30.1990   16.3130 C   0  0  0  0  0  0  0  0  0  0  0  0
   26.8160   30.5810   15.6790 O   0  0  0  0  0  0  0  0  0  0  0  0
   27.9220   28.8410   16.5810 O   0  0  0  0  0  0  0  0  0  0  0  0
   28.0080   28.5610   17.5640 H   0  0  0  0  0  0  0  0  0  0  0  0
   31.7180   32.6500   15.1570 O   0  0  0  0  0  0  0  0  0  0  0  0
   32.2500   31.8780   14.7910 H   0  0  0  0  0  0  0  0  0  0  0  0
   28.4670   33.9580   14.6850 N   0  0  0  0  0  0  0  0  0  0  0  0
   28.5240   34.8100   13.5780 C   0  0  0  0  0  0  0  0  0  0  0  0
   27.5630   33.5320   14.9630 H   0  0  0  0  0  0  0  0  0  0  0  0
   27.3560   35.1680   12.7340 C   0  0  0  0  0  0  0  0  0  0  0  0
   29.6350   35.2970   13.2920 O   0  0  0  0  0  0  0  0  0  0  0  0
   29.4150   33.3710   19.1810 O   0  0  0  0  0  0  0  0  0  0  0  0
   28.4760   33.4620   18.8320 H   0  0  0  0  0  0  0  0  0  0  0  0
   32.2460   34.4960   17.4350 O   0  0  0  0  0  0  0  0  0  0  0  0
   32.6980   35.3470   17.3390 H   0  0  0  0  0  0  0  0  0  0  0  0
   32.2060   33.1620   22.5110 O   0  0  0  0  0  0  0  0  0  0  0  0
   33.0750   32.1830   21.9420 C   0  0  0  0  0  0  0  0  0  0  0  0
   32.2370   31.0960   21.3980 C   0  0  0  0  0  0  0  0  0  0  0  0
   32.2390   29.7780   21.8260 C   0  0  0  0  0  0  0  0  0  0  0  0
   31.3400   31.1640   20.4060 N   0  0  0  0  0  0  0  0  0  0  0  0
   31.3480   29.1080   21.0810 N   0  0  0  0  0  0  0  0  0  0  0  0
   30.8220   29.9630   20.2350 N   0  0  0  0  0  0  0  0  0  0  0  0
   31.0520   27.7000   21.2190 C   0  0  0  0  0  0  0  0  0  0  0  0
   29.5730   27.5470   21.4810 C   0  0  0  0  0  0  0  0  0  0  0  0
   28.9090   27.2490   20.2870 O   0  0  0  0  0  0  0  0  0  0  0  0
   27.7090   27.8170   19.9730 C   0  0  0  0  0  0  0  0  0  0  0  0
   27.6310   28.9970   19.5850 O   0  0  0  0  0  0  0  0  0  0  0  0
   26.4370   27.0220   20.0890 C   0  0  0  0  0  0  0  0  0  0  0  0
   29.8670   25.5550   16.9770 C   0  0  0  0  0  0  0  0  0  0  0  0
   28.3450   25.7220   17.0260 C   0  0  0  0  0  0  0  0  0  0  0  0
   27.6000   24.4140   16.8090 C   0  0  0  0  0  0  0  0  0  0  0  0
   26.6270   24.1250   17.9190 C   0  0  0  0  0  0  0  0  0  0  0  0
   25.2430   23.8720   17.3290 C   0  0  0  0  0  0  0  0  0  0  0  0
   24.3030   23.4290   18.3860 N   0  0  0  0  0  0  0  0  0  0  0  0
  1  2  1  0  0  0  0
  2  3  2  0  0  0  0
  2 31  1  0  0  0  0
  4  1  1  0  0  0  0
  5  1  1  0  0  0  0
  6  5  1  1  0  0  0
  7  6  1  0  0  0  0
  7 27  1  1  0  0  0
  8  7  1  1  0  0  0
  9 16  1  6  0  0  0
  9 11  1  0  0  0  0
  9 14  1  0  0  0  0
 10  9  1  0  0  0  0
 11  8  1  0  0  0  0
 12 20  1  1  0  0  0
 12 13  1  0  0  0  0
 12 10  1  0  0  0  0
 13 22  1  6  0  0  0
 13  8  1  0  0  0  0
 15 14  1  0  0  0  0
 16 18  1  0  0  0  0
 17 16  2  0  0  0  0
 18 19  1  0  0  0  0
 21 20  1  0  0  0  0
 22 24  1  0  0  0  0
 23 22  1  0  0  0  0
 25 23  1  0  0  0  0
 26 23  2  0  0  0  0
 28 27  1  0  0  0  0
 29  6  1  0  0  0  0
 30 29  1  0  0  0  0
 32 31  1  0  0  0  0
 33 34  2  0  0  0  0
 33 32  1  0  0  0  0
 35 33  1  0  0  0  0
 36 38  1  0  0  0  0
 36 34  1  0  0  0  0
 37 35  2  0  0  0  0
 37 36  1  0  0  0  0
 38 39  1  0  0  0  0
 40 39  1  0  0  0  0
 41 43  1  0  0  0  0
 41 40  1  0  0  0  0
 42 41  2  0  0  0  0
 44 45  1  0  0  0  0
 46 45  1  0  0  0  0
 46 47  1  0  0  0  0
 48 47  1  0  0  0  0
 48 49  1  0  0  0  0
M  END
>  <REMARK>
 VINA RESULT:    -3.934      2.233      6.575
 INTER + INTRA:         -13.558
 INTER:                  -6.868
 INTRA:                  -6.691
 UNBOUND:                -6.059
 SMILES CC(=O)N[C@@H]1[C@@H](O)C[C@](O)(C(=O)O)O[C@H]1C(O)[C@H](O)CNC(=O)OCc1cn(CCOC(C)=O)nn1
 SMILES IDX 21 1 22 2 23 3 20 5 18 6 16 7 15 8 9 9 8 10 14 11 6 12 5 13
 SMILES IDX 10 14 11 16 12 17 13 18 7 20 4 22 2 23 1 25 3 26 17 27 19 29
 SMILES IDX 24 31 25 32 26 33 27 34 36 35 28 36 35 37 29 38 30 39 31 40
 SMILES IDX 32 41 34 42 33 43
 H PARENT 21 4 10 15 13 19 7 21 4 24 17 28 19 30
 Flexibility Score: inf
  4 active torsions:
  status: ('A' for Active; 'I' for Inactive)
    1  A    between atoms: CA   and  CB  
    2  A    between atoms: CB   and  CG  
    3  A    between atoms: CG   and  CD  
    4  A    between atoms: CD   and  CE  

>  <TORSDO>
F 18

>  <BEGIN_>
RES LYS A 131

$$$$
ligand_19_pose_17_2HRL.pdbqt
 OpenBabel07062320523D

  6  5  0  0  0  0  0  0  0  0999 V2000
   33.1930   34.6630    9.2900 C   0  0  0  0  0  0  0  0  0  0  0  0
   32.0600   35.3600   10.0340 C   0  0  0  0  0  0  0  0  0  0  0  0
   30.8120   35.5310    9.2070 C   0  0  0  0  0  0  0  0  0  0  0  0
   30.0770   34.2070    9.0640 C   0  0  0  0  0  0  0  0  0  0  0  0
   28.6530   34.4370    8.5950 C   0  0  0  0  0  0  0  0  0  0  0  0
   27.6850   33.6680    9.4260 N   0  0  0  0  0  0  0  0  0  0  0  0
  1  2  1  0  0  0  0
  3  2  1  0  0  0  0
  4  3  1  0  0  0  0
  5  4  1  0  0  0  0
  5  6  1  0  0  0  0
M  END
>  <EGIN_R>
ES LYS A 135

>  <REMARK>
  4 active torsions:
  status: ('A' for Active; 'I' for Inactive)
    5  A    between atoms: CA   and  CB  
    6  A    between atoms: CB   and  CG  
    7  A    between atoms: CG   and  CD  
    8  A    between atoms: CD   and  CE  

$$$$
