ligand_66_pose_14_2HRL.pdbqt
 OpenBabel07062320523D

 52 53  0  0  1  0  0  0  0  0999 V2000
   26.0710   34.1110   13.7070 N   0  0  0  0  0  0  0  0  0  0  0  0
   24.7510   33.6950   13.5000 C   0  0  0  0  0  0  0  0  0  0  0  0
   24.0760   33.2210   14.4370 O   0  0  0  0  0  0  0  0  0  0  0  0
   26.5810   34.5080   12.8620 H   0  0  0  0  0  0  0  0  0  0  0  0
   26.7500   34.0300   14.9740 C   0  0  0  0  0  0  0  0  0  0  0  0
   28.2340   34.2400   14.8610 C   0  0  2  0  0  0  0  0  0  0  0  0
   28.6850   35.0450   13.7060 C   0  0  2  0  0  0  0  0  0  0  0  0
   30.1650   35.4620   13.7420 C   0  0  2  0  0  0  0  0  0  0  0  0
   32.0610   35.2060   14.9770 C   0  0  2  0  0  0  0  0  0  0  0  0
   32.1000   36.6860   15.2990 C   0  0  0  0  0  0  0  0  0  0  0  0
   30.7500   34.8600   14.7830 O   0  0  0  0  0  0  0  0  0  0  0  0
   31.5690   37.5070   14.1550 C   0  0  1  0  0  0  0  0  0  0  0  0
   30.3310   36.9210   13.5430 C   0  0  1  0  0  0  0  0  0  0  0  0
   32.5630   34.5120   16.1070 O   0  0  0  0  0  0  0  0  0  0  0  0
   31.8190   34.5610   16.7730 H   0  0  0  0  0  0  0  0  0  0  0  0
   32.9840   34.9210   13.8740 C   0  0  0  0  0  0  0  0  0  0  0  0
   34.2120   34.7500   14.0600 O   0  0  0  0  0  0  0  0  0  0  0  0
   32.5740   34.8170   12.5290 O   0  0  0  0  0  0  0  0  0  0  0  0
   33.0670   35.4360   11.8810 H   0  0  0  0  0  0  0  0  0  0  0  0
   31.3090   38.7880   14.6410 O   0  0  0  0  0  0  0  0  0  0  0  0
   30.8440   39.3510   13.9870 H   0  0  0  0  0  0  0  0  0  0  0  0
   30.3010   37.2610   12.1340 N   0  0  0  0  0  0  0  0  0  0  0  0
   29.6620   38.4560   11.6400 C   0  0  0  0  0  0  0  0  0  0  0  0
   30.7320   36.6730   11.3750 H   0  0  0  0  0  0  0  0  0  0  0  0
   29.6560   38.7640   10.1750 C   0  0  0  0  0  0  0  0  0  0  0  0
   29.1100   39.2440   12.4340 O   0  0  0  0  0  0  0  0  0  0  0  0
   27.9520   36.2210   13.5330 O   0  0  0  0  0  0  0  0  0  0  0  0
   28.3520   36.9960   13.9980 H   0  0  0  0  0  0  0  0  0  0  0  0
   28.8550   33.0000   15.0120 O   0  0  0  0  0  0  0  0  0  0  0  0
   29.8220   33.1250   14.8510 H   0  0  0  0  0  0  0  0  0  0  0  0
   24.1200   33.7780   12.2590 O   0  0  0  0  0  0  0  0  0  0  0  0
   23.4100   34.9480   11.9440 C   0  0  0  0  0  0  0  0  0  0  0  0
   24.2680   35.8220   11.1190 C   0  0  0  0  0  0  0  0  0  0  0  0
   23.9910   36.3710    9.8870 C   0  0  0  0  0  0  0  0  0  0  0  0
   25.5030   36.2460   11.4430 N   0  0  0  0  0  0  0  0  0  0  0  0
   25.0520   37.1040    9.5020 N   0  0  0  0  0  0  0  0  0  0  0  0
   25.9460   37.0000   10.4770 N   0  0  0  0  0  0  0  0  0  0  0  0
   25.2680   37.8820    8.3120 C   0  0  0  0  0  0  0  0  0  0  0  0
   26.4980   37.4150    7.5890 C   0  0  0  0  0  0  0  0  0  0  0  0
   26.6690   36.0740    7.3240 C   0  0  0  0  0  0  0  0  0  0  0  0
   27.4660   38.2890    7.1730 C   0  0  0  0  0  0  0  0  0  0  0  0
   27.8100   35.6330    6.6440 C   0  0  0  0  0  0  0  0  0  0  0  0
   28.6020   37.8900    6.5010 C   0  0  0  0  0  0  0  0  0  0  0  0
   28.7720   36.5500    6.2360 C   0  0  0  0  0  0  0  0  0  0  0  0
   29.6270   38.7860    6.0550 C   0  0  0  0  0  0  0  0  0  0  0  0
   30.4760   39.5070    5.7040 N   0  0  0  0  0  0  0  0  0  0  0  0
   29.8670   25.5550   16.9770 C   0  0  0  0  0  0  0  0  0  0  0  0
   28.3450   25.7220   17.0260 C   0  0  0  0  0  0  0  0  0  0  0  0
   27.6010   24.4030   16.8880 C   0  0  0  0  0  0  0  0  0  0  0  0
   26.6370   24.1750   18.0190 C   0  0  0  0  0  0  0  0  0  0  0  0
   25.6220   23.1100   17.6170 C   0  0  0  0  0  0  0  0  0  0  0  0
   24.9030   22.6010   18.8090 N   0  0  0  0  0  0  0  0  0  0  0  0
  1  5  1  0  0  0  0
  2  1  1  0  0  0  0
  2  3  2  0  0  0  0
  4  1  1  0  0  0  0
  6  5  1  6  0  0  0
  6 29  1  0  0  0  0
  7 27  1  1  0  0  0
  7  6  1  0  0  0  0
  8  7  1  1  0  0  0
  8 11  1  0  0  0  0
  9 16  1  6  0  0  0
  9 10  1  0  0  0  0
  9 14  1  0  0  0  0
 11  9  1  0  0  0  0
 12 20  1  1  0  0  0
 12 10  1  0  0  0  0
 13 22  1  6  0  0  0
 13  8  1  0  0  0  0
 13 12  1  0  0  0  0
 14 15  1  0  0  0  0
 16 17  2  0  0  0  0
 18 16  1  0  0  0  0
 19 18  1  0  0  0  0
 21 20  1  0  0  0  0
 23 22  1  0  0  0  0
 23 26  2  0  0  0  0
 24 22  1  0  0  0  0
 25 23  1  0  0  0  0
 27 28  1  0  0  0  0
 30 29  1  0  0  0  0
 31  2  1  0  0  0  0
 32 31  1  0  0  0  0
 33 35  1  0  0  0  0
 33 32  1  0  0  0  0
 34 33  2  0  0  0  0
 36 34  1  0  0  0  0
 36 37  1  0  0  0  0
 37 35  2  0  0  0  0
 38 36  1  0  0  0  0
 39 38  1  0  0  0  0
 40 39  1  0  0  0  0
 41 39  2  0  0  0  0
 42 40  2  0  0  0  0
 43 41  1  0  0  0  0
 44 43  2  0  0  0  0
 44 42  1  0  0  0  0
 45 43  1  0  0  0  0
 46 45  3  0  0  0  0
 47 48  1  0  0  0  0
 49 48  1  0  0  0  0
 49 50  1  0  0  0  0
 51 50  1  0  0  0  0
 51 52  1  0  0  0  0
M  END
>  <REMARK>
 VINA RESULT:    -4.920      3.713      7.102
 INTER + INTRA:         -14.303
 INTER:                  -9.078
 INTRA:                  -5.225
 UNBOUND:                -5.212
 SMILES CC(=O)N[C@@H]1[C@@H](O)C[C@](O)(C(=O)O)O[C@H]1C(O)[C@H](O)CNC(=O)OCc1cn(Cc2cccc(C#N)c2)nn1
 SMILES IDX 21 1 22 2 23 3 20 5 18 6 16 7 15 8 9 9 8 10 14 11 6 12 5 13
 SMILES IDX 10 14 11 16 12 17 13 18 7 20 4 22 2 23 1 25 3 26 17 27 19 29
 SMILES IDX 24 31 25 32 26 33 27 34 39 35 28 36 38 37 29 38 30 39 31 40
 SMILES IDX 37 41 32 42 34 43 33 44 35 45 36 46
 H PARENT 21 4 10 15 13 19 7 21 4 24 17 28 19 30
 Flexibility Score: inf
  4 active torsions:
  status: ('A' for Active; 'I' for Inactive)
    1  A    between atoms: CA   and  CB  
    2  A    between atoms: CB   and  CG  
    3  A    between atoms: CG   and  CD  
    4  A    between atoms: CD   and  CE  

>  <TORSDO>
F 17

>  <BEGIN_>
RES LYS A 131

$$$$
ligand_66_pose_14_2HRL.pdbqt
 OpenBabel07062320523D

  6  5  0  0  0  0  0  0  0  0999 V2000
   33.1930   34.6630    9.2900 C   0  0  0  0  0  0  0  0  0  0  0  0
   32.0600   35.3600   10.0340 C   0  0  0  0  0  0  0  0  0  0  0  0
   30.8290   35.5740    9.1920 C   0  0  0  0  0  0  0  0  0  0  0  0
   29.9470   34.3360    9.2060 C   0  0  0  0  0  0  0  0  0  0  0  0
   28.7590   34.5380   10.1280 C   0  0  0  0  0  0  0  0  0  0  0  0
   27.6300   33.6420    9.7520 N   0  0  0  0  0  0  0  0  0  0  0  0
  1  2  1  0  0  0  0
  3  4  1  0  0  0  0
  3  2  1  0  0  0  0
  4  5  1  0  0  0  0
  6  5  1  0  0  0  0
M  END
>  <EGIN_R>
ES LYS A 135

>  <REMARK>
  4 active torsions:
  status: ('A' for Active; 'I' for Inactive)
    5  A    between atoms: CA   and  CB  
    6  A    between atoms: CB   and  CG  
    7  A    between atoms: CG   and  CD  
    8  A    between atoms: CD   and  CE  

$$$$
