ligand_89_pose_11_2HRL.pdbqt
 OpenBabel07062320523D

 60 63  0  0  1  0  0  0  0  0999 V2000
   32.0430   43.1510    5.9370 N   0  0  0  0  0  0  0  0  0  0  0  0
   32.1350   43.4120    4.5690 C   0  0  0  0  0  0  0  0  0  0  0  0
   33.1330   43.8850    4.0230 O   0  0  0  0  0  0  0  0  0  0  0  0
   31.1020   42.7000    6.2690 H   0  0  0  0  0  0  0  0  0  0  0  0
   33.0290   43.4080    6.9150 C   0  0  0  0  0  0  0  0  0  0  0  0
   32.9330   42.6570    8.1670 C   0  0  2  0  0  0  0  0  0  0  0  0
   32.5950   41.2240    8.2250 C   0  0  1  0  0  0  0  0  0  0  0  0
   31.2720   41.1360    9.0420 C   0  0  2  0  0  0  0  0  0  0  0  0
   31.5000   39.1720   10.3110 C   0  0  2  0  0  0  0  0  0  0  0  0
   30.2690   38.6140    9.6800 C   0  0  0  0  0  0  0  0  0  0  0  0
   31.5410   40.5240   10.2090 O   0  0  0  0  0  0  0  0  0  0  0  0
   30.0020   39.1180    8.2840 C   0  0  1  0  0  0  0  0  0  0  0  0
   30.1660   40.6190    8.1990 C   0  0  1  0  0  0  0  0  0  0  0  0
   32.6520   38.6450    9.6730 O   0  0  0  0  0  0  0  0  0  0  0  0
   32.9930   37.9490   10.2960 H   0  0  0  0  0  0  0  0  0  0  0  0
   31.4890   38.7100   11.7400 C   0  0  0  0  0  0  0  0  0  0  0  0
   31.7260   37.5230   12.0010 O   0  0  0  0  0  0  0  0  0  0  0  0
   31.2170   39.6030   12.7480 O   0  0  0  0  0  0  0  0  0  0  0  0
   30.6510   39.3240   13.5540 H   0  0  0  0  0  0  0  0  0  0  0  0
   30.7980   38.4880    7.3260 O   0  0  0  0  0  0  0  0  0  0  0  0
   30.2930   37.7420    6.9210 H   0  0  0  0  0  0  0  0  0  0  0  0
   28.8730   41.2080    8.5740 N   0  0  0  0  0  0  0  0  0  0  0  0
   28.5110   42.5270    8.2320 C   0  0  0  0  0  0  0  0  0  0  0  0
   28.1640   40.6450    9.1240 H   0  0  0  0  0  0  0  0  0  0  0  0
   27.2030   43.1180    8.6140 C   0  0  0  0  0  0  0  0  0  0  0  0
   29.3160   43.2530    7.5750 O   0  0  0  0  0  0  0  0  0  0  0  0
   32.3820   40.6130    6.9870 O   0  0  0  0  0  0  0  0  0  0  0  0
   33.2630   40.3960    6.5490 H   0  0  0  0  0  0  0  0  0  0  0  0
   31.9870   43.3880    8.9840 O   0  0  0  0  0  0  0  0  0  0  0  0
   32.4350   43.7910    9.7470 H   0  0  0  0  0  0  0  0  0  0  0  0
   31.0480   43.1400    3.7080 O   0  0  0  0  0  0  0  0  0  0  0  0
   29.7340   43.4700    4.0560 C   0  0  0  0  0  0  0  0  0  0  0  0
   28.8950   42.2460    4.0620 C   0  0  0  0  0  0  0  0  0  0  0  0
   29.1000   41.0950    4.8170 C   0  0  0  0  0  0  0  0  0  0  0  0
   27.7770   41.9890    3.3600 N   0  0  0  0  0  0  0  0  0  0  0  0
   28.1180   40.1860    4.5570 N   0  0  0  0  0  0  0  0  0  0  0  0
   27.3550   40.7800    3.6760 N   0  0  0  0  0  0  0  0  0  0  0  0
   28.0450   38.9050    5.1770 C   0  0  0  0  0  0  0  0  0  0  0  0
   28.8390   37.8330    4.8830 N   0  0  0  0  0  0  0  0  0  0  0  0
   27.2030   38.4740    6.1680 C   0  0  0  0  0  0  0  0  0  0  0  0
   28.4820   36.8070    5.6670 C   0  0  0  0  0  0  0  0  0  0  0  0
   27.4700   37.1670    6.4760 N   0  0  0  0  0  0  0  0  0  0  0  0
   26.2050   39.0880    6.8560 C   0  0  0  0  0  0  0  0  0  0  0  0
   26.7820   36.5000    7.4220 C   0  0  0  0  0  0  0  0  0  0  0  0
   25.5010   38.4670    7.7990 N   0  0  0  0  0  0  0  0  0  0  0  0
   25.9030   40.2870    6.6260 O   0  0  0  0  0  0  0  0  0  0  0  0
   27.0800   35.1830    7.7060 C   0  0  0  0  0  0  0  0  0  0  0  0
   25.7820   37.1790    8.0860 C   0  0  0  0  0  0  0  0  0  0  0  0
   26.3890   34.4710    8.6730 C   0  0  0  0  0  0  0  0  0  0  0  0
   25.1050   36.4440    9.0490 C   0  0  0  0  0  0  0  0  0  0  0  0
   25.3920   35.1260    9.3440 C   0  0  0  0  0  0  0  0  0  0  0  0
   24.4310   39.0620    8.5680 C   0  0  0  0  0  0  0  0  0  0  0  0
   23.3070   39.3740    7.6030 C   0  0  0  0  0  0  0  0  0  0  0  0
   24.7960   40.3330    9.2670 C   0  0  0  0  0  0  0  0  0  0  0  0
   29.8670   25.5550   16.9770 C   0  0  0  0  0  0  0  0  0  0  0  0
   28.3450   25.7220   17.0260 C   0  0  0  0  0  0  0  0  0  0  0  0
   27.6000   24.4070   16.8500 C   0  0  0  0  0  0  0  0  0  0  0  0
   26.1720   24.4990   17.3120 C   0  0  0  0  0  0  0  0  0  0  0  0
   26.0060   23.7180   18.6120 C   0  0  0  0  0  0  0  0  0  0  0  0
   24.7910   22.8720   18.5560 N   0  0  0  0  0  0  0  0  0  0  0  0
  1  4  1  0  0  0  0
  1  5  1  0  0  0  0
  2  1  1  0  0  0  0
  3  2  2  0  0  0  0
  6  5  1  6  0  0  0
  6  7  1  0  0  0  0
  6 29  1  0  0  0  0
  7 27  1  6  0  0  0
  8  7  1  6  0  0  0
  8 11  1  0  0  0  0
  9 14  1  6  0  0  0
  9 16  1  0  0  0  0
 10  9  1  0  0  0  0
 11  9  1  0  0  0  0
 12 20  1  6  0  0  0
 12 10  1  0  0  0  0
 13 12  1  0  0  0  0
 13 22  1  1  0  0  0
 13  8  1  0  0  0  0
 14 15  1  0  0  0  0
 16 17  2  0  0  0  0
 16 18  1  0  0  0  0
 18 19  1  0  0  0  0
 21 20  1  0  0  0  0
 22 24  1  0  0  0  0
 23 22  1  0  0  0  0
 23 25  1  0  0  0  0
 26 23  2  0  0  0  0
 28 27  1  0  0  0  0
 29 30  1  0  0  0  0
 31 32  1  0  0  0  0
 31  2  1  0  0  0  0
 32 33  1  0  0  0  0
 33 34  2  0  0  0  0
 35 37  2  0  0  0  0
 35 33  1  0  0  0  0
 36 34  1  0  0  0  0
 36 38  1  0  0  0  0
 37 36  1  0  0  0  0
 38 40  2  0  0  0  0
 39 38  1  0  0  0  0
 39 41  2  0  0  0  0
 40 42  1  0  0  0  0
 40 43  1  0  0  0  0
 41 42  1  0  0  0  0
 42 44  1  0  0  0  0
 43 45  1  0  0  0  0
 44 47  2  0  0  0  0
 44 48  1  0  0  0  0
 45 48  1  0  0  0  0
 45 52  1  0  0  0  0
 46 43  2  0  0  0  0
 47 49  1  0  0  0  0
 48 50  2  0  0  0  0
 49 51  2  0  0  0  0
 50 51  1  0  0  0  0
 52 54  1  0  0  0  0
 53 52  1  0  0  0  0
 55 56  1  0  0  0  0
 57 56  1  0  0  0  0
 57 58  1  0  0  0  0
 58 59  1  0  0  0  0
 60 59  1  0  0  0  0
M  END
>  <REMARK>
 VINA RESULT:    -4.442      7.175     14.443
 INTER + INTRA:         -15.056
 INTER:                  -8.844
 INTRA:                  -6.212
 UNBOUND:                -7.109
 SMILES CC(=O)N[C@@H]1[C@@H](O)C[C@](O)(C(=O)O)O[C@H]1C(O)[C@H](O)CNC(=O)OCc1cn(-c2ncn3c2c(=O)n(C(C)C)c2ccccc23)nn1
 SMILES IDX 21 1 22 2 23 3 20 5 18 6 16 7 15 8 9 9 8 10 14 11 6 12 5 13
 SMILES IDX 10 14 11 16 12 17 13 18 7 20 4 22 2 23 1 25 3 26 17 27 19 29
 SMILES IDX 24 31 25 32 26 33 27 34 47 35 28 36 46 37 29 38 30 39 33 40
 SMILES IDX 31 41 32 42 34 43 45 44 36 45 35 46 44 47 40 48 43 49 41 50
 SMILES IDX 42 51 37 52 38 53 39 54
 H PARENT 21 4 10 15 13 19 7 21 4 24 17 28 19 30
 Flexibility Score: inf
  4 active torsions:
  status: ('A' for Active; 'I' for Inactive)
    1  A    between atoms: CA   and  CB  
    2  A    between atoms: CB   and  CG  
    3  A    between atoms: CG   and  CD  
    4  A    between atoms: CD   and  CE  

>  <TORSDO>
F 16

>  <BEGIN_>
RES LYS A 131

$$$$
ligand_89_pose_11_2HRL.pdbqt
 OpenBabel07062320523D

  6  5  0  0  0  0  0  0  0  0999 V2000
   33.1930   34.6630    9.2900 C   0  0  0  0  0  0  0  0  0  0  0  0
   32.0600   35.3600   10.0340 C   0  0  0  0  0  0  0  0  0  0  0  0
   30.7300   35.2660    9.3310 C   0  0  0  0  0  0  0  0  0  0  0  0
   29.7530   34.4300   10.1430 C   0  0  0  0  0  0  0  0  0  0  0  0
   29.0910   35.2750   11.2150 C   0  0  0  0  0  0  0  0  0  0  0  0
   29.4620   34.8000   12.5770 N   0  0  0  0  0  0  0  0  0  0  0  0
  1  2  1  0  0  0  0
  3  2  1  0  0  0  0
  3  4  1  0  0  0  0
  4  5  1  0  0  0  0
  5  6  1  0  0  0  0
M  END
>  <EGIN_R>
ES LYS A 135

>  <REMARK>
  4 active torsions:
  status: ('A' for Active; 'I' for Inactive)
    5  A    between atoms: CA   and  CB  
    6  A    between atoms: CB   and  CG  
    7  A    between atoms: CG   and  CD  
    8  A    between atoms: CD   and  CE  

$$$$
