ligand_46_pose_13_2HRL.pdbqt
 OpenBabel07062320523D

 50 51  0  0  1  0  0  0  0  0999 V2000
   26.0290   39.7700    6.0520 N   0  0  0  0  0  0  0  0  0  0  0  0
   24.7820   40.1280    6.6040 C   0  0  0  0  0  0  0  0  0  0  0  0
   24.3000   41.2650    6.4730 O   0  0  0  0  0  0  0  0  0  0  0  0
   26.3320   38.7760    6.2260 H   0  0  0  0  0  0  0  0  0  0  0  0
   26.8450   40.6770    5.3050 C   0  0  0  0  0  0  0  0  0  0  0  0
   28.0850   39.9640    4.8160 C   0  0  2  0  0  0  0  0  0  0  0  0
   28.8420   39.3350    5.9510 C   0  0  2  0  0  0  0  0  0  0  0  0
   29.9900   40.1800    6.4500 C   0  0  2  0  0  0  0  0  0  0  0  0
   32.2550   39.7360    6.8210 C   0  0  2  0  0  0  0  0  0  0  0  0
   32.2590   41.0670    7.5890 C   0  0  0  0  0  0  0  0  0  0  0  0
   31.1990   39.7900    5.9610 O   0  0  0  0  0  0  0  0  0  0  0  0
   31.1190   40.9020    8.5930 C   0  0  1  0  0  0  0  0  0  0  0  0
   29.8730   40.3710    7.9220 C   0  0  1  0  0  0  0  0  0  0  0  0
   32.2590   38.6710    7.6980 O   0  0  0  0  0  0  0  0  0  0  0  0
   31.7620   38.9270    8.5040 H   0  0  0  0  0  0  0  0  0  0  0  0
   33.5080   39.7330    5.9850 C   0  0  0  0  0  0  0  0  0  0  0  0
   33.7580   40.6530    5.1780 O   0  0  0  0  0  0  0  0  0  0  0  0
   34.4140   38.6970    6.0990 O   0  0  0  0  0  0  0  0  0  0  0  0
   35.0220   38.5000    5.3210 H   0  0  0  0  0  0  0  0  0  0  0  0
   31.5960   40.0230    9.5650 O   0  0  0  0  0  0  0  0  0  0  0  0
   31.9830   40.5400   10.3050 H   0  0  0  0  0  0  0  0  0  0  0  0
   28.7620   41.3160    8.1380 N   0  0  0  0  0  0  0  0  0  0  0  0
   27.6960   41.0490    9.0310 C   0  0  0  0  0  0  0  0  0  0  0  0
   28.7540   42.2330    7.6060 H   0  0  0  0  0  0  0  0  0  0  0  0
   26.5580   41.9680    9.2800 C   0  0  0  0  0  0  0  0  0  0  0  0
   27.7110   39.9610    9.6580 O   0  0  0  0  0  0  0  0  0  0  0  0
   29.2350   38.0620    5.5870 O   0  0  0  0  0  0  0  0  0  0  0  0
   28.6090   37.7280    4.9010 H   0  0  0  0  0  0  0  0  0  0  0  0
   28.8360   40.9300    4.1460 O   0  0  0  0  0  0  0  0  0  0  0  0
   29.4840   41.3840    4.7290 H   0  0  0  0  0  0  0  0  0  0  0  0
   24.0360   39.1990    7.3260 O   0  0  0  0  0  0  0  0  0  0  0  0
   24.1860   39.1220    8.7240 C   0  0  0  0  0  0  0  0  0  0  0  0
   24.8870   37.8800    9.1320 C   0  0  0  0  0  0  0  0  0  0  0  0
   25.1190   36.7870    8.3430 C   0  0  0  0  0  0  0  0  0  0  0  0
   25.4040   37.6210   10.3370 N   0  0  0  0  0  0  0  0  0  0  0  0
   25.7750   35.8860    9.0920 N   0  0  0  0  0  0  0  0  0  0  0  0
   25.9350   36.4230   10.3070 N   0  0  0  0  0  0  0  0  0  0  0  0
   26.2450   34.5750    8.7240 C   0  0  0  0  0  0  0  0  0  0  0  0
   27.7260   34.5570    8.5780 C   0  0  0  0  0  0  0  0  0  0  0  0
   28.3530   35.1920    7.5130 C   0  0  0  0  0  0  0  0  0  0  0  0
   28.5380   33.9180    9.4820 C   0  0  0  0  0  0  0  0  0  0  0  0
   29.7200   35.1710    7.3840 C   0  0  0  0  0  0  0  0  0  0  0  0
   29.9160   33.8910    9.3610 C   0  0  0  0  0  0  0  0  0  0  0  0
   30.5220   34.5250    8.3000 C   0  0  0  0  0  0  0  0  0  0  0  0
   29.8670   25.5550   16.9770 C   0  0  0  0  0  0  0  0  0  0  0  0
   28.3450   25.7220   17.0260 C   0  0  0  0  0  0  0  0  0  0  0  0
   27.5990   24.4230   16.7610 C   0  0  0  0  0  0  0  0  0  0  0  0
   26.8890   23.9180   17.9860 C   0  0  0  0  0  0  0  0  0  0  0  0
   25.7630   22.9760   17.5700 C   0  0  0  0  0  0  0  0  0  0  0  0
   24.5880   23.7480   17.1030 N   0  0  0  0  0  0  0  0  0  0  0  0
  1  4  1  0  0  0  0
  1  2  1  0  0  0  0
  2 31  1  0  0  0  0
  3  2  2  0  0  0  0
  5  1  1  0  0  0  0
  6  5  1  1  0  0  0
  6  7  1  0  0  0  0
  7 27  1  6  0  0  0
  8  7  1  1  0  0  0
  8 13  1  0  0  0  0
  9 16  1  6  0  0  0
  9 10  1  0  0  0  0
  9 14  1  0  0  0  0
 10 12  1  0  0  0  0
 11  8  1  0  0  0  0
 11  9  1  0  0  0  0
 12 20  1  1  0  0  0
 13 22  1  6  0  0  0
 13 12  1  0  0  0  0
 14 15  1  0  0  0  0
 16 18  1  0  0  0  0
 17 16  2  0  0  0  0
 19 18  1  0  0  0  0
 20 21  1  0  0  0  0
 22 23  1  0  0  0  0
 23 25  1  0  0  0  0
 23 26  2  0  0  0  0
 24 22  1  0  0  0  0
 28 27  1  0  0  0  0
 29 30  1  0  0  0  0
 29  6  1  0  0  0  0
 31 32  1  0  0  0  0
 32 33  1  0  0  0  0
 33 35  1  0  0  0  0
 34 36  1  0  0  0  0
 34 33  2  0  0  0  0
 36 37  1  0  0  0  0
 37 35  2  0  0  0  0
 38 36  1  0  0  0  0
 39 38  1  0  0  0  0
 39 41  2  0  0  0  0
 40 39  1  0  0  0  0
 42 40  2  0  0  0  0
 42 44  1  0  0  0  0
 43 41  1  0  0  0  0
 44 43  2  0  0  0  0
 45 46  1  0  0  0  0
 47 46  1  0  0  0  0
 47 48  1  0  0  0  0
 49 48  1  0  0  0  0
 50 49  1  0  0  0  0
M  END
>  <REMARK>
 VINA RESULT:    -5.258      3.113      6.722
 INTER + INTRA:         -14.698
 INTER:                 -10.461
 INTRA:                  -4.237
 UNBOUND:                -5.290
 SMILES CC(=O)N[C@@H]1[C@@H](O)C[C@](O)(C(=O)O)O[C@H]1C(O)[C@H](O)CNC(=O)OCc1cn(Cc2ccccc2)nn1
 SMILES IDX 21 1 22 2 23 3 20 5 18 6 16 7 15 8 9 9 8 10 14 11 6 12 5 13
 SMILES IDX 10 14 11 16 12 17 13 18 7 20 4 22 2 23 1 25 3 26 17 27 19 29
 SMILES IDX 24 31 25 32 26 33 27 34 37 35 28 36 36 37 29 38 30 39 31 40
 SMILES IDX 35 41 32 42 34 43 33 44
 H PARENT 21 4 10 15 13 19 7 21 4 24 17 28 19 30
 Flexibility Score: inf
  4 active torsions:
  status: ('A' for Active; 'I' for Inactive)
    1  A    between atoms: CA   and  CB  
    2  A    between atoms: CB   and  CG  
    3  A    between atoms: CG   and  CD  
    4  A    between atoms: CD   and  CE  

>  <TORSDO>
F 16

>  <BEGIN_>
RES LYS A 131

$$$$
ligand_46_pose_13_2HRL.pdbqt
 OpenBabel07062320523D

  6  5  0  0  0  0  0  0  0  0999 V2000
   33.1930   34.6630    9.2900 C   0  0  0  0  0  0  0  0  0  0  0  0
   32.0600   35.3600   10.0340 C   0  0  0  0  0  0  0  0  0  0  0  0
   32.3690   35.6340   11.4830 C   0  0  0  0  0  0  0  0  0  0  0  0
   31.0900   35.7000   12.3020 C   0  0  0  0  0  0  0  0  0  0  0  0
   30.2990   36.9470   11.9550 C   0  0  0  0  0  0  0  0  0  0  0  0
   30.9680   38.1700   12.4810 N   0  0  0  0  0  0  0  0  0  0  0  0
  1  2  1  0  0  0  0
  2  3  1  0  0  0  0
  3  4  1  0  0  0  0
  5  4  1  0  0  0  0
  5  6  1  0  0  0  0
M  END
>  <EGIN_R>
ES LYS A 135

>  <REMARK>
  4 active torsions:
  status: ('A' for Active; 'I' for Inactive)
    5  A    between atoms: CA   and  CB  
    6  A    between atoms: CB   and  CG  
    7  A    between atoms: CG   and  CD  
    8  A    between atoms: CD   and  CE  

$$$$
