ligand_28_pose_17_2HRL.pdbqt
 OpenBabel07062320523D

 53 55  0  0  1  0  0  0  0  0999 V2000
   25.9130   40.2540    4.6820 N   0  0  0  0  0  0  0  0  0  0  0  0
   25.7330   41.2090    5.7200 C   0  0  0  0  0  0  0  0  0  0  0  0
   26.7460   41.6300    6.3670 O   0  0  0  0  0  0  0  0  0  0  0  0
   25.0750   39.9320    4.1750 H   0  0  0  0  0  0  0  0  0  0  0  0
   27.2580   39.8090    4.4160 C   0  0  0  0  0  0  0  0  0  0  0  0
   27.7280   38.7350    5.3440 C   0  0  2  0  0  0  0  0  0  0  0  0
   29.1700   38.9130    5.7620 C   0  0  2  0  0  0  0  0  0  0  0  0
   29.4430   38.1850    7.0750 C   0  0  2  0  0  0  0  0  0  0  0  0
   28.1030   38.5630    8.9310 C   0  0  2  0  0  0  0  0  0  0  0  0
   29.2490   38.4440    9.9090 C   0  0  0  0  0  0  0  0  0  0  0  0
   28.2990   37.8950    7.7570 O   0  0  0  0  0  0  0  0  0  0  0  0
   30.5680   38.1770    9.2130 C   0  0  1  0  0  0  0  0  0  0  0  0
   30.5070   38.8840    7.8790 C   0  0  1  0  0  0  0  0  0  0  0  0
   27.7890   39.9160    8.7010 O   0  0  0  0  0  0  0  0  0  0  0  0
   28.4930   40.3870    8.2180 H   0  0  0  0  0  0  0  0  0  0  0  0
   26.9090   37.9750    9.5980 C   0  0  0  0  0  0  0  0  0  0  0  0
   25.7620   38.4880    9.4260 O   0  0  0  0  0  0  0  0  0  0  0  0
   26.9640   36.8660   10.4250 O   0  0  0  0  0  0  0  0  0  0  0  0
   27.4000   36.0170   10.0520 H   0  0  0  0  0  0  0  0  0  0  0  0
   31.6480   38.5860    9.9870 O   0  0  0  0  0  0  0  0  0  0  0  0
   31.5030   39.5360   10.2180 H   0  0  0  0  0  0  0  0  0  0  0  0
   31.7390   38.8930    7.1740 N   0  0  0  0  0  0  0  0  0  0  0  0
   32.4830   40.0810    6.9550 C   0  0  0  0  0  0  0  0  0  0  0  0
   32.0960   37.9620    6.8070 H   0  0  0  0  0  0  0  0  0  0  0  0
   33.7810   40.0560    6.2080 C   0  0  0  0  0  0  0  0  0  0  0  0
   31.9970   41.1440    7.4190 O   0  0  0  0  0  0  0  0  0  0  0  0
   29.3760   40.2710    6.0000 O   0  0  0  0  0  0  0  0  0  0  0  0
   30.3240   40.4290    6.2330 H   0  0  0  0  0  0  0  0  0  0  0  0
   27.5730   37.5130    4.6900 O   0  0  0  0  0  0  0  0  0  0  0  0
   27.7700   37.5780    3.7240 H   0  0  0  0  0  0  0  0  0  0  0  0
   24.4850   41.7140    6.0690 O   0  0  0  0  0  0  0  0  0  0  0  0
   24.2980   42.2020    7.3930 C   0  0  0  0  0  0  0  0  0  0  0  0
   23.2710   41.4030    8.0990 C   0  0  0  0  0  0  0  0  0  0  0  0
   22.8980   40.1350    7.7570 C   0  0  0  0  0  0  0  0  0  0  0  0
   22.5340   41.7390    9.1570 N   0  0  0  0  0  0  0  0  0  0  0  0
   21.9480   39.7400    8.6150 N   0  0  0  0  0  0  0  0  0  0  0  0
   21.7370   40.7220    9.4590 N   0  0  0  0  0  0  0  0  0  0  0  0
   21.2870   38.4530    8.5950 C   0  0  0  0  0  0  0  0  0  0  0  0
   22.1970   37.4850    9.2690 C   0  0  0  0  0  0  0  0  0  0  0  0
   22.8190   36.5220    8.5080 C   0  0  0  0  0  0  0  0  0  0  0  0
   22.4330   37.5240   10.6210 C   0  0  0  0  0  0  0  0  0  0  0  0
   23.6730   35.6090    9.1160 C   0  0  0  0  0  0  0  0  0  0  0  0
   23.2820   36.6150   11.2200 C   0  0  0  0  0  0  0  0  0  0  0  0
   23.9070   35.6530   10.4750 C   0  0  0  0  0  0  0  0  0  0  0  0
   23.6590   36.4710   12.5420 O   0  0  0  0  0  0  0  0  0  0  0  0
   24.6940   34.8760   11.3000 O   0  0  0  0  0  0  0  0  0  0  0  0
   24.7090   35.5290   12.5620 C   0  0  0  0  0  0  0  0  0  0  0  0
   29.8670   25.5550   16.9770 C   0  0  0  0  0  0  0  0  0  0  0  0
   28.3450   25.7220   17.0260 C   0  0  0  0  0  0  0  0  0  0  0  0
   27.6000   24.4160   16.7980 C   0  0  0  0  0  0  0  0  0  0  0  0
   26.5310   24.1860   17.8300 C   0  0  0  0  0  0  0  0  0  0  0  0
   25.1580   24.3240   17.1810 C   0  0  0  0  0  0  0  0  0  0  0  0
   24.6310   25.6960   17.3700 N   0  0  0  0  0  0  0  0  0  0  0  0
  1  2  1  0  0  0  0
  2 31  1  0  0  0  0
  2  3  2  0  0  0  0
  4  1  1  0  0  0  0
  5  1  1  0  0  0  0
  6  5  1  6  0  0  0
  6  7  1  0  0  0  0
  7 27  1  1  0  0  0
  8  7  1  6  0  0  0
  8 11  1  0  0  0  0
  8 13  1  0  0  0  0
  9 14  1  6  0  0  0
  9 16  1  0  0  0  0
  9 10  1  0  0  0  0
 11  9  1  0  0  0  0
 12 10  1  0  0  0  0
 12 20  1  1  0  0  0
 13 22  1  6  0  0  0
 13 12  1  0  0  0  0
 15 14  1  0  0  0  0
 16 18  1  0  0  0  0
 17 16  2  0  0  0  0
 19 18  1  0  0  0  0
 20 21  1  0  0  0  0
 23 22  1  0  0  0  0
 23 26  2  0  0  0  0
 24 22  1  0  0  0  0
 25 23  1  0  0  0  0
 27 28  1  0  0  0  0
 29  6  1  0  0  0  0
 30 29  1  0  0  0  0
 31 32  1  0  0  0  0
 32 33  1  0  0  0  0
 33 35  1  0  0  0  0
 34 33  2  0  0  0  0
 34 36  1  0  0  0  0
 35 37  2  0  0  0  0
 36 37  1  0  0  0  0
 38 36  1  0  0  0  0
 38 39  1  0  0  0  0
 39 41  2  0  0  0  0
 40 42  2  0  0  0  0
 40 39  1  0  0  0  0
 41 43  1  0  0  0  0
 42 44  1  0  0  0  0
 43 45  1  0  0  0  0
 44 43  2  0  0  0  0
 44 46  1  0  0  0  0
 45 47  1  0  0  0  0
 46 47  1  0  0  0  0
 48 49  1  0  0  0  0
 50 49  1  0  0  0  0
 50 51  1  0  0  0  0
 52 53  1  0  0  0  0
 52 51  1  0  0  0  0
M  END
>  <REMARK>
 VINA RESULT:    -4.730      4.190      7.732
 INTER + INTRA:         -14.466
 INTER:                  -7.700
 INTRA:                  -6.766
 UNBOUND:                -6.003
 SMILES CC(=O)N[C@@H]1[C@@H](O)C[C@](O)(C(=O)O)O[C@H]1C(O)[C@H](O)CNC(=O)OCc1cn(Cc2ccc3c(c2)OCO3)nn1
 SMILES IDX 21 1 22 2 23 3 20 5 18 6 16 7 15 8 9 9 8 10 14 11 6 12 5 13
 SMILES IDX 10 14 11 16 12 17 13 18 7 20 4 22 2 23 1 25 3 26 17 27 19 29
 SMILES IDX 24 31 25 32 26 33 27 34 40 35 28 36 39 37 29 38 30 39 31 40
 SMILES IDX 35 41 32 42 34 43 33 44 36 45 38 46 37 47
 H PARENT 21 4 10 15 13 19 7 21 4 24 17 28 19 30
 Flexibility Score: inf
  4 active torsions:
  status: ('A' for Active; 'I' for Inactive)
    1  A    between atoms: CA   and  CB  
    2  A    between atoms: CB   and  CG  
    3  A    between atoms: CG   and  CD  
    4  A    between atoms: CD   and  CE  

>  <TORSDO>
F 16

>  <BEGIN_>
RES LYS A 131

$$$$
ligand_28_pose_17_2HRL.pdbqt
 OpenBabel07062320523D

  6  5  0  0  0  0  0  0  0  0999 V2000
   33.1930   34.6630    9.2900 C   0  0  0  0  0  0  0  0  0  0  0  0
   32.0600   35.3600   10.0340 C   0  0  0  0  0  0  0  0  0  0  0  0
   30.7390   34.6420    9.9300 C   0  0  0  0  0  0  0  0  0  0  0  0
   30.2980   34.5370    8.4790 C   0  0  0  0  0  0  0  0  0  0  0  0
   28.7840   34.5280    8.3820 C   0  0  0  0  0  0  0  0  0  0  0  0
   28.1790   33.7550    9.5010 N   0  0  0  0  0  0  0  0  0  0  0  0
  1  2  1  0  0  0  0
  3  2  1  0  0  0  0
  4  3  1  0  0  0  0
  5  4  1  0  0  0  0
  5  6  1  0  0  0  0
M  END
>  <EGIN_R>
ES LYS A 135

>  <REMARK>
  4 active torsions:
  status: ('A' for Active; 'I' for Inactive)
    5  A    between atoms: CA   and  CB  
    6  A    between atoms: CB   and  CG  
    7  A    between atoms: CG   and  CD  
    8  A    between atoms: CD   and  CE  

$$$$
