ligand_19_pose_6_2HRL.pdbqt
 OpenBabel07062320523D

 49 49  0  0  1  0  0  0  0  0999 V2000
   29.1890   30.4640   17.4300 N   0  0  0  0  0  0  0  0  0  0  0  0
   28.4370   29.9900   16.3310 C   0  0  0  0  0  0  0  0  0  0  0  0
   28.8380   30.1630   15.1710 O   0  0  0  0  0  0  0  0  0  0  0  0
   28.7720   30.2780   18.3840 H   0  0  0  0  0  0  0  0  0  0  0  0
   30.4530   31.1620   17.3290 C   0  0  0  0  0  0  0  0  0  0  0  0
   30.2710   32.5930   16.9930 C   0  0  2  0  0  0  0  0  0  0  0  0
   30.9770   33.0830   15.7480 C   0  0  2  0  0  0  0  0  0  0  0  0
   30.0820   33.6700   14.6990 C   0  0  2  0  0  0  0  0  0  0  0  0
   31.7420   35.1210   13.9580 C   0  0  2  0  0  0  0  0  0  0  0  0
   31.3530   36.0920   15.0040 C   0  0  0  0  0  0  0  0  0  0  0  0
   30.8080   34.1760   13.6230 O   0  0  0  0  0  0  0  0  0  0  0  0
   29.9740   35.9810   15.5450 C   0  0  1  0  0  0  0  0  0  0  0  0
   29.1860   34.7870   15.1300 C   0  0  1  0  0  0  0  0  0  0  0  0
   32.9140   34.4080   14.3120 O   0  0  0  0  0  0  0  0  0  0  0  0
   32.7850   33.4350   14.2210 H   0  0  0  0  0  0  0  0  0  0  0  0
   32.1030   35.8280   12.6960 C   0  0  0  0  0  0  0  0  0  0  0  0
   31.3440   36.7330   12.2080 O   0  0  0  0  0  0  0  0  0  0  0  0
   33.2560   35.5700   11.9710 O   0  0  0  0  0  0  0  0  0  0  0  0
   33.2720   34.7140   11.4060 H   0  0  0  0  0  0  0  0  0  0  0  0
   30.0540   35.9830   16.9410 O   0  0  0  0  0  0  0  0  0  0  0  0
   30.9320   35.5950   17.2470 H   0  0  0  0  0  0  0  0  0  0  0  0
   28.2690   35.0310   14.0420 N   0  0  0  0  0  0  0  0  0  0  0  0
   27.0020   34.4440   13.9600 C   0  0  0  0  0  0  0  0  0  0  0  0
   28.5890   35.6750   13.2940 H   0  0  0  0  0  0  0  0  0  0  0  0
   26.0390   34.6780   12.8540 C   0  0  0  0  0  0  0  0  0  0  0  0
   26.6710   33.6760   14.8830 O   0  0  0  0  0  0  0  0  0  0  0  0
   31.4160   31.8450   15.1390 O   0  0  0  0  0  0  0  0  0  0  0  0
   30.7290   31.1920   15.4740 H   0  0  0  0  0  0  0  0  0  0  0  0
   30.2650   33.5000   18.0100 O   0  0  0  0  0  0  0  0  0  0  0  0
   29.3960   33.8950   18.1750 H   0  0  0  0  0  0  0  0  0  0  0  0
   27.2160   29.3110   16.5440 O   0  0  0  0  0  0  0  0  0  0  0  0
   26.0950   30.0160   17.0770 C   0  0  0  0  0  0  0  0  0  0  0  0
   24.9820   29.8890   16.1160 C   0  0  0  0  0  0  0  0  0  0  0  0
   24.9890   30.3300   14.8030 C   0  0  0  0  0  0  0  0  0  0  0  0
   23.7750   29.3450   16.3200 N   0  0  0  0  0  0  0  0  0  0  0  0
   23.7940   30.0360   14.2700 N   0  0  0  0  0  0  0  0  0  0  0  0
   23.0830   29.4450   15.2020 N   0  0  0  0  0  0  0  0  0  0  0  0
   23.4030   30.3330   12.9100 C   0  0  0  0  0  0  0  0  0  0  0  0
   22.5190   29.2140   12.4130 C   0  0  0  0  0  0  0  0  0  0  0  0
   21.2740   29.7270   12.0350 O   0  0  0  0  0  0  0  0  0  0  0  0
   20.1070   29.1790   12.4820 C   0  0  0  0  0  0  0  0  0  0  0  0
   19.5710   29.5640   13.5370 O   0  0  0  0  0  0  0  0  0  0  0  0
   19.4320   28.0850   11.7010 C   0  0  0  0  0  0  0  0  0  0  0  0
   29.8670   25.5550   16.9770 C   0  0  0  0  0  0  0  0  0  0  0  0
   28.3450   25.7220   17.0260 C   0  0  0  0  0  0  0  0  0  0  0  0
   27.6020   24.3980   16.9310 C   0  0  0  0  0  0  0  0  0  0  0  0
   26.1490   24.5370   17.2910 C   0  0  0  0  0  0  0  0  0  0  0  0
   26.0120   25.4340   18.5180 C   0  0  0  0  0  0  0  0  0  0  0  0
   25.1420   26.5960   18.2160 N   0  0  0  0  0  0  0  0  0  0  0  0
  1  4  1  0  0  0  0
  2 31  1  0  0  0  0
  2  1  1  0  0  0  0
  3  2  2  0  0  0  0
  5  1  1  0  0  0  0
  6  5  1  1  0  0  0
  6 29  1  0  0  0  0
  7 27  1  6  0  0  0
  7  6  1  0  0  0  0
  8 13  1  0  0  0  0
  8  7  1  1  0  0  0
  9 16  1  6  0  0  0
  9 14  1  0  0  0  0
  9 10  1  0  0  0  0
 10 12  1  0  0  0  0
 11  9  1  0  0  0  0
 11  8  1  0  0  0  0
 12 20  1  1  0  0  0
 13 22  1  6  0  0  0
 13 12  1  0  0  0  0
 15 14  1  0  0  0  0
 17 16  2  0  0  0  0
 18 16  1  0  0  0  0
 19 18  1  0  0  0  0
 20 21  1  0  0  0  0
 23 22  1  0  0  0  0
 23 26  2  0  0  0  0
 24 22  1  0  0  0  0
 25 23  1  0  0  0  0
 27 28  1  0  0  0  0
 29 30  1  0  0  0  0
 31 32  1  0  0  0  0
 33 35  1  0  0  0  0
 33 32  1  0  0  0  0
 34 33  2  0  0  0  0
 36 34  1  0  0  0  0
 36 37  1  0  0  0  0
 37 35  2  0  0  0  0
 38 36  1  0  0  0  0
 39 38  1  0  0  0  0
 40 39  1  0  0  0  0
 40 41  1  0  0  0  0
 41 42  2  0  0  0  0
 43 41  1  0  0  0  0
 44 45  1  0  0  0  0
 46 45  1  0  0  0  0
 46 47  1  0  0  0  0
 47 48  1  0  0  0  0
 49 48  1  0  0  0  0
M  END
>  <REMARK>
 VINA RESULT:    -4.206      2.993      6.593
 INTER + INTRA:         -14.076
 INTER:                  -9.201
 INTRA:                  -4.876
 UNBOUND:                -6.059
 SMILES CC(=O)N[C@@H]1[C@@H](O)C[C@](O)(C(=O)O)O[C@H]1C(O)[C@H](O)CNC(=O)OCc1cn(CCOC(C)=O)nn1
 SMILES IDX 21 1 22 2 23 3 20 5 18 6 16 7 15 8 9 9 8 10 14 11 6 12 5 13
 SMILES IDX 10 14 11 16 12 17 13 18 7 20 4 22 2 23 1 25 3 26 17 27 19 29
 SMILES IDX 24 31 25 32 26 33 27 34 36 35 28 36 35 37 29 38 30 39 31 40
 SMILES IDX 32 41 34 42 33 43
 H PARENT 21 4 10 15 13 19 7 21 4 24 17 28 19 30
 Flexibility Score: inf
  4 active torsions:
  status: ('A' for Active; 'I' for Inactive)
    1  A    between atoms: CA   and  CB  
    2  A    between atoms: CB   and  CG  
    3  A    between atoms: CG   and  CD  
    4  A    between atoms: CD   and  CE  

>  <TORSDO>
F 18

>  <BEGIN_>
RES LYS A 131

$$$$
ligand_19_pose_6_2HRL.pdbqt
 OpenBabel07062320523D

  6  5  0  0  0  0  0  0  0  0999 V2000
   33.1930   34.6630    9.2900 C   0  0  0  0  0  0  0  0  0  0  0  0
   32.0600   35.3600   10.0340 C   0  0  0  0  0  0  0  0  0  0  0  0
   30.7880   35.4640    9.2330 C   0  0  0  0  0  0  0  0  0  0  0  0
   29.9770   34.1820    9.3450 C   0  0  0  0  0  0  0  0  0  0  0  0
   28.7550   34.3990   10.2170 C   0  0  0  0  0  0  0  0  0  0  0  0
   27.5480   33.7660    9.6170 N   0  0  0  0  0  0  0  0  0  0  0  0
  1  2  1  0  0  0  0
  3  4  1  0  0  0  0
  3  2  1  0  0  0  0
  4  5  1  0  0  0  0
  6  5  1  0  0  0  0
M  END
>  <EGIN_R>
ES LYS A 135

>  <REMARK>
  4 active torsions:
  status: ('A' for Active; 'I' for Inactive)
    5  A    between atoms: CA   and  CB  
    6  A    between atoms: CB   and  CG  
    7  A    between atoms: CG   and  CD  
    8  A    between atoms: CD   and  CE  

$$$$
