ligand_18_pose_2_2HRL.pdbqt
 OpenBabel07062320523D

 54 55  0  0  1  0  0  0  0  0999 V2000
   29.4100   26.9400   20.2910 N   0  0  0  0  0  0  0  0  0  0  0  0
   28.1770   27.6050   20.1270 C   0  0  0  0  0  0  0  0  0  0  0  0
   27.8210   28.4310   21.0030 O   0  0  0  0  0  0  0  0  0  0  0  0
   29.6860   26.2570   19.5510 H   0  0  0  0  0  0  0  0  0  0  0  0
   30.3190   27.1340   21.4040 C   0  0  0  0  0  0  0  0  0  0  0  0
   31.6060   27.7600   20.9430 C   0  0  2  0  0  0  0  0  0  0  0  0
   31.5710   29.2460   20.8260 C   0  0  1  0  0  0  0  0  0  0  0  0
   32.7330   30.0140   21.3310 C   0  0  2  0  0  0  0  0  0  0  0  0
   34.3540   29.7700   23.0000 C   0  0  2  0  0  0  0  0  0  0  0  0
   34.9530   30.9340   22.2320 C   0  0  0  0  0  0  0  0  0  0  0  0
   33.2490   29.2280   22.4140 O   0  0  0  0  0  0  0  0  0  0  0  0
   33.9080   31.9870   22.1050 C   0  0  1  0  0  0  0  0  0  0  0  0
   32.5160   31.3540   21.9080 C   0  0  1  0  0  0  0  0  0  0  0  0
   34.0890   30.2730   24.2880 O   0  0  0  0  0  0  0  0  0  0  0  0
   34.1280   29.5160   24.9350 H   0  0  0  0  0  0  0  0  0  0  0  0
   35.3550   28.6820   23.1530 C   0  0  0  0  0  0  0  0  0  0  0  0
   36.5230   28.9760   23.4810 O   0  0  0  0  0  0  0  0  0  0  0  0
   35.0310   27.3450   22.9410 O   0  0  0  0  0  0  0  0  0  0  0  0
   34.2840   26.9670   23.5260 H   0  0  0  0  0  0  0  0  0  0  0  0
   33.8920   32.8900   23.1460 O   0  0  0  0  0  0  0  0  0  0  0  0
   34.2300   32.4820   23.9820 H   0  0  0  0  0  0  0  0  0  0  0  0
   31.7670   32.3060   21.1770 N   0  0  0  0  0  0  0  0  0  0  0  0
   30.5910   32.8600   21.7260 C   0  0  0  0  0  0  0  0  0  0  0  0
   32.0530   32.6190   20.2400 H   0  0  0  0  0  0  0  0  0  0  0  0
   29.7650   33.8680   20.9920 C   0  0  0  0  0  0  0  0  0  0  0  0
   30.1570   32.5350   22.8820 O   0  0  0  0  0  0  0  0  0  0  0  0
   30.9630   29.7360   19.6790 O   0  0  0  0  0  0  0  0  0  0  0  0
   30.0750   29.3960   19.5160 H   0  0  0  0  0  0  0  0  0  0  0  0
   32.1860   27.1330   19.8480 O   0  0  0  0  0  0  0  0  0  0  0  0
   31.6570   26.3750   19.5080 H   0  0  0  0  0  0  0  0  0  0  0  0
   27.3410   27.3780   19.0250 O   0  0  0  0  0  0  0  0  0  0  0  0
   26.3180   28.3000   18.6940 C   0  0  0  0  0  0  0  0  0  0  0  0
   26.8610   29.2440   17.6770 C   0  0  0  0  0  0  0  0  0  0  0  0
   26.7830   30.6210   17.6650 C   0  0  0  0  0  0  0  0  0  0  0  0
   27.5380   28.9330   16.5610 N   0  0  0  0  0  0  0  0  0  0  0  0
   27.4000   31.0860   16.5680 N   0  0  0  0  0  0  0  0  0  0  0  0
   27.8500   30.0380   15.9140 N   0  0  0  0  0  0  0  0  0  0  0  0
   27.5250   32.5100   16.2180 C   0  0  0  0  0  0  0  0  0  0  0  0
   28.9300   32.8910   16.4900 C   0  0  0  0  0  0  0  0  0  0  0  0
   29.1660   33.6740   17.4690 O   0  0  0  0  0  0  0  0  0  0  0  0
   30.0520   32.4560   15.7460 N   0  0  0  0  0  0  0  0  0  0  0  0
   29.8590   31.8210   14.9510 H   0  0  0  0  0  0  0  0  0  0  0  0
   31.4080   32.8520   16.0490 C   0  0  0  0  0  0  0  0  0  0  0  0
   31.7910   33.8940   15.0160 C   0  0  0  0  0  0  0  0  0  0  0  0
   32.9640   34.4750   14.7930 C   0  0  0  0  0  0  0  0  0  0  0  0
   30.7310   34.5960   13.8390 S   0  0  0  0  0  0  0  0  0  0  0  0
   33.1010   35.3930   13.8120 C   0  0  0  0  0  0  0  0  0  0  0  0
   31.9420   35.6710   13.0730 C   0  0  0  0  0  0  0  0  0  0  0  0
   29.8670   25.5550   16.9770 C   0  0  0  0  0  0  0  0  0  0  0  0
   28.3450   25.7220   17.0260 C   0  0  0  0  0  0  0  0  0  0  0  0
   27.6010   24.4030   16.8860 C   0  0  0  0  0  0  0  0  0  0  0  0
   26.1460   24.5330   17.2410 C   0  0  0  0  0  0  0  0  0  0  0  0
   25.5820   23.1600   17.5920 C   0  0  0  0  0  0  0  0  0  0  0  0
   24.1890   23.0300   17.1030 N   0  0  0  0  0  0  0  0  0  0  0  0
  1  5  1  0  0  0  0
  2  1  1  0  0  0  0
  2  3  2  0  0  0  0
  4  1  1  0  0  0  0
  6  5  1  6  0  0  0
  7 27  1  6  0  0  0
  7  6  1  0  0  0  0
  8  7  1  1  0  0  0
  8 13  1  0  0  0  0
  8 11  1  0  0  0  0
  9 16  1  1  0  0  0
  9 14  1  0  0  0  0
 10  9  1  0  0  0  0
 11  9  1  0  0  0  0
 12 10  1  0  0  0  0
 12 20  1  1  0  0  0
 13 22  1  6  0  0  0
 13 12  1  0  0  0  0
 14 15  1  0  0  0  0
 16 17  2  0  0  0  0
 18 16  1  0  0  0  0
 18 19  1  0  0  0  0
 20 21  1  0  0  0  0
 22 23  1  0  0  0  0
 23 26  2  0  0  0  0
 24 22  1  0  0  0  0
 25 23  1  0  0  0  0
 28 27  1  0  0  0  0
 29  6  1  0  0  0  0
 30 29  1  0  0  0  0
 31  2  1  0  0  0  0
 32 31  1  0  0  0  0
 33 32  1  0  0  0  0
 34 33  2  0  0  0  0
 35 33  1  0  0  0  0
 36 34  1  0  0  0  0
 37 35  2  0  0  0  0
 37 36  1  0  0  0  0
 38 39  1  0  0  0  0
 38 36  1  0  0  0  0
 39 40  2  0  0  0  0
 41 43  1  0  0  0  0
 41 39  1  0  0  0  0
 42 41  1  0  0  0  0
 44 43  1  0  0  0  0
 45 44  2  0  0  0  0
 46 44  1  0  0  0  0
 47 45  1  0  0  0  0
 48 47  2  0  0  0  0
 48 46  1  0  0  0  0
 49 50  1  0  0  0  0
 51 50  1  0  0  0  0
 51 52  1  0  0  0  0
 52 53  1  0  0  0  0
 54 53  1  0  0  0  0
M  END
>  <REMARK>
 VINA RESULT:    -4.631      5.431     12.043
 INTER + INTRA:         -15.615
 INTER:                  -9.873
 INTRA:                  -5.743
 UNBOUND:                -6.788
 SMILES CC(=O)N[C@@H]1[C@@H](O)C[C@](O)(C(=O)O)O[C@H]1C(O)[C@H](O)CNC(=O)OCc1cn(CC(=O)NCc2cccs2)nn1
 SMILES IDX 21 1 22 2 23 3 20 5 18 6 16 7 15 8 9 9 8 10 14 11 6 12 5 13
 SMILES IDX 10 14 11 16 12 17 13 18 7 20 4 22 2 23 1 25 3 26 17 27 19 29
 SMILES IDX 24 31 25 32 26 33 27 34 40 35 28 36 39 37 29 38 30 39 31 40
 SMILES IDX 32 41 33 43 34 44 35 45 38 46 36 47 37 48
 H PARENT 21 4 10 15 13 19 7 21 4 24 17 28 19 30 32 42
 Flexibility Score: inf
  4 active torsions:
  status: ('A' for Active; 'I' for Inactive)
    1  A    between atoms: CA   and  CB  
    2  A    between atoms: CB   and  CG  
    3  A    between atoms: CG   and  CD  
    4  A    between atoms: CD   and  CE  

>  <TORSDO>
F 18

>  <BEGIN_>
RES LYS A 131

$$$$
ligand_18_pose_2_2HRL.pdbqt
 OpenBabel07062320523D

  6  5  0  0  0  0  0  0  0  0999 V2000
   33.1930   34.6630    9.2900 C   0  0  0  0  0  0  0  0  0  0  0  0
   32.0600   35.3600   10.0340 C   0  0  0  0  0  0  0  0  0  0  0  0
   30.7060   34.7490    9.7800 C   0  0  0  0  0  0  0  0  0  0  0  0
   30.4970   34.5070    8.2930 C   0  0  0  0  0  0  0  0  0  0  0  0
   29.0870   34.8870    7.8850 C   0  0  0  0  0  0  0  0  0  0  0  0
   28.2070   35.0430    9.0760 N   0  0  0  0  0  0  0  0  0  0  0  0
  1  2  1  0  0  0  0
  3  2  1  0  0  0  0
  4  3  1  0  0  0  0
  5  4  1  0  0  0  0
  5  6  1  0  0  0  0
M  END
>  <EGIN_R>
ES LYS A 135

>  <REMARK>
  4 active torsions:
  status: ('A' for Active; 'I' for Inactive)
    5  A    between atoms: CA   and  CB  
    6  A    between atoms: CB   and  CG  
    7  A    between atoms: CG   and  CD  
    8  A    between atoms: CD   and  CE  

$$$$
