ligand_58_pose_11_2HRL.pdbqt
 OpenBabel07062320523D

 56 58  0  0  1  0  0  0  0  0999 V2000
   25.1840   32.2840   17.1920 N   0  0  0  0  0  0  0  0  0  0  0  0
   23.9030   32.4820   16.6320 C   0  0  0  0  0  0  0  0  0  0  0  0
   22.8820   32.4190   17.3560 O   0  0  0  0  0  0  0  0  0  0  0  0
   26.0110   32.3400   16.5630 H   0  0  0  0  0  0  0  0  0  0  0  0
   25.3600   32.0130   18.5840 C   0  0  0  0  0  0  0  0  0  0  0  0
   26.4730   32.9130   19.1230 C   0  0  2  0  0  0  0  0  0  0  0  0
   27.5360   32.9410   18.0370 C   0  0  2  0  0  0  0  0  0  0  0  0
   28.8560   32.3430   18.4320 C   0  0  2  0  0  0  0  0  0  0  0  0
   30.0310   32.5330   16.4000 C   0  0  2  0  0  0  0  0  0  0  0  0
   29.9690   31.0360   16.1900 C   0  0  0  0  0  0  0  0  0  0  0  0
   29.8230   32.9640   17.6660 O   0  0  0  0  0  0  0  0  0  0  0  0
   28.8290   30.3910   16.9180 C   0  0  1  0  0  0  0  0  0  0  0  0
   28.8760   30.8690   18.3390 C   0  0  1  0  0  0  0  0  0  0  0  0
   29.0350   33.0670   15.5810 O   0  0  0  0  0  0  0  0  0  0  0  0
   28.3260   32.3680   15.5030 H   0  0  0  0  0  0  0  0  0  0  0  0
   31.3450   33.0310   15.8510 C   0  0  0  0  0  0  0  0  0  0  0  0
   31.9280   33.9990   16.3460 O   0  0  0  0  0  0  0  0  0  0  0  0
   31.8880   32.3730   14.7720 O   0  0  0  0  0  0  0  0  0  0  0  0
   32.8440   32.6020   14.4780 H   0  0  0  0  0  0  0  0  0  0  0  0
   27.6700   30.6800   16.2560 O   0  0  0  0  0  0  0  0  0  0  0  0
   27.0880   31.2920   16.7850 H   0  0  0  0  0  0  0  0  0  0  0  0
   30.1090   30.3160   18.9340 N   0  0  0  0  0  0  0  0  0  0  0  0
   30.2020   29.9900   20.2980 C   0  0  0  0  0  0  0  0  0  0  0  0
   30.9300   30.1710   18.3080 H   0  0  0  0  0  0  0  0  0  0  0  0
   31.4630   29.4360   20.8560 C   0  0  0  0  0  0  0  0  0  0  0  0
   29.2160   30.1620   21.0650 O   0  0  0  0  0  0  0  0  0  0  0  0
   27.7560   34.3470   17.7980 O   0  0  0  0  0  0  0  0  0  0  0  0
   28.6340   34.4980   17.4140 H   0  0  0  0  0  0  0  0  0  0  0  0
   26.9160   32.2920   20.2810 O   0  0  0  0  0  0  0  0  0  0  0  0
   27.8470   32.0000   20.2320 H   0  0  0  0  0  0  0  0  0  0  0  0
   23.7270   32.7500   15.2800 O   0  0  0  0  0  0  0  0  0  0  0  0
   23.8000   34.0780   14.8370 C   0  0  0  0  0  0  0  0  0  0  0  0
   25.2110   34.4000   14.5070 C   0  0  0  0  0  0  0  0  0  0  0  0
   25.7980   34.2520   13.2470 C   0  0  0  0  0  0  0  0  0  0  0  0
   26.2030   34.8760   15.2800 N   0  0  0  0  0  0  0  0  0  0  0  0
   27.0760   34.6320   13.3160 N   0  0  0  0  0  0  0  0  0  0  0  0
   27.3030   35.0050   14.5480 N   0  0  0  0  0  0  0  0  0  0  0  0
   28.0650   34.6450   12.2480 C   0  0  0  0  0  0  0  0  0  0  0  0
   27.4450   34.8770   10.9430 C   0  0  0  0  0  0  0  0  0  0  0  0
   26.7500   36.0560   10.6480 C   0  0  0  0  0  0  0  0  0  0  0  0
   27.5540   33.9250    9.9490 C   0  0  0  0  0  0  0  0  0  0  0  0
   26.1920   36.2540    9.4040 C   0  0  0  0  0  0  0  0  0  0  0  0
   26.9850   34.1480    8.7110 C   0  0  0  0  0  0  0  0  0  0  0  0
   26.2970   35.3050    8.4080 C   0  0  0  0  0  0  0  0  0  0  0  0
   29.2490   35.4500   12.5580 C   0  0  0  0  0  0  0  0  0  0  0  0
   29.1500   36.8470   12.6760 C   0  0  0  0  0  0  0  0  0  0  0  0
   30.4730   34.8530   12.7450 C   0  0  0  0  0  0  0  0  0  0  0  0
   30.2540   37.6040   12.9740 C   0  0  0  0  0  0  0  0  0  0  0  0
   31.5930   35.6360   13.0470 C   0  0  0  0  0  0  0  0  0  0  0  0
   31.4790   37.0020   13.1600 C   0  0  0  0  0  0  0  0  0  0  0  0
   29.8670   25.5550   16.9770 C   0  0  0  0  0  0  0  0  0  0  0  0
   28.3450   25.7220   17.0260 C   0  0  0  0  0  0  0  0  0  0  0  0
   27.6120   24.4040   17.2210 C   0  0  0  0  0  0  0  0  0  0  0  0
   26.1230   24.5920   17.3140 C   0  0  0  0  0  0  0  0  0  0  0  0
   25.4480   23.2350   17.4830 C   0  0  0  0  0  0  0  0  0  0  0  0
   25.2400   22.9340   18.9190 N   0  0  0  0  0  0  0  0  0  0  0  0
  1  5  1  0  0  0  0
  2  1  1  0  0  0  0
  2  3  2  0  0  0  0
  4  1  1  0  0  0  0
  6  5  1  6  0  0  0
  6 29  1  0  0  0  0
  7 27  1  1  0  0  0
  7  6  1  0  0  0  0
  8  7  1  6  0  0  0
  9 14  1  6  0  0  0
  9 11  1  0  0  0  0
 10  9  1  0  0  0  0
 10 12  1  0  0  0  0
 11  8  1  0  0  0  0
 12 20  1  6  0  0  0
 12 13  1  0  0  0  0
 13  8  1  0  0  0  0
 13 22  1  6  0  0  0
 15 14  1  0  0  0  0
 16 17  2  0  0  0  0
 16  9  1  0  0  0  0
 18 16  1  0  0  0  0
 19 18  1  0  0  0  0
 20 21  1  0  0  0  0
 22 23  1  0  0  0  0
 23 25  1  0  0  0  0
 23 26  2  0  0  0  0
 24 22  1  0  0  0  0
 28 27  1  0  0  0  0
 30 29  1  0  0  0  0
 31  2  1  0  0  0  0
 32 31  1  0  0  0  0
 33 32  1  0  0  0  0
 33 35  1  0  0  0  0
 34 36  1  0  0  0  0
 34 33  2  0  0  0  0
 36 37  1  0  0  0  0
 37 35  2  0  0  0  0
 38 45  1  0  0  0  0
 38 36  1  0  0  0  0
 39 38  1  0  0  0  0
 40 39  1  0  0  0  0
 41 39  2  0  0  0  0
 42 40  2  0  0  0  0
 43 41  1  0  0  0  0
 44 43  2  0  0  0  0
 44 42  1  0  0  0  0
 45 46  2  0  0  0  0
 45 47  1  0  0  0  0
 46 48  1  0  0  0  0
 47 49  2  0  0  0  0
 48 50  2  0  0  0  0
 49 50  1  0  0  0  0
 51 52  1  0  0  0  0
 52 53  1  0  0  0  0
 53 54  1  0  0  0  0
 54 55  1  0  0  0  0
 55 56  1  0  0  0  0
M  END
>  <REMARK>
 VINA RESULT:    -5.649      2.344      5.088
 INTER + INTRA:         -15.929
 INTER:                 -10.256
 INTRA:                  -5.673
 UNBOUND:                -5.490
 SMILES CC(=O)N[C@@H]1[C@@H](O)C[C@](O)(C(=O)O)O[C@H]1C(O)[C@H](O)CNC(=O)OCc1cn(C(c2ccccc2)c2ccccc2)nn1
 SMILES IDX 21 1 22 2 23 3 20 5 18 6 16 7 15 8 9 9 8 10 14 11 6 12 5 13
 SMILES IDX 10 14 11 16 12 17 13 18 7 20 4 22 2 23 1 25 3 26 17 27 19 29
 SMILES IDX 24 31 25 32 26 33 27 34 43 35 28 36 42 37 29 38 30 39 31 40
 SMILES IDX 35 41 32 42 34 43 33 44 36 45 37 46 41 47 38 48 40 49 39 50
 H PARENT 21 4 10 15 13 19 7 21 4 24 17 28 19 30
 Flexibility Score: inf
  4 active torsions:
  status: ('A' for Active; 'I' for Inactive)
    1  A    between atoms: CA   and  CB  
    2  A    between atoms: CB   and  CG  
    3  A    between atoms: CG   and  CD  
    4  A    between atoms: CD   and  CE  

>  <TORSDO>
F 17

>  <BEGIN_>
RES LYS A 131

$$$$
ligand_58_pose_11_2HRL.pdbqt
 OpenBabel07062320523D

  6  5  0  0  0  0  0  0  0  0999 V2000
   33.1930   34.6630    9.2900 C   0  0  0  0  0  0  0  0  0  0  0  0
   32.0600   35.3600   10.0340 C   0  0  0  0  0  0  0  0  0  0  0  0
   30.7840   35.4530    9.2380 C   0  0  0  0  0  0  0  0  0  0  0  0
   30.2790   36.8870    9.1990 C   0  0  0  0  0  0  0  0  0  0  0  0
   29.4820   37.1380    7.9330 C   0  0  0  0  0  0  0  0  0  0  0  0
   29.4640   35.9290    7.0630 N   0  0  0  0  0  0  0  0  0  0  0  0
  1  2  1  0  0  0  0
  3  2  1  0  0  0  0
  4  3  1  0  0  0  0
  5  4  1  0  0  0  0
  6  5  1  0  0  0  0
M  END
>  <EGIN_R>
ES LYS A 135

>  <REMARK>
  4 active torsions:
  status: ('A' for Active; 'I' for Inactive)
    5  A    between atoms: CA   and  CB  
    6  A    between atoms: CB   and  CG  
    7  A    between atoms: CG   and  CD  
    8  A    between atoms: CD   and  CE  

$$$$
