ligand_53_pose_2_2HRL.pdbqt
 OpenBabel07062320523D

 48 48  0  0  1  0  0  0  0  0999 V2000
   30.1990   30.1390   21.8040 N   0  0  0  0  0  0  0  0  0  0  0  0
   30.4230   28.7600   21.9760 C   0  0  0  0  0  0  0  0  0  0  0  0
   31.4180   28.1950   21.5240 O   0  0  0  0  0  0  0  0  0  0  0  0
   29.3040   30.5070   22.2510 H   0  0  0  0  0  0  0  0  0  0  0  0
   31.0420   31.0680   21.0970 C   0  0  0  0  0  0  0  0  0  0  0  0
   30.7660   31.2150   19.6350 C   0  0  2  0  0  0  0  0  0  0  0  0
   29.8240   32.3120   19.3060 C   0  0  1  0  0  0  0  0  0  0  0  0
   30.1540   33.0960   18.0650 C   0  0  2  0  0  0  0  0  0  0  0  0
   30.8090   32.7660   15.8290 C   0  0  2  0  0  0  0  0  0  0  0  0
   31.6470   34.0020   15.8320 C   0  0  0  0  0  0  0  0  0  0  0  0
   30.4790   32.2190   17.0190 O   0  0  0  0  0  0  0  0  0  0  0  0
   31.2430   34.9210   16.9410 C   0  0  1  0  0  0  0  0  0  0  0  0
   31.2970   34.0630   18.2190 C   0  0  1  0  0  0  0  0  0  0  0  0
   31.5030   31.8200   15.0180 O   0  0  0  0  0  0  0  0  0  0  0  0
   30.7940   31.3690   14.4840 H   0  0  0  0  0  0  0  0  0  0  0  0
   29.5650   33.0540   15.0540 C   0  0  0  0  0  0  0  0  0  0  0  0
   29.5170   33.7660   14.0300 O   0  0  0  0  0  0  0  0  0  0  0  0
   28.3790   32.5000   15.4890 O   0  0  0  0  0  0  0  0  0  0  0  0
   27.8220   32.9020   16.2400 H   0  0  0  0  0  0  0  0  0  0  0  0
   32.0890   36.0190   17.0630 O   0  0  0  0  0  0  0  0  0  0  0  0
   32.7390   35.8050   17.7820 H   0  0  0  0  0  0  0  0  0  0  0  0
   31.2670   34.9260   19.3540 N   0  0  0  0  0  0  0  0  0  0  0  0
   32.4480   35.3040   20.0610 C   0  0  0  0  0  0  0  0  0  0  0  0
   30.3660   35.3150   19.6870 H   0  0  0  0  0  0  0  0  0  0  0  0
   32.4570   36.1960   21.2430 C   0  0  0  0  0  0  0  0  0  0  0  0
   33.5430   34.8500   19.6530 O   0  0  0  0  0  0  0  0  0  0  0  0
   28.5060   31.8900   19.3610 O   0  0  0  0  0  0  0  0  0  0  0  0
   28.1790   31.8080   20.2930 H   0  0  0  0  0  0  0  0  0  0  0  0
   30.3110   29.9810   19.1460 O   0  0  0  0  0  0  0  0  0  0  0  0
   29.3460   29.8600   19.2960 H   0  0  0  0  0  0  0  0  0  0  0  0
   29.5150   27.9710   22.6780 O   0  0  0  0  0  0  0  0  0  0  0  0
   28.3900   27.3620   22.1270 C   0  0  0  0  0  0  0  0  0  0  0  0
   27.9180   27.9690   20.8580 C   0  0  0  0  0  0  0  0  0  0  0  0
   27.8250   27.4290   19.6130 C   0  0  0  0  0  0  0  0  0  0  0  0
   27.4690   29.2510   20.7240 N   0  0  0  0  0  0  0  0  0  0  0  0
   27.3390   28.3610   18.7750 N   0  0  0  0  0  0  0  0  0  0  0  0
   27.1290   29.4550   19.4580 N   0  0  0  0  0  0  0  0  0  0  0  0
   27.0970   28.1700   17.3600 C   0  0  0  0  0  0  0  0  0  0  0  0
   27.4940   29.3810   16.6160 C   0  0  0  0  0  0  0  0  0  0  0  0
   26.6910   29.8840   15.7810 O   0  0  0  0  0  0  0  0  0  0  0  0
   28.7270   29.9630   16.8290 O   0  0  0  0  0  0  0  0  0  0  0  0
   28.7880   30.9750   16.6880 H   0  0  0  0  0  0  0  0  0  0  0  0
   29.8670   25.5550   16.9770 C   0  0  0  0  0  0  0  0  0  0  0  0
   28.3450   25.7220   17.0260 C   0  0  0  0  0  0  0  0  0  0  0  0
   27.6010   24.4000   16.9070 C   0  0  0  0  0  0  0  0  0  0  0  0
   26.1590   24.5240   17.3120 C   0  0  0  0  0  0  0  0  0  0  0  0
   25.9610   23.9020   18.6900 C   0  0  0  0  0  0  0  0  0  0  0  0
   25.2410   24.8380   19.5840 N   0  0  0  0  0  0  0  0  0  0  0  0
  1  2  1  0  0  0  0
  1  4  1  0  0  0  0
  2 31  1  0  0  0  0
  3  2  2  0  0  0  0
  5  1  1  0  0  0  0
  6  5  1  1  0  0  0
  7 27  1  6  0  0  0
  7  6  1  0  0  0  0
  8 13  1  0  0  0  0
  8  7  1  1  0  0  0
  9 14  1  6  0  0  0
  9 10  1  0  0  0  0
  9 11  1  0  0  0  0
 10 12  1  0  0  0  0
 11  8  1  0  0  0  0
 12 20  1  1  0  0  0
 12 13  1  0  0  0  0
 13 22  1  1  0  0  0
 15 14  1  0  0  0  0
 16 18  1  0  0  0  0
 16  9  1  0  0  0  0
 17 16  2  0  0  0  0
 18 19  1  0  0  0  0
 20 21  1  0  0  0  0
 22 24  1  0  0  0  0
 22 23  1  0  0  0  0
 23 25  1  0  0  0  0
 26 23  2  0  0  0  0
 27 28  1  0  0  0  0
 29 30  1  0  0  0  0
 29  6  1  0  0  0  0
 32 31  1  0  0  0  0
 33 32  1  0  0  0  0
 34 33  2  0  0  0  0
 35 33  1  0  0  0  0
 36 37  1  0  0  0  0
 36 34  1  0  0  0  0
 37 35  2  0  0  0  0
 38 36  1  0  0  0  0
 39 41  1  0  0  0  0
 39 38  1  0  0  0  0
 40 39  2  0  0  0  0
 42 41  1  0  0  0  0
 43 44  1  0  0  0  0
 45 44  1  0  0  0  0
 45 46  1  0  0  0  0
 46 47  1  0  0  0  0
 47 48  1  0  0  0  0
M  END
>  <REMARK>
 VINA RESULT:    -4.330      2.769      7.326
 INTER + INTRA:         -14.236
 INTER:                  -7.331
 INTRA:                  -6.906
 UNBOUND:                -6.362
 SMILES CC(=O)N[C@@H]1[C@@H](O)C[C@](O)(C(=O)O)O[C@H]1C(O)[C@H](O)CNC(=O)OCc1cn(CC(=O)O)nn1
 SMILES IDX 21 1 22 2 23 3 20 5 18 6 16 7 15 8 9 9 8 10 14 11 6 12 5 13
 SMILES IDX 10 14 11 16 12 17 13 18 7 20 4 22 2 23 1 25 3 26 17 27 19 29
 SMILES IDX 24 31 25 32 26 33 27 34 34 35 28 36 33 37 29 38 30 39 31 40
 SMILES IDX 32 41
 H PARENT 21 4 10 15 13 19 7 21 4 24 17 28 19 30 32 42
 Flexibility Score: inf
  4 active torsions:
  status: ('A' for Active; 'I' for Inactive)
    1  A    between atoms: CA   and  CB  
    2  A    between atoms: CB   and  CG  
    3  A    between atoms: CG   and  CD  
    4  A    between atoms: CD   and  CE  

>  <TORSDO>
F 17

>  <BEGIN_>
RES LYS A 131

$$$$
ligand_53_pose_2_2HRL.pdbqt
 OpenBabel07062320523D

  6  5  0  0  0  0  0  0  0  0999 V2000
   33.1930   34.6630    9.2900 C   0  0  0  0  0  0  0  0  0  0  0  0
   32.0600   35.3600   10.0340 C   0  0  0  0  0  0  0  0  0  0  0  0
   30.8240   35.5620    9.1960 C   0  0  0  0  0  0  0  0  0  0  0  0
   29.9850   34.2940    9.1630 C   0  0  0  0  0  0  0  0  0  0  0  0
   28.8120   34.4060   10.1190 C   0  0  0  0  0  0  0  0  0  0  0  0
   27.6330   33.6510    9.6120 N   0  0  0  0  0  0  0  0  0  0  0  0
  1  2  1  0  0  0  0
  3  2  1  0  0  0  0
  4  3  1  0  0  0  0
  4  5  1  0  0  0  0
  6  5  1  0  0  0  0
M  END
>  <EGIN_R>
ES LYS A 135

>  <REMARK>
  4 active torsions:
  status: ('A' for Active; 'I' for Inactive)
    5  A    between atoms: CA   and  CB  
    6  A    between atoms: CB   and  CG  
    7  A    between atoms: CG   and  CD  
    8  A    between atoms: CD   and  CE  

$$$$
