ligand_77_pose_17_2HRL.pdbqt
 OpenBabel07062320523D

 61 63  0  0  1  0  0  0  0  0999 V2000
   30.9070   35.9720   16.8020 N   0  0  0  0  0  0  0  0  0  0  0  0
   32.1230   36.0300   16.0800 C   0  0  0  0  0  0  0  0  0  0  0  0
   33.0070   35.1910   16.2880 O   0  0  0  0  0  0  0  0  0  0  0  0
   30.2020   36.7330   16.5550 H   0  0  0  0  0  0  0  0  0  0  0  0
   30.5800   34.9880   17.8080 C   0  0  0  0  0  0  0  0  0  0  0  0
   29.5720   34.0380   17.2590 C   0  0  2  0  0  0  0  0  0  0  0  0
   30.1500   32.6710   16.9590 C   0  0  1  0  0  0  0  0  0  0  0  0
   29.1360   31.6180   16.6670 C   0  0  2  0  0  0  0  0  0  0  0  0
   26.8560   31.4780   16.2800 C   0  0  2  0  0  0  0  0  0  0  0  0
   26.9390   29.9930   16.4510 C   0  0  0  0  0  0  0  0  0  0  0  0
   28.0610   32.0610   15.9310 O   0  0  0  0  0  0  0  0  0  0  0  0
   28.0870   29.5260   17.2720 C   0  0  1  0  0  0  0  0  0  0  0  0
   28.7750   30.7690   17.8610 C   0  0  1  0  0  0  0  0  0  0  0  0
   26.2900   32.0980   17.4170 O   0  0  0  0  0  0  0  0  0  0  0  0
   26.9000   31.9830   18.1660 H   0  0  0  0  0  0  0  0  0  0  0  0
   25.9030   31.7480   15.1630 C   0  0  0  0  0  0  0  0  0  0  0  0
   25.1820   30.7930   14.7380 O   0  0  0  0  0  0  0  0  0  0  0  0
   25.7530   32.9700   14.5590 O   0  0  0  0  0  0  0  0  0  0  0  0
   25.1160   33.6630   14.9460 H   0  0  0  0  0  0  0  0  0  0  0  0
   27.7320   28.6400   18.2780 O   0  0  0  0  0  0  0  0  0  0  0  0
   26.7920   28.3110   18.1120 H   0  0  0  0  0  0  0  0  0  0  0  0
   30.0190   30.3430   18.4920 N   0  0  0  0  0  0  0  0  0  0  0  0
   30.0740   30.1500   19.8940 C   0  0  0  0  0  0  0  0  0  0  0  0
   30.8900   30.1720   17.9460 H   0  0  0  0  0  0  0  0  0  0  0  0
   31.3430   29.7140   20.5770 C   0  0  0  0  0  0  0  0  0  0  0  0
   29.0870   30.3280   20.6400 O   0  0  0  0  0  0  0  0  0  0  0  0
   31.0360   32.8620   15.8920 O   0  0  0  0  0  0  0  0  0  0  0  0
   31.7710   32.2210   15.9930 H   0  0  0  0  0  0  0  0  0  0  0  0
   28.8960   34.5920   16.1820 O   0  0  0  0  0  0  0  0  0  0  0  0
   28.9830   33.9800   15.4070 H   0  0  0  0  0  0  0  0  0  0  0  0
   32.3860   37.0050   15.1230 O   0  0  0  0  0  0  0  0  0  0  0  0
   32.1740   36.7760   13.7380 C   0  0  0  0  0  0  0  0  0  0  0  0
   30.9920   35.9010   13.4960 C   0  0  0  0  0  0  0  0  0  0  0  0
   29.7880   36.3490   13.0250 C   0  0  0  0  0  0  0  0  0  0  0  0
   30.8790   34.5790   13.6810 N   0  0  0  0  0  0  0  0  0  0  0  0
   28.9600   35.2820   12.9320 N   0  0  0  0  0  0  0  0  0  0  0  0
   29.6510   34.2510   13.3320 N   0  0  0  0  0  0  0  0  0  0  0  0
   27.6200   35.3740   12.4760 C   0  0  0  0  0  0  0  0  0  0  0  0
   27.2420   34.7530   11.3050 C   0  0  0  0  0  0  0  0  0  0  0  0
   26.6520   36.0720   13.1640 C   0  0  0  0  0  0  0  0  0  0  0  0
   25.9450   34.8160   10.8240 C   0  0  0  0  0  0  0  0  0  0  0  0
   25.3390   36.1420   12.6870 C   0  0  0  0  0  0  0  0  0  0  0  0
   24.9870   35.5140   11.5160 C   0  0  0  0  0  0  0  0  0  0  0  0
   23.3680   35.5920   10.9150 S   0  0  0  0  0  0  0  0  0  0  0  0
   23.3640   35.3930    9.4380 O   0  0  0  0  0  0  0  0  0  0  0  0
   22.7080   36.9070   11.2060 O   0  0  0  0  0  0  0  0  0  0  0  0
   22.4350   34.3430   11.7320 C   0  0  0  0  0  0  0  0  0  0  0  0
   21.0690   34.3730   11.6390 C   0  0  0  0  0  0  0  0  0  0  0  0
   23.0540   33.3330   12.4620 C   0  0  0  0  0  0  0  0  0  0  0  0
   20.2920   33.4070   12.2670 C   0  0  0  0  0  0  0  0  0  0  0  0
   22.3090   32.3540   13.1010 C   0  0  0  0  0  0  0  0  0  0  0  0
   20.9410   32.4200   12.9840 C   0  0  0  0  0  0  0  0  0  0  0  0
   20.1630   31.4310   13.6280 N   0  0  0  0  0  0  0  0  0  0  0  0
   20.1800   31.3400   14.6570 H   0  0  0  0  0  0  0  0  0  0  0  0
   19.5760   30.7970   13.0590 H   0  0  0  0  0  0  0  0  0  0  0  0
   29.8670   25.5550   16.9770 C   0  0  0  0  0  0  0  0  0  0  0  0
   28.3450   25.7220   17.0260 C   0  0  0  0  0  0  0  0  0  0  0  0
   27.6010   24.4010   16.9050 C   0  0  0  0  0  0  0  0  0  0  0  0
   26.1480   24.5330   17.2680 C   0  0  0  0  0  0  0  0  0  0  0  0
   26.0020   24.5460   18.7860 C   0  0  0  0  0  0  0  0  0  0  0  0
   25.5390   23.2240   19.2740 N   0  0  0  0  0  0  0  0  0  0  0  0
  1  5  1  0  0  0  0
  2  3  2  0  0  0  0
  2  1  1  0  0  0  0
  4  1  1  0  0  0  0
  6  5  1  6  0  0  0
  7 27  1  6  0  0  0
  7  6  1  0  0  0  0
  8  7  1  1  0  0  0
  8 13  1  0  0  0  0
  9 16  1  6  0  0  0
  9 10  1  0  0  0  0
  9 14  1  0  0  0  0
 10 12  1  0  0  0  0
 11  9  1  0  0  0  0
 11  8  1  0  0  0  0
 12 13  1  0  0  0  0
 12 20  1  1  0  0  0
 13 22  1  6  0  0  0
 14 15  1  0  0  0  0
 17 16  2  0  0  0  0
 18 19  1  0  0  0  0
 18 16  1  0  0  0  0
 21 20  1  0  0  0  0
 22 23  1  0  0  0  0
 23 25  1  0  0  0  0
 23 26  2  0  0  0  0
 24 22  1  0  0  0  0
 27 28  1  0  0  0  0
 29  6  1  0  0  0  0
 30 29  1  0  0  0  0
 31  2  1  0  0  0  0
 32 31  1  0  0  0  0
 33 35  1  0  0  0  0
 33 32  1  0  0  0  0
 34 33  2  0  0  0  0
 36 34  1  0  0  0  0
 36 37  1  0  0  0  0
 37 35  2  0  0  0  0
 38 36  1  0  0  0  0
 38 40  2  0  0  0  0
 39 38  1  0  0  0  0
 41 39  2  0  0  0  0
 41 43  1  0  0  0  0
 42 40  1  0  0  0  0
 43 42  2  0  0  0  0
 44 46  2  0  0  0  0
 44 43  1  0  0  0  0
 44 47  1  0  0  0  0
 45 44  2  0  0  0  0
 47 49  1  0  0  0  0
 48 47  2  0  0  0  0
 48 50  1  0  0  0  0
 49 51  2  0  0  0  0
 50 52  2  0  0  0  0
 52 51  1  0  0  0  0
 52 53  1  0  0  0  0
 53 54  1  0  0  0  0
 55 53  1  0  0  0  0
 56 57  1  0  0  0  0
 58 57  1  0  0  0  0
 58 59  1  0  0  0  0
 59 60  1  0  0  0  0
 60 61  1  0  0  0  0
M  END
>  <REMARK>
 VINA RESULT:    -5.055      4.845      8.970
 INTER + INTRA:         -16.014
 INTER:                  -8.660
 INTRA:                  -7.354
 UNBOUND:                -6.527
 SMILES CC(=O)N[C@@H]1[C@@H](O)C[C@](O)(C(=O)O)O[C@H]1C(O)[C@H](O)CNC(=O)OCc1cn(-c2ccc(S(=O)(=O)c3ccc(N)cc3)cc2)nn1
 SMILES IDX 21 1 22 2 23 3 20 5 18 6 16 7 15 8 9 9 8 10 14 11 6 12 5 13
 SMILES IDX 10 14 11 16 12 17 13 18 7 20 4 22 2 23 1 25 3 26 17 27 19 29
 SMILES IDX 24 31 25 32 26 33 27 34 46 35 28 36 45 37 29 38 30 39 44 40
 SMILES IDX 31 41 43 42 32 43 33 44 34 45 35 46 36 47 37 48 42 49 38 50
 SMILES IDX 41 51 39 52 40 53
 H PARENT 21 4 10 15 13 19 7 21 4 24 17 28 19 30 40 54 40 55
 Flexibility Score: inf
  4 active torsions:
  status: ('A' for Active; 'I' for Inactive)
    1  A    between atoms: CA   and  CB  
    2  A    between atoms: CB   and  CG  
    3  A    between atoms: CG   and  CD  
    4  A    between atoms: CD   and  CE  

>  <TORSDO>
F 18

>  <BEGIN_>
RES LYS A 131

$$$$
ligand_77_pose_17_2HRL.pdbqt
 OpenBabel07062320523D

  6  5  0  0  0  0  0  0  0  0999 V2000
   33.1930   34.6630    9.2900 C   0  0  0  0  0  0  0  0  0  0  0  0
   32.0600   35.3600   10.0340 C   0  0  0  0  0  0  0  0  0  0  0  0
   30.7140   34.7180    9.8200 C   0  0  0  0  0  0  0  0  0  0  0  0
   30.4660   34.4700    8.3400 C   0  0  0  0  0  0  0  0  0  0  0  0
   29.0260   34.7810    7.9810 C   0  0  0  0  0  0  0  0  0  0  0  0
   28.9450   35.5810    6.7280 N   0  0  0  0  0  0  0  0  0  0  0  0
  1  2  1  0  0  0  0
  3  2  1  0  0  0  0
  4  3  1  0  0  0  0
  5  4  1  0  0  0  0
  6  5  1  0  0  0  0
M  END
>  <EGIN_R>
ES LYS A 135

>  <REMARK>
  4 active torsions:
  status: ('A' for Active; 'I' for Inactive)
    5  A    between atoms: CA   and  CB  
    6  A    between atoms: CB   and  CG  
    7  A    between atoms: CG   and  CD  
    8  A    between atoms: CD   and  CE  

$$$$
