ligand_60_pose_15_2HRL.pdbqt
 OpenBabel07062320523D

 55 56  0  0  1  0  0  0  0  0999 V2000
   31.8310   38.0020   11.1260 N   0  0  0  0  0  0  0  0  0  0  0  0
   31.8930   37.3280   12.3530 C   0  0  0  0  0  0  0  0  0  0  0  0
   31.5300   37.8820   13.4040 O   0  0  0  0  0  0  0  0  0  0  0  0
   32.1510   37.4740   10.2680 H   0  0  0  0  0  0  0  0  0  0  0  0
   31.3610   39.3380   11.0110 C   0  0  0  0  0  0  0  0  0  0  0  0
   30.5470   39.5800    9.7460 C   0  0  2  0  0  0  0  0  0  0  0  0
   30.3960   38.2740    9.0220 C   0  0  1  0  0  0  0  0  0  0  0  0
   29.0530   38.0350    8.4470 C   0  0  2  0  0  0  0  0  0  0  0  0
   27.5980   38.9830    6.8930 C   0  0  2  0  0  0  0  0  0  0  0  0
   26.9450   37.6400    7.1120 C   0  0  0  0  0  0  0  0  0  0  0  0
   28.7290   39.1590    7.6410 O   0  0  0  0  0  0  0  0  0  0  0  0
   26.7560   37.3030    8.5590 C   0  0  1  0  0  0  0  0  0  0  0  0
   27.9030   37.8600    9.3660 C   0  0  1  0  0  0  0  0  0  0  0  0
   26.6690   40.0350    7.0820 O   0  0  0  0  0  0  0  0  0  0  0  0
   27.1310   40.8630    7.3660 H   0  0  0  0  0  0  0  0  0  0  0  0
   27.9820   39.0490    5.4580 C   0  0  0  0  0  0  0  0  0  0  0  0
   28.8050   39.9320    5.1060 O   0  0  0  0  0  0  0  0  0  0  0  0
   27.4910   38.1990    4.4850 O   0  0  0  0  0  0  0  0  0  0  0  0
   26.8010   37.4880    4.7120 H   0  0  0  0  0  0  0  0  0  0  0  0
   25.5210   37.7910    8.9650 O   0  0  0  0  0  0  0  0  0  0  0  0
   24.8370   37.2510    8.4930 H   0  0  0  0  0  0  0  0  0  0  0  0
   28.1180   37.1900   10.5920 N   0  0  0  0  0  0  0  0  0  0  0  0
   27.9360   37.8170   11.8460 C   0  0  0  0  0  0  0  0  0  0  0  0
   28.4030   36.1900   10.6010 H   0  0  0  0  0  0  0  0  0  0  0  0
   28.1700   37.0900   13.1410 C   0  0  0  0  0  0  0  0  0  0  0  0
   27.5720   39.0070   11.8530 O   0  0  0  0  0  0  0  0  0  0  0  0
   31.4810   37.8660    8.2920 O   0  0  0  0  0  0  0  0  0  0  0  0
   31.5690   38.4380    7.4970 H   0  0  0  0  0  0  0  0  0  0  0  0
   31.1280   40.5940    9.0320 O   0  0  0  0  0  0  0  0  0  0  0  0
   31.8260   40.2300    8.4210 H   0  0  0  0  0  0  0  0  0  0  0  0
   32.3610   36.0100   12.4650 O   0  0  0  0  0  0  0  0  0  0  0  0
   32.7910   35.5000   13.6880 C   0  0  0  0  0  0  0  0  0  0  0  0
   31.8060   34.5710   14.2840 C   0  0  0  0  0  0  0  0  0  0  0  0
   31.8120   33.9350   15.5020 C   0  0  0  0  0  0  0  0  0  0  0  0
   30.6580   34.1770   13.6760 N   0  0  0  0  0  0  0  0  0  0  0  0
   30.7030   33.1830   15.6200 N   0  0  0  0  0  0  0  0  0  0  0  0
   30.0310   33.3540   14.4990 N   0  0  0  0  0  0  0  0  0  0  0  0
   30.2970   32.3590   16.7080 C   0  0  0  0  0  0  0  0  0  0  0  0
   29.3920   31.3320   16.5420 C   0  0  0  0  0  0  0  0  0  0  0  0
   30.7950   32.5570   17.9820 C   0  0  0  0  0  0  0  0  0  0  0  0
   28.9890   30.5260   17.5830 C   0  0  0  0  0  0  0  0  0  0  0  0
   30.3940   31.7520   19.0280 C   0  0  0  0  0  0  0  0  0  0  0  0
   29.4900   30.7220   18.8750 C   0  0  0  0  0  0  0  0  0  0  0  0
   28.9740   29.6970   20.1940 S   0  0  0  0  0  0  0  0  0  0  0  0
   29.3130   30.4120   21.4720 O   0  0  0  0  0  0  0  0  0  0  0  0
   27.4670   29.5810   20.1510 O   0  0  0  0  0  0  0  0  0  0  0  0
   29.7070   28.1500   20.1600 N   0  0  0  0  0  0  0  0  0  0  0  0
   30.1080   27.8770   19.2560 H   0  0  0  0  0  0  0  0  0  0  0  0
   30.3730   28.0100   20.9520 H   0  0  0  0  0  0  0  0  0  0  0  0
   29.8670   25.5550   16.9770 C   0  0  0  0  0  0  0  0  0  0  0  0
   28.3450   25.7220   17.0260 C   0  0  0  0  0  0  0  0  0  0  0  0
   27.6010   24.4040   16.8760 C   0  0  0  0  0  0  0  0  0  0  0  0
   26.1530   24.5240   17.2640 C   0  0  0  0  0  0  0  0  0  0  0  0
   25.6370   23.1660   17.7290 C   0  0  0  0  0  0  0  0  0  0  0  0
   25.5270   23.1320   19.2070 N   0  0  0  0  0  0  0  0  0  0  0  0
  1  2  1  0  0  0  0
  2 31  1  0  0  0  0
  2  3  2  0  0  0  0
  4  1  1  0  0  0  0
  5  1  1  0  0  0  0
  6  5  1  1  0  0  0
  7 27  1  6  0  0  0
  7  6  1  0  0  0  0
  8  7  1  1  0  0  0
  8 13  1  0  0  0  0
  9 16  1  6  0  0  0
  9 14  1  0  0  0  0
  9 10  1  0  0  0  0
  9 11  1  0  0  0  0
 10 12  1  0  0  0  0
 11  8  1  0  0  0  0
 12 20  1  1  0  0  0
 12 13  1  0  0  0  0
 13 22  1  1  0  0  0
 14 15  1  0  0  0  0
 17 16  2  0  0  0  0
 18 19  1  0  0  0  0
 18 16  1  0  0  0  0
 21 20  1  0  0  0  0
 22 24  1  0  0  0  0
 22 23  1  0  0  0  0
 23 26  2  0  0  0  0
 23 25  1  0  0  0  0
 28 27  1  0  0  0  0
 29  6  1  0  0  0  0
 30 29  1  0  0  0  0
 31 32  1  0  0  0  0
 32 33  1  0  0  0  0
 33 34  2  0  0  0  0
 34 36  1  0  0  0  0
 35 33  1  0  0  0  0
 35 37  2  0  0  0  0
 36 38  1  0  0  0  0
 37 36  1  0  0  0  0
 38 40  1  0  0  0  0
 39 38  2  0  0  0  0
 39 41  1  0  0  0  0
 40 42  2  0  0  0  0
 41 43  2  0  0  0  0
 43 42  1  0  0  0  0
 43 44  1  0  0  0  0
 44 45  2  0  0  0  0
 46 44  2  0  0  0  0
 47 44  1  0  0  0  0
 47 49  1  0  0  0  0
 48 47  1  0  0  0  0
 50 51  1  0  0  0  0
 52 51  1  0  0  0  0
 52 53  1  0  0  0  0
 53 54  1  0  0  0  0
 54 55  1  0  0  0  0
M  END
>  <REMARK>
 VINA RESULT:    -4.756      4.124     12.313
 INTER + INTRA:         -14.612
 INTER:                  -9.377
 INTRA:                  -5.235
 UNBOUND:                -5.964
 SMILES CC(=O)N[C@@H]1[C@@H](O)C[C@](O)(C(=O)O)O[C@H]1C(O)[C@H](O)CNC(=O)OCc1cn(-c2ccc(S(N)(=O)=O)cc2)nn1
 SMILES IDX 21 1 22 2 23 3 20 5 18 6 16 7 15 8 9 9 8 10 14 11 6 12 5 13
 SMILES IDX 10 14 11 16 12 17 13 18 7 20 4 22 2 23 1 25 3 26 17 27 19 29
 SMILES IDX 24 31 25 32 26 33 27 34 40 35 28 36 39 37 29 38 30 39 38 40
 SMILES IDX 31 41 37 42 32 43 33 44 35 45 36 46 34 47
 H PARENT 21 4 10 15 13 19 7 21 4 24 17 28 19 30 34 48 34 49
 Flexibility Score: inf
  4 active torsions:
  status: ('A' for Active; 'I' for Inactive)
    1  A    between atoms: CA   and  CB  
    2  A    between atoms: CB   and  CG  
    3  A    between atoms: CG   and  CD  
    4  A    between atoms: CD   and  CE  

>  <TORSDO>
F 17

>  <BEGIN_>
RES LYS A 131

$$$$
ligand_60_pose_15_2HRL.pdbqt
 OpenBabel07062320523D

  6  5  0  0  0  0  0  0  0  0999 V2000
   33.1930   34.6630    9.2900 C   0  0  0  0  0  0  0  0  0  0  0  0
   32.0600   35.3600   10.0340 C   0  0  0  0  0  0  0  0  0  0  0  0
   30.7380   34.6450    9.9250 C   0  0  0  0  0  0  0  0  0  0  0  0
   30.3650   34.4250    8.4670 C   0  0  0  0  0  0  0  0  0  0  0  0
   28.8580   34.4140    8.2990 C   0  0  0  0  0  0  0  0  0  0  0  0
   28.1900   33.8080    9.4840 N   0  0  0  0  0  0  0  0  0  0  0  0
  1  2  1  0  0  0  0
  3  2  1  0  0  0  0
  4  3  1  0  0  0  0
  5  4  1  0  0  0  0
  5  6  1  0  0  0  0
M  END
>  <EGIN_R>
ES LYS A 135

>  <REMARK>
  4 active torsions:
  status: ('A' for Active; 'I' for Inactive)
    5  A    between atoms: CA   and  CB  
    6  A    between atoms: CB   and  CG  
    7  A    between atoms: CG   and  CD  
    8  A    between atoms: CD   and  CE  

$$$$
