ligand_54_pose_8_2HRL.pdbqt
 OpenBabel07062320523D

 52 52  0  0  1  0  0  0  0  0999 V2000
   24.7800   41.0490    7.7560 O   0  0  0  0  0  0  0  0  0  0  0  0
   25.9270   40.8910    6.9640 C   0  0  0  0  0  0  0  0  0  0  0  0
   25.9270   40.0840    5.8070 N   0  0  0  0  0  0  0  0  0  0  0  0
   24.9900   39.6200    5.5770 H   0  0  0  0  0  0  0  0  0  0  0  0
   26.9490   41.4850    7.3160 O   0  0  0  0  0  0  0  0  0  0  0  0
   27.0190   39.8260    4.9230 C   0  0  0  0  0  0  0  0  0  0  0  0
   27.6910   38.5230    5.2470 C   0  0  2  0  0  0  0  0  0  0  0  0
   29.0440   38.8870    5.8540 C   0  0  2  0  0  0  0  0  0  0  0  0
   29.1840   38.3740    7.2530 C   0  0  2  0  0  0  0  0  0  0  0  0
   28.2800   38.7390    9.3570 C   0  0  2  0  0  0  0  0  0  0  0  0
   29.4710   38.0470    9.9340 C   0  0  0  0  0  0  0  0  0  0  0  0
   28.0570   38.4890    8.0110 O   0  0  0  0  0  0  0  0  0  0  0  0
   30.7200   38.1420    9.1060 C   0  0  1  0  0  0  0  0  0  0  0  0
   30.4050   39.0100    7.9080 C   0  0  1  0  0  0  0  0  0  0  0  0
   28.3270   40.1080    9.6300 O   0  0  0  0  0  0  0  0  0  0  0  0
   28.8760   40.5260    8.9010 H   0  0  0  0  0  0  0  0  0  0  0  0
   27.0890   38.1960   10.0720 C   0  0  0  0  0  0  0  0  0  0  0  0
   26.8430   38.5200   11.2530 O   0  0  0  0  0  0  0  0  0  0  0  0
   26.2400   37.3040    9.3910 O   0  0  0  0  0  0  0  0  0  0  0  0
   26.2170   37.4110    8.3780 H   0  0  0  0  0  0  0  0  0  0  0  0
   31.8220   38.5960    9.8200 O   0  0  0  0  0  0  0  0  0  0  0  0
   32.4230   37.8150    9.9310 H   0  0  0  0  0  0  0  0  0  0  0  0
   31.4760   39.0050    6.9330 N   0  0  0  0  0  0  0  0  0  0  0  0
   32.4580   40.0310    6.9720 C   0  0  0  0  0  0  0  0  0  0  0  0
   31.5790   38.2900    6.1930 H   0  0  0  0  0  0  0  0  0  0  0  0
   33.5840   40.1050    6.0190 C   0  0  0  0  0  0  0  0  0  0  0  0
   32.3640   40.9200    7.8620 O   0  0  0  0  0  0  0  0  0  0  0  0
   29.2040   40.2610    5.7760 O   0  0  0  0  0  0  0  0  0  0  0  0
   30.1580   40.5330    5.6920 H   0  0  0  0  0  0  0  0  0  0  0  0
   27.9460   37.8070    4.1050 O   0  0  0  0  0  0  0  0  0  0  0  0
   27.6690   38.2780    3.2780 H   0  0  0  0  0  0  0  0  0  0  0  0
   23.5810   40.3520    7.4300 C   0  0  0  0  0  0  0  0  0  0  0  0
   23.4040   39.2240    8.3620 C   0  0  0  0  0  0  0  0  0  0  0  0
   22.9110   37.9850    7.9430 C   0  0  0  0  0  0  0  0  0  0  0  0
   23.6270   39.0860    9.6610 N   0  0  0  0  0  0  0  0  0  0  0  0
   22.8610   37.1600    9.0100 N   0  0  0  0  0  0  0  0  0  0  0  0
   23.2960   37.8420   10.0300 N   0  0  0  0  0  0  0  0  0  0  0  0
   22.3990   35.8020    8.9510 C   0  0  0  0  0  0  0  0  0  0  0  0
   21.2960   35.5950    7.9400 C   0  0  0  0  0  0  0  0  0  0  0  0
   19.9270   35.6670    8.5430 C   0  0  0  0  0  0  0  0  0  0  0  0
   19.2190   34.5370    8.1520 O   0  0  0  0  0  0  0  0  0  0  0  0
   18.4110   34.0840    9.2020 C   0  0  0  0  0  0  0  0  0  0  0  0
   19.1530   34.0890   10.5130 C   0  0  0  0  0  0  0  0  0  0  0  0
   19.2340   36.7850    8.1580 O   0  0  0  0  0  0  0  0  0  0  0  0
   19.0180   37.6660    9.2170 C   0  0  0  0  0  0  0  0  0  0  0  0
   19.5980   39.0270    8.8460 C   0  0  0  0  0  0  0  0  0  0  0  0
   29.8670   25.5550   16.9770 C   0  0  0  0  0  0  0  0  0  0  0  0
   28.3450   25.7220   17.0260 C   0  0  0  0  0  0  0  0  0  0  0  0
   27.6010   24.4030   16.8880 C   0  0  0  0  0  0  0  0  0  0  0  0
   26.5190   24.2520   17.9210 C   0  0  0  0  0  0  0  0  0  0  0  0
   25.1670   24.1210   17.2270 C   0  0  0  0  0  0  0  0  0  0  0  0
   24.6040   22.7670   17.4370 N   0  0  0  0  0  0  0  0  0  0  0  0
  2  5  2  0  0  0  0
  2  1  1  0  0  0  0
  3  2  1  0  0  0  0
  4  3  1  0  0  0  0
  6  3  1  0  0  0  0
  7  6  1  6  0  0  0
  7  8  1  0  0  0  0
  8 28  1  1  0  0  0
  9  8  1  6  0  0  0
  9 14  1  0  0  0  0
  9 12  1  0  0  0  0
 10 15  1  1  0  0  0
 10 11  1  0  0  0  0
 10 17  1  0  0  0  0
 12 10  1  0  0  0  0
 13 21  1  1  0  0  0
 13 11  1  0  0  0  0
 14 23  1  6  0  0  0
 14 13  1  0  0  0  0
 16 15  1  0  0  0  0
 17 18  2  0  0  0  0
 19 17  1  0  0  0  0
 20 19  1  0  0  0  0
 21 22  1  0  0  0  0
 23 24  1  0  0  0  0
 24 27  2  0  0  0  0
 25 23  1  0  0  0  0
 26 24  1  0  0  0  0
 29 28  1  0  0  0  0
 30  7  1  0  0  0  0
 31 30  1  0  0  0  0
 32  1  1  0  0  0  0
 32 33  1  0  0  0  0
 33 35  1  0  0  0  0
 34 33  2  0  0  0  0
 34 36  1  0  0  0  0
 35 37  2  0  0  0  0
 36 37  1  0  0  0  0
 38 36  1  0  0  0  0
 39 40  1  0  0  0  0
 39 38  1  0  0  0  0
 41 40  1  0  0  0  0
 41 42  1  0  0  0  0
 42 43  1  0  0  0  0
 44 40  1  0  0  0  0
 44 45  1  0  0  0  0
 46 45  1  0  0  0  0
 47 48  1  0  0  0  0
 49 48  1  0  0  0  0
 49 50  1  0  0  0  0
 51 52  1  0  0  0  0
 51 50  1  0  0  0  0
M  END
>  <REMARK>
 VINA RESULT:    -4.240      8.092     14.182
 INTER + INTRA:         -14.764
 INTER:                  -7.595
 INTRA:                  -7.169
 UNBOUND:                -5.938
 SMILES CCOC(CCn1cc(COC(=O)NC[C@@H](O)C(O)[C@@H]2O[C@@](O)(C(=O)O)C[C@H](O)[C@H]2NC(C)=O)nn1)OCC
 SMILES IDX 11 1 12 2 14 3 13 5 15 6 16 7 18 8 20 9 22 10 27 11 21 12
 SMILES IDX 28 13 30 14 23 15 24 17 25 18 26 19 29 21 31 23 32 24 33 26
 SMILES IDX 34 27 19 28 17 30 10 32 9 33 8 34 35 35 7 36 36 37 6 38 5 39
 SMILES IDX 4 40 3 41 2 42 1 43 37 44 38 45 39 46
 H PARENT 14 4 23 16 26 20 29 22 31 25 19 29 17 31
 Flexibility Score: inf
  4 active torsions:
  status: ('A' for Active; 'I' for Inactive)
    1  A    between atoms: CA   and  CB  
    2  A    between atoms: CB   and  CG  
    3  A    between atoms: CG   and  CD  
    4  A    between atoms: CD   and  CE  

>  <TORSDO>
F 21

>  <BEGIN_>
RES LYS A 131

$$$$
ligand_54_pose_8_2HRL.pdbqt
 OpenBabel07062320523D

  6  5  0  0  0  0  0  0  0  0999 V2000
   33.1930   34.6630    9.2900 C   0  0  0  0  0  0  0  0  0  0  0  0
   32.0600   35.3600   10.0340 C   0  0  0  0  0  0  0  0  0  0  0  0
   30.7440   34.6310    9.9470 C   0  0  0  0  0  0  0  0  0  0  0  0
   30.2990   34.4990    8.4990 C   0  0  0  0  0  0  0  0  0  0  0  0
   28.7910   34.6260    8.3910 C   0  0  0  0  0  0  0  0  0  0  0  0
   28.1090   33.8260    9.4450 N   0  0  0  0  0  0  0  0  0  0  0  0
  1  2  1  0  0  0  0
  3  2  1  0  0  0  0
  4  3  1  0  0  0  0
  5  4  1  0  0  0  0
  5  6  1  0  0  0  0
M  END
>  <EGIN_R>
ES LYS A 135

>  <REMARK>
  4 active torsions:
  status: ('A' for Active; 'I' for Inactive)
    5  A    between atoms: CA   and  CB  
    6  A    between atoms: CB   and  CG  
    7  A    between atoms: CG   and  CD  
    8  A    between atoms: CD   and  CE  

$$$$
