ligand_60_pose_9_2HRL.pdbqt
 OpenBabel07062320523D

 55 56  0  0  1  0  0  0  0  0999 V2000
   28.4490   30.6430   25.3610 N   0  0  0  0  0  0  0  0  0  0  0  0
   29.5800   31.3270   25.8280 C   0  0  0  0  0  0  0  0  0  0  0  0
   30.4370   30.7490   26.5150 O   0  0  0  0  0  0  0  0  0  0  0  0
   27.7590   31.1910   24.7780 H   0  0  0  0  0  0  0  0  0  0  0  0
   28.2180   29.2700   25.6430 C   0  0  0  0  0  0  0  0  0  0  0  0
   28.5050   28.3570   24.4570 C   0  0  2  0  0  0  0  0  0  0  0  0
   29.2540   29.1460   23.4220 C   0  0  1  0  0  0  0  0  0  0  0  0
   30.4290   28.4550   22.8450 C   0  0  2  0  0  0  0  0  0  0  0  0
   32.6590   28.8870   22.3280 C   0  0  2  0  0  0  0  0  0  0  0  0
   32.6220   27.3840   22.1950 C   0  0  0  0  0  0  0  0  0  0  0  0
   31.4510   29.4260   22.6720 O   0  0  0  0  0  0  0  0  0  0  0  0
   31.4920   26.8940   21.3440 C   0  0  1  0  0  0  0  0  0  0  0  0
   30.2890   27.7850   21.5300 C   0  0  1  0  0  0  0  0  0  0  0  0
   33.1950   29.4860   21.1630 O   0  0  0  0  0  0  0  0  0  0  0  0
   33.8030   28.8610   20.6950 H   0  0  0  0  0  0  0  0  0  0  0  0
   33.6270   29.2020   23.4130 C   0  0  0  0  0  0  0  0  0  0  0  0
   33.6660   28.4370   24.4100 O   0  0  0  0  0  0  0  0  0  0  0  0
   34.4860   30.2850   23.3950 O   0  0  0  0  0  0  0  0  0  0  0  0
   34.4410   30.9750   22.6500 H   0  0  0  0  0  0  0  0  0  0  0  0
   31.9280   26.8410   20.0260 O   0  0  0  0  0  0  0  0  0  0  0  0
   31.6560   27.6960   19.6060 H   0  0  0  0  0  0  0  0  0  0  0  0
   29.0600   27.1590   21.2210 N   0  0  0  0  0  0  0  0  0  0  0  0
   28.1570   27.6810   20.2680 C   0  0  0  0  0  0  0  0  0  0  0  0
   28.7940   26.2680   21.6850 H   0  0  0  0  0  0  0  0  0  0  0  0
   26.8520   27.0030   19.9520 C   0  0  0  0  0  0  0  0  0  0  0  0
   28.4710   28.7350   19.6860 O   0  0  0  0  0  0  0  0  0  0  0  0
   28.4880   29.9070   22.5800 O   0  0  0  0  0  0  0  0  0  0  0  0
   28.6310   30.8580   22.7830 H   0  0  0  0  0  0  0  0  0  0  0  0
   27.3310   27.7900   24.0390 O   0  0  0  0  0  0  0  0  0  0  0  0
   27.3490   26.8050   24.1890 H   0  0  0  0  0  0  0  0  0  0  0  0
   29.8050   32.6850   25.5510 O   0  0  0  0  0  0  0  0  0  0  0  0
   31.0880   33.1630   25.2950 C   0  0  0  0  0  0  0  0  0  0  0  0
   31.5020   32.9340   23.8940 C   0  0  0  0  0  0  0  0  0  0  0  0
   30.7520   32.8990   22.7430 C   0  0  0  0  0  0  0  0  0  0  0  0
   32.7810   32.7070   23.4990 N   0  0  0  0  0  0  0  0  0  0  0  0
   31.5560   32.6600   21.6910 N   0  0  0  0  0  0  0  0  0  0  0  0
   32.7730   32.5490   22.1870 N   0  0  0  0  0  0  0  0  0  0  0  0
   31.2120   32.5410   20.3150 C   0  0  0  0  0  0  0  0  0  0  0  0
   30.6570   31.3890   19.8020 C   0  0  0  0  0  0  0  0  0  0  0  0
   31.4230   33.5840   19.4310 C   0  0  0  0  0  0  0  0  0  0  0  0
   30.3190   31.2580   18.4740 C   0  0  0  0  0  0  0  0  0  0  0  0
   31.0860   33.4570   18.1000 C   0  0  0  0  0  0  0  0  0  0  0  0
   30.5310   32.3090   17.5750 C   0  0  0  0  0  0  0  0  0  0  0  0
   30.1010   32.1380   15.8880 S   0  0  0  0  0  0  0  0  0  0  0  0
   29.3350   30.8530   15.7530 O   0  0  0  0  0  0  0  0  0  0  0  0
   29.1470   33.2520   15.5200 O   0  0  0  0  0  0  0  0  0  0  0  0
   31.4650   32.1360   14.8520 N   0  0  0  0  0  0  0  0  0  0  0  0
   31.6730   31.2350   14.4080 H   0  0  0  0  0  0  0  0  0  0  0  0
   31.4440   32.9240   14.1680 H   0  0  0  0  0  0  0  0  0  0  0  0
   29.8670   25.5550   16.9770 C   0  0  0  0  0  0  0  0  0  0  0  0
   28.3450   25.7220   17.0260 C   0  0  0  0  0  0  0  0  0  0  0  0
   27.5990   24.4320   16.7230 C   0  0  0  0  0  0  0  0  0  0  0  0
   26.9220   23.8690   17.9420 C   0  0  0  0  0  0  0  0  0  0  0  0
   25.5720   23.2780   17.5470 C   0  0  0  0  0  0  0  0  0  0  0  0
   24.7200   24.3100   16.9120 N   0  0  0  0  0  0  0  0  0  0  0  0
  1  5  1  0  0  0  0
  1  2  1  0  0  0  0
  2  3  2  0  0  0  0
  4  1  1  0  0  0  0
  6  5  1  1  0  0  0
  7 27  1  6  0  0  0
  7  6  1  0  0  0  0
  8  7  1  6  0  0  0
  9 14  1  6  0  0  0
  9 11  1  0  0  0  0
  9 16  1  0  0  0  0
 10  9  1  0  0  0  0
 11  8  1  0  0  0  0
 12 20  1  6  0  0  0
 12 13  1  0  0  0  0
 12 10  1  0  0  0  0
 13 22  1  1  0  0  0
 13  8  1  0  0  0  0
 15 14  1  0  0  0  0
 16 17  2  0  0  0  0
 18 16  1  0  0  0  0
 19 18  1  0  0  0  0
 21 20  1  0  0  0  0
 22 24  1  0  0  0  0
 23 22  1  0  0  0  0
 25 23  1  0  0  0  0
 26 23  2  0  0  0  0
 27 28  1  0  0  0  0
 29 30  1  0  0  0  0
 29  6  1  0  0  0  0
 31  2  1  0  0  0  0
 32 31  1  0  0  0  0
 33 32  1  0  0  0  0
 34 33  2  0  0  0  0
 35 33  1  0  0  0  0
 36 37  1  0  0  0  0
 36 34  1  0  0  0  0
 37 35  2  0  0  0  0
 38 36  1  0  0  0  0
 39 38  1  0  0  0  0
 40 38  2  0  0  0  0
 41 39  2  0  0  0  0
 42 40  1  0  0  0  0
 43 42  2  0  0  0  0
 43 41  1  0  0  0  0
 44 43  1  0  0  0  0
 45 44  2  0  0  0  0
 46 44  2  0  0  0  0
 47 44  1  0  0  0  0
 48 47  1  0  0  0  0
 49 47  1  0  0  0  0
 50 51  1  0  0  0  0
 52 51  1  0  0  0  0
 52 53  1  0  0  0  0
 54 53  1  0  0  0  0
 55 54  1  0  0  0  0
M  END
>  <REMARK>
 VINA RESULT:    -4.938      2.707      4.973
 INTER + INTRA:         -14.942
 INTER:                  -7.697
 INTRA:                  -7.246
 UNBOUND:                -5.964
 SMILES CC(=O)N[C@@H]1[C@@H](O)C[C@](O)(C(=O)O)O[C@H]1C(O)[C@H](O)CNC(=O)OCc1cn(-c2ccc(S(N)(=O)=O)cc2)nn1
 SMILES IDX 21 1 22 2 23 3 20 5 18 6 16 7 15 8 9 9 8 10 14 11 6 12 5 13
 SMILES IDX 10 14 11 16 12 17 13 18 7 20 4 22 2 23 1 25 3 26 17 27 19 29
 SMILES IDX 24 31 25 32 26 33 27 34 40 35 28 36 39 37 29 38 30 39 38 40
 SMILES IDX 31 41 37 42 32 43 33 44 35 45 36 46 34 47
 H PARENT 21 4 10 15 13 19 7 21 4 24 17 28 19 30 34 48 34 49
 Flexibility Score: inf
  4 active torsions:
  status: ('A' for Active; 'I' for Inactive)
    1  A    between atoms: CA   and  CB  
    2  A    between atoms: CB   and  CG  
    3  A    between atoms: CG   and  CD  
    4  A    between atoms: CD   and  CE  

>  <TORSDO>
F 17

>  <BEGIN_>
RES LYS A 131

$$$$
ligand_60_pose_9_2HRL.pdbqt
 OpenBabel07062320523D

  6  5  0  0  0  0  0  0  0  0999 V2000
   33.1930   34.6630    9.2900 C   0  0  0  0  0  0  0  0  0  0  0  0
   32.0600   35.3600   10.0340 C   0  0  0  0  0  0  0  0  0  0  0  0
   30.7100   34.7340    9.7980 C   0  0  0  0  0  0  0  0  0  0  0  0
   30.4680   34.5240    8.3120 C   0  0  0  0  0  0  0  0  0  0  0  0
   29.0240   34.8250    7.9590 C   0  0  0  0  0  0  0  0  0  0  0  0
   28.9270   35.5370    6.6550 N   0  0  0  0  0  0  0  0  0  0  0  0
  1  2  1  0  0  0  0
  3  2  1  0  0  0  0
  4  3  1  0  0  0  0
  5  4  1  0  0  0  0
  6  5  1  0  0  0  0
M  END
>  <EGIN_R>
ES LYS A 135

>  <REMARK>
  4 active torsions:
  status: ('A' for Active; 'I' for Inactive)
    5  A    between atoms: CA   and  CB  
    6  A    between atoms: CB   and  CG  
    7  A    between atoms: CG   and  CD  
    8  A    between atoms: CD   and  CE  

$$$$
