ligand_16_pose_10_2HRL.pdbqt
 OpenBabel07062320523D

 54 55  0  0  1  0  0  0  0  0999 V2000
   26.6580   36.3450   12.5920 N   0  0  0  0  0  0  0  0  0  0  0  0
   27.7360   35.9060   11.8050 C   0  0  0  0  0  0  0  0  0  0  0  0
   27.6590   34.8260   11.1970 O   0  0  0  0  0  0  0  0  0  0  0  0
   26.8050   37.2790   13.0840 H   0  0  0  0  0  0  0  0  0  0  0  0
   25.4270   35.6160   12.7480 C   0  0  0  0  0  0  0  0  0  0  0  0
   24.3290   36.3160   11.9920 C   0  0  2  0  0  0  0  0  0  0  0  0
   23.9570   35.6540   10.7030 C   0  0  1  0  0  0  0  0  0  0  0  0
   22.6940   36.3070   10.1130 C   0  0  2  0  0  0  0  0  0  0  0  0
   20.5970   35.6860    9.3620 C   0  0  2  0  0  0  0  0  0  0  0  0
   20.9160   35.9610    7.9000 C   0  0  0  0  0  0  0  0  0  0  0  0
   21.7720   35.2940    9.9580 O   0  0  0  0  0  0  0  0  0  0  0  0
   21.9770   37.0070    7.7880 C   0  0  1  0  0  0  0  0  0  0  0  0
   23.0880   36.8610    8.7910 C   0  0  1  0  0  0  0  0  0  0  0  0
   19.7510   34.5410    9.3170 O   0  0  0  0  0  0  0  0  0  0  0  0
   19.0780   34.6910    8.5820 H   0  0  0  0  0  0  0  0  0  0  0  0
   19.8880   36.8040    9.9910 C   0  0  0  0  0  0  0  0  0  0  0  0
   19.4160   36.6500   11.1690 O   0  0  0  0  0  0  0  0  0  0  0  0
   19.6580   38.0480    9.4390 O   0  0  0  0  0  0  0  0  0  0  0  0
   19.7270   38.1260    8.4340 H   0  0  0  0  0  0  0  0  0  0  0  0
   22.5610   36.8560    6.5070 O   0  0  0  0  0  0  0  0  0  0  0  0
   22.8320   37.7650    6.2280 H   0  0  0  0  0  0  0  0  0  0  0  0
   23.8160   38.1100    8.8850 N   0  0  0  0  0  0  0  0  0  0  0  0
   25.0370   38.3210    8.1970 C   0  0  0  0  0  0  0  0  0  0  0  0
   23.4580   38.8980    9.4660 H   0  0  0  0  0  0  0  0  0  0  0  0
   25.7780   39.6290    8.3090 C   0  0  0  0  0  0  0  0  0  0  0  0
   25.4930   37.4020    7.4920 O   0  0  0  0  0  0  0  0  0  0  0  0
   24.9680   35.5790    9.7770 O   0  0  0  0  0  0  0  0  0  0  0  0
   25.6250   36.3050    9.9330 H   0  0  0  0  0  0  0  0  0  0  0  0
   24.6200   37.6680   11.7640 O   0  0  0  0  0  0  0  0  0  0  0  0
   23.9690   38.0310   11.0990 H   0  0  0  0  0  0  0  0  0  0  0  0
   28.9160   36.6240   11.6590 O   0  0  0  0  0  0  0  0  0  0  0  0
   29.5410   37.3300   12.7030 C   0  0  0  0  0  0  0  0  0  0  0  0
   30.7500   36.6070   13.1460 C   0  0  0  0  0  0  0  0  0  0  0  0
   31.0410   36.2500   14.4640 C   0  0  0  0  0  0  0  0  0  0  0  0
   31.8000   36.1520   12.4360 N   0  0  0  0  0  0  0  0  0  0  0  0
   32.2190   35.6140   14.4890 N   0  0  0  0  0  0  0  0  0  0  0  0
   32.6560   35.5670   13.2540 N   0  0  0  0  0  0  0  0  0  0  0  0
   32.8970   35.0800   15.6800 C   0  0  0  0  0  0  0  0  0  0  0  0
   32.0150   33.9760   16.1770 C   0  0  0  0  0  0  0  0  0  0  0  0
   31.5570   34.0100   17.4640 C   0  0  0  0  0  0  0  0  0  0  0  0
   31.6560   32.9230   15.3730 C   0  0  0  0  0  0  0  0  0  0  0  0
   30.7360   32.9920   17.9590 C   0  0  0  0  0  0  0  0  0  0  0  0
   30.8390   31.9100   15.8640 C   0  0  0  0  0  0  0  0  0  0  0  0
   30.3710   31.9340   17.1620 C   0  0  0  0  0  0  0  0  0  0  0  0
   29.5140   30.8690   17.6650 C   0  0  0  0  0  0  0  0  0  0  0  0
   29.3020   30.6820   18.8830 O   0  0  0  0  0  0  0  0  0  0  0  0
   28.8940   30.0120   16.7620 O   0  0  0  0  0  0  0  0  0  0  0  0
   29.3910   29.6310   15.9760 H   0  0  0  0  0  0  0  0  0  0  0  0
   29.8670   25.5550   16.9770 C   0  0  0  0  0  0  0  0  0  0  0  0
   28.3450   25.7220   17.0260 C   0  0  0  0  0  0  0  0  0  0  0  0
   27.5990   24.4210   16.7690 C   0  0  0  0  0  0  0  0  0  0  0  0
   26.7980   23.9830   17.9630 C   0  0  0  0  0  0  0  0  0  0  0  0
   25.4370   23.4700   17.5030 C   0  0  0  0  0  0  0  0  0  0  0  0
   24.5090   24.6010   17.2670 N   0  0  0  0  0  0  0  0  0  0  0  0
  1  5  1  0  0  0  0
  1  4  1  0  0  0  0
  2  1  1  0  0  0  0
  3  2  2  0  0  0  0
  6  5  1  6  0  0  0
  7 27  1  6  0  0  0
  7  6  1  0  0  0  0
  8  7  1  6  0  0  0
  9 14  1  1  0  0  0
  9 11  1  0  0  0  0
  9 16  1  0  0  0  0
 10  9  1  0  0  0  0
 11  8  1  0  0  0  0
 12 20  1  6  0  0  0
 12 10  1  0  0  0  0
 12 13  1  0  0  0  0
 13 22  1  1  0  0  0
 13  8  1  0  0  0  0
 15 14  1  0  0  0  0
 16 17  2  0  0  0  0
 18 16  1  0  0  0  0
 19 18  1  0  0  0  0
 21 20  1  0  0  0  0
 22 24  1  0  0  0  0
 23 25  1  0  0  0  0
 23 22  1  0  0  0  0
 26 23  2  0  0  0  0
 27 28  1  0  0  0  0
 29  6  1  0  0  0  0
 30 29  1  0  0  0  0
 31  2  1  0  0  0  0
 31 32  1  0  0  0  0
 32 33  1  0  0  0  0
 33 34  2  0  0  0  0
 34 36  1  0  0  0  0
 35 33  1  0  0  0  0
 35 37  2  0  0  0  0
 36 38  1  0  0  0  0
 37 36  1  0  0  0  0
 38 39  1  0  0  0  0
 39 40  2  0  0  0  0
 40 42  1  0  0  0  0
 41 43  2  0  0  0  0
 41 39  1  0  0  0  0
 43 44  1  0  0  0  0
 44 45  1  0  0  0  0
 44 42  2  0  0  0  0
 45 46  2  0  0  0  0
 47 45  1  0  0  0  0
 48 47  1  0  0  0  0
 49 50  1  0  0  0  0
 51 50  1  0  0  0  0
 51 52  1  0  0  0  0
 53 52  1  0  0  0  0
 54 53  1  0  0  0  0
M  END
>  <REMARK>
 VINA RESULT:    -5.922      5.523     11.913
 INTER + INTRA:         -15.107
 INTER:                  -9.769
 INTRA:                  -5.339
 UNBOUND:                -3.993
 SMILES CC(=O)N[C@@H]1[C@@H](O)C[C@](O)(C(=O)O)O[C@H]1C(O)[C@H](O)CNC(=O)OCc1cn(Cc2ccc(C(=O)O)cc2)nn1
 SMILES IDX 21 1 22 2 23 3 20 5 18 6 16 7 15 8 9 9 8 10 14 11 6 12 5 13
 SMILES IDX 10 14 11 16 12 17 13 18 7 20 4 22 2 23 1 25 3 26 17 27 19 29
 SMILES IDX 24 31 25 32 26 33 27 34 40 35 28 36 39 37 29 38 30 39 31 40
 SMILES IDX 38 41 32 42 37 43 33 44 34 45 35 46 36 47
 H PARENT 21 4 10 15 13 19 7 21 4 24 17 28 19 30 36 48
 Flexibility Score: inf
  4 active torsions:
  status: ('A' for Active; 'I' for Inactive)
    1  A    between atoms: CA   and  CB  
    2  A    between atoms: CB   and  CG  
    3  A    between atoms: CG   and  CD  
    4  A    between atoms: CD   and  CE  

>  <TORSDO>
F 18

>  <BEGIN_>
RES LYS A 131

$$$$
ligand_16_pose_10_2HRL.pdbqt
 OpenBabel07062320523D

  6  5  0  0  0  0  0  0  0  0999 V2000
   33.1930   34.6630    9.2900 C   0  0  0  0  0  0  0  0  0  0  0  0
   32.0600   35.3600   10.0340 C   0  0  0  0  0  0  0  0  0  0  0  0
   30.8750   35.6840    9.1610 C   0  0  0  0  0  0  0  0  0  0  0  0
   30.2060   34.4100    8.6700 C   0  0  0  0  0  0  0  0  0  0  0  0
   28.8540   34.7200    8.0560 C   0  0  0  0  0  0  0  0  0  0  0  0
   29.0040   35.4890    6.7890 N   0  0  0  0  0  0  0  0  0  0  0  0
  1  2  1  0  0  0  0
  3  2  1  0  0  0  0
  4  3  1  0  0  0  0
  5  4  1  0  0  0  0
  6  5  1  0  0  0  0
M  END
>  <EGIN_R>
ES LYS A 135

>  <REMARK>
  4 active torsions:
  status: ('A' for Active; 'I' for Inactive)
    5  A    between atoms: CA   and  CB  
    6  A    between atoms: CB   and  CG  
    7  A    between atoms: CG   and  CD  
    8  A    between atoms: CD   and  CE  

$$$$
