ligand_31_pose_15_2HRL.pdbqt
 OpenBabel07062320523D

 57 58  0  0  1  0  0  0  0  0999 V2000
   27.3680   41.3670   10.7570 O   0  0  0  0  0  0  0  0  0  0  0  0
   26.5840   40.6700   11.6700 C   0  0  0  0  0  0  0  0  0  0  0  0
   26.3810   39.2830   11.6470 N   0  0  0  0  0  0  0  0  0  0  0  0
   26.8280   38.7100   10.9170 H   0  0  0  0  0  0  0  0  0  0  0  0
   26.0220   41.3390   12.5770 O   0  0  0  0  0  0  0  0  0  0  0  0
   25.5330   38.6490   12.6610 C   0  0  0  0  0  0  0  0  0  0  0  0
   24.7610   37.5290   12.0170 C   0  0  2  0  0  0  0  0  0  0  0  0
   23.3680   37.9400   11.6270 C   0  0  1  0  0  0  0  0  0  0  0  0
   23.0190   37.5490   10.2210 C   0  0  2  0  0  0  0  0  0  0  0  0
   21.8790   38.4400    8.3850 C   0  0  2  0  0  0  0  0  0  0  0  0
   21.6110   37.0750    7.8400 C   0  0  0  0  0  0  0  0  0  0  0  0
   22.1150   38.5040    9.7210 O   0  0  0  0  0  0  0  0  0  0  0  0
   22.1700   35.9520    8.6150 C   0  0  1  0  0  0  0  0  0  0  0  0
   22.2770   36.2400   10.1010 C   0  0  1  0  0  0  0  0  0  0  0  0
   20.6860   39.1750    8.1600 O   0  0  0  0  0  0  0  0  0  0  0  0
   19.9010   38.6810    8.5020 H   0  0  0  0  0  0  0  0  0  0  0  0
   22.9540   39.1540    7.6530 C   0  0  0  0  0  0  0  0  0  0  0  0
   22.9220   40.4060    7.4880 O   0  0  0  0  0  0  0  0  0  0  0  0
   24.0520   38.5010    7.1060 O   0  0  0  0  0  0  0  0  0  0  0  0
   24.7710   38.1220    7.7140 H   0  0  0  0  0  0  0  0  0  0  0  0
   21.3880   34.7960    8.4140 O   0  0  0  0  0  0  0  0  0  0  0  0
   21.9350   34.0290    8.1480 H   0  0  0  0  0  0  0  0  0  0  0  0
   22.8530   35.1360   10.7890 N   0  0  0  0  0  0  0  0  0  0  0  0
   22.0820   34.4750   11.7950 C   0  0  0  0  0  0  0  0  0  0  0  0
   23.8060   34.7580   10.6090 H   0  0  0  0  0  0  0  0  0  0  0  0
   22.5890   33.3190   12.5660 C   0  0  0  0  0  0  0  0  0  0  0  0
   20.9110   34.8790   12.0540 O   0  0  0  0  0  0  0  0  0  0  0  0
   22.4070   37.6030   12.5630 O   0  0  0  0  0  0  0  0  0  0  0  0
   21.7310   36.9600   12.2300 H   0  0  0  0  0  0  0  0  0  0  0  0
   24.5880   36.5530   13.0370 O   0  0  0  0  0  0  0  0  0  0  0  0
   25.2000   36.8670   13.7710 H   0  0  0  0  0  0  0  0  0  0  0  0
   28.2020   40.6940    9.8380 C   0  0  0  0  0  0  0  0  0  0  0  0
   27.5940   40.8060    8.4930 C   0  0  0  0  0  0  0  0  0  0  0  0
   28.1470   41.3840    7.3830 C   0  0  0  0  0  0  0  0  0  0  0  0
   26.3840   40.3530    8.1310 N   0  0  0  0  0  0  0  0  0  0  0  0
   27.2600   41.2670    6.3790 N   0  0  0  0  0  0  0  0  0  0  0  0
   26.1890   40.6390    6.8370 N   0  0  0  0  0  0  0  0  0  0  0  0
   27.4190   41.7410    5.0010 C   0  0  0  0  0  0  0  0  0  0  0  0
   28.1710   40.6810    4.2420 C   0  0  0  0  0  0  0  0  0  0  0  0
   27.5200   39.4080    4.4250 N   0  0  0  0  0  0  0  0  0  0  0  0
   28.0840   38.3180    5.1300 C   0  0  0  0  0  0  0  0  0  0  0  0
   26.5560   39.2500    4.0170 H   0  0  0  0  0  0  0  0  0  0  0  0
   29.2360   38.4650    5.6380 O   0  0  0  0  0  0  0  0  0  0  0  0
   27.3620   37.1030    5.2540 N   0  0  0  0  0  0  0  0  0  0  0  0
   26.4200   36.9570    4.8480 H   0  0  0  0  0  0  0  0  0  0  0  0
   27.9710   36.0110    5.9810 C   0  0  0  0  0  0  0  0  0  0  0  0
   27.2130   35.8040    7.2340 C   0  0  0  0  0  0  0  0  0  0  0  0
   27.2650   34.6360    7.9870 C   0  0  0  0  0  0  0  0  0  0  0  0
   26.4090   36.6390    7.8140 O   0  0  0  0  0  0  0  0  0  0  0  0
   26.4250   34.8530    9.0580 C   0  0  0  0  0  0  0  0  0  0  0  0
   25.9160   36.1250    8.8980 C   0  0  0  0  0  0  0  0  0  0  0  0
   29.8670   25.5550   16.9770 C   0  0  0  0  0  0  0  0  0  0  0  0
   28.3450   25.7220   17.0260 C   0  0  0  0  0  0  0  0  0  0  0  0
   27.6020   24.3990   16.9270 C   0  0  0  0  0  0  0  0  0  0  0  0
   26.5000   24.2900   17.9430 C   0  0  0  0  0  0  0  0  0  0  0  0
   25.2410   24.9630   17.4040 C   0  0  0  0  0  0  0  0  0  0  0  0
   24.0500   24.5230   18.1680 N   0  0  0  0  0  0  0  0  0  0  0  0
  1  2  1  0  0  0  0
  2  5  2  0  0  0  0
  3  2  1  0  0  0  0
  3  6  1  0  0  0  0
  4  3  1  0  0  0  0
  7  6  1  1  0  0  0
  7 30  1  0  0  0  0
  8  7  1  0  0  0  0
  8 28  1  1  0  0  0
  9  8  1  1  0  0  0
 10 17  1  6  0  0  0
 10 12  1  0  0  0  0
 11 10  1  0  0  0  0
 11 13  1  0  0  0  0
 12  9  1  0  0  0  0
 13 21  1  1  0  0  0
 13 14  1  0  0  0  0
 14  9  1  0  0  0  0
 14 23  1  1  0  0  0
 15 10  1  0  0  0  0
 15 16  1  0  0  0  0
 18 17  2  0  0  0  0
 19 17  1  0  0  0  0
 19 20  1  0  0  0  0
 22 21  1  0  0  0  0
 23 24  1  0  0  0  0
 24 27  2  0  0  0  0
 24 26  1  0  0  0  0
 25 23  1  0  0  0  0
 29 28  1  0  0  0  0
 30 31  1  0  0  0  0
 32  1  1  0  0  0  0
 33 32  1  0  0  0  0
 34 33  2  0  0  0  0
 35 33  1  0  0  0  0
 36 37  1  0  0  0  0
 36 34  1  0  0  0  0
 37 35  2  0  0  0  0
 38 36  1  0  0  0  0
 39 40  1  0  0  0  0
 39 38  1  0  0  0  0
 40 41  1  0  0  0  0
 41 44  1  0  0  0  0
 41 43  2  0  0  0  0
 42 40  1  0  0  0  0
 44 46  1  0  0  0  0
 45 44  1  0  0  0  0
 46 47  1  0  0  0  0
 47 49  1  0  0  0  0
 47 48  2  0  0  0  0
 48 50  1  0  0  0  0
 49 51  1  0  0  0  0
 51 50  2  0  0  0  0
 52 53  1  0  0  0  0
 54 53  1  0  0  0  0
 54 55  1  0  0  0  0
 56 55  1  0  0  0  0
 56 57  1  0  0  0  0
M  END
>  <REMARK>
 VINA RESULT:    -4.893      8.288     13.753
 INTER + INTRA:         -15.522
 INTER:                  -8.986
 INTRA:                  -6.536
 UNBOUND:                -5.909
 SMILES CC(=O)N[C@@H]1[C@@H](O)C[C@](O)(C(=O)O)O[C@H]1C(O)[C@H](O)CNC(=O)OCc1cn(CCNC(=O)NCc2ccco2)nn1
 SMILES IDX 24 1 22 2 21 3 23 5 20 6 18 7 16 8 15 9 9 10 8 11 14 12 6 13
 SMILES IDX 5 14 10 15 11 17 12 18 13 19 7 21 4 23 2 24 1 26 3 27 17 28
 SMILES IDX 19 30 25 32 26 33 27 34 42 35 28 36 41 37 29 38 30 39 31 40
 SMILES IDX 32 41 33 43 34 44 35 46 36 47 37 48 40 49 38 50 39 51
 H PARENT 21 4 10 16 13 20 7 22 4 25 17 29 19 31 31 42 34 45
 Flexibility Score: inf
  4 active torsions:
  status: ('A' for Active; 'I' for Inactive)
    1  A    between atoms: CA   and  CB  
    2  A    between atoms: CB   and  CG  
    3  A    between atoms: CG   and  CD  
    4  A    between atoms: CD   and  CE  

>  <TORSDO>
F 19

>  <BEGIN_>
RES LYS A 131

$$$$
ligand_31_pose_15_2HRL.pdbqt
 OpenBabel07062320523D

  6  5  0  0  0  0  0  0  0  0999 V2000
   33.1930   34.6630    9.2900 C   0  0  0  0  0  0  0  0  0  0  0  0
   32.0600   35.3600   10.0340 C   0  0  0  0  0  0  0  0  0  0  0  0
   30.6880   34.9460    9.5680 C   0  0  0  0  0  0  0  0  0  0  0  0
   29.7360   34.8180   10.7470 C   0  0  0  0  0  0  0  0  0  0  0  0
   30.5030   34.8440   12.0550 C   0  0  0  0  0  0  0  0  0  0  0  0
   29.6310   34.4470   13.1950 N   0  0  0  0  0  0  0  0  0  0  0  0
  1  2  1  0  0  0  0
  3  2  1  0  0  0  0
  3  4  1  0  0  0  0
  4  5  1  0  0  0  0
  5  6  1  0  0  0  0
M  END
>  <EGIN_R>
ES LYS A 135

>  <REMARK>
  4 active torsions:
  status: ('A' for Active; 'I' for Inactive)
    5  A    between atoms: CA   and  CB  
    6  A    between atoms: CB   and  CG  
    7  A    between atoms: CG   and  CD  
    8  A    between atoms: CD   and  CE  

$$$$
