ligand_33_pose_14_2HRL.pdbqt
 OpenBabel07062320523D

 52 52  0  0  1  0  0  0  0  0999 V2000
   30.4850   35.8800   14.3980 C   0  0  0  0  0  0  0  0  0  0  0  0
   31.4590   34.8470   14.3070 O   0  0  0  0  0  0  0  0  0  0  0  0
   31.3670   33.7870   15.2180 C   0  0  0  0  0  0  0  0  0  0  0  0
   30.7380   32.5850   14.7870 N   0  0  0  0  0  0  0  0  0  0  0  0
   30.3750   32.5510   13.7970 H   0  0  0  0  0  0  0  0  0  0  0  0
   31.8420   33.9510   16.3680 O   0  0  0  0  0  0  0  0  0  0  0  0
   30.6270   31.4920   15.6990 C   0  0  0  0  0  0  0  0  0  0  0  0
   29.2150   31.0160   15.9460 C   0  0  2  0  0  0  0  0  0  0  0  0
   28.9280   31.1400   17.4300 C   0  0  2  0  0  0  0  0  0  0  0  0
   27.5310   31.5460   17.7620 C   0  0  2  0  0  0  0  0  0  0  0  0
   26.9050   29.3850   18.4130 C   0  0  2  0  0  0  0  0  0  0  0  0
   26.2550   29.2490   17.0260 C   0  0  0  0  0  0  0  0  0  0  0  0
   27.0480   30.7020   18.7410 O   0  0  0  0  0  0  0  0  0  0  0  0
   25.5050   30.5420   16.8160 C   0  0  1  0  0  0  0  0  0  0  0  0
   26.5680   31.6410   16.6340 C   0  0  1  0  0  0  0  0  0  0  0  0
   28.0730   28.6280   18.4640 O   0  0  0  0  0  0  0  0  0  0  0  0
   28.4470   28.4660   17.5410 H   0  0  0  0  0  0  0  0  0  0  0  0
   25.9420   28.7870   19.3720 C   0  0  0  0  0  0  0  0  0  0  0  0
   25.5130   29.4750   20.3470 O   0  0  0  0  0  0  0  0  0  0  0  0
   25.5290   27.4810   19.1780 O   0  0  0  0  0  0  0  0  0  0  0  0
   25.6630   27.1040   18.2300 H   0  0  0  0  0  0  0  0  0  0  0  0
   24.6700   30.4880   15.7000 O   0  0  0  0  0  0  0  0  0  0  0  0
   23.8080   30.1030   16.0090 H   0  0  0  0  0  0  0  0  0  0  0  0
   25.9060   32.9380   16.5810 N   0  0  0  0  0  0  0  0  0  0  0  0
   26.2290   33.9270   15.6320 C   0  0  0  0  0  0  0  0  0  0  0  0
   25.1440   33.1380   17.2900 H   0  0  0  0  0  0  0  0  0  0  0  0
   25.5260   35.2600   15.6060 C   0  0  0  0  0  0  0  0  0  0  0  0
   27.1400   33.6760   14.7840 O   0  0  0  0  0  0  0  0  0  0  0  0
   29.7420   32.2350   17.8400 O   0  0  0  0  0  0  0  0  0  0  0  0
   30.5030   31.8310   18.3190 H   0  0  0  0  0  0  0  0  0  0  0  0
   29.1060   29.7280   15.4720 O   0  0  0  0  0  0  0  0  0  0  0  0
   28.7580   29.1150   16.1650 H   0  0  0  0  0  0  0  0  0  0  0  0
   29.5450   35.6600   13.2740 C   0  0  0  0  0  0  0  0  0  0  0  0
   28.6740   36.6210   12.8050 C   0  0  0  0  0  0  0  0  0  0  0  0
   29.3670   34.5620   12.5400 N   0  0  0  0  0  0  0  0  0  0  0  0
   28.0010   36.0340   11.7900 N   0  0  0  0  0  0  0  0  0  0  0  0
   28.4240   34.7990   11.6380 N   0  0  0  0  0  0  0  0  0  0  0  0
   26.9710   36.7510   11.0350 C   0  0  0  0  0  0  0  0  0  0  0  0
   27.3640   36.7210    9.5810 C   0  0  0  0  0  0  0  0  0  0  0  0
   26.6060   35.6800    8.7870 C   0  0  0  0  0  0  0  0  0  0  0  0
   27.4950   34.8440    7.9350 C   0  0  0  0  0  0  0  0  0  0  0  0
   28.8990   35.3710    7.8140 C   0  0  0  0  0  0  0  0  0  0  0  0
   29.9230   34.4770    8.3740 C   0  0  0  0  0  0  0  0  0  0  0  0
   31.0890   34.4860    7.9490 O   0  0  0  0  0  0  0  0  0  0  0  0
   29.6040   33.5840    9.4120 O   0  0  0  0  0  0  0  0  0  0  0  0
   28.6420   33.5260    9.7630 H   0  0  0  0  0  0  0  0  0  0  0  0
   29.8670   25.5550   16.9770 C   0  0  0  0  0  0  0  0  0  0  0  0
   28.3450   25.7220   17.0260 C   0  0  0  0  0  0  0  0  0  0  0  0
   27.6020   24.4000   16.9160 C   0  0  0  0  0  0  0  0  0  0  0  0
   26.1570   24.5280   17.3110 C   0  0  0  0  0  0  0  0  0  0  0  0
   25.7040   23.2480   18.0070 C   0  0  0  0  0  0  0  0  0  0  0  0
   25.5110   23.4850   19.4570 N   0  0  0  0  0  0  0  0  0  0  0  0
  2  1  1  0  0  0  0
  2  3  1  0  0  0  0
  3  6  2  0  0  0  0
  4  3  1  0  0  0  0
  4  7  1  0  0  0  0
  5  4  1  0  0  0  0
  8  7  1  1  0  0  0
  8  9  1  0  0  0  0
  9 29  1  6  0  0  0
 10  9  1  6  0  0  0
 10 13  1  0  0  0  0
 11 16  1  1  0  0  0
 11 13  1  0  0  0  0
 11 18  1  0  0  0  0
 12 11  1  0  0  0  0
 14 22  1  6  0  0  0
 14 12  1  0  0  0  0
 15 24  1  1  0  0  0
 15 14  1  0  0  0  0
 15 10  1  0  0  0  0
 17 16  1  0  0  0  0
 18 19  2  0  0  0  0
 20 18  1  0  0  0  0
 21 20  1  0  0  0  0
 22 23  1  0  0  0  0
 24 26  1  0  0  0  0
 25 24  1  0  0  0  0
 27 25  1  0  0  0  0
 28 25  2  0  0  0  0
 29 30  1  0  0  0  0
 31  8  1  0  0  0  0
 31 32  1  0  0  0  0
 33  1  1  0  0  0  0
 34 33  2  0  0  0  0
 35 33  1  0  0  0  0
 36 34  1  0  0  0  0
 37 36  1  0  0  0  0
 37 35  2  0  0  0  0
 38 36  1  0  0  0  0
 39 38  1  0  0  0  0
 40 39  1  0  0  0  0
 41 40  1  0  0  0  0
 42 41  1  0  0  0  0
 42 43  1  0  0  0  0
 43 45  1  0  0  0  0
 44 43  2  0  0  0  0
 45 46  1  0  0  0  0
 47 48  1  0  0  0  0
 49 48  1  0  0  0  0
 49 50  1  0  0  0  0
 50 51  1  0  0  0  0
 51 52  1  0  0  0  0
M  END
>  <REMARK>
 VINA RESULT:    -4.260      5.735      8.993
 INTER + INTRA:         -14.661
 INTER:                  -9.969
 INTRA:                  -4.692
 UNBOUND:                -5.918
 SMILES CC(=O)N[C@@H]1[C@@H](O)C[C@](O)(C(=O)O)O[C@H]1C(O)[C@H](O)CNC(=O)OCc1cn(CCCCCC(=O)O)nn1
 SMILES IDX 25 1 24 2 22 3 21 4 23 6 20 7 18 8 16 9 15 10 9 11 8 12
 SMILES IDX 14 13 6 14 5 15 10 16 11 18 12 19 13 20 7 22 4 24 2 25 1 27
 SMILES IDX 3 28 17 29 19 31 26 33 27 34 38 35 28 36 37 37 29 38 30 39
 SMILES IDX 31 40 32 41 33 42 34 43 35 44 36 45
 H PARENT 21 5 10 17 13 21 7 23 4 26 17 30 19 32 36 46
 Flexibility Score: inf
  4 active torsions:
  status: ('A' for Active; 'I' for Inactive)
    1  A    between atoms: CA   and  CB  
    2  A    between atoms: CB   and  CG  
    3  A    between atoms: CG   and  CD  
    4  A    between atoms: CD   and  CE  

>  <TORSDO>
F 21

>  <BEGIN_>
RES LYS A 131

$$$$
ligand_33_pose_14_2HRL.pdbqt
 OpenBabel07062320523D

  6  5  0  0  0  0  0  0  0  0999 V2000
   33.1930   34.6630    9.2900 C   0  0  0  0  0  0  0  0  0  0  0  0
   32.0600   35.3600   10.0340 C   0  0  0  0  0  0  0  0  0  0  0  0
   32.5200   36.1400   11.2380 C   0  0  0  0  0  0  0  0  0  0  0  0
   31.9670   37.5570   11.2030 C   0  0  0  0  0  0  0  0  0  0  0  0
   30.9710   37.7120   10.0700 C   0  0  0  0  0  0  0  0  0  0  0  0
   30.1610   38.9500   10.2340 N   0  0  0  0  0  0  0  0  0  0  0  0
  1  2  1  0  0  0  0
  2  3  1  0  0  0  0
  4  3  1  0  0  0  0
  5  6  1  0  0  0  0
  5  4  1  0  0  0  0
M  END
>  <EGIN_R>
ES LYS A 135

>  <REMARK>
  4 active torsions:
  status: ('A' for Active; 'I' for Inactive)
    5  A    between atoms: CA   and  CB  
    6  A    between atoms: CB   and  CG  
    7  A    between atoms: CG   and  CD  
    8  A    between atoms: CD   and  CE  

$$$$
