ligand_12_pose_7_2HRL.pdbqt
 OpenBabel07062320523D

 52 53  0  0  1  0  0  0  0  0999 V2000
   30.4550   31.2570   16.4330 N   0  0  0  0  0  0  0  0  0  0  0  0
   30.5690   32.6200   16.0300 C   0  0  0  0  0  0  0  0  0  0  0  0
   29.7490   33.4960   16.4420 O   0  0  0  0  0  0  0  0  0  0  0  0
   31.1410   30.5710   16.0790 H   0  0  0  0  0  0  0  0  0  0  0  0
   29.3680   30.9200   17.3300 C   0  0  0  0  0  0  0  0  0  0  0  0
   29.7960   30.9350   18.7720 C   0  0  2  0  0  0  0  0  0  0  0  0
   29.0100   29.9060   19.5560 C   0  0  2  0  0  0  0  0  0  0  0  0
   29.7990   29.3000   20.6690 C   0  0  2  0  0  0  0  0  0  0  0  0
   31.9290   29.3600   21.6100 C   0  0  2  0  0  0  0  0  0  0  0  0
   31.5730   27.9950   22.1820 C   0  0  0  0  0  0  0  0  0  0  0  0
   31.1170   29.7290   20.5440 O   0  0  0  0  0  0  0  0  0  0  0  0
   31.0360   27.1690   21.0340 C   0  0  1  0  0  0  0  0  0  0  0  0
   29.6970   27.7900   20.6710 C   0  0  1  0  0  0  0  0  0  0  0  0
   33.2120   29.2210   21.0850 O   0  0  0  0  0  0  0  0  0  0  0  0
   33.6100   30.0930   20.8360 H   0  0  0  0  0  0  0  0  0  0  0  0
   31.9620   30.3730   22.6730 C   0  0  0  0  0  0  0  0  0  0  0  0
   32.1770   30.0180   23.8580 O   0  0  0  0  0  0  0  0  0  0  0  0
   31.7650   31.7300   22.4460 O   0  0  0  0  0  0  0  0  0  0  0  0
   32.4920   32.3710   22.7500 H   0  0  0  0  0  0  0  0  0  0  0  0
   31.8960   27.1910   19.9400 O   0  0  0  0  0  0  0  0  0  0  0  0
   32.7210   27.7070   20.1960 H   0  0  0  0  0  0  0  0  0  0  0  0
   28.7530   27.3810   21.6890 N   0  0  0  0  0  0  0  0  0  0  0  0
   27.4350   26.9970   21.3260 C   0  0  0  0  0  0  0  0  0  0  0  0
   28.9850   27.3470   22.7120 H   0  0  0  0  0  0  0  0  0  0  0  0
   26.4250   26.5670   22.3320 C   0  0  0  0  0  0  0  0  0  0  0  0
   27.0730   27.0070   20.1210 O   0  0  0  0  0  0  0  0  0  0  0  0
   28.4360   29.0050   18.6930 O   0  0  0  0  0  0  0  0  0  0  0  0
   29.1740   28.4700   18.2840 H   0  0  0  0  0  0  0  0  0  0  0  0
   29.6150   32.2140   19.2830 O   0  0  0  0  0  0  0  0  0  0  0  0
   29.1020   32.7670   18.6360 H   0  0  0  0  0  0  0  0  0  0  0  0
   31.5710   33.0580   15.1750 O   0  0  0  0  0  0  0  0  0  0  0  0
   31.8040   34.4170   14.8670 C   0  0  0  0  0  0  0  0  0  0  0  0
   32.7960   35.0470   15.7650 C   0  0  0  0  0  0  0  0  0  0  0  0
   34.0770   35.4940   15.5200 C   0  0  0  0  0  0  0  0  0  0  0  0
   32.5840   35.3000   17.0680 N   0  0  0  0  0  0  0  0  0  0  0  0
   34.6020   35.9990   16.6640 N   0  0  0  0  0  0  0  0  0  0  0  0
   33.6590   35.8600   17.5770 N   0  0  0  0  0  0  0  0  0  0  0  0
   35.9400   36.5820   16.8520 C   0  0  0  0  0  0  0  0  0  0  0  0
   36.8960   35.5750   16.7590 O   0  0  0  0  0  0  0  0  0  0  0  0
   38.0160   35.9710   16.0670 C   0  0  0  0  0  0  0  0  0  0  0  0
   38.3060   35.1720   14.8600 C   0  0  0  0  0  0  0  0  0  0  0  0
   39.3850   35.4990   14.0640 C   0  0  0  0  0  0  0  0  0  0  0  0
   37.5250   34.0990   14.5120 C   0  0  0  0  0  0  0  0  0  0  0  0
   39.6830   34.7530   12.9210 C   0  0  0  0  0  0  0  0  0  0  0  0
   37.8240   33.3620   13.3770 C   0  0  0  0  0  0  0  0  0  0  0  0
   38.8840   33.6760   12.5870 C   0  0  0  0  0  0  0  0  0  0  0  0
   29.8670   25.5550   16.9770 C   0  0  0  0  0  0  0  0  0  0  0  0
   28.3450   25.7220   17.0260 C   0  0  0  0  0  0  0  0  0  0  0  0
   27.6010   24.4030   16.8860 C   0  0  0  0  0  0  0  0  0  0  0  0
   26.6140   24.1880   18.0000 C   0  0  0  0  0  0  0  0  0  0  0  0
   25.5870   23.1430   17.5760 C   0  0  0  0  0  0  0  0  0  0  0  0
   24.4180   23.7940   16.9390 N   0  0  0  0  0  0  0  0  0  0  0  0
  1  5  1  0  0  0  0
  2  1  1  0  0  0  0
  2  3  2  0  0  0  0
  4  1  1  0  0  0  0
  6  5  1  6  0  0  0
  6 29  1  0  0  0  0
  6  7  1  0  0  0  0
  7 27  1  6  0  0  0
  8  7  1  6  0  0  0
  8 13  1  0  0  0  0
  9 14  1  6  0  0  0
  9 10  1  0  0  0  0
  9 16  1  0  0  0  0
 11  8  1  0  0  0  0
 11  9  1  0  0  0  0
 12 20  1  6  0  0  0
 12 10  1  0  0  0  0
 13 12  1  0  0  0  0
 13 22  1  1  0  0  0
 15 14  1  0  0  0  0
 16 17  2  0  0  0  0
 18 16  1  0  0  0  0
 18 19  1  0  0  0  0
 20 21  1  0  0  0  0
 22 24  1  0  0  0  0
 23 22  1  0  0  0  0
 23 25  1  0  0  0  0
 26 23  2  0  0  0  0
 28 27  1  0  0  0  0
 30 29  1  0  0  0  0
 31  2  1  0  0  0  0
 32 31  1  0  0  0  0
 32 33  1  0  0  0  0
 33 35  1  0  0  0  0
 34 33  2  0  0  0  0
 34 36  1  0  0  0  0
 35 37  2  0  0  0  0
 36 38  1  0  0  0  0
 36 37  1  0  0  0  0
 39 38  1  0  0  0  0
 40 39  1  0  0  0  0
 41 40  1  0  0  0  0
 42 41  2  0  0  0  0
 43 41  1  0  0  0  0
 44 42  1  0  0  0  0
 45 43  2  0  0  0  0
 46 44  2  0  0  0  0
 46 45  1  0  0  0  0
 47 48  1  0  0  0  0
 49 48  1  0  0  0  0
 49 50  1  0  0  0  0
 51 50  1  0  0  0  0
 52 51  1  0  0  0  0
M  END
>  <REMARK>
 VINA RESULT:    -6.192      7.390     13.969
 INTER + INTRA:         -15.577
 INTER:                 -10.214
 INTRA:                  -5.362
 UNBOUND:                -3.774
 SMILES CC(=O)N[C@@H]1[C@@H](O)C[C@](O)(C(=O)O)O[C@H]1C(O)[C@H](O)CNC(=O)OCc1cn(COCc2ccccc2)nn1
 SMILES IDX 21 1 22 2 23 3 20 5 18 6 16 7 15 8 9 9 8 10 14 11 6 12 5 13
 SMILES IDX 10 14 11 16 12 17 13 18 7 20 4 22 2 23 1 25 3 26 17 27 19 29
 SMILES IDX 24 31 25 32 26 33 27 34 39 35 28 36 38 37 29 38 30 39 31 40
 SMILES IDX 32 41 33 42 37 43 34 44 36 45 35 46
 H PARENT 21 4 10 15 13 19 7 21 4 24 17 28 19 30
 Flexibility Score: inf
  4 active torsions:
  status: ('A' for Active; 'I' for Inactive)
    1  A    between atoms: CA   and  CB  
    2  A    between atoms: CB   and  CG  
    3  A    between atoms: CG   and  CD  
    4  A    between atoms: CD   and  CE  

>  <TORSDO>
F 18

>  <BEGIN_>
RES LYS A 131

$$$$
ligand_12_pose_7_2HRL.pdbqt
 OpenBabel07062320523D

  6  5  0  0  0  0  0  0  0  0999 V2000
   33.1930   34.6630    9.2900 C   0  0  0  0  0  0  0  0  0  0  0  0
   32.0600   35.3600   10.0340 C   0  0  0  0  0  0  0  0  0  0  0  0
   30.8030   35.5070    9.2160 C   0  0  0  0  0  0  0  0  0  0  0  0
   30.1370   34.1560    9.0080 C   0  0  0  0  0  0  0  0  0  0  0  0
   28.6810   34.3340    8.6220 C   0  0  0  0  0  0  0  0  0  0  0  0
   27.7780   33.7240    9.6360 N   0  0  0  0  0  0  0  0  0  0  0  0
  1  2  1  0  0  0  0
  3  2  1  0  0  0  0
  4  3  1  0  0  0  0
  5  4  1  0  0  0  0
  5  6  1  0  0  0  0
M  END
>  <EGIN_R>
ES LYS A 135

>  <REMARK>
  4 active torsions:
  status: ('A' for Active; 'I' for Inactive)
    5  A    between atoms: CA   and  CB  
    6  A    between atoms: CB   and  CG  
    7  A    between atoms: CG   and  CD  
    8  A    between atoms: CD   and  CE  

$$$$
