ligand_10_pose_6_2HRL.pdbqt
 OpenBabel07062320523D

 53 53  0  0  1  0  0  0  0  0999 V2000
   25.3640   33.5060   15.2520 N   0  0  0  0  0  0  0  0  0  0  0  0
   24.5390   32.8380   14.2980 C   0  0  0  0  0  0  0  0  0  0  0  0
   24.8320   32.9190   13.1000 O   0  0  0  0  0  0  0  0  0  0  0  0
   25.0530   33.3930   16.2530 H   0  0  0  0  0  0  0  0  0  0  0  0
   26.5240   34.2750   14.9280 C   0  0  0  0  0  0  0  0  0  0  0  0
   27.7600   33.6930   15.5820 C   0  0  2  0  0  0  0  0  0  0  0  0
   29.0260   34.2410   14.9490 C   0  0  2  0  0  0  0  0  0  0  0  0
   30.0680   34.6550   15.9240 C   0  0  2  0  0  0  0  0  0  0  0  0
   31.8140   34.3020   14.4320 C   0  0  2  0  0  0  0  0  0  0  0  0
   31.8580   32.8800   14.8040 C   0  0  0  0  0  0  0  0  0  0  0  0
   31.2010   35.1770   15.2920 O   0  0  0  0  0  0  0  0  0  0  0  0
   31.2480   32.4580   16.0810 C   0  0  1  0  0  0  0  0  0  0  0  0
   30.5020   33.5310   16.8220 C   0  0  1  0  0  0  0  0  0  0  0  0
   31.1660   34.4840   13.1840 O   0  0  0  0  0  0  0  0  0  0  0  0
   31.0820   35.4700   13.0840 H   0  0  0  0  0  0  0  0  0  0  0  0
   33.1860   34.8360   14.2050 C   0  0  0  0  0  0  0  0  0  0  0  0
   33.9230   35.2950   15.1070 O   0  0  0  0  0  0  0  0  0  0  0  0
   33.6730   34.8190   12.9080 O   0  0  0  0  0  0  0  0  0  0  0  0
   33.8390   35.6820   12.3740 H   0  0  0  0  0  0  0  0  0  0  0  0
   30.4130   31.3610   15.8860 O   0  0  0  0  0  0  0  0  0  0  0  0
   29.4690   31.5400   16.0340 H   0  0  0  0  0  0  0  0  0  0  0  0
   31.3550   34.0920   17.8980 N   0  0  0  0  0  0  0  0  0  0  0  0
   31.3460   33.5340   19.1970 C   0  0  0  0  0  0  0  0  0  0  0  0
   31.9790   34.9080   17.7270 H   0  0  0  0  0  0  0  0  0  0  0  0
   32.1860   34.0650   20.3100 C   0  0  0  0  0  0  0  0  0  0  0  0
   30.6020   32.5550   19.4170 O   0  0  0  0  0  0  0  0  0  0  0  0
   28.5540   35.3870   14.2440 O   0  0  0  0  0  0  0  0  0  0  0  0
   27.6990   35.1860   13.7960 H   0  0  0  0  0  0  0  0  0  0  0  0
   27.6660   32.3080   15.5300 O   0  0  0  0  0  0  0  0  0  0  0  0
   26.8870   31.9860   15.0130 H   0  0  0  0  0  0  0  0  0  0  0  0
   23.4240   32.1040   14.6670 O   0  0  0  0  0  0  0  0  0  0  0  0
   23.3660   31.4940   15.9320 C   0  0  0  0  0  0  0  0  0  0  0  0
   24.5920   30.7240   16.2530 C   0  0  0  0  0  0  0  0  0  0  0  0
   24.9640   30.4220   17.5400 C   0  0  0  0  0  0  0  0  0  0  0  0
   25.5190   30.2030   15.4530 N   0  0  0  0  0  0  0  0  0  0  0  0
   26.1220   29.7150   17.4810 N   0  0  0  0  0  0  0  0  0  0  0  0
   26.4180   29.6070   16.2180 N   0  0  0  0  0  0  0  0  0  0  0  0
   26.8060   29.2250   18.6750 C   0  0  1  0  0  0  0  0  0  0  0  0
   27.4070   27.8760   18.3900 C   0  0  0  0  0  0  0  0  0  0  0  0
   27.5020   27.0370   19.5940 C   0  0  0  0  0  0  0  0  0  0  0  0
   26.4440   26.6640   20.1600 O   0  0  0  0  0  0  0  0  0  0  0  0
   28.7520   26.6780   20.0750 O   0  0  0  0  0  0  0  0  0  0  0  0
   28.9470   26.7810   21.0830 H   0  0  0  0  0  0  0  0  0  0  0  0
   27.9320   30.1500   18.9800 C   0  0  0  0  0  0  0  0  0  0  0  0
   28.5210   30.1950   20.0890 O   0  0  0  0  0  0  0  0  0  0  0  0
   28.3540   31.0140   17.9840 O   0  0  0  0  0  0  0  0  0  0  0  0
   27.8410   31.8490   17.7300 H   0  0  0  0  0  0  0  0  0  0  0  0
   29.8670   25.5550   16.9770 C   0  0  0  0  0  0  0  0  0  0  0  0
   28.3450   25.7220   17.0260 C   0  0  0  0  0  0  0  0  0  0  0  0
   27.6010   24.4020   16.8920 C   0  0  0  0  0  0  0  0  0  0  0  0
   26.1450   24.5350   17.2420 C   0  0  0  0  0  0  0  0  0  0  0  0
   25.7690   23.4690   18.2660 C   0  0  0  0  0  0  0  0  0  0  0  0
   25.0690   22.3400   17.6080 N   0  0  0  0  0  0  0  0  0  0  0  0
  1  4  1  0  0  0  0
  2 31  1  0  0  0  0
  2  1  1  0  0  0  0
  3  2  2  0  0  0  0
  5  1  1  0  0  0  0
  6  5  1  6  0  0  0
  7 27  1  1  0  0  0
  7  6  1  0  0  0  0
  8  7  1  6  0  0  0
  8 13  1  0  0  0  0
  9 14  1  6  0  0  0
  9 10  1  0  0  0  0
  9 11  1  0  0  0  0
 10 12  1  0  0  0  0
 11  8  1  0  0  0  0
 12 20  1  6  0  0  0
 12 13  1  0  0  0  0
 13 22  1  1  0  0  0
 15 14  1  0  0  0  0
 16  9  1  0  0  0  0
 16 17  2  0  0  0  0
 18 16  1  0  0  0  0
 19 18  1  0  0  0  0
 20 21  1  0  0  0  0
 22 23  1  0  0  0  0
 23 26  2  0  0  0  0
 23 25  1  0  0  0  0
 24 22  1  0  0  0  0
 28 27  1  0  0  0  0
 29  6  1  0  0  0  0
 30 29  1  0  0  0  0
 31 32  1  0  0  0  0
 32 33  1  0  0  0  0
 33 34  2  0  0  0  0
 35 37  2  0  0  0  0
 35 33  1  0  0  0  0
 36 34  1  0  0  0  0
 36 38  1  0  0  0  0
 37 36  1  0  0  0  0
 38 39  1  6  0  0  0
 38 44  1  0  0  0  0
 39 40  1  0  0  0  0
 40 42  1  0  0  0  0
 40 41  2  0  0  0  0
 42 43  1  0  0  0  0
 44 45  2  0  0  0  0
 46 44  1  0  0  0  0
 47 46  1  0  0  0  0
 48 49  1  0  0  0  0
 50 49  1  0  0  0  0
 50 51  1  0  0  0  0
 51 52  1  0  0  0  0
 53 52  1  0  0  0  0
M  END
>  <REMARK>
 VINA RESULT:    -4.717      2.068      5.551
 INTER + INTRA:         -15.011
 INTER:                  -8.549
 INTRA:                  -6.462
 UNBOUND:                -5.744
 SMILES CC(=O)N[C@@H]1[C@@H](O)C[C@](O)(C(=O)O)O[C@H]1C(O)[C@H](O)CNC(=O)OCc1cn([C@@H](CC(=O)O)C(=O)O)nn1
 SMILES IDX 21 1 22 2 23 3 20 5 18 6 16 7 15 8 9 9 8 10 14 11 6 12 5 13
 SMILES IDX 10 14 11 16 12 17 13 18 7 20 4 22 2 23 1 25 3 26 17 27 19 29
 SMILES IDX 24 31 25 32 26 33 27 34 38 35 28 36 37 37 29 38 30 39 31 40
 SMILES IDX 32 41 33 42 34 44 35 45 36 46
 H PARENT 21 4 10 15 13 19 7 21 4 24 17 28 19 30 33 43 36 47
 Flexibility Score: inf
  4 active torsions:
  status: ('A' for Active; 'I' for Inactive)
    1  A    between atoms: CA   and  CB  
    2  A    between atoms: CB   and  CG  
    3  A    between atoms: CG   and  CD  
    4  A    between atoms: CD   and  CE  

>  <TORSDO>
F 20

>  <BEGIN_>
RES LYS A 131

$$$$
ligand_10_pose_6_2HRL.pdbqt
 OpenBabel07062320523D

  6  5  0  0  0  0  0  0  0  0999 V2000
   33.1930   34.6630    9.2900 C   0  0  0  0  0  0  0  0  0  0  0  0
   32.0600   35.3600   10.0340 C   0  0  0  0  0  0  0  0  0  0  0  0
   30.7960   35.4880    9.2230 C   0  0  0  0  0  0  0  0  0  0  0  0
   30.0550   34.1610    9.1710 C   0  0  0  0  0  0  0  0  0  0  0  0
   28.6670   34.3490    8.5890 C   0  0  0  0  0  0  0  0  0  0  0  0
   28.6880   35.3110    7.4520 N   0  0  0  0  0  0  0  0  0  0  0  0
  1  2  1  0  0  0  0
  3  2  1  0  0  0  0
  4  3  1  0  0  0  0
  5  4  1  0  0  0  0
  6  5  1  0  0  0  0
M  END
>  <EGIN_R>
ES LYS A 135

>  <REMARK>
  4 active torsions:
  status: ('A' for Active; 'I' for Inactive)
    5  A    between atoms: CA   and  CB  
    6  A    between atoms: CB   and  CG  
    7  A    between atoms: CG   and  CD  
    8  A    between atoms: CD   and  CE  

$$$$
