ligand_76_pose_19_2HRL.pdbqt
 OpenBabel07062320523D

 55 56  0  0  1  0  0  0  0  0999 V2000
   24.8850   35.0520   10.9390 O   0  0  0  0  0  0  0  0  0  0  0  0
   24.6780   35.6560    9.7110 C   0  0  0  0  0  0  0  0  0  0  0  0
   25.7460   36.2590    9.0150 N   0  0  0  0  0  0  0  0  0  0  0  0
   26.6940   36.2470    9.4340 H   0  0  0  0  0  0  0  0  0  0  0  0
   23.5330   35.6720    9.2070 O   0  0  0  0  0  0  0  0  0  0  0  0
   25.5710   36.9030    7.7210 C   0  0  0  0  0  0  0  0  0  0  0  0
   26.1130   38.3210    7.7440 C   0  0  2  0  0  0  0  0  0  0  0  0
   27.0470   38.4490    8.9370 C   0  0  1  0  0  0  0  0  0  0  0  0
   28.0490   39.5840    8.7030 C   0  0  2  0  0  0  0  0  0  0  0  0
   29.8410   38.8370    7.4060 C   0  0  2  0  0  0  0  0  0  0  0  0
   30.3880   38.2430    8.6570 C   0  0  0  0  0  0  0  0  0  0  0  0
   28.6820   39.5180    7.5130 O   0  0  0  0  0  0  0  0  0  0  0  0
   30.2450   39.1140    9.8540 C   0  0  1  0  0  0  0  0  0  0  0  0
   28.8910   39.7660    9.9270 C   0  0  1  0  0  0  0  0  0  0  0  0
   29.6410   37.7710    6.4970 O   0  0  0  0  0  0  0  0  0  0  0  0
   28.9090   38.0070    5.8710 H   0  0  0  0  0  0  0  0  0  0  0  0
   30.9250   39.6870    6.7950 C   0  0  0  0  0  0  0  0  0  0  0  0
   32.1440   39.4960    7.0140 O   0  0  0  0  0  0  0  0  0  0  0  0
   30.6130   40.7470    5.9370 O   0  0  0  0  0  0  0  0  0  0  0  0
   29.7300   41.2630    6.0540 H   0  0  0  0  0  0  0  0  0  0  0  0
   30.5130   38.3370   11.0050 O   0  0  0  0  0  0  0  0  0  0  0  0
   30.3020   38.8600   11.8350 H   0  0  0  0  0  0  0  0  0  0  0  0
   29.0010   41.1870   10.2650 N   0  0  0  0  0  0  0  0  0  0  0  0
   28.1550   41.7900   11.2060 C   0  0  0  0  0  0  0  0  0  0  0  0
   29.7590   41.7320    9.7560 H   0  0  0  0  0  0  0  0  0  0  0  0
   28.3030   43.2240   11.5120 C   0  0  0  0  0  0  0  0  0  0  0  0
   27.2750   41.1250   11.7870 O   0  0  0  0  0  0  0  0  0  0  0  0
   26.2370   38.9000    9.9940 O   0  0  0  0  0  0  0  0  0  0  0  0
   25.3400   38.4500    9.9880 H   0  0  0  0  0  0  0  0  0  0  0  0
   25.0680   39.2290    7.8550 O   0  0  0  0  0  0  0  0  0  0  0  0
   24.2720   38.8110    7.4470 H   0  0  0  0  0  0  0  0  0  0  0  0
   25.2390   35.9290   12.0210 C   0  0  0  0  0  0  0  0  0  0  0  0
   26.7020   35.9010   12.2400 C   0  0  0  0  0  0  0  0  0  0  0  0
   27.4680   34.9700   12.9010 C   0  0  0  0  0  0  0  0  0  0  0  0
   27.5540   36.8410   11.7950 N   0  0  0  0  0  0  0  0  0  0  0  0
   28.7480   35.3620   12.8430 N   0  0  0  0  0  0  0  0  0  0  0  0
   28.7830   36.4760   12.1820 N   0  0  0  0  0  0  0  0  0  0  0  0
   29.9310   34.6790   13.4140 C   0  0  0  0  0  0  0  0  0  0  0  0
   30.8870   35.7260   13.8970 C   0  0  2  0  0  0  0  0  0  0  0  0
   31.5600   36.3490   12.8370 O   0  0  0  0  0  0  0  0  0  0  0  0
   30.8660   36.7900   12.2670 H   0  0  0  0  0  0  0  0  0  0  0  0
   31.6370   35.4470   15.1000 C   0  0  0  0  0  0  0  0  0  0  0  0
   32.2490   34.1260   15.2860 C   0  0  0  0  0  0  0  0  0  0  0  0
   31.5720   33.2490   16.2270 C   0  0  0  0  0  0  0  0  0  0  0  0
   31.0260   32.0560   15.7400 C   0  0  0  0  0  0  0  0  0  0  0  0
   31.3560   33.5130   17.5440 C   0  0  0  0  0  0  0  0  0  0  0  0
   30.3140   31.2130   16.5610 C   0  0  0  0  0  0  0  0  0  0  0  0
   30.6430   32.6780   18.3860 C   0  0  0  0  0  0  0  0  0  0  0  0
   30.1110   31.5060   17.8890 C   0  0  0  0  0  0  0  0  0  0  0  0
   29.8670   25.5550   16.9770 C   0  0  0  0  0  0  0  0  0  0  0  0
   28.3450   25.7220   17.0260 C   0  0  0  0  0  0  0  0  0  0  0  0
   27.5990   24.4450   16.6720 C   0  0  0  0  0  0  0  0  0  0  0  0
   26.7180   23.9730   17.7960 C   0  0  0  0  0  0  0  0  0  0  0  0
   25.8890   25.1420   18.3170 C   0  0  0  0  0  0  0  0  0  0  0  0
   25.5700   24.9530   19.7520 N   0  0  0  0  0  0  0  0  0  0  0  0
  1 32  1  0  0  0  0
  2  1  1  0  0  0  0
  3  4  1  0  0  0  0
  3  2  1  0  0  0  0
  5  2  2  0  0  0  0
  6  3  1  0  0  0  0
  7  6  1  1  0  0  0
  7 30  1  0  0  0  0
  7  8  1  0  0  0  0
  8 28  1  1  0  0  0
  9  8  1  1  0  0  0
  9 14  1  0  0  0  0
 10 15  1  6  0  0  0
 10 12  1  0  0  0  0
 10 11  1  0  0  0  0
 11 13  1  0  0  0  0
 12  9  1  0  0  0  0
 13 14  1  0  0  0  0
 13 21  1  1  0  0  0
 14 23  1  6  0  0  0
 16 15  1  0  0  0  0
 17 18  2  0  0  0  0
 17 10  1  0  0  0  0
 19 20  1  0  0  0  0
 19 17  1  0  0  0  0
 21 22  1  0  0  0  0
 23 24  1  0  0  0  0
 24 26  1  0  0  0  0
 24 27  2  0  0  0  0
 25 23  1  0  0  0  0
 29 28  1  0  0  0  0
 31 30  1  0  0  0  0
 32 33  1  0  0  0  0
 33 34  2  0  0  0  0
 35 37  2  0  0  0  0
 35 33  1  0  0  0  0
 36 34  1  0  0  0  0
 36 38  1  0  0  0  0
 37 36  1  0  0  0  0
 39 38  1  6  0  0  0
 39 42  1  0  0  0  0
 40 39  1  0  0  0  0
 41 40  1  0  0  0  0
 42 43  1  0  0  0  0
 43 44  1  0  0  0  0
 44 46  1  0  0  0  0
 45 44  2  0  0  0  0
 45 47  1  0  0  0  0
 46 48  2  0  0  0  0
 47 49  2  0  0  0  0
 49 48  1  0  0  0  0
 50 51  1  0  0  0  0
 52 51  1  0  0  0  0
 52 53  1  0  0  0  0
 53 54  1  0  0  0  0
 54 55  1  0  0  0  0
M  END
>  <REMARK>
 VINA RESULT:    -4.645      3.116      7.064
 INTER + INTRA:         -16.033
 INTER:                  -9.262
 INTRA:                  -6.771
 UNBOUND:                -6.771
 SMILES CC(=O)N[C@@H]1[C@@H](O)C[C@](O)(C(=O)O)O[C@H]1C(O)[C@H](O)CNC(=O)OCc1cn(CC(O)CCc2ccccc2)nn1
 SMILES IDX 24 1 22 2 21 3 23 5 20 6 18 7 16 8 15 9 9 10 8 11 14 12 6 13
 SMILES IDX 5 14 10 15 11 17 12 18 13 19 7 21 4 23 2 24 1 26 3 27 17 28
 SMILES IDX 19 30 25 32 26 33 27 34 41 35 28 36 40 37 29 38 30 39 31 40
 SMILES IDX 32 42 33 43 34 44 35 45 39 46 36 47 38 48 37 49
 H PARENT 21 4 10 16 13 20 7 22 4 25 17 29 19 31 31 41
 Flexibility Score: inf
  4 active torsions:
  status: ('A' for Active; 'I' for Inactive)
    1  A    between atoms: CA   and  CB  
    2  A    between atoms: CB   and  CG  
    3  A    between atoms: CG   and  CD  
    4  A    between atoms: CD   and  CE  

>  <TORSDO>
F 20

>  <BEGIN_>
RES LYS A 131

$$$$
ligand_76_pose_19_2HRL.pdbqt
 OpenBabel07062320523D

  6  5  0  0  0  0  0  0  0  0999 V2000
   33.1930   34.6630    9.2900 C   0  0  0  0  0  0  0  0  0  0  0  0
   32.0600   35.3600   10.0340 C   0  0  0  0  0  0  0  0  0  0  0  0
   30.7290   34.6690    9.8890 C   0  0  0  0  0  0  0  0  0  0  0  0
   30.3400   34.5560    8.4230 C   0  0  0  0  0  0  0  0  0  0  0  0
   28.8320   34.5750    8.2680 C   0  0  0  0  0  0  0  0  0  0  0  0
   28.1690   33.8360    9.3780 N   0  0  0  0  0  0  0  0  0  0  0  0
  1  2  1  0  0  0  0
  3  2  1  0  0  0  0
  4  3  1  0  0  0  0
  5  4  1  0  0  0  0
  5  6  1  0  0  0  0
M  END
>  <EGIN_R>
ES LYS A 135

>  <REMARK>
  4 active torsions:
  status: ('A' for Active; 'I' for Inactive)
    5  A    between atoms: CA   and  CB  
    6  A    between atoms: CB   and  CG  
    7  A    between atoms: CG   and  CD  
    8  A    between atoms: CD   and  CE  

$$$$
