ligand_78_pose_1_2HRL.pdbqt
 OpenBabel07062320523D

 53 54  0  0  1  0  0  0  0  0999 V2000
   27.4720   28.7340   17.4010 N   0  0  0  0  0  0  0  0  0  0  0  0
   26.5550   29.4170   16.5240 C   0  0  0  0  0  0  0  0  0  0  0  0
   25.3430   29.1780   16.6200 O   0  0  0  0  0  0  0  0  0  0  0  0
   28.4660   28.9940   17.2610 H   0  0  0  0  0  0  0  0  0  0  0  0
   26.9810   27.7800   18.3800 C   0  0  0  0  0  0  0  0  0  0  0  0
   27.7950   27.7680   19.6300 C   0  0  2  0  0  0  0  0  0  0  0  0
   28.5650   29.0200   19.8770 C   0  0  2  0  0  0  0  0  0  0  0  0
   29.1510   29.1960   21.2320 C   0  0  2  0  0  0  0  0  0  0  0  0
   30.8670   30.6200   20.5270 C   0  0  2  0  0  0  0  0  0  0  0  0
   31.7170   29.4230   20.2510 C   0  0  0  0  0  0  0  0  0  0  0  0
   29.7780   30.4350   21.3400 O   0  0  0  0  0  0  0  0  0  0  0  0
   31.4310   28.2030   21.0350 C   0  0  1  0  0  0  0  0  0  0  0  0
   30.1090   28.1990   21.7500 C   0  0  1  0  0  0  0  0  0  0  0  0
   30.3940   31.1910   19.3450 O   0  0  0  0  0  0  0  0  0  0  0  0
   30.7680   30.8050   18.5370 H   0  0  0  0  0  0  0  0  0  0  0  0
   31.7040   31.6530   21.1920 C   0  0  0  0  0  0  0  0  0  0  0  0
   32.1910   31.4140   22.3170 O   0  0  0  0  0  0  0  0  0  0  0  0
   31.9790   32.8890   20.6210 O   0  0  0  0  0  0  0  0  0  0  0  0
   31.2190   33.5480   20.3970 H   0  0  0  0  0  0  0  0  0  0  0  0
   31.5580   27.0870   20.2100 O   0  0  0  0  0  0  0  0  0  0  0  0
   31.8730   26.2960   20.6850 H   0  0  0  0  0  0  0  0  0  0  0  0
   30.2800   28.4360   23.1870 N   0  0  0  0  0  0  0  0  0  0  0  0
   30.2580   27.3810   24.1250 C   0  0  0  0  0  0  0  0  0  0  0  0
   30.4230   29.4030   23.5390 H   0  0  0  0  0  0  0  0  0  0  0  0
   30.4310   27.6050   25.5920 C   0  0  0  0  0  0  0  0  0  0  0  0
   30.0850   26.2200   23.6800 O   0  0  0  0  0  0  0  0  0  0  0  0
   27.5110   30.0350   19.8740 O   0  0  0  0  0  0  0  0  0  0  0  0
   27.3960   30.2930   20.8050 H   0  0  0  0  0  0  0  0  0  0  0  0
   28.5240   26.6190   19.8620 O   0  0  0  0  0  0  0  0  0  0  0  0
   29.4950   26.7900   19.9140 H   0  0  0  0  0  0  0  0  0  0  0  0
   27.0040   30.3270   15.5860 O   0  0  0  0  0  0  0  0  0  0  0  0
   26.6610   31.7010   15.6280 C   0  0  0  0  0  0  0  0  0  0  0  0
   27.4690   32.4350   16.6120 C   0  0  0  0  0  0  0  0  0  0  0  0
   28.2700   33.5320   16.4630 C   0  0  0  0  0  0  0  0  0  0  0  0
   27.5480   32.1090   17.9200 N   0  0  0  0  0  0  0  0  0  0  0  0
   28.8080   33.8360   17.6720 N   0  0  0  0  0  0  0  0  0  0  0  0
   28.3490   32.9500   18.5400 N   0  0  0  0  0  0  0  0  0  0  0  0
   29.7080   34.9320   17.9160 C   0  0  0  0  0  0  0  0  0  0  0  0
   31.3780   34.4780   17.4710 S   0  0  0  0  0  0  0  0  0  0  0  0
   31.4580   32.9730   17.4560 O   0  0  0  0  0  0  0  0  0  0  0  0
   32.2860   35.0250   18.5080 O   0  0  0  0  0  0  0  0  0  0  0  0
   31.7300   35.1330   15.8820 C   0  0  0  0  0  0  0  0  0  0  0  0
   30.9810   36.2200   15.4450 C   0  0  0  0  0  0  0  0  0  0  0  0
   32.7180   34.5770   15.1050 C   0  0  0  0  0  0  0  0  0  0  0  0
   31.2590   36.7320   14.2000 C   0  0  0  0  0  0  0  0  0  0  0  0
   32.9560   35.1270   13.8640 C   0  0  0  0  0  0  0  0  0  0  0  0
   32.2490   36.2010   13.3790 C   0  0  0  0  0  0  0  0  0  0  0  0
   29.8670   25.5550   16.9770 C   0  0  0  0  0  0  0  0  0  0  0  0
   28.3450   25.7220   17.0260 C   0  0  0  0  0  0  0  0  0  0  0  0
   27.6010   24.4060   16.8630 C   0  0  0  0  0  0  0  0  0  0  0  0
   26.6110   24.1740   17.9710 C   0  0  0  0  0  0  0  0  0  0  0  0
   25.6650   23.0430   17.5810 C   0  0  0  0  0  0  0  0  0  0  0  0
   24.3610   23.5870   17.1360 N   0  0  0  0  0  0  0  0  0  0  0  0
  1  5  1  0  0  0  0
  2  3  2  0  0  0  0
  2  1  1  0  0  0  0
  4  1  1  0  0  0  0
  6  5  1  6  0  0  0
  6 29  1  0  0  0  0
  6  7  1  0  0  0  0
  7 27  1  1  0  0  0
  8  7  1  6  0  0  0
  8 11  1  0  0  0  0
  8 13  1  0  0  0  0
  9 14  1  6  0  0  0
  9 16  1  0  0  0  0
  9 11  1  0  0  0  0
 10  9  1  0  0  0  0
 10 12  1  0  0  0  0
 12 20  1  6  0  0  0
 12 13  1  0  0  0  0
 13 22  1  1  0  0  0
 15 14  1  0  0  0  0
 16 17  2  0  0  0  0
 18 16  1  0  0  0  0
 19 18  1  0  0  0  0
 20 21  1  0  0  0  0
 22 24  1  0  0  0  0
 22 23  1  0  0  0  0
 23 25  1  0  0  0  0
 26 23  2  0  0  0  0
 27 28  1  0  0  0  0
 29 30  1  0  0  0  0
 31 32  1  0  0  0  0
 31  2  1  0  0  0  0
 32 33  1  0  0  0  0
 33 35  1  0  0  0  0
 34 33  2  0  0  0  0
 34 36  1  0  0  0  0
 35 37  2  0  0  0  0
 36 38  1  0  0  0  0
 36 37  1  0  0  0  0
 39 38  1  0  0  0  0
 39 41  2  0  0  0  0
 40 39  2  0  0  0  0
 42 39  1  0  0  0  0
 43 42  1  0  0  0  0
 44 42  2  0  0  0  0
 45 43  2  0  0  0  0
 46 44  1  0  0  0  0
 47 46  2  0  0  0  0
 47 45  1  0  0  0  0
 48 49  1  0  0  0  0
 50 49  1  0  0  0  0
 50 51  1  0  0  0  0
 52 51  1  0  0  0  0
 53 52  1  0  0  0  0
M  END
>  <REMARK>
 VINA RESULT:    -5.651      2.591      4.839
 INTER + INTRA:         -15.453
 INTER:                  -8.692
 INTRA:                  -6.761
 UNBOUND:                -5.011
 SMILES CC(=O)N[C@@H]1[C@@H](O)C[C@](O)(C(=O)O)O[C@H]1C(O)[C@H](O)CNC(=O)OCc1cn(CS(=O)(=O)c2ccccc2)nn1
 SMILES IDX 21 1 22 2 23 3 20 5 18 6 16 7 15 8 9 9 8 10 14 11 6 12 5 13
 SMILES IDX 10 14 11 16 12 17 13 18 7 20 4 22 2 23 1 25 3 26 17 27 19 29
 SMILES IDX 24 31 25 32 26 33 27 34 40 35 28 36 39 37 29 38 30 39 31 40
 SMILES IDX 32 41 33 42 34 43 38 44 35 45 37 46 36 47
 H PARENT 21 4 10 15 13 19 7 21 4 24 17 28 19 30
 Flexibility Score: inf
  4 active torsions:
  status: ('A' for Active; 'I' for Inactive)
    1  A    between atoms: CA   and  CB  
    2  A    between atoms: CB   and  CG  
    3  A    between atoms: CG   and  CD  
    4  A    between atoms: CD   and  CE  

>  <TORSDO>
F 17

>  <BEGIN_>
RES LYS A 131

$$$$
ligand_78_pose_1_2HRL.pdbqt
 OpenBabel07062320523D

  6  5  0  0  0  0  0  0  0  0999 V2000
   33.1930   34.6630    9.2900 C   0  0  0  0  0  0  0  0  0  0  0  0
   32.0600   35.3600   10.0340 C   0  0  0  0  0  0  0  0  0  0  0  0
   30.7040   34.7620    9.7630 C   0  0  0  0  0  0  0  0  0  0  0  0
   30.4240   34.7210    8.2690 C   0  0  0  0  0  0  0  0  0  0  0  0
   29.1240   35.4350    7.9510 C   0  0  0  0  0  0  0  0  0  0  0  0
   28.8810   35.4780    6.4820 N   0  0  0  0  0  0  0  0  0  0  0  0
  1  2  1  0  0  0  0
  3  2  1  0  0  0  0
  4  3  1  0  0  0  0
  5  4  1  0  0  0  0
  6  5  1  0  0  0  0
M  END
>  <EGIN_R>
ES LYS A 135

>  <REMARK>
  4 active torsions:
  status: ('A' for Active; 'I' for Inactive)
    5  A    between atoms: CA   and  CB  
    6  A    between atoms: CB   and  CG  
    7  A    between atoms: CG   and  CD  
    8  A    between atoms: CD   and  CE  

$$$$
