ligand_29_pose_18_2HRL.pdbqt
 OpenBabel07062320523D

 54 55  0  0  1  0  0  0  0  0999 V2000
   25.7960   34.8790   13.0410 N   0  0  0  0  0  0  0  0  0  0  0  0
   25.6820   35.4940   14.2940 C   0  0  0  0  0  0  0  0  0  0  0  0
   24.6800   35.3140   15.0200 O   0  0  0  0  0  0  0  0  0  0  0  0
   26.6770   35.0930   12.4810 H   0  0  0  0  0  0  0  0  0  0  0  0
   24.8260   33.9800   12.4410 C   0  0  0  0  0  0  0  0  0  0  0  0
   23.7730   34.7400   11.7170 C   0  0  2  0  0  0  0  0  0  0  0  0
   24.3000   35.7130   10.6910 C   0  0  2  0  0  0  0  0  0  0  0  0
   23.5530   35.7260    9.4000 C   0  0  2  0  0  0  0  0  0  0  0  0
   24.2580   37.6400    8.2680 C   0  0  2  0  0  0  0  0  0  0  0  0
   22.9420   37.8620    7.5360 C   0  0  0  0  0  0  0  0  0  0  0  0
   24.4040   36.2880    8.4270 O   0  0  0  0  0  0  0  0  0  0  0  0
   22.0040   36.7350    7.8580 C   0  0  1  0  0  0  0  0  0  0  0  0
   22.1930   36.2750    9.3510 C   0  0  1  0  0  0  0  0  0  0  0  0
   24.3140   38.3830    9.4420 O   0  0  0  0  0  0  0  0  0  0  0  0
   25.1230   38.9550    9.4930 H   0  0  0  0  0  0  0  0  0  0  0  0
   25.3770   38.1220    7.4070 C   0  0  0  0  0  0  0  0  0  0  0  0
   25.6040   39.3530    7.3440 O   0  0  0  0  0  0  0  0  0  0  0  0
   26.1780   37.2630    6.6710 O   0  0  0  0  0  0  0  0  0  0  0  0
   25.8690   36.3190    6.4060 H   0  0  0  0  0  0  0  0  0  0  0  0
   20.6710   37.0870    7.6760 O   0  0  0  0  0  0  0  0  0  0  0  0
   20.1480   36.3420    7.3120 H   0  0  0  0  0  0  0  0  0  0  0  0
   21.1730   35.2230    9.4770 N   0  0  0  0  0  0  0  0  0  0  0  0
   20.1770   35.2030   10.4820 C   0  0  0  0  0  0  0  0  0  0  0  0
   21.1530   34.4140    8.7890 H   0  0  0  0  0  0  0  0  0  0  0  0
   19.1630   34.1250   10.5880 C   0  0  0  0  0  0  0  0  0  0  0  0
   20.1360   36.1300   11.3300 O   0  0  0  0  0  0  0  0  0  0  0  0
   25.6340   35.2560   10.3370 O   0  0  0  0  0  0  0  0  0  0  0  0
   26.2220   35.4850   11.0970 H   0  0  0  0  0  0  0  0  0  0  0  0
   22.7310   35.2070   12.4750 O   0  0  0  0  0  0  0  0  0  0  0  0
   22.7170   34.8710   13.3910 H   0  0  0  0  0  0  0  0  0  0  0  0
   26.7000   36.3430   14.7810 O   0  0  0  0  0  0  0  0  0  0  0  0
   27.6750   36.8180   13.8400 C   0  0  0  0  0  0  0  0  0  0  0  0
   28.8050   35.8980   13.7310 C   0  0  0  0  0  0  0  0  0  0  0  0
   29.7480   35.6420   14.6930 C   0  0  0  0  0  0  0  0  0  0  0  0
   29.1020   35.1400   12.6640 N   0  0  0  0  0  0  0  0  0  0  0  0
   30.5930   34.7430   14.2000 N   0  0  0  0  0  0  0  0  0  0  0  0
   30.1910   34.4520   12.9810 N   0  0  0  0  0  0  0  0  0  0  0  0
   31.7620   34.1730   14.8610 C   0  0  0  0  0  0  0  0  0  0  0  0
   31.2860   33.2360   15.9250 C   0  0  0  0  0  0  0  0  0  0  0  0
   31.3240   33.6420   17.2580 C   0  0  0  0  0  0  0  0  0  0  0  0
   30.7990   31.9770   15.6440 C   0  0  0  0  0  0  0  0  0  0  0  0
   30.8890   32.8160   18.2650 C   0  0  0  0  0  0  0  0  0  0  0  0
   30.3550   31.1230   16.6340 C   0  0  0  0  0  0  0  0  0  0  0  0
   30.4080   31.5620   17.9360 C   0  0  0  0  0  0  0  0  0  0  0  0
   30.9210   33.2080   19.6000 O   0  0  0  0  0  0  0  0  0  0  0  0
   31.9440   34.0960   20.0160 C   0  0  0  0  0  0  0  0  0  0  0  0
   29.9720   30.7350   18.9590 O   0  0  0  0  0  0  0  0  0  0  0  0
   28.6120   30.3690   19.1000 C   0  0  0  0  0  0  0  0  0  0  0  0
   29.8670   25.5550   16.9770 C   0  0  0  0  0  0  0  0  0  0  0  0
   28.3450   25.7220   17.0260 C   0  0  0  0  0  0  0  0  0  0  0  0
   27.6020   24.4000   16.9110 C   0  0  0  0  0  0  0  0  0  0  0  0
   26.6330   24.1950   18.0420 C   0  0  0  0  0  0  0  0  0  0  0  0
   26.3890   25.5230   18.7510 C   0  0  0  0  0  0  0  0  0  0  0  0
   24.9910   25.9700   18.5500 N   0  0  0  0  0  0  0  0  0  0  0  0
  1  2  1  0  0  0  0
  2 31  1  0  0  0  0
  2  3  2  0  0  0  0
  4  1  1  0  0  0  0
  5  1  1  0  0  0  0
  6  5  1  1  0  0  0
  6 29  1  0  0  0  0
  7 27  1  6  0  0  0
  7  6  1  0  0  0  0
  8  7  1  1  0  0  0
  9 16  1  6  0  0  0
  9 11  1  0  0  0  0
  9 14  1  0  0  0  0
 10 12  1  0  0  0  0
 10  9  1  0  0  0  0
 11  8  1  0  0  0  0
 12 20  1  1  0  0  0
 12 13  1  0  0  0  0
 13  8  1  0  0  0  0
 13 22  1  6  0  0  0
 14 15  1  0  0  0  0
 17 16  2  0  0  0  0
 18 16  1  0  0  0  0
 19 18  1  0  0  0  0
 21 20  1  0  0  0  0
 22 23  1  0  0  0  0
 23 25  1  0  0  0  0
 23 26  2  0  0  0  0
 24 22  1  0  0  0  0
 27 28  1  0  0  0  0
 29 30  1  0  0  0  0
 32 31  1  0  0  0  0
 33 32  1  0  0  0  0
 33 34  2  0  0  0  0
 35 37  2  0  0  0  0
 35 33  1  0  0  0  0
 36 34  1  0  0  0  0
 36 38  1  0  0  0  0
 37 36  1  0  0  0  0
 38 39  1  0  0  0  0
 39 40  1  0  0  0  0
 40 42  2  0  0  0  0
 41 39  2  0  0  0  0
 41 43  1  0  0  0  0
 42 45  1  0  0  0  0
 43 44  2  0  0  0  0
 44 42  1  0  0  0  0
 44 47  1  0  0  0  0
 45 46  1  0  0  0  0
 47 48  1  0  0  0  0
 49 50  1  0  0  0  0
 51 50  1  0  0  0  0
 51 52  1  0  0  0  0
 52 53  1  0  0  0  0
 54 53  1  0  0  0  0
M  END
>  <REMARK>
 VINA RESULT:    -4.885      3.992      8.734
 INTER + INTRA:         -14.428
 INTER:                  -9.311
 INTRA:                  -5.118
 UNBOUND:                -5.118
 SMILES COc1ccc(Cn2cc(COC(=O)NC[C@@H](O)C(O)[C@@H]3O[C@@](O)(C(=O)O)C[C@H](O)[C@H]3NC(C)=O)nn2)cc1OC
 SMILES IDX 15 1 13 2 14 3 16 5 17 6 19 7 21 8 23 9 28 10 22 11 29 12
 SMILES IDX 31 13 24 14 25 16 26 17 27 18 30 20 32 22 33 23 34 25 35 26
 SMILES IDX 20 27 18 29 12 31 11 32 10 33 9 34 36 35 8 36 37 37 7 38
 SMILES IDX 6 39 38 40 5 41 39 42 4 43 3 44 40 45 41 46 2 47 1 48
 H PARENT 15 4 24 15 27 19 30 21 32 24 20 28 18 30
 Flexibility Score: inf
  4 active torsions:
  status: ('A' for Active; 'I' for Inactive)
    1  A    between atoms: CA   and  CB  
    2  A    between atoms: CB   and  CG  
    3  A    between atoms: CG   and  CD  
    4  A    between atoms: CD   and  CE  

>  <TORSDO>
F 18

>  <BEGIN_>
RES LYS A 131

$$$$
ligand_29_pose_18_2HRL.pdbqt
 OpenBabel07062320523D

  6  5  0  0  0  0  0  0  0  0999 V2000
   33.1930   34.6630    9.2900 C   0  0  0  0  0  0  0  0  0  0  0  0
   32.0600   35.3600   10.0340 C   0  0  0  0  0  0  0  0  0  0  0  0
   30.7650   35.3930    9.2650 C   0  0  0  0  0  0  0  0  0  0  0  0
   30.1490   34.0050    9.1900 C   0  0  0  0  0  0  0  0  0  0  0  0
   28.6520   34.0970    8.9630 C   0  0  0  0  0  0  0  0  0  0  0  0
   28.3400   34.9670    7.7950 N   0  0  0  0  0  0  0  0  0  0  0  0
  1  2  1  0  0  0  0
  3  2  1  0  0  0  0
  4  3  1  0  0  0  0
  5  4  1  0  0  0  0
  6  5  1  0  0  0  0
M  END
>  <EGIN_R>
ES LYS A 135

>  <REMARK>
  4 active torsions:
  status: ('A' for Active; 'I' for Inactive)
    5  A    between atoms: CA   and  CB  
    6  A    between atoms: CB   and  CG  
    7  A    between atoms: CG   and  CD  
    8  A    between atoms: CD   and  CE  

$$$$
