ligand_82_pose_13_2HRL.pdbqt
 OpenBabel07062320523D

 53 55  0  0  1  0  0  0  0  0999 V2000
   24.9040   30.4650   15.1880 N   0  0  0  0  0  0  0  0  0  0  0  0
   24.5630   31.8610   15.1650 C   0  0  0  0  0  0  0  0  0  0  0  0
   23.8330   32.3160   16.0830 O   0  0  0  0  0  0  0  0  0  0  0  0
   25.5080   30.0840   14.4310 H   0  0  0  0  0  0  0  0  0  0  0  0
   24.4050   29.6210   16.2530 C   0  0  0  0  0  0  0  0  0  0  0  0
   25.5440   29.3230   17.1870 C   0  0  2  0  0  0  0  0  0  0  0  0
   26.8880   29.6530   16.5770 C   0  0  1  0  0  0  0  0  0  0  0  0
   27.5240   30.7150   17.4430 C   0  0  2  0  0  0  0  0  0  0  0  0
   29.2640   31.5920   16.1890 C   0  0  2  0  0  0  0  0  0  0  0  0
   30.3250   31.1820   17.1850 C   0  0  0  0  0  0  0  0  0  0  0  0
   28.0240   31.7790   16.7520 O   0  0  0  0  0  0  0  0  0  0  0  0
   29.6700   31.0540   18.5370 C   0  0  1  0  0  0  0  0  0  0  0  0
   28.5200   30.0790   18.3860 C   0  0  1  0  0  0  0  0  0  0  0  0
   29.2440   30.6810   15.1290 O   0  0  0  0  0  0  0  0  0  0  0  0
   28.3750   30.8270   14.6650 H   0  0  0  0  0  0  0  0  0  0  0  0
   29.6960   32.9010   15.6170 C   0  0  0  0  0  0  0  0  0  0  0  0
   30.0480   32.9560   14.3900 O   0  0  0  0  0  0  0  0  0  0  0  0
   29.7350   34.0640   16.3550 O   0  0  0  0  0  0  0  0  0  0  0  0
   30.5800   34.6240   16.4300 H   0  0  0  0  0  0  0  0  0  0  0  0
   30.5330   30.5660   19.4990 O   0  0  0  0  0  0  0  0  0  0  0  0
   30.2580   29.6360   19.7000 H   0  0  0  0  0  0  0  0  0  0  0  0
   27.9470   29.7290   19.6590 N   0  0  0  0  0  0  0  0  0  0  0  0
   27.6930   28.3800   20.0190 C   0  0  0  0  0  0  0  0  0  0  0  0
   27.7180   30.5010   20.3220 H   0  0  0  0  0  0  0  0  0  0  0  0
   27.0980   28.1080   21.3550 C   0  0  0  0  0  0  0  0  0  0  0  0
   27.9660   27.4460   19.2250 O   0  0  0  0  0  0  0  0  0  0  0  0
   27.7240   28.5390   16.5890 O   0  0  0  0  0  0  0  0  0  0  0  0
   28.2990   28.4780   15.8080 H   0  0  0  0  0  0  0  0  0  0  0  0
   25.5030   27.9350   17.4380 O   0  0  0  0  0  0  0  0  0  0  0  0
   26.1420   27.4580   16.8380 H   0  0  0  0  0  0  0  0  0  0  0  0
   24.9980   32.7180   14.1910 O   0  0  0  0  0  0  0  0  0  0  0  0
   24.2500   33.0500   13.0340 C   0  0  0  0  0  0  0  0  0  0  0  0
   24.6890   34.3550   12.5010 C   0  0  0  0  0  0  0  0  0  0  0  0
   25.9270   34.7190   12.0260 C   0  0  0  0  0  0  0  0  0  0  0  0
   23.9190   35.4470   12.3890 N   0  0  0  0  0  0  0  0  0  0  0  0
   25.8860   36.0260   11.6320 N   0  0  0  0  0  0  0  0  0  0  0  0
   24.6490   36.4360   11.8680 N   0  0  0  0  0  0  0  0  0  0  0  0
   26.9990   36.7590   11.0790 C   0  0  0  0  0  0  0  0  0  0  0  0
   27.5080   36.1030    9.8240 C   0  0  0  0  0  0  0  0  0  0  0  0
   26.6800   35.7440    8.8470 C   0  0  0  0  0  0  0  0  0  0  0  0
   28.9470   35.8330    9.6320 C   0  0  2  0  0  0  0  0  0  0  0  0
   27.2590   35.3300    7.5400 C   0  0  0  0  0  0  0  0  0  0  0  0
   29.3200   36.4590    8.2810 C   0  0  0  0  0  0  0  0  0  0  0  0
   29.1170   34.4870    8.9570 C   0  0  0  0  0  0  0  0  0  0  0  0
   28.7470   35.2020    7.6490 C   0  0  1  0  0  0  0  0  0  0  0  0
   30.5410   34.0110    8.8930 C   0  0  0  0  0  0  0  0  0  0  0  0
   28.1650   33.4190    9.3770 C   0  0  0  0  0  0  0  0  0  0  0  0
   29.8670   25.5550   16.9770 C   0  0  0  0  0  0  0  0  0  0  0  0
   28.3450   25.7220   17.0260 C   0  0  0  0  0  0  0  0  0  0  0  0
   27.6020   24.3990   16.9190 C   0  0  0  0  0  0  0  0  0  0  0  0
   26.6190   24.2100   18.0410 C   0  0  0  0  0  0  0  0  0  0  0  0
   25.6140   23.1280   17.6600 C   0  0  0  0  0  0  0  0  0  0  0  0
   24.3710   23.2710   18.4550 N   0  0  0  0  0  0  0  0  0  0  0  0
  1  5  1  0  0  0  0
  2  1  1  0  0  0  0
  2  3  2  0  0  0  0
  4  1  1  0  0  0  0
  6  5  1  6  0  0  0
  6 29  1  0  0  0  0
  7 27  1  1  0  0  0
  7  6  1  0  0  0  0
  8  7  1  6  0  0  0
  8 13  1  0  0  0  0
  9 14  1  6  0  0  0
  9 11  1  0  0  0  0
  9 10  1  0  0  0  0
 10 12  1  0  0  0  0
 11  8  1  0  0  0  0
 12 20  1  1  0  0  0
 13 12  1  0  0  0  0
 13 22  1  1  0  0  0
 15 14  1  0  0  0  0
 16  9  1  0  0  0  0
 16 18  1  0  0  0  0
 17 16  2  0  0  0  0
 18 19  1  0  0  0  0
 20 21  1  0  0  0  0
 22 23  1  0  0  0  0
 22 24  1  0  0  0  0
 23 25  1  0  0  0  0
 26 23  2  0  0  0  0
 28 27  1  0  0  0  0
 30 29  1  0  0  0  0
 31  2  1  0  0  0  0
 32 31  1  0  0  0  0
 33 32  1  0  0  0  0
 34 33  2  0  0  0  0
 35 33  1  0  0  0  0
 36 37  1  0  0  0  0
 36 34  1  0  0  0  0
 37 35  2  0  0  0  0
 38 36  1  0  0  0  0
 39 38  1  0  0  0  0
 40 39  2  0  0  0  0
 41 43  1  6  0  0  0
 41 39  1  0  0  0  0
 42 40  1  0  0  0  0
 44 47  1  0  0  0  0
 44 41  1  0  0  0  0
 45 42  1  1  0  0  0
 45 43  1  0  0  0  0
 45 44  1  0  0  0  0
 46 44  1  0  0  0  0
 48 49  1  0  0  0  0
 50 49  1  0  0  0  0
 50 51  1  0  0  0  0
 52 51  1  0  0  0  0
 52 53  1  0  0  0  0
M  END
>  <REMARK>
 VINA RESULT:    -5.335      2.822      5.744
 INTER + INTRA:         -14.882
 INTER:                 -10.764
 INTRA:                  -4.118
 UNBOUND:                -5.337
 SMILES CC(=O)N[C@@H]1[C@@H](O)C[C@](O)(C(=O)O)O[C@H]1C(O)[C@H](O)CNC(=O)OCc1cn(CC2=CC[C@H]3C[C@@H]2C3(C)C)nn1
 SMILES IDX 21 1 22 2 23 3 20 5 18 6 16 7 15 8 9 9 8 10 14 11 6 12 5 13
 SMILES IDX 10 14 11 16 12 17 13 18 7 20 4 22 2 23 1 25 3 26 17 27 19 29
 SMILES IDX 24 31 25 32 26 33 27 34 40 35 28 36 39 37 29 38 30 39 31 40
 SMILES IDX 35 41 32 42 34 43 36 44 33 45 37 46 38 47
 H PARENT 21 4 10 15 13 19 7 21 4 24 17 28 19 30
 Flexibility Score: inf
  4 active torsions:
  status: ('A' for Active; 'I' for Inactive)
    1  A    between atoms: CA   and  CB  
    2  A    between atoms: CB   and  CG  
    3  A    between atoms: CG   and  CD  
    4  A    between atoms: CD   and  CE  

>  <TORSDO>
F 16

>  <BEGIN_>
RES LYS A 131

$$$$
ligand_82_pose_13_2HRL.pdbqt
 OpenBabel07062320523D

  6  5  0  0  0  0  0  0  0  0999 V2000
   33.1930   34.6630    9.2900 C   0  0  0  0  0  0  0  0  0  0  0  0
   32.0600   35.3600   10.0340 C   0  0  0  0  0  0  0  0  0  0  0  0
   32.4940   36.0070   11.3240 C   0  0  0  0  0  0  0  0  0  0  0  0
   31.7490   35.4030   12.5040 C   0  0  0  0  0  0  0  0  0  0  0  0
   32.3190   35.9160   13.8130 C   0  0  0  0  0  0  0  0  0  0  0  0
   32.9060   34.8060   14.6140 N   0  0  0  0  0  0  0  0  0  0  0  0
  1  2  1  0  0  0  0
  2  3  1  0  0  0  0
  3  4  1  0  0  0  0
  4  5  1  0  0  0  0
  5  6  1  0  0  0  0
M  END
>  <EGIN_R>
ES LYS A 135

>  <REMARK>
  4 active torsions:
  status: ('A' for Active; 'I' for Inactive)
    5  A    between atoms: CA   and  CB  
    6  A    between atoms: CB   and  CG  
    7  A    between atoms: CG   and  CD  
    8  A    between atoms: CD   and  CE  

$$$$
