ligand_23_pose_6_2HRL.pdbqt
 OpenBabel07062320523D

 55 56  0  0  1  0  0  0  0  0999 V2000
   22.5990   34.2200   13.2550 N   0  0  0  0  0  0  0  0  0  0  0  0
   23.2410   33.0210   12.8540 C   0  0  0  0  0  0  0  0  0  0  0  0
   22.5430   32.0680   12.4650 O   0  0  0  0  0  0  0  0  0  0  0  0
   23.2520   34.9880   13.5710 H   0  0  0  0  0  0  0  0  0  0  0  0
   21.1680   34.3870   13.2340 C   0  0  0  0  0  0  0  0  0  0  0  0
   20.7640   35.4900   12.2790 C   0  0  2  0  0  0  0  0  0  0  0  0
   20.6880   34.9250   10.8670 C   0  0  1  0  0  0  0  0  0  0  0  0
   19.5550   35.6320   10.1270 C   0  0  2  0  0  0  0  0  0  0  0  0
   18.7370   34.7250    8.1570 C   0  0  2  0  0  0  0  0  0  0  0  0
   18.4150   36.0780    7.5670 C   0  0  0  0  0  0  0  0  0  0  0  0
   18.7290   34.7260    9.5370 O   0  0  0  0  0  0  0  0  0  0  0  0
   18.9980   37.2090    8.3450 C   0  0  1  0  0  0  0  0  0  0  0  0
   20.1360   36.6640    9.2080 C   0  0  1  0  0  0  0  0  0  0  0  0
   19.9520   34.2310    7.6920 O   0  0  0  0  0  0  0  0  0  0  0  0
   20.2420   33.4760    8.2940 H   0  0  0  0  0  0  0  0  0  0  0  0
   17.6700   33.7920    7.7070 C   0  0  0  0  0  0  0  0  0  0  0  0
   16.4500   34.0850    7.8090 O   0  0  0  0  0  0  0  0  0  0  0  0
   17.9680   32.5470    7.1490 O   0  0  0  0  0  0  0  0  0  0  0  0
   17.5450   31.7050    7.5200 H   0  0  0  0  0  0  0  0  0  0  0  0
   19.4370   38.2650    7.5660 O   0  0  0  0  0  0  0  0  0  0  0  0
   18.7260   38.6420    6.9750 H   0  0  0  0  0  0  0  0  0  0  0  0
   20.6590   37.7410   10.0320 N   0  0  0  0  0  0  0  0  0  0  0  0
   21.8410   38.4610    9.6890 C   0  0  0  0  0  0  0  0  0  0  0  0
   20.1430   37.9980   10.9190 H   0  0  0  0  0  0  0  0  0  0  0  0
   22.2830   39.5430   10.6060 C   0  0  0  0  0  0  0  0  0  0  0  0
   22.4340   38.1460    8.6430 O   0  0  0  0  0  0  0  0  0  0  0  0
   21.8770   35.2260   10.2290 O   0  0  0  0  0  0  0  0  0  0  0  0
   22.4400   35.8210   10.7780 H   0  0  0  0  0  0  0  0  0  0  0  0
   21.7440   36.4960   12.3360 O   0  0  0  0  0  0  0  0  0  0  0  0
   22.2530   36.5500   11.4680 H   0  0  0  0  0  0  0  0  0  0  0  0
   24.6330   32.8920   12.8870 O   0  0  0  0  0  0  0  0  0  0  0  0
   25.4710   34.0220   13.0130 C   0  0  0  0  0  0  0  0  0  0  0  0
   25.4200   34.8350   11.7720 C   0  0  0  0  0  0  0  0  0  0  0  0
   26.3400   34.7710   10.7440 C   0  0  0  0  0  0  0  0  0  0  0  0
   24.5170   35.7540   11.4090 N   0  0  0  0  0  0  0  0  0  0  0  0
   25.9240   35.6610    9.8290 N   0  0  0  0  0  0  0  0  0  0  0  0
   24.8140   36.2650   10.2240 N   0  0  0  0  0  0  0  0  0  0  0  0
   26.5760   35.9350    8.5910 C   0  0  0  0  0  0  0  0  0  0  0  0
   26.5700   37.1830    8.0060 C   0  0  0  0  0  0  0  0  0  0  0  0
   27.2520   34.9310    7.9190 C   0  0  0  0  0  0  0  0  0  0  0  0
   27.2090   37.4430    6.7950 C   0  0  0  0  0  0  0  0  0  0  0  0
   27.8880   35.1620    6.7290 C   0  0  0  0  0  0  0  0  0  0  0  0
   27.8640   36.4170    6.1700 C   0  0  0  0  0  0  0  0  0  0  0  0
   27.1970   39.0150    6.0640 S   0  0  0  0  0  0  0  0  0  0  0  0
   27.6450   38.8730    4.6310 O   0  0  0  0  0  0  0  0  0  0  0  0
   28.2230   39.8900    6.7460 O   0  0  0  0  0  0  0  0  0  0  0  0
   25.6340   39.7230    6.0980 N   0  0  0  0  0  0  0  0  0  0  0  0
   25.6020   40.5330    5.4540 H   0  0  0  0  0  0  0  0  0  0  0  0
   25.3380   39.9900    7.0600 H   0  0  0  0  0  0  0  0  0  0  0  0
   29.8670   25.5550   16.9770 C   0  0  0  0  0  0  0  0  0  0  0  0
   28.3450   25.7220   17.0260 C   0  0  0  0  0  0  0  0  0  0  0  0
   27.6030   24.3960   16.9600 C   0  0  0  0  0  0  0  0  0  0  0  0
   26.5510   24.2820   18.0280 C   0  0  0  0  0  0  0  0  0  0  0  0
   25.2320   23.8460   17.3990 C   0  0  0  0  0  0  0  0  0  0  0  0
   25.0750   22.3750   17.4900 N   0  0  0  0  0  0  0  0  0  0  0  0
  1  4  1  0  0  0  0
  2 31  1  0  0  0  0
  2  1  1  0  0  0  0
  3  2  2  0  0  0  0
  5  1  1  0  0  0  0
  6 29  1  0  0  0  0
  6  5  1  1  0  0  0
  7 27  1  6  0  0  0
  7  6  1  0  0  0  0
  8  7  1  6  0  0  0
  9 14  1  6  0  0  0
  9 11  1  0  0  0  0
 10  9  1  0  0  0  0
 10 12  1  0  0  0  0
 11  8  1  0  0  0  0
 12 20  1  6  0  0  0
 12 13  1  0  0  0  0
 13 22  1  1  0  0  0
 13  8  1  0  0  0  0
 14 15  1  0  0  0  0
 16 17  2  0  0  0  0
 16  9  1  0  0  0  0
 18 19  1  0  0  0  0
 18 16  1  0  0  0  0
 21 20  1  0  0  0  0
 22 24  1  0  0  0  0
 23 22  1  0  0  0  0
 23 25  1  0  0  0  0
 26 23  2  0  0  0  0
 27 28  1  0  0  0  0
 30 29  1  0  0  0  0
 31 32  1  0  0  0  0
 33 32  1  0  0  0  0
 34 33  2  0  0  0  0
 35 33  1  0  0  0  0
 36 37  1  0  0  0  0
 36 34  1  0  0  0  0
 37 35  2  0  0  0  0
 38 36  1  0  0  0  0
 39 38  1  0  0  0  0
 40 38  2  0  0  0  0
 41 39  2  0  0  0  0
 42 40  1  0  0  0  0
 43 42  2  0  0  0  0
 43 41  1  0  0  0  0
 44 47  1  0  0  0  0
 44 46  2  0  0  0  0
 44 41  1  0  0  0  0
 45 44  2  0  0  0  0
 47 49  1  0  0  0  0
 48 47  1  0  0  0  0
 50 51  1  0  0  0  0
 52 51  1  0  0  0  0
 52 53  1  0  0  0  0
 54 55  1  0  0  0  0
 54 53  1  0  0  0  0
M  END
>  <REMARK>
 VINA RESULT:    -4.503      4.295      8.078
 INTER + INTRA:         -14.811
 INTER:                  -9.340
 INTRA:                  -5.472
 UNBOUND:                -6.624
 SMILES CC(=O)N[C@@H]1[C@@H](O)C[C@](O)(C(=O)O)O[C@H]1C(O)[C@H](O)CNC(=O)OCc1cn(-c2cccc(S(N)(=O)=O)c2)nn1
 SMILES IDX 21 1 22 2 23 3 20 5 18 6 16 7 15 8 9 9 8 10 14 11 6 12 5 13
 SMILES IDX 10 14 11 16 12 17 13 18 7 20 4 22 2 23 1 25 3 26 17 27 19 29
 SMILES IDX 24 31 25 32 26 33 27 34 40 35 28 36 39 37 29 38 38 39 30 40
 SMILES IDX 33 41 31 42 32 43 34 44 36 45 37 46 35 47
 H PARENT 21 4 10 15 13 19 7 21 4 24 17 28 19 30 35 48 35 49
 Flexibility Score: inf
  4 active torsions:
  status: ('A' for Active; 'I' for Inactive)
    1  A    between atoms: CA   and  CB  
    2  A    between atoms: CB   and  CG  
    3  A    between atoms: CG   and  CD  
    4  A    between atoms: CD   and  CE  

>  <TORSDO>
F 17

>  <BEGIN_>
RES LYS A 131

$$$$
ligand_23_pose_6_2HRL.pdbqt
 OpenBabel07062320523D

  6  5  0  0  0  0  0  0  0  0999 V2000
   33.1930   34.6630    9.2900 C   0  0  0  0  0  0  0  0  0  0  0  0
   32.0600   35.3600   10.0340 C   0  0  0  0  0  0  0  0  0  0  0  0
   30.7580   35.3710    9.2750 C   0  0  0  0  0  0  0  0  0  0  0  0
   30.1160   36.7490    9.3320 C   0  0  0  0  0  0  0  0  0  0  0  0
   31.1260   37.7890    9.7780 C   0  0  0  0  0  0  0  0  0  0  0  0
   31.4070   38.7650    8.6890 N   0  0  0  0  0  0  0  0  0  0  0  0
  1  2  1  0  0  0  0
  3  4  1  0  0  0  0
  3  2  1  0  0  0  0
  4  5  1  0  0  0  0
  6  5  1  0  0  0  0
M  END
>  <EGIN_R>
ES LYS A 135

>  <REMARK>
  4 active torsions:
  status: ('A' for Active; 'I' for Inactive)
    5  A    between atoms: CA   and  CB  
    6  A    between atoms: CB   and  CG  
    7  A    between atoms: CG   and  CD  
    8  A    between atoms: CD   and  CE  

$$$$
