ligand_12_pose_3_2HRL.pdbqt
 OpenBabel07062320523D

 52 53  0  0  1  0  0  0  0  0999 V2000
   21.8780   41.0280    7.1280 N   0  0  0  0  0  0  0  0  0  0  0  0
   22.8400   42.0500    6.8780 C   0  0  0  0  0  0  0  0  0  0  0  0
   22.8790   43.1020    7.5840 O   0  0  0  0  0  0  0  0  0  0  0  0
   21.8760   40.1840    6.5330 H   0  0  0  0  0  0  0  0  0  0  0  0
   20.9510   41.2450    8.2210 C   0  0  0  0  0  0  0  0  0  0  0  0
   21.3040   40.4270    9.4340 C   0  0  2  0  0  0  0  0  0  0  0  0
   20.7090   39.0410    9.3150 C   0  0  2  0  0  0  0  0  0  0  0  0
   21.7410   37.9630    9.3510 C   0  0  2  0  0  0  0  0  0  0  0  0
   24.0020   37.6460    9.8150 C   0  0  2  0  0  0  0  0  0  0  0  0
   23.8660   36.3910    8.9640 C   0  0  0  0  0  0  0  0  0  0  0  0
   22.9740   38.5570    9.6020 O   0  0  0  0  0  0  0  0  0  0  0  0
   23.1820   36.8070    7.6800 C   0  0  1  0  0  0  0  0  0  0  0  0
   21.7550   37.1580    8.0700 C   0  0  1  0  0  0  0  0  0  0  0  0
   25.1660   38.2710    9.3730 O   0  0  0  0  0  0  0  0  0  0  0  0
   25.8640   37.6190    9.1110 H   0  0  0  0  0  0  0  0  0  0  0  0
   24.1630   37.2960   11.2310 C   0  0  0  0  0  0  0  0  0  0  0  0
   24.2410   38.2100   12.0890 O   0  0  0  0  0  0  0  0  0  0  0  0
   24.2360   35.9880   11.6950 O   0  0  0  0  0  0  0  0  0  0  0  0
   24.8570   35.3480   11.2090 H   0  0  0  0  0  0  0  0  0  0  0  0
   23.8110   37.9010    7.0950 O   0  0  0  0  0  0  0  0  0  0  0  0
   23.9260   38.6130    7.7970 H   0  0  0  0  0  0  0  0  0  0  0  0
   21.0590   35.9080    8.2890 N   0  0  0  0  0  0  0  0  0  0  0  0
   19.7540   35.7160    7.7600 C   0  0  0  0  0  0  0  0  0  0  0  0
   21.4670   35.1060    8.8300 H   0  0  0  0  0  0  0  0  0  0  0  0
   18.9940   34.4510    7.9550 C   0  0  0  0  0  0  0  0  0  0  0  0
   19.1910   36.6260    7.0980 O   0  0  0  0  0  0  0  0  0  0  0  0
   19.8560   38.9930    8.2400 O   0  0  0  0  0  0  0  0  0  0  0  0
   20.3660   39.3040    7.4390 H   0  0  0  0  0  0  0  0  0  0  0  0
   20.8460   41.0850   10.5700 O   0  0  0  0  0  0  0  0  0  0  0  0
   19.8850   41.3150   10.4610 H   0  0  0  0  0  0  0  0  0  0  0  0
   23.7770   41.9510    5.8580 O   0  0  0  0  0  0  0  0  0  0  0  0
   25.1690   42.0980    6.0500 C   0  0  0  0  0  0  0  0  0  0  0  0
   25.8780   40.8020    6.1220 C   0  0  0  0  0  0  0  0  0  0  0  0
   26.6820   40.1620    5.2030 C   0  0  0  0  0  0  0  0  0  0  0  0
   25.8440   39.9790    7.1850 N   0  0  0  0  0  0  0  0  0  0  0  0
   27.1090   38.9850    5.7230 N   0  0  0  0  0  0  0  0  0  0  0  0
   26.5750   38.9170    6.9280 N   0  0  0  0  0  0  0  0  0  0  0  0
   27.9840   37.9900    5.0820 C   0  0  0  0  0  0  0  0  0  0  0  0
   27.6730   36.7250    5.5700 O   0  0  0  0  0  0  0  0  0  0  0  0
   28.7660   36.0800    6.1020 C   0  0  0  0  0  0  0  0  0  0  0  0
   28.4810   35.2940    7.3190 C   0  0  0  0  0  0  0  0  0  0  0  0
   27.1750   35.0840    7.7100 C   0  0  0  0  0  0  0  0  0  0  0  0
   29.4950   34.7600    8.0740 C   0  0  0  0  0  0  0  0  0  0  0  0
   26.8820   34.3390    8.8550 C   0  0  0  0  0  0  0  0  0  0  0  0
   29.1990   34.0210    9.2090 C   0  0  0  0  0  0  0  0  0  0  0  0
   27.9150   33.8090    9.6020 C   0  0  0  0  0  0  0  0  0  0  0  0
   29.8670   25.5550   16.9770 C   0  0  0  0  0  0  0  0  0  0  0  0
   28.3450   25.7220   17.0260 C   0  0  0  0  0  0  0  0  0  0  0  0
   27.6010   24.4040   16.8790 C   0  0  0  0  0  0  0  0  0  0  0  0
   26.1550   24.5220   17.2740 C   0  0  0  0  0  0  0  0  0  0  0  0
   25.7680   23.3360   18.1520 C   0  0  0  0  0  0  0  0  0  0  0  0
   25.5210   23.7800   19.5440 N   0  0  0  0  0  0  0  0  0  0  0  0
  1  5  1  0  0  0  0
  2  1  1  0  0  0  0
  2  3  2  0  0  0  0
  4  1  1  0  0  0  0
  6  5  1  6  0  0  0
  6 29  1  0  0  0  0
  7 27  1  6  0  0  0
  7  6  1  0  0  0  0
  8  7  1  6  0  0  0
  8 11  1  0  0  0  0
  9 14  1  6  0  0  0
  9 16  1  0  0  0  0
 10  9  1  0  0  0  0
 11  9  1  0  0  0  0
 12 20  1  1  0  0  0
 12 13  1  0  0  0  0
 12 10  1  0  0  0  0
 13 22  1  1  0  0  0
 13  8  1  0  0  0  0
 15 14  1  0  0  0  0
 16 18  1  0  0  0  0
 16 17  2  0  0  0  0
 19 18  1  0  0  0  0
 20 21  1  0  0  0  0
 22 24  1  0  0  0  0
 23 25  1  0  0  0  0
 23 22  1  0  0  0  0
 26 23  2  0  0  0  0
 28 27  1  0  0  0  0
 30 29  1  0  0  0  0
 31 32  1  0  0  0  0
 31  2  1  0  0  0  0
 32 33  1  0  0  0  0
 33 35  1  0  0  0  0
 34 36  1  0  0  0  0
 34 33  2  0  0  0  0
 36 37  1  0  0  0  0
 37 35  2  0  0  0  0
 38 39  1  0  0  0  0
 38 36  1  0  0  0  0
 39 40  1  0  0  0  0
 40 41  1  0  0  0  0
 41 42  2  0  0  0  0
 41 43  1  0  0  0  0
 42 44  1  0  0  0  0
 43 45  2  0  0  0  0
 44 46  2  0  0  0  0
 45 46  1  0  0  0  0
 47 48  1  0  0  0  0
 49 48  1  0  0  0  0
 49 50  1  0  0  0  0
 50 51  1  0  0  0  0
 51 52  1  0  0  0  0
M  END
>  <REMARK>
 VINA RESULT:    -6.397      3.341      6.339
 INTER + INTRA:         -15.967
 INTER:                 -10.447
 INTRA:                  -5.519
 UNBOUND:                -3.774
 SMILES CC(=O)N[C@@H]1[C@@H](O)C[C@](O)(C(=O)O)O[C@H]1C(O)[C@H](O)CNC(=O)OCc1cn(COCc2ccccc2)nn1
 SMILES IDX 21 1 22 2 23 3 20 5 18 6 16 7 15 8 9 9 8 10 14 11 6 12 5 13
 SMILES IDX 10 14 11 16 12 17 13 18 7 20 4 22 2 23 1 25 3 26 17 27 19 29
 SMILES IDX 24 31 25 32 26 33 27 34 39 35 28 36 38 37 29 38 30 39 31 40
 SMILES IDX 32 41 33 42 37 43 34 44 36 45 35 46
 H PARENT 21 4 10 15 13 19 7 21 4 24 17 28 19 30
 Flexibility Score: inf
  4 active torsions:
  status: ('A' for Active; 'I' for Inactive)
    1  A    between atoms: CA   and  CB  
    2  A    between atoms: CB   and  CG  
    3  A    between atoms: CG   and  CD  
    4  A    between atoms: CD   and  CE  

>  <TORSDO>
F 18

>  <BEGIN_>
RES LYS A 131

$$$$
ligand_12_pose_3_2HRL.pdbqt
 OpenBabel07062320523D

  6  5  0  0  0  0  0  0  0  0999 V2000
   33.1930   34.6630    9.2900 C   0  0  0  0  0  0  0  0  0  0  0  0
   32.0600   35.3600   10.0340 C   0  0  0  0  0  0  0  0  0  0  0  0
   32.0810   35.1230   11.5220 C   0  0  0  0  0  0  0  0  0  0  0  0
   32.5050   36.3830   12.2600 C   0  0  0  0  0  0  0  0  0  0  0  0
   32.1830   36.2690   13.7380 C   0  0  0  0  0  0  0  0  0  0  0  0
   31.4680   37.4810   14.2260 N   0  0  0  0  0  0  0  0  0  0  0  0
  1  2  1  0  0  0  0
  2  3  1  0  0  0  0
  3  4  1  0  0  0  0
  4  5  1  0  0  0  0
  5  6  1  0  0  0  0
M  END
>  <EGIN_R>
ES LYS A 135

>  <REMARK>
  4 active torsions:
  status: ('A' for Active; 'I' for Inactive)
    5  A    between atoms: CA   and  CB  
    6  A    between atoms: CB   and  CG  
    7  A    between atoms: CG   and  CD  
    8  A    between atoms: CD   and  CE  

$$$$
