ligand_81_pose_2_2HRL.pdbqt
 OpenBabel07062320523D

 63 65  0  0  1  0  0  0  0  0999 V2000
   30.2510   39.5000   13.7230 O   0  0  0  0  0  0  0  0  0  0  0  0
   31.0680   38.4090   13.9190 C   0  0  0  0  0  0  0  0  0  0  0  0
   31.5140   37.5900   12.8170 N   0  0  0  0  0  0  0  0  0  0  0  0
   31.1650   37.8930   11.8860 H   0  0  0  0  0  0  0  0  0  0  0  0
   31.4230   38.1360   15.0930 O   0  0  0  0  0  0  0  0  0  0  0  0
   32.3710   36.4570   13.0790 C   0  0  0  0  0  0  0  0  0  0  0  0
   31.4780   35.2450   13.3090 C   0  0  2  0  0  0  0  0  0  0  0  0
   31.9000   34.6450   14.6280 C   0  0  2  0  0  0  0  0  0  0  0  0
   30.8780   34.7370   15.7200 C   0  0  2  0  0  0  0  0  0  0  0  0
   30.5130   32.4280   15.8830 C   0  0  2  0  0  0  0  0  0  0  0  0
   29.2940   32.6390   15.0010 C   0  0  0  0  0  0  0  0  0  0  0  0
   30.9520   33.5830   16.4640 O   0  0  0  0  0  0  0  0  0  0  0  0
   28.5770   33.8860   15.4760 C   0  0  1  0  0  0  0  0  0  0  0  0
   29.5000   35.1100   15.3110 C   0  0  1  0  0  0  0  0  0  0  0  0
   31.4750   31.8280   15.0620 O   0  0  0  0  0  0  0  0  0  0  0  0
   31.9080   32.4750   14.4620 H   0  0  0  0  0  0  0  0  0  0  0  0
   30.2070   31.4730   16.9680 C   0  0  0  0  0  0  0  0  0  0  0  0
   30.5630   31.7350   18.1330 O   0  0  0  0  0  0  0  0  0  0  0  0
   29.5390   30.3080   16.6990 O   0  0  0  0  0  0  0  0  0  0  0  0
   28.8510   30.1920   15.9660 H   0  0  0  0  0  0  0  0  0  0  0  0
   27.3890   34.0620   14.8050 O   0  0  0  0  0  0  0  0  0  0  0  0
   26.7410   34.5640   15.3440 H   0  0  0  0  0  0  0  0  0  0  0  0
   28.9100   36.1310   16.1870 N   0  0  0  0  0  0  0  0  0  0  0  0
   28.0730   37.1280   15.6330 C   0  0  0  0  0  0  0  0  0  0  0  0
   29.0970   36.1360   17.2130 H   0  0  0  0  0  0  0  0  0  0  0  0
   27.4400   38.1970   16.4650 C   0  0  0  0  0  0  0  0  0  0  0  0
   27.8690   37.0900   14.3880 O   0  0  0  0  0  0  0  0  0  0  0  0
   32.9490   35.5250   15.0540 O   0  0  0  0  0  0  0  0  0  0  0  0
   32.8260   36.4060   14.6490 H   0  0  0  0  0  0  0  0  0  0  0  0
   31.6680   34.4110   12.2180 O   0  0  0  0  0  0  0  0  0  0  0  0
   32.3690   34.7430   11.6180 H   0  0  0  0  0  0  0  0  0  0  0  0
   30.4970   40.5620   12.8280 C   0  0  0  0  0  0  0  0  0  0  0  0
   29.6940   40.3630   11.5790 C   0  0  0  0  0  0  0  0  0  0  0  0
   29.2820   39.1810   11.0180 C   0  0  0  0  0  0  0  0  0  0  0  0
   29.2250   41.3300   10.7620 N   0  0  0  0  0  0  0  0  0  0  0  0
   28.5730   39.4350    9.8760 N   0  0  0  0  0  0  0  0  0  0  0  0
   28.5700   40.7580    9.7700 N   0  0  0  0  0  0  0  0  0  0  0  0
   27.9970   38.4770    9.0050 C   0  0  0  0  0  0  0  0  0  0  0  0
   28.6650   38.0150    7.9390 N   0  0  0  0  0  0  0  0  0  0  0  0
   26.6970   38.0050    9.2220 C   0  0  0  0  0  0  0  0  0  0  0  0
   28.1070   37.1170    7.0880 C   0  0  0  0  0  0  0  0  0  0  0  0
   26.1320   37.1030    8.3650 C   0  0  0  0  0  0  0  0  0  0  0  0
   26.8660   36.6590    7.2810 N   0  0  0  0  0  0  0  0  0  0  0  0
   25.9430   38.5330   10.3770 C   0  0  0  0  0  0  0  0  0  0  0  0
   25.1790   39.8000   10.1120 C   0  0  0  0  0  0  0  0  0  0  0  0
   23.8390   39.6700   10.3470 O   0  0  0  0  0  0  0  0  0  0  0  0
   23.5210   38.7440   11.3130 C   0  0  0  0  0  0  0  0  0  0  0  0
   22.0380   38.4370   11.3320 C   0  0  0  0  0  0  0  0  0  0  0  0
   28.8490   36.6560    5.9760 N   0  0  0  0  0  0  0  0  0  0  0  0
   29.8660   36.8430    5.9140 H   0  0  0  0  0  0  0  0  0  0  0  0
   28.4060   36.1270    5.2020 H   0  0  0  0  0  0  0  0  0  0  0  0
   24.7540   36.6650    8.4710 C   0  0  0  0  0  0  0  0  0  0  0  0
   24.2400   35.6790    9.2300 C   0  0  0  0  0  0  0  0  0  0  0  0
   23.8340   37.3930    7.6830 C   0  0  0  0  0  0  0  0  0  0  0  0
   22.8600   35.4040    9.2280 C   0  0  0  0  0  0  0  0  0  0  0  0
   22.4920   37.1360    7.6720 C   0  0  0  0  0  0  0  0  0  0  0  0
   21.9760   36.1200    8.4570 C   0  0  0  0  0  0  0  0  0  0  0  0
   29.8670   25.5550   16.9770 C   0  0  0  0  0  0  0  0  0  0  0  0
   28.3450   25.7220   17.0260 C   0  0  0  0  0  0  0  0  0  0  0  0
   27.6020   24.3990   16.9190 C   0  0  0  0  0  0  0  0  0  0  0  0
   26.5530   24.2520   17.9860 C   0  0  0  0  0  0  0  0  0  0  0  0
   26.0010   25.6260   18.3520 C   0  0  0  0  0  0  0  0  0  0  0  0
   25.8910   25.7670   19.8230 N   0  0  0  0  0  0  0  0  0  0  0  0
  1  2  1  0  0  0  0
  2  5  2  0  0  0  0
  3  6  1  0  0  0  0
  3  2  1  0  0  0  0
  4  3  1  0  0  0  0
  7  6  1  6  0  0  0
  7  8  1  0  0  0  0
  8 28  1  1  0  0  0
  9  8  1  6  0  0  0
  9 12  1  0  0  0  0
 10 15  1  6  0  0  0
 10 12  1  0  0  0  0
 10 17  1  0  0  0  0
 11 13  1  0  0  0  0
 11 10  1  0  0  0  0
 13 21  1  6  0  0  0
 14 13  1  0  0  0  0
 14  9  1  0  0  0  0
 14 23  1  1  0  0  0
 16 15  1  0  0  0  0
 17 18  2  0  0  0  0
 19 17  1  0  0  0  0
 20 19  1  0  0  0  0
 21 22  1  0  0  0  0
 23 25  1  0  0  0  0
 24 23  1  0  0  0  0
 24 26  1  0  0  0  0
 27 24  2  0  0  0  0
 29 28  1  0  0  0  0
 30  7  1  0  0  0  0
 31 30  1  0  0  0  0
 32  1  1  0  0  0  0
 33 32  1  0  0  0  0
 34 33  2  0  0  0  0
 35 33  1  0  0  0  0
 36 34  1  0  0  0  0
 37 36  1  0  0  0  0
 37 35  2  0  0  0  0
 38 40  2  0  0  0  0
 38 36  1  0  0  0  0
 39 38  1  0  0  0  0
 40 44  1  0  0  0  0
 41 43  1  0  0  0  0
 41 39  2  0  0  0  0
 42 52  1  0  0  0  0
 42 40  1  0  0  0  0
 43 42  2  0  0  0  0
 45 46  1  0  0  0  0
 45 44  1  0  0  0  0
 46 47  1  0  0  0  0
 47 48  1  0  0  0  0
 49 41  1  0  0  0  0
 50 49  1  0  0  0  0
 51 49  1  0  0  0  0
 52 53  2  0  0  0  0
 54 52  1  0  0  0  0
 55 53  1  0  0  0  0
 56 54  2  0  0  0  0
 56 57  1  0  0  0  0
 57 55  2  0  0  0  0
 58 59  1  0  0  0  0
 60 59  1  0  0  0  0
 60 61  1  0  0  0  0
 61 62  1  0  0  0  0
 62 63  1  0  0  0  0
M  END
>  <REMARK>
 VINA RESULT:    -4.918      3.164      9.240
 INTER + INTRA:         -17.264
 INTER:                 -10.520
 INTRA:                  -6.745
 UNBOUND:                -7.171
 SMILES CCOCCc1c(-c2ccccc2)nc(N)nc1-n1cc(COC(=O)NC[C@@H](O)C(O)[C@@H]2O[C@@](O)(C(=O)O)C[C@H](O)[C@H]2NC(C)=O)nn1
 SMILES IDX 23 1 24 2 26 3 25 5 27 6 28 7 30 8 32 9 34 10 39 11 33 12
 SMILES IDX 40 13 42 14 35 15 36 17 37 18 38 19 41 21 43 23 44 24 45 26
 SMILES IDX 46 27 31 28 29 30 22 32 21 33 20 34 47 35 19 36 48 37 18 38
 SMILES IDX 17 39 6 40 15 41 7 42 14 43 5 44 4 45 3 46 2 47 1 48 16 49
 SMILES IDX 8 52 9 53 13 54 10 55 12 56 11 57
 H PARENT 26 4 35 16 38 20 41 22 43 25 31 29 29 31 16 50 16 51
 Flexibility Score: inf
  4 active torsions:
  status: ('A' for Active; 'I' for Inactive)
    1  A    between atoms: CA   and  CB  
    2  A    between atoms: CB   and  CG  
    3  A    between atoms: CG   and  CD  
    4  A    between atoms: CD   and  CE  

>  <TORSDO>
F 21

>  <BEGIN_>
RES LYS A 131

$$$$
ligand_81_pose_2_2HRL.pdbqt
 OpenBabel07062320523D

  6  5  0  0  0  0  0  0  0  0999 V2000
   33.1930   34.6630    9.2900 C   0  0  0  0  0  0  0  0  0  0  0  0
   32.0600   35.3600   10.0340 C   0  0  0  0  0  0  0  0  0  0  0  0
   30.7910   35.4740    9.2290 C   0  0  0  0  0  0  0  0  0  0  0  0
   30.2120   34.0980    8.9410 C   0  0  0  0  0  0  0  0  0  0  0  0
   28.7130   34.0920    9.1690 C   0  0  0  0  0  0  0  0  0  0  0  0
   28.3580   34.8230   10.4170 N   0  0  0  0  0  0  0  0  0  0  0  0
  1  2  1  0  0  0  0
  3  2  1  0  0  0  0
  4  5  1  0  0  0  0
  4  3  1  0  0  0  0
  5  6  1  0  0  0  0
M  END
>  <EGIN_R>
ES LYS A 135

>  <REMARK>
  4 active torsions:
  status: ('A' for Active; 'I' for Inactive)
    5  A    between atoms: CA   and  CB  
    6  A    between atoms: CB   and  CG  
    7  A    between atoms: CG   and  CD  
    8  A    between atoms: CD   and  CE  

$$$$
