ligand_8_pose_14_2HRL.pdbqt
 OpenBabel07062320523D

 50 51  0  0  1  0  0  0  0  0999 V2000
   29.1500   32.6330   20.2160 C   0  0  0  0  0  0  0  0  0  0  0  0
   28.8200   31.2580   20.7370 C   0  0  2  0  0  0  0  0  0  0  0  0
   30.0120   30.3810   20.5170 C   0  0  1  0  0  0  0  0  0  0  0  0
   30.1240   29.1840   21.4320 C   0  0  2  0  0  0  0  0  0  0  0  0
   32.3790   28.8350   21.9680 C   0  0  2  0  0  0  0  0  0  0  0  0
   32.1230   27.3460   22.2030 C   0  0  0  0  0  0  0  0  0  0  0  0
   31.2100   29.4540   22.2550 O   0  0  0  0  0  0  0  0  0  0  0  0
   31.2170   26.9150   21.0860 C   0  0  1  0  0  0  0  0  0  0  0  0
   30.0920   27.8690   20.7830 C   0  0  1  0  0  0  0  0  0  0  0  0
   32.8590   28.9590   20.6880 O   0  0  0  0  0  0  0  0  0  0  0  0
   32.0940   29.1750   20.0990 H   0  0  0  0  0  0  0  0  0  0  0  0
   33.4320   29.3000   22.9130 C   0  0  0  0  0  0  0  0  0  0  0  0
   33.0930   29.6980   24.0540 O   0  0  0  0  0  0  0  0  0  0  0  0
   34.7770   29.3020   22.5590 O   0  0  0  0  0  0  0  0  0  0  0  0
   35.1030   29.1520   21.6080 H   0  0  0  0  0  0  0  0  0  0  0  0
   32.0240   26.7710   19.9570 O   0  0  0  0  0  0  0  0  0  0  0  0
   31.6160   27.1730   19.1690 H   0  0  0  0  0  0  0  0  0  0  0  0
   28.8200   27.2070   21.1420 N   0  0  0  0  0  0  0  0  0  0  0  0
   27.6910   27.2750   20.2950 C   0  0  0  0  0  0  0  0  0  0  0  0
   28.7380   26.6650   22.0500 H   0  0  0  0  0  0  0  0  0  0  0  0
   26.3920   26.6130   20.6580 C   0  0  0  0  0  0  0  0  0  0  0  0
   27.7970   27.9110   19.2160 O   0  0  0  0  0  0  0  0  0  0  0  0
   30.1800   30.1140   19.1830 O   0  0  0  0  0  0  0  0  0  0  0  0
   30.8110   30.7540   18.7350 H   0  0  0  0  0  0  0  0  0  0  0  0
   27.7170   30.7600   20.0930 O   0  0  0  0  0  0  0  0  0  0  0  0
   27.9190   29.9480   19.5510 H   0  0  0  0  0  0  0  0  0  0  0  0
   28.8130   32.9030   18.8600 N   0  0  0  0  0  0  0  0  0  0  0  0
   29.7540   33.0130   17.8120 C   0  0  0  0  0  0  0  0  0  0  0  0
   27.7870   33.0390   18.5770 H   0  0  0  0  0  0  0  0  0  0  0  0
   30.9900   32.8940   17.9790 O   0  0  0  0  0  0  0  0  0  0  0  0
   29.2840   33.2690   16.5150 O   0  0  0  0  0  0  0  0  0  0  0  0
   29.3710   32.2230   15.5760 C   0  0  0  0  0  0  0  0  0  0  0  0
   28.2720   31.2660   15.8530 C   0  0  0  0  0  0  0  0  0  0  0  0
   26.9270   31.4890   15.5300 C   0  0  0  0  0  0  0  0  0  0  0  0
   28.2670   30.0600   16.4320 N   0  0  0  0  0  0  0  0  0  0  0  0
   26.1830   30.4380   15.9160 N   0  0  0  0  0  0  0  0  0  0  0  0
   27.0270   29.5810   16.4630 N   0  0  0  0  0  0  0  0  0  0  0  0
   24.7710   30.2990   15.7560 C   0  0  0  0  0  0  0  0  0  0  0  0
   24.2210   29.7720   14.6090 C   0  0  0  0  0  0  0  0  0  0  0  0
   23.9010   30.6880   16.7510 C   0  0  0  0  0  0  0  0  0  0  0  0
   22.8370   29.6420   14.4690 C   0  0  0  0  0  0  0  0  0  0  0  0
   22.5270   30.5610   16.6160 C   0  0  0  0  0  0  0  0  0  0  0  0
   24.6580   31.4250   18.3530 Br  0  0  0  0  0  0  0  0  0  0  0  0
   21.9720   30.0340   15.4690 C   0  0  0  0  0  0  0  0  0  0  0  0
   29.8670   25.5550   16.9770 C   0  0  0  0  0  0  0  0  0  0  0  0
   28.3450   25.7220   17.0260 C   0  0  0  0  0  0  0  0  0  0  0  0
   27.6020   24.4000   16.9130 C   0  0  0  0  0  0  0  0  0  0  0  0
   26.1710   24.5150   17.3600 C   0  0  0  0  0  0  0  0  0  0  0  0
   25.9210   23.5540   18.5180 C   0  0  0  0  0  0  0  0  0  0  0  0
   24.5950   23.8120   19.1290 N   0  0  0  0  0  0  0  0  0  0  0  0
  2  1  1  6  0  0  0
  3 23  1  6  0  0  0
  3  2  1  0  0  0  0
  4  3  1  6  0  0  0
  4  7  1  0  0  0  0
  5 10  1  6  0  0  0
  5  6  1  0  0  0  0
  5  7  1  0  0  0  0
  5 12  1  0  0  0  0
  8 16  1  6  0  0  0
  8  6  1  0  0  0  0
  9  8  1  0  0  0  0
  9 18  1  1  0  0  0
  9  4  1  0  0  0  0
 11 10  1  0  0  0  0
 12 13  2  0  0  0  0
 14 12  1  0  0  0  0
 15 14  1  0  0  0  0
 17 16  1  0  0  0  0
 18 20  1  0  0  0  0
 19 21  1  0  0  0  0
 19 18  1  0  0  0  0
 22 19  2  0  0  0  0
 24 23  1  0  0  0  0
 25  2  1  0  0  0  0
 26 25  1  0  0  0  0
 27  1  1  0  0  0  0
 28 30  2  0  0  0  0
 28 27  1  0  0  0  0
 29 27  1  0  0  0  0
 31 28  1  0  0  0  0
 32 33  1  0  0  0  0
 32 31  1  0  0  0  0
 33 35  1  0  0  0  0
 34 33  2  0  0  0  0
 34 36  1  0  0  0  0
 35 37  2  0  0  0  0
 36 37  1  0  0  0  0
 38 36  1  0  0  0  0
 38 40  2  0  0  0  0
 39 38  1  0  0  0  0
 40 43  1  0  0  0  0
 41 39  2  0  0  0  0
 41 44  1  0  0  0  0
 42 40  1  0  0  0  0
 44 42  2  0  0  0  0
 45 46  1  0  0  0  0
 47 46  1  0  0  0  0
 47 48  1  0  0  0  0
 48 49  1  0  0  0  0
 49 50  1  0  0  0  0
M  END
>  <REMARK>
 VINA RESULT:    -5.469      2.541      5.146
 INTER + INTRA:         -13.860
 INTER:                  -7.943
 INTRA:                  -5.917
 UNBOUND:                -4.396
 SMILES CC(=O)N[C@@H]1[C@@H](O)C[C@](O)(C(=O)O)O[C@H]1C(O)[C@H](O)CNC(=O)OCc1cn(-c2ccccc2Br)nn1
 SMILES IDX 20 1 18 2 16 3 15 4 9 5 8 6 14 7 6 8 5 9 10 10 11 12 12 13
 SMILES IDX 13 14 7 16 4 18 2 19 1 21 3 22 17 23 19 25 21 27 22 28 23 30
 SMILES IDX 24 31 25 32 26 33 27 34 37 35 28 36 36 37 29 38 30 39 34 40
 SMILES IDX 31 41 33 42 35 43 32 44
 H PARENT 10 11 13 15 7 17 4 20 17 24 19 26 21 29
 Flexibility Score: inf
  4 active torsions:
  status: ('A' for Active; 'I' for Inactive)
    1  A    between atoms: CA   and  CB  
    2  A    between atoms: CB   and  CG  
    3  A    between atoms: CG   and  CD  
    4  A    between atoms: CD   and  CE  

>  <TORSDO>
F 15

>  <BEGIN_>
RES LYS A 131

$$$$
ligand_8_pose_14_2HRL.pdbqt
 OpenBabel07062320523D

  6  5  0  0  0  0  0  0  0  0999 V2000
   33.1930   34.6630    9.2900 C   0  0  0  0  0  0  0  0  0  0  0  0
   32.0600   35.3600   10.0340 C   0  0  0  0  0  0  0  0  0  0  0  0
   30.8060   35.5160    9.2130 C   0  0  0  0  0  0  0  0  0  0  0  0
   30.0890   34.1830    9.0690 C   0  0  0  0  0  0  0  0  0  0  0  0
   28.6400   34.3970    8.6760 C   0  0  0  0  0  0  0  0  0  0  0  0
   27.7220   33.6720    9.5980 N   0  0  0  0  0  0  0  0  0  0  0  0
  1  2  1  0  0  0  0
  3  2  1  0  0  0  0
  4  3  1  0  0  0  0
  5  4  1  0  0  0  0
  5  6  1  0  0  0  0
M  END
>  <EGIN_R>
ES LYS A 135

>  <REMARK>
  4 active torsions:
  status: ('A' for Active; 'I' for Inactive)
    5  A    between atoms: CA   and  CB  
    6  A    between atoms: CB   and  CG  
    7  A    between atoms: CG   and  CD  
    8  A    between atoms: CD   and  CE  

$$$$
