ligand_42_pose_9_2HRL.pdbqt
 OpenBabel07062320523D

 52 54  0  0  1  0  0  0  0  0999 V2000
   28.5020   30.1020   16.0620 C   0  0  0  0  0  0  0  0  0  0  0  0
   27.1670   30.6000   15.6200 C   0  0  2  0  0  0  0  0  0  0  0  0
   27.0500   32.1190   15.8270 C   0  0  1  0  0  0  0  0  0  0  0  0
   25.6540   32.5040   15.4910 C   0  0  2  0  0  0  0  0  0  0  0  0
   23.9100   32.2060   14.0540 C   0  0  2  0  0  0  0  0  0  0  0  0
   23.2630   33.1040   15.0870 C   0  0  0  0  0  0  0  0  0  0  0  0
   25.1780   31.8000   14.3900 O   0  0  0  0  0  0  0  0  0  0  0  0
   24.0920   34.3420   15.3700 C   0  0  1  0  0  0  0  0  0  0  0  0
   25.5220   33.9850   15.1380 C   0  0  1  0  0  0  0  0  0  0  0  0
   23.8670   32.9060   12.8460 O   0  0  0  0  0  0  0  0  0  0  0  0
   24.5730   33.6030   12.9120 H   0  0  0  0  0  0  0  0  0  0  0  0
   23.0650   30.9940   13.9550 C   0  0  0  0  0  0  0  0  0  0  0  0
   21.8430   31.0740   14.2220 O   0  0  0  0  0  0  0  0  0  0  0  0
   23.5680   29.7600   13.5780 O   0  0  0  0  0  0  0  0  0  0  0  0
   23.9620   29.5710   12.6630 H   0  0  0  0  0  0  0  0  0  0  0  0
   23.6420   35.3210   14.4580 O   0  0  0  0  0  0  0  0  0  0  0  0
   24.3130   35.4940   13.7730 H   0  0  0  0  0  0  0  0  0  0  0  0
   26.4780   34.8080   15.7840 N   0  0  0  0  0  0  0  0  0  0  0  0
   26.8130   36.1470   15.4480 C   0  0  0  0  0  0  0  0  0  0  0  0
   26.9970   34.4010   16.5920 H   0  0  0  0  0  0  0  0  0  0  0  0
   27.8410   36.9290   16.1970 C   0  0  0  0  0  0  0  0  0  0  0  0
   26.2060   36.6630   14.4820 O   0  0  0  0  0  0  0  0  0  0  0  0
   27.3730   32.3850   17.1290 O   0  0  0  0  0  0  0  0  0  0  0  0
   28.0050   31.8120   17.5750 H   0  0  0  0  0  0  0  0  0  0  0  0
   26.1440   30.0010   16.3060 O   0  0  0  0  0  0  0  0  0  0  0  0
   25.5180   29.4590   15.7800 H   0  0  0  0  0  0  0  0  0  0  0  0
   29.5710   30.7990   15.4360 N   0  0  0  0  0  0  0  0  0  0  0  0
   30.5010   31.5850   16.1350 C   0  0  0  0  0  0  0  0  0  0  0  0
   29.7040   30.7450   14.3800 H   0  0  0  0  0  0  0  0  0  0  0  0
   30.4990   31.7780   17.3620 O   0  0  0  0  0  0  0  0  0  0  0  0
   31.5270   32.2190   15.4120 O   0  0  0  0  0  0  0  0  0  0  0  0
   31.8330   33.5530   15.6840 C   0  0  0  0  0  0  0  0  0  0  0  0
   31.3740   34.3990   14.5520 C   0  0  0  0  0  0  0  0  0  0  0  0
   30.0680   34.5210   14.0900 C   0  0  0  0  0  0  0  0  0  0  0  0
   32.1020   35.2010   13.7560 N   0  0  0  0  0  0  0  0  0  0  0  0
   30.0370   35.3740   13.0510 N   0  0  0  0  0  0  0  0  0  0  0  0
   31.2880   35.7630   12.8820 N   0  0  0  0  0  0  0  0  0  0  0  0
   28.8810   35.7540   12.3140 C   0  0  0  0  0  0  0  0  0  0  0  0
   28.7720   37.0240   11.7850 C   0  0  0  0  0  0  0  0  0  0  0  0
   27.8250   34.8940   12.0920 C   0  0  0  0  0  0  0  0  0  0  0  0
   27.6480   37.4170   11.0600 C   0  0  0  0  0  0  0  0  0  0  0  0
   26.6910   35.2650   11.3700 C   0  0  0  0  0  0  0  0  0  0  0  0
   26.6070   36.5390   10.8530 C   0  0  0  0  0  0  0  0  0  0  0  0
   25.5210   34.5990   11.0160 O   0  0  0  0  0  0  0  0  0  0  0  0
   25.3710   36.6190   10.1870 O   0  0  0  0  0  0  0  0  0  0  0  0
   24.5390   35.5540   10.6560 C   0  0  0  0  0  0  0  0  0  0  0  0
   29.8670   25.5550   16.9770 C   0  0  0  0  0  0  0  0  0  0  0  0
   28.3450   25.7220   17.0260 C   0  0  0  0  0  0  0  0  0  0  0  0
   27.6020   24.3990   16.9240 C   0  0  0  0  0  0  0  0  0  0  0  0
   26.6330   24.2040   18.0570 C   0  0  0  0  0  0  0  0  0  0  0  0
   25.3400   23.5960   17.5230 C   0  0  0  0  0  0  0  0  0  0  0  0
   24.4800   24.6470   16.9290 N   0  0  0  0  0  0  0  0  0  0  0  0
  2  3  1  0  0  0  0
  2  1  1  1  0  0  0
  2 25  1  0  0  0  0
  3 23  1  1  0  0  0
  4  3  1  6  0  0  0
  5 10  1  6  0  0  0
  5  7  1  0  0  0  0
  5  6  1  0  0  0  0
  6  8  1  0  0  0  0
  7  4  1  0  0  0  0
  8 16  1  6  0  0  0
  9  8  1  0  0  0  0
  9  4  1  0  0  0  0
  9 18  1  1  0  0  0
 10 11  1  0  0  0  0
 12  5  1  0  0  0  0
 12 13  2  0  0  0  0
 14 12  1  0  0  0  0
 15 14  1  0  0  0  0
 17 16  1  0  0  0  0
 18 20  1  0  0  0  0
 19 18  1  0  0  0  0
 19 21  1  0  0  0  0
 22 19  2  0  0  0  0
 23 24  1  0  0  0  0
 26 25  1  0  0  0  0
 27  1  1  0  0  0  0
 27 28  1  0  0  0  0
 28 30  2  0  0  0  0
 29 27  1  0  0  0  0
 31 32  1  0  0  0  0
 31 28  1  0  0  0  0
 33 32  1  0  0  0  0
 34 33  2  0  0  0  0
 35 33  1  0  0  0  0
 36 34  1  0  0  0  0
 37 36  1  0  0  0  0
 37 35  2  0  0  0  0
 38 36  1  0  0  0  0
 39 38  2  0  0  0  0
 40 38  1  0  0  0  0
 41 39  1  0  0  0  0
 42 40  2  0  0  0  0
 43 41  2  0  0  0  0
 43 42  1  0  0  0  0
 44 42  1  0  0  0  0
 45 46  1  0  0  0  0
 45 43  1  0  0  0  0
 46 44  1  0  0  0  0
 47 48  1  0  0  0  0
 49 48  1  0  0  0  0
 49 50  1  0  0  0  0
 51 50  1  0  0  0  0
 52 51  1  0  0  0  0
M  END
>  <REMARK>
 VINA RESULT:    -5.602      4.901      8.780
 INTER + INTRA:         -14.243
 INTER:                  -7.472
 INTRA:                  -6.771
 UNBOUND:                -4.548
 SMILES CC(=O)N[C@@H]1[C@@H](O)C[C@](O)(C(=O)O)O[C@H]1C(O)[C@H](O)CNC(=O)OCc1cn(-c2ccc3c(c2)OCO3)nn1
 SMILES IDX 20 1 18 2 16 3 15 4 9 5 8 6 14 7 6 8 5 9 10 10 11 12 12 13
 SMILES IDX 13 14 7 16 4 18 2 19 1 21 3 22 17 23 19 25 21 27 22 28 23 30
 SMILES IDX 24 31 25 32 26 33 27 34 39 35 28 36 38 37 29 38 30 39 34 40
 SMILES IDX 31 41 33 42 32 43 35 44 37 45 36 46
 H PARENT 10 11 13 15 7 17 4 20 17 24 19 26 21 29
 Flexibility Score: inf
  4 active torsions:
  status: ('A' for Active; 'I' for Inactive)
    1  A    between atoms: CA   and  CB  
    2  A    between atoms: CB   and  CG  
    3  A    between atoms: CG   and  CD  
    4  A    between atoms: CD   and  CE  

>  <TORSDO>
F 15

>  <BEGIN_>
RES LYS A 131

$$$$
ligand_42_pose_9_2HRL.pdbqt
 OpenBabel07062320523D

  6  5  0  0  0  0  0  0  0  0999 V2000
   33.1930   34.6630    9.2900 C   0  0  0  0  0  0  0  0  0  0  0  0
   32.0600   35.3600   10.0340 C   0  0  0  0  0  0  0  0  0  0  0  0
   30.8170   35.5450    9.2020 C   0  0  0  0  0  0  0  0  0  0  0  0
   30.0560   34.2350    9.0760 C   0  0  0  0  0  0  0  0  0  0  0  0
   28.7070   34.4640    8.4210 C   0  0  0  0  0  0  0  0  0  0  0  0
   28.8050   35.4720    7.3290 N   0  0  0  0  0  0  0  0  0  0  0  0
  1  2  1  0  0  0  0
  3  2  1  0  0  0  0
  4  3  1  0  0  0  0
  5  4  1  0  0  0  0
  6  5  1  0  0  0  0
M  END
>  <EGIN_R>
ES LYS A 135

>  <REMARK>
  4 active torsions:
  status: ('A' for Active; 'I' for Inactive)
    5  A    between atoms: CA   and  CB  
    6  A    between atoms: CB   and  CG  
    7  A    between atoms: CG   and  CD  
    8  A    between atoms: CD   and  CE  

$$$$
