ligand_90_pose_7_2HRL.pdbqt
 OpenBabel07062320523D

 61 62  0  0  1  0  0  0  0  0999 V2000
   23.7260   34.4800   12.1480 C   0  0  0  0  0  0  0  0  0  0  0  0
   23.1080   35.7510   12.1660 O   0  0  0  0  0  0  0  0  0  0  0  0
   22.5970   36.3270   11.0170 C   0  0  0  0  0  0  0  0  0  0  0  0
   23.4400   36.6160    9.8890 N   0  0  0  0  0  0  0  0  0  0  0  0
   24.4450   36.3740    9.9960 H   0  0  0  0  0  0  0  0  0  0  0  0
   21.3840   36.5950   10.9770 O   0  0  0  0  0  0  0  0  0  0  0  0
   22.9610   37.1990    8.6830 C   0  0  0  0  0  0  0  0  0  0  0  0
   24.0010   37.4060    7.6370 C   0  0  2  0  0  0  0  0  0  0  0  0
   25.3690   37.1380    8.2420 C   0  0  1  0  0  0  0  0  0  0  0  0
   26.3310   36.5480    7.2620 C   0  0  2  0  0  0  0  0  0  0  0  0
   28.1250   35.5720    8.3840 C   0  0  2  0  0  0  0  0  0  0  0  0
   29.1930   36.0560    7.4140 C   0  0  0  0  0  0  0  0  0  0  0  0
   26.9120   35.4160    7.7730 O   0  0  0  0  0  0  0  0  0  0  0  0
   28.5290   36.7140    6.2120 C   0  0  1  0  0  0  0  0  0  0  0  0
   27.3530   37.5220    6.7750 C   0  0  1  0  0  0  0  0  0  0  0  0
   28.0310   36.5410    9.3660 O   0  0  0  0  0  0  0  0  0  0  0  0
   27.0890   36.8160    9.5000 H   0  0  0  0  0  0  0  0  0  0  0  0
   28.5230   34.2960    9.0340 C   0  0  0  0  0  0  0  0  0  0  0  0
   29.7080   33.8610    8.9760 O   0  0  0  0  0  0  0  0  0  0  0  0
   27.6040   33.5330    9.7340 O   0  0  0  0  0  0  0  0  0  0  0  0
   26.6050   33.6200    9.6750 H   0  0  0  0  0  0  0  0  0  0  0  0
   29.4650   37.5420    5.6180 O   0  0  0  0  0  0  0  0  0  0  0  0
   30.3170   37.0910    5.4240 H   0  0  0  0  0  0  0  0  0  0  0  0
   26.8180   38.3880    5.7330 N   0  0  0  0  0  0  0  0  0  0  0  0
   27.1700   39.7530    5.7180 C   0  0  0  0  0  0  0  0  0  0  0  0
   26.1900   38.0000    5.0250 H   0  0  0  0  0  0  0  0  0  0  0  0
   26.6390   40.6850    4.6560 C   0  0  0  0  0  0  0  0  0  0  0  0
   27.9290   40.2800    6.5650 O   0  0  0  0  0  0  0  0  0  0  0  0
   25.9120   38.2910    8.7860 O   0  0  0  0  0  0  0  0  0  0  0  0
   25.6920   38.4190    9.7260 H   0  0  0  0  0  0  0  0  0  0  0  0
   24.0000   38.6650    7.0600 O   0  0  0  0  0  0  0  0  0  0  0  0
   23.1800   38.8390    6.5240 H   0  0  0  0  0  0  0  0  0  0  0  0
   25.1790   34.7370   12.3020 C   0  0  0  0  0  0  0  0  0  0  0  0
   25.9260   34.3240   13.3830 C   0  0  0  0  0  0  0  0  0  0  0  0
   26.0540   35.3790   11.5140 N   0  0  0  0  0  0  0  0  0  0  0  0
   27.2280   34.7200   13.2300 N   0  0  0  0  0  0  0  0  0  0  0  0
   27.2720   35.3570   12.0860 N   0  0  0  0  0  0  0  0  0  0  0  0
   28.2390   34.4290   14.2220 C   0  0  0  0  0  0  0  0  0  0  0  0
   28.6550   35.7660   14.8060 C   0  0  0  0  0  0  0  0  0  0  0  0
   28.6500   35.9370   16.0440 O   0  0  0  0  0  0  0  0  0  0  0  0
   29.0530   36.8370   14.0020 N   0  0  0  0  0  0  0  0  0  0  0  0
   29.0480   36.5910   12.9400 H   0  0  0  0  0  0  0  0  0  0  0  0
   29.4440   38.1520   14.3560 C   0  0  0  0  0  0  0  0  0  0  0  0
   30.0490   39.0390   13.3660 C   0  0  1  0  0  0  0  0  0  0  0  0
   31.2640   39.6240   13.8130 O   0  0  0  0  0  0  0  0  0  0  0  0
   31.0920   40.5530   14.1000 H   0  0  0  0  0  0  0  0  0  0  0  0
   30.0190   38.7370   11.9260 C   0  0  0  0  0  0  0  0  0  0  0  0
   29.4910   39.8190   11.1150 N   0  0  0  0  0  0  0  0  0  0  0  0
   28.1880   39.9890   10.7760 C   0  0  0  0  0  0  0  0  0  0  0  0
   30.2090   40.8100   10.5570 C   0  0  0  0  0  0  0  0  0  0  0  0
   28.1320   41.1230    9.9870 C   0  0  0  0  0  0  0  0  0  0  0  0
   29.3630   41.6210    9.8530 N   0  0  0  0  0  0  0  0  0  0  0  0
   31.6030   41.0560   10.6300 N   0  0  0  0  0  0  0  0  0  0  0  0
   32.3000   40.7870    9.6070 O   0  0  0  0  0  0  0  0  0  0  0  0
   32.2750   41.5530   11.6940 O   0  0  0  0  0  0  0  0  0  0  0  0
   29.8670   25.5550   16.9770 C   0  0  0  0  0  0  0  0  0  0  0  0
   28.3450   25.7220   17.0260 C   0  0  0  0  0  0  0  0  0  0  0  0
   27.6000   24.4150   16.8010 C   0  0  0  0  0  0  0  0  0  0  0  0
   26.8510   23.9720   18.0280 C   0  0  0  0  0  0  0  0  0  0  0  0
   25.5890   23.2230   17.6110 C   0  0  0  0  0  0  0  0  0  0  0  0
   24.6510   24.1350   16.9150 N   0  0  0  0  0  0  0  0  0  0  0  0
  1  2  1  0  0  0  0
  1 33  1  0  0  0  0
  3  2  1  0  0  0  0
  4  5  1  0  0  0  0
  4  3  1  0  0  0  0
  6  3  2  0  0  0  0
  7  4  1  0  0  0  0
  8  9  1  0  0  0  0
  8  7  1  1  0  0  0
  9 29  1  6  0  0  0
 10 13  1  0  0  0  0
 10  9  1  1  0  0  0
 11 18  1  1  0  0  0
 11 16  1  0  0  0  0
 12 11  1  0  0  0  0
 13 11  1  0  0  0  0
 14 22  1  1  0  0  0
 14 15  1  0  0  0  0
 14 12  1  0  0  0  0
 15 24  1  6  0  0  0
 15 10  1  0  0  0  0
 16 17  1  0  0  0  0
 18 20  1  0  0  0  0
 19 18  2  0  0  0  0
 21 20  1  0  0  0  0
 23 22  1  0  0  0  0
 25 24  1  0  0  0  0
 25 28  2  0  0  0  0
 26 24  1  0  0  0  0
 27 25  1  0  0  0  0
 29 30  1  0  0  0  0
 31  8  1  0  0  0  0
 32 31  1  0  0  0  0
 33 34  2  0  0  0  0
 35 37  2  0  0  0  0
 35 33  1  0  0  0  0
 36 34  1  0  0  0  0
 36 38  1  0  0  0  0
 37 36  1  0  0  0  0
 38 39  1  0  0  0  0
 39 40  2  0  0  0  0
 41 43  1  0  0  0  0
 41 39  1  0  0  0  0
 42 41  1  0  0  0  0
 44 47  1  6  0  0  0
 44 45  1  0  0  0  0
 44 43  1  0  0  0  0
 45 46  1  0  0  0  0
 48 47  1  0  0  0  0
 49 48  1  0  0  0  0
 50 53  1  0  0  0  0
 50 48  1  0  0  0  0
 51 49  2  0  0  0  0
 52 51  1  0  0  0  0
 52 50  2  0  0  0  0
 53 55  2  0  0  0  0
 54 53  2  0  0  0  0
 56 57  1  0  0  0  0
 58 57  1  0  0  0  0
 58 59  1  0  0  0  0
 60 59  1  0  0  0  0
 61 60  1  0  0  0  0
M  END
>  <REMARK>
 VINA RESULT:    -5.225      2.320      6.574
 INTER + INTRA:         -16.788
 INTER:                  -9.088
 INTRA:                  -7.700
 UNBOUND:                -5.759
 SMILES CC(=O)N[C@@H]1[C@@H](O)C[C@](O)(C(=O)O)O[C@H]1C(O)[C@H](O)CNC(=O)OCc1cn(CC(=O)NCC(O)Cn2ccnc2[N+](=O)[O-])nn1
 SMILES IDX 25 1 24 2 22 3 21 4 23 6 20 7 18 8 16 9 15 10 9 11 8 12
 SMILES IDX 14 13 6 14 5 15 10 16 11 18 12 19 13 20 7 22 4 24 2 25 1 27
 SMILES IDX 3 28 17 29 19 31 26 33 27 34 46 35 28 36 45 37 29 38 30 39
 SMILES IDX 31 40 32 41 33 43 34 44 35 45 36 47 37 48 38 49 41 50 39 51
 SMILES IDX 40 52 42 53 43 54 44 55
 H PARENT 21 5 10 17 13 21 7 23 4 26 17 30 19 32 32 42 35 46
 Flexibility Score: inf
  4 active torsions:
  status: ('A' for Active; 'I' for Inactive)
    1  A    between atoms: CA   and  CB  
    2  A    between atoms: CB   and  CG  
    3  A    between atoms: CG   and  CD  
    4  A    between atoms: CD   and  CE  

>  <TORSDO>
F 22

>  <BEGIN_>
RES LYS A 131

$$$$
ligand_90_pose_7_2HRL.pdbqt
 OpenBabel07062320523D

  6  5  0  0  0  0  0  0  0  0999 V2000
   33.1930   34.6630    9.2900 C   0  0  0  0  0  0  0  0  0  0  0  0
   32.0600   35.3600   10.0340 C   0  0  0  0  0  0  0  0  0  0  0  0
   32.4660   35.9010   11.3800 C   0  0  0  0  0  0  0  0  0  0  0  0
   31.6210   35.2840   12.4840 C   0  0  0  0  0  0  0  0  0  0  0  0
   32.3260   35.3990   13.8220 C   0  0  0  0  0  0  0  0  0  0  0  0
   33.7060   34.8440   13.7510 N   0  0  0  0  0  0  0  0  0  0  0  0
  1  2  1  0  0  0  0
  2  3  1  0  0  0  0
  3  4  1  0  0  0  0
  4  5  1  0  0  0  0
  6  5  1  0  0  0  0
M  END
>  <EGIN_R>
ES LYS A 135

>  <REMARK>
  4 active torsions:
  status: ('A' for Active; 'I' for Inactive)
    5  A    between atoms: CA   and  CB  
    6  A    between atoms: CB   and  CG  
    7  A    between atoms: CG   and  CD  
    8  A    between atoms: CD   and  CE  

$$$$
