ligand_46_pose_10_2HRL.pdbqt
 OpenBabel07062320523D

 50 51  0  0  1  0  0  0  0  0999 V2000
   24.5650   35.7330   11.0500 N   0  0  0  0  0  0  0  0  0  0  0  0
   25.3580   34.8380   11.7950 C   0  0  0  0  0  0  0  0  0  0  0  0
   24.8880   33.8240   12.3350 O   0  0  0  0  0  0  0  0  0  0  0  0
   25.0770   36.5560   10.6360 H   0  0  0  0  0  0  0  0  0  0  0  0
   23.1580   35.5580   10.8550 C   0  0  0  0  0  0  0  0  0  0  0  0
   22.8390   35.5940    9.3790 C   0  0  2  0  0  0  0  0  0  0  0  0
   23.0290   36.9700    8.8070 C   0  0  2  0  0  0  0  0  0  0  0  0
   24.2790   37.1070    7.9700 C   0  0  2  0  0  0  0  0  0  0  0  0
   26.4950   36.4420    8.2940 C   0  0  2  0  0  0  0  0  0  0  0  0
   26.8130   37.3720    7.1120 C   0  0  0  0  0  0  0  0  0  0  0  0
   25.1800   36.1080    8.1790 O   0  0  0  0  0  0  0  0  0  0  0  0
   26.1880   38.7020    7.5280 C   0  0  1  0  0  0  0  0  0  0  0  0
   24.7770   38.5080    8.0360 C   0  0  1  0  0  0  0  0  0  0  0  0
   26.8640   37.0310    9.4850 O   0  0  0  0  0  0  0  0  0  0  0  0
   27.0020   36.3270   10.1530 H   0  0  0  0  0  0  0  0  0  0  0  0
   27.2940   35.1850    8.0600 C   0  0  0  0  0  0  0  0  0  0  0  0
   28.0040   35.0410    7.0440 O   0  0  0  0  0  0  0  0  0  0  0  0
   27.2500   34.1560    8.9810 O   0  0  0  0  0  0  0  0  0  0  0  0
   28.1040   33.6710    9.2030 H   0  0  0  0  0  0  0  0  0  0  0  0
   27.0250   39.2200    8.5180 O   0  0  0  0  0  0  0  0  0  0  0  0
   27.4960   38.4800    8.9600 H   0  0  0  0  0  0  0  0  0  0  0  0
   23.8520   39.3230    7.2280 N   0  0  0  0  0  0  0  0  0  0  0  0
   23.2520   40.5090    7.7200 C   0  0  0  0  0  0  0  0  0  0  0  0
   23.6210   39.0160    6.2400 H   0  0  0  0  0  0  0  0  0  0  0  0
   22.3160   41.3610    6.9460 C   0  0  0  0  0  0  0  0  0  0  0  0
   23.5300   40.8670    8.8910 O   0  0  0  0  0  0  0  0  0  0  0  0
   22.9630   37.9000    9.8260 O   0  0  0  0  0  0  0  0  0  0  0  0
   23.3600   37.5010   10.6370 H   0  0  0  0  0  0  0  0  0  0  0  0
   21.5210   35.1480    9.2660 O   0  0  0  0  0  0  0  0  0  0  0  0
   20.9090   35.6010    9.8890 H   0  0  0  0  0  0  0  0  0  0  0  0
   26.7240   35.0670   11.9520 O   0  0  0  0  0  0  0  0  0  0  0  0
   27.2350   35.3820   13.2250 C   0  0  0  0  0  0  0  0  0  0  0  0
   28.6620   34.9970   13.3540 C   0  0  0  0  0  0  0  0  0  0  0  0
   29.3200   34.7180   14.5210 C   0  0  0  0  0  0  0  0  0  0  0  0
   29.5410   34.8610   12.3570 N   0  0  0  0  0  0  0  0  0  0  0  0
   30.5900   34.4180   14.2000 N   0  0  0  0  0  0  0  0  0  0  0  0
   30.6950   34.5150   12.8700 N   0  0  0  0  0  0  0  0  0  0  0  0
   31.6800   34.0550   15.0700 C   0  0  0  0  0  0  0  0  0  0  0  0
   31.2170   33.1600   16.1650 C   0  0  0  0  0  0  0  0  0  0  0  0
   30.7700   31.8710   15.9020 C   0  0  0  0  0  0  0  0  0  0  0  0
   31.2100   33.5610   17.4770 C   0  0  0  0  0  0  0  0  0  0  0  0
   30.3440   31.0500   16.9170 C   0  0  0  0  0  0  0  0  0  0  0  0
   30.7830   32.7420   18.5080 C   0  0  0  0  0  0  0  0  0  0  0  0
   30.3430   31.4680   18.2310 C   0  0  0  0  0  0  0  0  0  0  0  0
   29.8670   25.5550   16.9770 C   0  0  0  0  0  0  0  0  0  0  0  0
   28.3450   25.7220   17.0260 C   0  0  0  0  0  0  0  0  0  0  0  0
   27.6010   24.4030   16.8850 C   0  0  0  0  0  0  0  0  0  0  0  0
   26.1500   24.5290   17.2570 C   0  0  0  0  0  0  0  0  0  0  0  0
   25.6460   23.1950   17.8010 C   0  0  0  0  0  0  0  0  0  0  0  0
   25.5670   23.2340   19.2800 N   0  0  0  0  0  0  0  0  0  0  0  0
  1  2  1  0  0  0  0
  2 31  1  0  0  0  0
  2  3  2  0  0  0  0
  4  1  1  0  0  0  0
  5  1  1  0  0  0  0
  6  5  1  1  0  0  0
  7  6  1  0  0  0  0
  7 27  1  1  0  0  0
  8 13  1  0  0  0  0
  8 11  1  0  0  0  0
  8  7  1  1  0  0  0
  9 16  1  6  0  0  0
  9 14  1  0  0  0  0
 10 12  1  0  0  0  0
 10  9  1  0  0  0  0
 11  9  1  0  0  0  0
 12 13  1  0  0  0  0
 12 20  1  1  0  0  0
 13 22  1  6  0  0  0
 14 15  1  0  0  0  0
 16 18  1  0  0  0  0
 17 16  2  0  0  0  0
 18 19  1  0  0  0  0
 20 21  1  0  0  0  0
 22 23  1  0  0  0  0
 23 26  2  0  0  0  0
 24 22  1  0  0  0  0
 25 23  1  0  0  0  0
 27 28  1  0  0  0  0
 29  6  1  0  0  0  0
 29 30  1  0  0  0  0
 31 32  1  0  0  0  0
 32 33  1  0  0  0  0
 33 34  2  0  0  0  0
 35 37  2  0  0  0  0
 35 33  1  0  0  0  0
 36 34  1  0  0  0  0
 36 38  1  0  0  0  0
 37 36  1  0  0  0  0
 38 39  1  0  0  0  0
 39 41  1  0  0  0  0
 40 39  2  0  0  0  0
 40 42  1  0  0  0  0
 41 43  2  0  0  0  0
 42 44  2  0  0  0  0
 44 43  1  0  0  0  0
 45 46  1  0  0  0  0
 47 46  1  0  0  0  0
 47 48  1  0  0  0  0
 48 49  1  0  0  0  0
 49 50  1  0  0  0  0
M  END
>  <REMARK>
 VINA RESULT:    -5.325      3.720      6.748
 INTER + INTRA:         -14.817
 INTER:                  -9.845
 INTRA:                  -4.972
 UNBOUND:                -5.290
 SMILES CC(=O)N[C@@H]1[C@@H](O)C[C@](O)(C(=O)O)O[C@H]1C(O)[C@H](O)CNC(=O)OCc1cn(Cc2ccccc2)nn1
 SMILES IDX 21 1 22 2 23 3 20 5 18 6 16 7 15 8 9 9 8 10 14 11 6 12 5 13
 SMILES IDX 10 14 11 16 12 17 13 18 7 20 4 22 2 23 1 25 3 26 17 27 19 29
 SMILES IDX 24 31 25 32 26 33 27 34 37 35 28 36 36 37 29 38 30 39 31 40
 SMILES IDX 35 41 32 42 34 43 33 44
 H PARENT 21 4 10 15 13 19 7 21 4 24 17 28 19 30
 Flexibility Score: inf
  4 active torsions:
  status: ('A' for Active; 'I' for Inactive)
    1  A    between atoms: CA   and  CB  
    2  A    between atoms: CB   and  CG  
    3  A    between atoms: CG   and  CD  
    4  A    between atoms: CD   and  CE  

>  <TORSDO>
F 16

>  <BEGIN_>
RES LYS A 131

$$$$
ligand_46_pose_10_2HRL.pdbqt
 OpenBabel07062320523D

  6  5  0  0  0  0  0  0  0  0999 V2000
   33.1930   34.6630    9.2900 C   0  0  0  0  0  0  0  0  0  0  0  0
   32.0600   35.3600   10.0340 C   0  0  0  0  0  0  0  0  0  0  0  0
   30.7960   35.4890    9.2230 C   0  0  0  0  0  0  0  0  0  0  0  0
   30.4020   36.9500    9.0730 C   0  0  0  0  0  0  0  0  0  0  0  0
   30.8860   37.7580   10.2620 C   0  0  0  0  0  0  0  0  0  0  0  0
   29.7460   38.1820   11.1220 N   0  0  0  0  0  0  0  0  0  0  0  0
  1  2  1  0  0  0  0
  3  2  1  0  0  0  0
  4  3  1  0  0  0  0
  4  5  1  0  0  0  0
  5  6  1  0  0  0  0
M  END
>  <EGIN_R>
ES LYS A 135

>  <REMARK>
  4 active torsions:
  status: ('A' for Active; 'I' for Inactive)
    5  A    between atoms: CA   and  CB  
    6  A    between atoms: CB   and  CG  
    7  A    between atoms: CG   and  CD  
    8  A    between atoms: CD   and  CE  

$$$$
