ligand_20_pose_14_2HRL.pdbqt
 OpenBabel07062320523D

 53 55  0  0  1  0  0  0  0  0999 V2000
   29.3160   32.0020   15.6780 C   0  0  0  0  0  0  0  0  0  0  0  0
   30.6990   32.1090   16.1500 C   0  0  2  0  0  0  0  0  0  0  0  0
   31.0490   33.5720   16.5010 C   0  0  1  0  0  0  0  0  0  0  0  0
   30.5430   34.5480   15.5310 C   0  0  2  0  0  0  0  0  0  0  0  0
   32.3330   35.0830   14.1240 C   0  0  2  0  0  0  0  0  0  0  0  0
   32.7520   36.0580   15.1870 C   0  0  0  0  0  0  0  0  0  0  0  0
   31.0810   34.5630   14.2790 O   0  0  0  0  0  0  0  0  0  0  0  0
   31.6220   36.8150   15.7910 C   0  0  1  0  0  0  0  0  0  0  0  0
   30.4470   35.9560   16.1330 C   0  0  1  0  0  0  0  0  0  0  0  0
   33.2670   34.0500   14.0530 O   0  0  0  0  0  0  0  0  0  0  0  0
   32.8650   33.1680   14.2440 H   0  0  0  0  0  0  0  0  0  0  0  0
   32.3610   35.8120   12.8350 C   0  0  0  0  0  0  0  0  0  0  0  0
   31.4460   36.6000   12.5460 O   0  0  0  0  0  0  0  0  0  0  0  0
   33.4050   35.6120   11.9560 O   0  0  0  0  0  0  0  0  0  0  0  0
   33.2880   35.6130   10.9330 H   0  0  0  0  0  0  0  0  0  0  0  0
   32.1110   37.4890   16.9260 O   0  0  0  0  0  0  0  0  0  0  0  0
   32.7390   36.8600   17.3530 H   0  0  0  0  0  0  0  0  0  0  0  0
   29.1840   36.5810   15.8420 N   0  0  0  0  0  0  0  0  0  0  0  0
   28.0750   36.5080   16.7280 C   0  0  0  0  0  0  0  0  0  0  0  0
   29.0570   37.1220   14.9330 H   0  0  0  0  0  0  0  0  0  0  0  0
   26.8000   37.1660   16.3830 C   0  0  0  0  0  0  0  0  0  0  0  0
   28.2070   35.8730   17.8050 O   0  0  0  0  0  0  0  0  0  0  0  0
   30.2520   33.7500   17.6890 O   0  0  0  0  0  0  0  0  0  0  0  0
   30.5600   33.1380   18.3970 H   0  0  0  0  0  0  0  0  0  0  0  0
   31.5150   31.8400   14.9860 O   0  0  0  0  0  0  0  0  0  0  0  0
   32.4280   31.5790   15.2880 H   0  0  0  0  0  0  0  0  0  0  0  0
   28.3480   31.5200   16.6240 N   0  0  0  0  0  0  0  0  0  0  0  0
   27.8490   30.1910   16.5810 C   0  0  0  0  0  0  0  0  0  0  0  0
   28.0270   32.1220   17.3990 H   0  0  0  0  0  0  0  0  0  0  0  0
   28.2770   29.4250   15.6800 O   0  0  0  0  0  0  0  0  0  0  0  0
   26.9220   29.6950   17.4680 O   0  0  0  0  0  0  0  0  0  0  0  0
   26.8680   30.0200   18.8440 C   0  0  0  0  0  0  0  0  0  0  0  0
   27.9440   29.2360   19.5390 C   0  0  0  0  0  0  0  0  0  0  0  0
   29.1500   29.6870   20.0300 C   0  0  0  0  0  0  0  0  0  0  0  0
   27.9280   27.9030   19.8200 N   0  0  0  0  0  0  0  0  0  0  0  0
   29.7880   28.6110   20.5740 N   0  0  0  0  0  0  0  0  0  0  0  0
   29.0240   27.5440   20.4330 N   0  0  0  0  0  0  0  0  0  0  0  0
   31.0670   28.6600   21.1870 C   0  0  0  0  0  0  0  0  0  0  0  0
   31.8990   29.7340   20.9340 C   0  0  0  0  0  0  0  0  0  0  0  0
   31.5390   27.6830   22.0370 C   0  0  0  0  0  0  0  0  0  0  0  0
   33.1530   29.8370   21.5000 C   0  0  0  0  0  0  0  0  0  0  0  0
   32.7750   27.7640   22.6090 C   0  0  0  0  0  0  0  0  0  0  0  0
   33.6130   28.8480   22.3530 C   0  0  0  0  0  0  0  0  0  0  0  0
   33.4830   26.9580   23.4700 C   0  0  0  0  0  0  0  0  0  0  0  0
   34.7550   28.6720   23.0370 N   0  0  0  0  0  0  0  0  0  0  0  0
   34.6900   27.5460   23.7100 N   0  0  0  0  0  0  0  0  0  0  0  0
   35.5570   29.3290   23.0300 H   0  0  0  0  0  0  0  0  0  0  0  0
   29.8670   25.5550   16.9770 C   0  0  0  0  0  0  0  0  0  0  0  0
   28.3450   25.7220   17.0260 C   0  0  0  0  0  0  0  0  0  0  0  0
   27.6020   24.3990   16.9200 C   0  0  0  0  0  0  0  0  0  0  0  0
   26.1500   24.5340   17.2890 C   0  0  0  0  0  0  0  0  0  0  0  0
   26.0260   24.7610   18.7920 C   0  0  0  0  0  0  0  0  0  0  0  0
   24.7760   25.4930   19.1040 N   0  0  0  0  0  0  0  0  0  0  0  0
  1 27  1  0  0  0  0
  2  1  1  6  0  0  0
  2  3  1  0  0  0  0
  3 23  1  1  0  0  0
  4  9  1  0  0  0  0
  4  3  1  1  0  0  0
  5 12  1  6  0  0  0
  5  7  1  0  0  0  0
  5  6  1  0  0  0  0
  6  8  1  0  0  0  0
  7  4  1  0  0  0  0
  8  9  1  0  0  0  0
  8 16  1  1  0  0  0
  9 18  1  6  0  0  0
 10  5  1  0  0  0  0
 10 11  1  0  0  0  0
 13 12  2  0  0  0  0
 14 12  1  0  0  0  0
 15 14  1  0  0  0  0
 16 17  1  0  0  0  0
 18 19  1  0  0  0  0
 19 22  2  0  0  0  0
 20 18  1  0  0  0  0
 21 19  1  0  0  0  0
 23 24  1  0  0  0  0
 25 26  1  0  0  0  0
 25  2  1  0  0  0  0
 27 29  1  0  0  0  0
 28 27  1  0  0  0  0
 28 31  1  0  0  0  0
 30 28  2  0  0  0  0
 31 32  1  0  0  0  0
 32 33  1  0  0  0  0
 33 35  1  0  0  0  0
 33 34  2  0  0  0  0
 34 36  1  0  0  0  0
 35 37  2  0  0  0  0
 36 38  1  0  0  0  0
 37 36  1  0  0  0  0
 38 40  1  0  0  0  0
 39 38  2  0  0  0  0
 39 41  1  0  0  0  0
 40 42  2  0  0  0  0
 41 43  2  0  0  0  0
 42 44  1  0  0  0  0
 43 42  1  0  0  0  0
 43 45  1  0  0  0  0
 44 46  2  0  0  0  0
 45 46  1  0  0  0  0
 47 45  1  0  0  0  0
 48 49  1  0  0  0  0
 50 49  1  0  0  0  0
 50 51  1  0  0  0  0
 51 52  1  0  0  0  0
 52 53  1  0  0  0  0
M  END
>  <REMARK>
 VINA RESULT:    -4.535      4.542      9.417
 INTER + INTRA:         -14.339
 INTER:                  -9.153
 INTRA:                  -5.186
 UNBOUND:                -6.490
 SMILES CC(=O)N[C@@H]1[C@@H](O)C[C@](O)(C(=O)O)O[C@H]1C(O)[C@H](O)CNC(=O)OCc1cn(-c2ccc3[nH]ncc3c2)nn1
 SMILES IDX 20 1 18 2 16 3 15 4 9 5 8 6 14 7 6 8 5 9 10 10 11 12 12 13
 SMILES IDX 13 14 7 16 4 18 2 19 1 21 3 22 17 23 19 25 21 27 22 28 23 30
 SMILES IDX 24 31 25 32 26 33 27 34 39 35 28 36 38 37 29 38 30 39 37 40
 SMILES IDX 31 41 36 42 32 43 35 44 33 45 34 46
 H PARENT 10 11 13 15 7 17 4 20 17 24 19 26 21 29 33 47
 Flexibility Score: inf
  4 active torsions:
  status: ('A' for Active; 'I' for Inactive)
    1  A    between atoms: CA   and  CB  
    2  A    between atoms: CB   and  CG  
    3  A    between atoms: CG   and  CD  
    4  A    between atoms: CD   and  CE  

>  <TORSDO>
F 15

>  <BEGIN_>
RES LYS A 131

$$$$
ligand_20_pose_14_2HRL.pdbqt
 OpenBabel07062320523D

  6  5  0  0  0  0  0  0  0  0999 V2000
   33.1930   34.6630    9.2900 C   0  0  0  0  0  0  0  0  0  0  0  0
   32.0600   35.3600   10.0340 C   0  0  0  0  0  0  0  0  0  0  0  0
   30.7750   35.4260    9.2490 C   0  0  0  0  0  0  0  0  0  0  0  0
   30.2060   34.0330    9.0320 C   0  0  0  0  0  0  0  0  0  0  0  0
   28.7130   34.0190    9.2990 C   0  0  0  0  0  0  0  0  0  0  0  0
   28.3920   34.7020   10.5830 N   0  0  0  0  0  0  0  0  0  0  0  0
  1  2  1  0  0  0  0
  3  2  1  0  0  0  0
  4  3  1  0  0  0  0
  4  5  1  0  0  0  0
  5  6  1  0  0  0  0
M  END
>  <EGIN_R>
ES LYS A 135

>  <REMARK>
  4 active torsions:
  status: ('A' for Active; 'I' for Inactive)
    5  A    between atoms: CA   and  CB  
    6  A    between atoms: CB   and  CG  
    7  A    between atoms: CG   and  CD  
    8  A    between atoms: CD   and  CE  

$$$$
