ligand_8_pose_18_2HRL.pdbqt
 OpenBabel07062320523D

 50 51  0  0  1  0  0  0  0  0999 V2000
   27.2650   29.8990   16.2380 C   0  0  0  0  0  0  0  0  0  0  0  0
   27.3600   31.3930   16.4050 C   0  0  2  0  0  0  0  0  0  0  0  0
   28.5230   31.8770   15.5970 C   0  0  1  0  0  0  0  0  0  0  0  0
   29.1860   33.1400   16.0930 C   0  0  2  0  0  0  0  0  0  0  0  0
   29.8960   34.4070   14.2520 C   0  0  2  0  0  0  0  0  0  0  0  0
   30.9970   35.0600   15.0890 C   0  0  0  0  0  0  0  0  0  0  0  0
   28.9090   34.1000   15.1280 O   0  0  0  0  0  0  0  0  0  0  0  0
   31.5900   33.9480   15.9060 C   0  0  1  0  0  0  0  0  0  0  0  0
   30.5830   33.0130   16.5220 C   0  0  1  0  0  0  0  0  0  0  0  0
   30.4770   33.3680   13.5700 O   0  0  0  0  0  0  0  0  0  0  0  0
   29.7510   32.7860   13.2330 H   0  0  0  0  0  0  0  0  0  0  0  0
   29.3910   35.3970   13.2620 C   0  0  0  0  0  0  0  0  0  0  0  0
   28.1880   35.3420   12.9040 O   0  0  0  0  0  0  0  0  0  0  0  0
   30.2180   36.3780   12.7260 O   0  0  0  0  0  0  0  0  0  0  0  0
   29.8850   37.1050   12.0980 H   0  0  0  0  0  0  0  0  0  0  0  0
   32.4290   33.2330   15.0500 O   0  0  0  0  0  0  0  0  0  0  0  0
   33.0070   33.8240   14.5370 H   0  0  0  0  0  0  0  0  0  0  0  0
   30.6330   33.1850   17.9890 N   0  0  0  0  0  0  0  0  0  0  0  0
   30.4890   32.0860   18.8640 C   0  0  0  0  0  0  0  0  0  0  0  0
   30.7810   34.1480   18.4080 H   0  0  0  0  0  0  0  0  0  0  0  0
   30.5300   32.2550   20.3570 C   0  0  0  0  0  0  0  0  0  0  0  0
   30.3220   30.9460   18.3620 O   0  0  0  0  0  0  0  0  0  0  0  0
   29.3780   30.8440   15.3080 O   0  0  0  0  0  0  0  0  0  0  0  0
   30.0940   30.7260   16.0030 H   0  0  0  0  0  0  0  0  0  0  0  0
   27.5140   31.7130   17.7300 O   0  0  0  0  0  0  0  0  0  0  0  0
   28.4610   31.9010   17.9750 H   0  0  0  0  0  0  0  0  0  0  0  0
   27.8330   29.1000   17.2710 N   0  0  0  0  0  0  0  0  0  0  0  0
   27.1130   28.1510   18.0290 C   0  0  0  0  0  0  0  0  0  0  0  0
   28.8730   29.1980   17.5170 H   0  0  0  0  0  0  0  0  0  0  0  0
   25.8900   27.9270   17.8740 O   0  0  0  0  0  0  0  0  0  0  0  0
   27.8000   27.4190   19.0100 O   0  0  0  0  0  0  0  0  0  0  0  0
   27.2430   27.3870   20.3030 C   0  0  0  0  0  0  0  0  0  0  0  0
   28.2390   27.9530   21.2450 C   0  0  0  0  0  0  0  0  0  0  0  0
   29.3810   27.2750   21.6930 C   0  0  0  0  0  0  0  0  0  0  0  0
   28.3080   29.1390   21.8610 N   0  0  0  0  0  0  0  0  0  0  0  0
   30.0740   28.0560   22.5390 N   0  0  0  0  0  0  0  0  0  0  0  0
   29.3960   29.1870   22.6230 N   0  0  0  0  0  0  0  0  0  0  0  0
   31.2920   27.7130   23.1990 C   0  0  0  0  0  0  0  0  0  0  0  0
   31.3040   26.9630   24.3540 C   0  0  0  0  0  0  0  0  0  0  0  0
   32.5110   28.1210   22.7010 C   0  0  0  0  0  0  0  0  0  0  0  0
   32.5050   26.6360   24.9870 C   0  0  0  0  0  0  0  0  0  0  0  0
   33.7060   27.7980   23.3260 C   0  0  0  0  0  0  0  0  0  0  0  0
   32.5060   29.1660   21.0910 Br  0  0  0  0  0  0  0  0  0  0  0  0
   33.7210   27.0470   24.4820 C   0  0  0  0  0  0  0  0  0  0  0  0
   29.8670   25.5550   16.9770 C   0  0  0  0  0  0  0  0  0  0  0  0
   28.3450   25.7220   17.0260 C   0  0  0  0  0  0  0  0  0  0  0  0
   27.6030   24.3960   16.9540 C   0  0  0  0  0  0  0  0  0  0  0  0
   26.1500   24.5410   17.3150 C   0  0  0  0  0  0  0  0  0  0  0  0
   25.9490   24.1610   18.7780 C   0  0  0  0  0  0  0  0  0  0  0  0
   24.7100   24.7780   19.3090 N   0  0  0  0  0  0  0  0  0  0  0  0
  1 27  1  0  0  0  0
  2  1  1  1  0  0  0
  2 25  1  0  0  0  0
  3 23  1  1  0  0  0
  3  2  1  0  0  0  0
  4  3  1  6  0  0  0
  4  9  1  0  0  0  0
  5 12  1  6  0  0  0
  5  6  1  0  0  0  0
  5  7  1  0  0  0  0
  6  8  1  0  0  0  0
  7  4  1  0  0  0  0
  8 16  1  6  0  0  0
  8  9  1  0  0  0  0
  9 18  1  1  0  0  0
 10  5  1  0  0  0  0
 11 10  1  0  0  0  0
 13 12  2  0  0  0  0
 14 12  1  0  0  0  0
 15 14  1  0  0  0  0
 17 16  1  0  0  0  0
 18 20  1  0  0  0  0
 18 19  1  0  0  0  0
 19 21  1  0  0  0  0
 22 19  2  0  0  0  0
 23 24  1  0  0  0  0
 25 26  1  0  0  0  0
 27 29  1  0  0  0  0
 27 28  1  0  0  0  0
 28 31  1  0  0  0  0
 30 28  2  0  0  0  0
 31 32  1  0  0  0  0
 32 33  1  0  0  0  0
 33 34  2  0  0  0  0
 33 35  1  0  0  0  0
 34 36  1  0  0  0  0
 35 37  2  0  0  0  0
 36 37  1  0  0  0  0
 36 38  1  0  0  0  0
 38 39  1  0  0  0  0
 39 41  2  0  0  0  0
 40 38  2  0  0  0  0
 40 42  1  0  0  0  0
 42 44  2  0  0  0  0
 43 40  1  0  0  0  0
 44 41  1  0  0  0  0
 45 46  1  0  0  0  0
 47 46  1  0  0  0  0
 47 48  1  0  0  0  0
 48 49  1  0  0  0  0
 49 50  1  0  0  0  0
M  END
>  <REMARK>
 VINA RESULT:    -5.434      2.913      7.109
 INTER + INTRA:         -13.800
 INTER:                  -8.384
 INTRA:                  -5.416
 UNBOUND:                -4.396
 SMILES CC(=O)N[C@@H]1[C@@H](O)C[C@](O)(C(=O)O)O[C@H]1C(O)[C@H](O)CNC(=O)OCc1cn(-c2ccccc2Br)nn1
 SMILES IDX 20 1 18 2 16 3 15 4 9 5 8 6 14 7 6 8 5 9 10 10 11 12 12 13
 SMILES IDX 13 14 7 16 4 18 2 19 1 21 3 22 17 23 19 25 21 27 22 28 23 30
 SMILES IDX 24 31 25 32 26 33 27 34 37 35 28 36 36 37 29 38 30 39 34 40
 SMILES IDX 31 41 33 42 35 43 32 44
 H PARENT 10 11 13 15 7 17 4 20 17 24 19 26 21 29
 Flexibility Score: inf
  4 active torsions:
  status: ('A' for Active; 'I' for Inactive)
    1  A    between atoms: CA   and  CB  
    2  A    between atoms: CB   and  CG  
    3  A    between atoms: CG   and  CD  
    4  A    between atoms: CD   and  CE  

>  <TORSDO>
F 15

>  <BEGIN_>
RES LYS A 131

$$$$
ligand_8_pose_18_2HRL.pdbqt
 OpenBabel07062320523D

  6  5  0  0  0  0  0  0  0  0999 V2000
   33.1930   34.6630    9.2900 C   0  0  0  0  0  0  0  0  0  0  0  0
   32.0600   35.3600   10.0340 C   0  0  0  0  0  0  0  0  0  0  0  0
   30.8020   35.5050    9.2170 C   0  0  0  0  0  0  0  0  0  0  0  0
   30.1480   34.1500    8.9930 C   0  0  0  0  0  0  0  0  0  0  0  0
   28.6820   34.3180    8.6450 C   0  0  0  0  0  0  0  0  0  0  0  0
   27.8100   33.6970    9.6810 N   0  0  0  0  0  0  0  0  0  0  0  0
  1  2  1  0  0  0  0
  3  2  1  0  0  0  0
  4  3  1  0  0  0  0
  5  4  1  0  0  0  0
  5  6  1  0  0  0  0
M  END
>  <EGIN_R>
ES LYS A 135

>  <REMARK>
  4 active torsions:
  status: ('A' for Active; 'I' for Inactive)
    5  A    between atoms: CA   and  CB  
    6  A    between atoms: CB   and  CG  
    7  A    between atoms: CG   and  CD  
    8  A    between atoms: CD   and  CE  

$$$$
