ligand_41_pose_2_2HRL.pdbqt
 OpenBabel07062320523D

 52 53  0  0  1  0  0  0  0  0999 V2000
   26.0170   28.8520   18.9700 N   0  0  0  0  0  0  0  0  0  0  0  0
   26.6130   28.9670   17.6670 C   0  0  0  0  0  0  0  0  0  0  0  0
   27.1080   27.9440   17.1360 O   0  0  0  0  0  0  0  0  0  0  0  0
   25.6120   29.7190   19.3740 H   0  0  0  0  0  0  0  0  0  0  0  0
   26.0080   27.5860   19.6430 C   0  0  0  0  0  0  0  0  0  0  0  0
   26.7530   27.5130   20.9350 C   0  0  2  0  0  0  0  0  0  0  0  0
   28.2410   27.6280   20.7990 C   0  0  2  0  0  0  0  0  0  0  0  0
   28.8150   28.9350   21.2810 C   0  0  2  0  0  0  0  0  0  0  0  0
   29.0490   31.1720   20.7610 C   0  0  2  0  0  0  0  0  0  0  0  0
   30.5590   31.1530   20.9010 C   0  0  0  0  0  0  0  0  0  0  0  0
   28.5960   29.9510   20.4170 O   0  0  0  0  0  0  0  0  0  0  0  0
   31.1100   29.7670   20.8520 C   0  0  1  0  0  0  0  0  0  0  0  0
   30.2890   28.7710   21.5820 C   0  0  1  0  0  0  0  0  0  0  0  0
   28.8250   32.0840   19.6730 O   0  0  0  0  0  0  0  0  0  0  0  0
   28.8580   33.0220   20.0370 H   0  0  0  0  0  0  0  0  0  0  0  0
   28.4580   31.8290   21.9320 C   0  0  0  0  0  0  0  0  0  0  0  0
   28.9430   31.7560   23.0840 O   0  0  0  0  0  0  0  0  0  0  0  0
   27.2940   32.5930   21.8200 O   0  0  0  0  0  0  0  0  0  0  0  0
   27.1900   33.4520   22.3480 H   0  0  0  0  0  0  0  0  0  0  0  0
   31.1920   29.3780   19.5040 O   0  0  0  0  0  0  0  0  0  0  0  0
   31.5960   28.4840   19.3910 H   0  0  0  0  0  0  0  0  0  0  0  0
   30.6010   28.7400   22.9750 N   0  0  0  0  0  0  0  0  0  0  0  0
   30.7270   27.5320   23.7150 C   0  0  0  0  0  0  0  0  0  0  0  0
   30.7500   29.6320   23.4830 H   0  0  0  0  0  0  0  0  0  0  0  0
   31.0540   27.5550   25.1640 C   0  0  0  0  0  0  0  0  0  0  0  0
   30.5670   26.4100   23.1690 O   0  0  0  0  0  0  0  0  0  0  0  0
   28.7400   27.1710   19.6070 O   0  0  0  0  0  0  0  0  0  0  0  0
   28.9390   26.1950   19.7260 H   0  0  0  0  0  0  0  0  0  0  0  0
   26.5270   26.1600   21.4250 O   0  0  0  0  0  0  0  0  0  0  0  0
   25.5650   26.1740   21.6750 H   0  0  0  0  0  0  0  0  0  0  0  0
   26.6710   30.1520   16.9730 O   0  0  0  0  0  0  0  0  0  0  0  0
   27.5640   30.3380   15.8780 C   0  0  0  0  0  0  0  0  0  0  0  0
   28.7870   31.0700   16.2930 C   0  0  0  0  0  0  0  0  0  0  0  0
   29.2480   32.2780   15.8400 C   0  0  0  0  0  0  0  0  0  0  0  0
   29.6940   30.6610   17.2220 N   0  0  0  0  0  0  0  0  0  0  0  0
   30.4160   32.5630   16.5050 N   0  0  0  0  0  0  0  0  0  0  0  0
   30.6420   31.5570   17.3270 N   0  0  0  0  0  0  0  0  0  0  0  0
   31.2720   33.6800   16.3370 C   0  0  0  0  0  0  0  0  0  0  0  0
   31.3580   34.7280   17.1870 C   0  0  0  0  0  0  0  0  0  0  0  0
   32.0770   33.6200   15.1780 C   0  0  0  0  0  0  0  0  0  0  0  0
   32.2600   35.7570   16.9000 C   0  0  0  0  0  0  0  0  0  0  0  0
   32.9590   34.6370   14.9090 C   0  0  0  0  0  0  0  0  0  0  0  0
   33.0340   35.6920   15.7800 C   0  0  0  0  0  0  0  0  0  0  0  0
   30.5650   34.8690   18.3880 C   0  0  2  0  0  0  0  0  0  0  0  0
   31.0190   34.2770   19.4500 O   0  0  0  0  0  0  0  0  0  0  0  0
   29.3080   35.5980   18.5560 C   0  0  0  0  0  0  0  0  0  0  0  0
   29.8670   25.5550   16.9770 C   0  0  0  0  0  0  0  0  0  0  0  0
   28.3450   25.7220   17.0260 C   0  0  0  0  0  0  0  0  0  0  0  0
   27.6010   24.4010   16.9070 C   0  0  0  0  0  0  0  0  0  0  0  0
   26.5340   24.2540   17.9560 C   0  0  0  0  0  0  0  0  0  0  0  0
   25.1780   24.0770   17.2810 C   0  0  0  0  0  0  0  0  0  0  0  0
   24.4400   25.3610   17.2530 N   0  0  0  0  0  0  0  0  0  0  0  0
  1  4  1  0  0  0  0
  1  5  1  0  0  0  0
  2  1  1  0  0  0  0
  3  2  2  0  0  0  0
  6  5  1  6  0  0  0
  6 29  1  0  0  0  0
  7 27  1  6  0  0  0
  7  6  1  0  0  0  0
  8  7  1  6  0  0  0
  8 13  1  0  0  0  0
  9 14  1  6  0  0  0
  9 10  1  0  0  0  0
  9 16  1  0  0  0  0
 11  9  1  0  0  0  0
 11  8  1  0  0  0  0
 12 20  1  6  0  0  0
 12 10  1  0  0  0  0
 12 13  1  0  0  0  0
 13 22  1  1  0  0  0
 14 15  1  0  0  0  0
 16 17  2  0  0  0  0
 18 16  1  0  0  0  0
 18 19  1  0  0  0  0
 21 20  1  0  0  0  0
 22 24  1  0  0  0  0
 22 23  1  0  0  0  0
 23 25  1  0  0  0  0
 26 23  2  0  0  0  0
 27 28  1  0  0  0  0
 29 30  1  0  0  0  0
 31  2  1  0  0  0  0
 32 33  1  0  0  0  0
 32 31  1  0  0  0  0
 33 35  1  0  0  0  0
 34 33  2  0  0  0  0
 34 36  1  0  0  0  0
 35 37  2  0  0  0  0
 36 37  1  0  0  0  0
 38 36  1  0  0  0  0
 38 39  2  0  0  0  0
 39 44  1  0  0  0  0
 40 38  1  0  0  0  0
 41 39  1  0  0  0  0
 42 40  2  0  0  0  0
 42 43  1  0  0  0  0
 43 41  2  0  0  0  0
 44 46  1  6  0  0  0
 44 45  1  0  0  0  0
 47 48  1  0  0  0  0
 49 48  1  0  0  0  0
 49 50  1  0  0  0  0
 51 50  1  0  0  0  0
 52 51  1  0  0  0  0
M  END
>  <REMARK>
 VINA RESULT:    -4.692      3.709      8.025
 INTER + INTRA:         -15.199
 INTER:                  -7.623
 INTRA:                  -7.576
 UNBOUND:                -6.804
 SMILES CC(=O)N[C@@H]1[C@@H](O)C[C@](O)(C(=O)O)O[C@H]1C(O)[C@H](O)CNC(=O)OCc1cn(-c2ccccc2C(C)=O)nn1
 SMILES IDX 21 1 22 2 23 3 20 5 18 6 16 7 15 8 9 9 8 10 14 11 6 12 5 13
 SMILES IDX 10 14 11 16 12 17 13 18 7 20 4 22 2 23 1 25 3 26 17 27 19 29
 SMILES IDX 24 31 25 32 26 33 27 34 39 35 28 36 38 37 29 38 34 39 30 40
 SMILES IDX 33 41 31 42 32 43 35 44 37 45 36 46
 H PARENT 21 4 10 15 13 19 7 21 4 24 17 28 19 30
 Flexibility Score: inf
  4 active torsions:
  status: ('A' for Active; 'I' for Inactive)
    1  A    between atoms: CA   and  CB  
    2  A    between atoms: CB   and  CG  
    3  A    between atoms: CG   and  CD  
    4  A    between atoms: CD   and  CE  

>  <TORSDO>
F 16

>  <BEGIN_>
RES LYS A 131

$$$$
ligand_41_pose_2_2HRL.pdbqt
 OpenBabel07062320523D

  6  5  0  0  0  0  0  0  0  0999 V2000
   33.1930   34.6630    9.2900 C   0  0  0  0  0  0  0  0  0  0  0  0
   32.0600   35.3600   10.0340 C   0  0  0  0  0  0  0  0  0  0  0  0
   30.7100   34.7350    9.7980 C   0  0  0  0  0  0  0  0  0  0  0  0
   30.4660   34.5280    8.3110 C   0  0  0  0  0  0  0  0  0  0  0  0
   29.0200   34.8230    7.9620 C   0  0  0  0  0  0  0  0  0  0  0  0
   28.9180   35.5440    6.6630 N   0  0  0  0  0  0  0  0  0  0  0  0
  1  2  1  0  0  0  0
  3  2  1  0  0  0  0
  4  3  1  0  0  0  0
  5  4  1  0  0  0  0
  6  5  1  0  0  0  0
M  END
>  <EGIN_R>
ES LYS A 135

>  <REMARK>
  4 active torsions:
  status: ('A' for Active; 'I' for Inactive)
    5  A    between atoms: CA   and  CB  
    6  A    between atoms: CB   and  CG  
    7  A    between atoms: CG   and  CD  
    8  A    between atoms: CD   and  CE  

$$$$
