ligand_36_pose_14_2HRL.pdbqt
 OpenBabel07062320523D

 52 53  0  0  1  0  0  0  0  0999 V2000
   27.1300   36.4440   15.6940 N   0  0  0  0  0  0  0  0  0  0  0  0
   26.1210   35.4510   15.8660 C   0  0  0  0  0  0  0  0  0  0  0  0
   25.6860   35.2060   17.0450 O   0  0  0  0  0  0  0  0  0  0  0  0
   27.4640   36.6270   14.7300 H   0  0  0  0  0  0  0  0  0  0  0  0
   27.6320   37.1350   16.8260 C   0  0  0  0  0  0  0  0  0  0  0  0
   29.1130   37.0060   17.0870 C   0  0  2  0  0  0  0  0  0  0  0  0
   29.5100   35.6470   17.6270 C   0  0  2  0  0  0  0  0  0  0  0  0
   30.3100   34.8480   16.6550 C   0  0  2  0  0  0  0  0  0  0  0  0
   30.5790   34.4990   14.3690 C   0  0  2  0  0  0  0  0  0  0  0  0
   31.6940   33.5940   14.8420 C   0  0  0  0  0  0  0  0  0  0  0  0
   30.0740   35.2990   15.3500 O   0  0  0  0  0  0  0  0  0  0  0  0
   31.3020   32.7330   15.9900 C   0  0  1  0  0  0  0  0  0  0  0  0
   30.0690   33.3720   16.6530 C   0  0  1  0  0  0  0  0  0  0  0  0
   29.5860   33.6980   13.7640 O   0  0  0  0  0  0  0  0  0  0  0  0
   30.0030   33.2570   12.9670 H   0  0  0  0  0  0  0  0  0  0  0  0
   31.1490   35.3600   13.3110 C   0  0  0  0  0  0  0  0  0  0  0  0
   30.8990   36.5860   13.3140 O   0  0  0  0  0  0  0  0  0  0  0  0
   31.9490   34.8230   12.3300 O   0  0  0  0  0  0  0  0  0  0  0  0
   31.6220   34.2860   11.5460 H   0  0  0  0  0  0  0  0  0  0  0  0
   31.0570   31.4160   15.6560 O   0  0  0  0  0  0  0  0  0  0  0  0
   30.0600   31.2820   15.7080 H   0  0  0  0  0  0  0  0  0  0  0  0
   29.8140   32.7710   17.9250 N   0  0  0  0  0  0  0  0  0  0  0  0
   28.9320   31.6440   18.0530 C   0  0  0  0  0  0  0  0  0  0  0  0
   30.2650   33.1190   18.8180 H   0  0  0  0  0  0  0  0  0  0  0  0
   28.6740   31.0240   19.3870 C   0  0  0  0  0  0  0  0  0  0  0  0
   28.3610   31.1560   17.0480 O   0  0  0  0  0  0  0  0  0  0  0  0
   28.4370   35.0150   18.1670 O   0  0  0  0  0  0  0  0  0  0  0  0
   28.5600   34.6210   19.0320 H   0  0  0  0  0  0  0  0  0  0  0  0
   29.3750   37.9890   18.0770 O   0  0  0  0  0  0  0  0  0  0  0  0
   29.1830   38.8890   17.7570 H   0  0  0  0  0  0  0  0  0  0  0  0
   25.5620   34.7150   14.8380 O   0  0  0  0  0  0  0  0  0  0  0  0
   25.2130   35.3740   13.6400 C   0  0  0  0  0  0  0  0  0  0  0  0
   26.1850   35.1060   12.5550 C   0  0  0  0  0  0  0  0  0  0  0  0
   25.9490   34.5240   11.3190 C   0  0  0  0  0  0  0  0  0  0  0  0
   27.4920   35.3940   12.5880 N   0  0  0  0  0  0  0  0  0  0  0  0
   27.1060   34.4800   10.6520 N   0  0  0  0  0  0  0  0  0  0  0  0
   28.0150   35.0100   11.4430 N   0  0  0  0  0  0  0  0  0  0  0  0
   27.3350   33.9620    9.3200 C   0  0  0  0  0  0  0  0  0  0  0  0
   27.4110   34.9950    8.2860 C   0  0  0  0  0  0  0  0  0  0  0  0
   28.3520   34.9040    7.2930 C   0  0  0  0  0  0  0  0  0  0  0  0
   26.5330   36.0670    8.3130 C   0  0  0  0  0  0  0  0  0  0  0  0
   28.4390   35.8730    6.3120 C   0  0  0  0  0  0  0  0  0  0  0  0
   26.6000   37.0540    7.3400 C   0  0  0  0  0  0  0  0  0  0  0  0
   27.5670   36.9410    6.3390 C   0  0  0  0  0  0  0  0  0  0  0  0
   27.6500   37.9530    5.3280 C   0  0  0  0  0  0  0  0  0  0  0  0
   27.7030   38.7880    4.5080 N   0  0  0  0  0  0  0  0  0  0  0  0
   29.8670   25.5550   16.9770 C   0  0  0  0  0  0  0  0  0  0  0  0
   28.3450   25.7220   17.0260 C   0  0  0  0  0  0  0  0  0  0  0  0
   27.6100   24.3990   17.1720 C   0  0  0  0  0  0  0  0  0  0  0  0
   26.1180   24.5680   17.0960 C   0  0  0  0  0  0  0  0  0  0  0  0
   25.6460   25.4470   18.2500 C   0  0  0  0  0  0  0  0  0  0  0  0
   24.2080   25.7720   18.1010 N   0  0  0  0  0  0  0  0  0  0  0  0
  1  2  1  0  0  0  0
  1  5  1  0  0  0  0
  2  3  2  0  0  0  0
  4  1  1  0  0  0  0
  6  5  1  1  0  0  0
  6  7  1  0  0  0  0
  6 29  1  0  0  0  0
  7 27  1  6  0  0  0
  8  7  1  1  0  0  0
  9 16  1  6  0  0  0
  9 10  1  0  0  0  0
  9 11  1  0  0  0  0
 10 12  1  0  0  0  0
 11  8  1  0  0  0  0
 12 20  1  6  0  0  0
 12 13  1  0  0  0  0
 13  8  1  0  0  0  0
 13 22  1  1  0  0  0
 14  9  1  0  0  0  0
 15 14  1  0  0  0  0
 16 17  2  0  0  0  0
 18 16  1  0  0  0  0
 19 18  1  0  0  0  0
 20 21  1  0  0  0  0
 22 23  1  0  0  0  0
 22 24  1  0  0  0  0
 23 25  1  0  0  0  0
 26 23  2  0  0  0  0
 27 28  1  0  0  0  0
 30 29  1  0  0  0  0
 31  2  1  0  0  0  0
 32 31  1  0  0  0  0
 33 35  1  0  0  0  0
 33 32  1  0  0  0  0
 34 33  2  0  0  0  0
 36 34  1  0  0  0  0
 36 37  1  0  0  0  0
 37 35  2  0  0  0  0
 38 36  1  0  0  0  0
 39 41  1  0  0  0  0
 39 38  1  0  0  0  0
 40 39  2  0  0  0  0
 42 44  2  0  0  0  0
 42 40  1  0  0  0  0
 43 41  2  0  0  0  0
 44 43  1  0  0  0  0
 45 44  1  0  0  0  0
 46 45  3  0  0  0  0
 47 48  1  0  0  0  0
 48 49  1  0  0  0  0
 50 49  1  0  0  0  0
 50 51  1  0  0  0  0
 52 51  1  0  0  0  0
M  END
>  <REMARK>
 VINA RESULT:    -4.156      4.220      8.172
 INTER + INTRA:         -14.660
 INTER:                  -9.872
 INTRA:                  -4.788
 UNBOUND:                -6.980
 SMILES CC(=O)N[C@@H]1[C@@H](O)C[C@](O)(C(=O)O)O[C@H]1C(O)[C@H](O)CNC(=O)OCc1cn(Cc2ccc(C#N)cc2)nn1
 SMILES IDX 21 1 22 2 23 3 20 5 18 6 16 7 15 8 9 9 8 10 14 11 6 12 5 13
 SMILES IDX 10 14 11 16 12 17 13 18 7 20 4 22 2 23 1 25 3 26 17 27 19 29
 SMILES IDX 24 31 25 32 26 33 27 34 39 35 28 36 38 37 29 38 30 39 31 40
 SMILES IDX 37 41 32 42 36 43 33 44 34 45 35 46
 H PARENT 21 4 10 15 13 19 7 21 4 24 17 28 19 30
 Flexibility Score: inf
  4 active torsions:
  status: ('A' for Active; 'I' for Inactive)
    1  A    between atoms: CA   and  CB  
    2  A    between atoms: CB   and  CG  
    3  A    between atoms: CG   and  CD  
    4  A    between atoms: CD   and  CE  

>  <TORSDO>
F 17

>  <BEGIN_>
RES LYS A 131

$$$$
ligand_36_pose_14_2HRL.pdbqt
 OpenBabel07062320523D

  6  5  0  0  0  0  0  0  0  0999 V2000
   33.1930   34.6630    9.2900 C   0  0  0  0  0  0  0  0  0  0  0  0
   32.0600   35.3600   10.0340 C   0  0  0  0  0  0  0  0  0  0  0  0
   30.9470   35.8300    9.1330 C   0  0  0  0  0  0  0  0  0  0  0  0
   30.2150   37.0090    9.7550 C   0  0  0  0  0  0  0  0  0  0  0  0
   30.1140   38.1550    8.7670 C   0  0  0  0  0  0  0  0  0  0  0  0
   31.4600   38.7100    8.4490 N   0  0  0  0  0  0  0  0  0  0  0  0
  1  2  1  0  0  0  0
  3  4  1  0  0  0  0
  3  2  1  0  0  0  0
  5  4  1  0  0  0  0
  6  5  1  0  0  0  0
M  END
>  <EGIN_R>
ES LYS A 135

>  <REMARK>
  4 active torsions:
  status: ('A' for Active; 'I' for Inactive)
    5  A    between atoms: CA   and  CB  
    6  A    between atoms: CB   and  CG  
    7  A    between atoms: CG   and  CD  
    8  A    between atoms: CD   and  CE  

$$$$
