ligand_86_pose_2_2HRL.pdbqt
 OpenBabel07062320523D

 52 54  0  0  1  0  0  0  0  0999 V2000
   27.6660   26.9920   22.3210 C   0  0  0  0  0  0  0  0  0  0  0  0
   28.4580   27.8920   23.2060 C   0  0  2  0  0  0  0  0  0  0  0  0
   29.8750   27.4550   23.4090 C   0  0  2  0  0  0  0  0  0  0  0  0
   30.8770   28.4370   22.8470 C   0  0  2  0  0  0  0  0  0  0  0  0
   31.7190   29.2200   20.8410 C   0  0  2  0  0  0  0  0  0  0  0  0
   32.6260   29.9340   21.8070 C   0  0  0  0  0  0  0  0  0  0  0  0
   30.7140   28.5010   21.4700 O   0  0  0  0  0  0  0  0  0  0  0  0
   33.2270   29.0330   22.8420 C   0  0  1  0  0  0  0  0  0  0  0  0
   32.2710   27.9020   23.1050 C   0  0  1  0  0  0  0  0  0  0  0  0
   32.4200   28.4130   19.9470 O   0  0  0  0  0  0  0  0  0  0  0  0
   33.2910   28.1510   20.3270 H   0  0  0  0  0  0  0  0  0  0  0  0
   31.0410   30.2740   20.0210 C   0  0  0  0  0  0  0  0  0  0  0  0
   31.1690   31.5090   20.3150 O   0  0  0  0  0  0  0  0  0  0  0  0
   30.2600   29.9840   18.9260 O   0  0  0  0  0  0  0  0  0  0  0  0
   29.4500   30.5900   18.7430 H   0  0  0  0  0  0  0  0  0  0  0  0
   34.5070   28.6250   22.5500 O   0  0  0  0  0  0  0  0  0  0  0  0
   35.1120   29.4020   22.6840 H   0  0  0  0  0  0  0  0  0  0  0  0
   32.4060   27.3350   24.4230 N   0  0  0  0  0  0  0  0  0  0  0  0
   33.4410   26.4090   24.7550 C   0  0  0  0  0  0  0  0  0  0  0  0
   31.7400   27.5890   25.1870 H   0  0  0  0  0  0  0  0  0  0  0  0
   33.5250   25.8640   26.1250 C   0  0  0  0  0  0  0  0  0  0  0  0
   34.2500   26.0910   23.8540 O   0  0  0  0  0  0  0  0  0  0  0  0
   30.0690   26.2320   22.7670 O   0  0  0  0  0  0  0  0  0  0  0  0
   30.5070   26.3330   21.9040 H   0  0  0  0  0  0  0  0  0  0  0  0
   27.8540   28.0100   24.4790 O   0  0  0  0  0  0  0  0  0  0  0  0
   28.6050   28.2210   25.1030 H   0  0  0  0  0  0  0  0  0  0  0  0
   28.0880   27.0640   20.9430 N   0  0  0  0  0  0  0  0  0  0  0  0
   27.1480   27.4040   19.9350 C   0  0  0  0  0  0  0  0  0  0  0  0
   29.0730   26.8750   20.6390 H   0  0  0  0  0  0  0  0  0  0  0  0
   25.9360   27.6510   20.1780 O   0  0  0  0  0  0  0  0  0  0  0  0
   27.5020   27.4890   18.5880 O   0  0  0  0  0  0  0  0  0  0  0  0
   26.7390   28.2130   17.6440 C   0  0  0  0  0  0  0  0  0  0  0  0
   27.3720   29.5350   17.3870 C   0  0  0  0  0  0  0  0  0  0  0  0
   28.0930   29.8630   16.2580 C   0  0  0  0  0  0  0  0  0  0  0  0
   27.3830   30.6440   18.1480 N   0  0  0  0  0  0  0  0  0  0  0  0
   28.5210   31.1520   16.3590 N   0  0  0  0  0  0  0  0  0  0  0  0
   28.0630   31.5760   17.5240 N   0  0  0  0  0  0  0  0  0  0  0  0
   29.3150   31.8960   15.3860 C   0  0  2  0  0  0  0  0  0  0  0  0
   30.7410   31.8010   15.7860 C   0  0  0  0  0  0  0  0  0  0  0  0
   28.7620   33.2750   15.3080 C   0  0  0  0  0  0  0  0  0  0  0  0
   31.5780   32.9870   15.4660 C   0  0  1  0  0  0  0  0  0  0  0  0
   29.8060   34.3610   15.3190 C   0  0  2  0  0  0  0  0  0  0  0  0
   30.9310   33.8830   14.5350 N   0  0  0  0  0  0  0  0  0  0  0  0
   31.6740   33.8460   16.7170 C   0  0  0  0  0  0  0  0  0  0  0  0
   30.3120   34.5100   16.7320 C   0  0  0  0  0  0  0  0  0  0  0  0
   31.8280   34.9480   14.1640 C   0  0  0  0  0  0  0  0  0  0  0  0
   29.8670   25.5550   16.9770 C   0  0  0  0  0  0  0  0  0  0  0  0
   28.3450   25.7220   17.0260 C   0  0  0  0  0  0  0  0  0  0  0  0
   27.6020   24.3990   16.9220 C   0  0  0  0  0  0  0  0  0  0  0  0
   26.2270   24.4730   17.5260 C   0  0  0  0  0  0  0  0  0  0  0  0
   25.7750   23.0750   17.9380 C   0  0  0  0  0  0  0  0  0  0  0  0
   24.4850   22.7360   17.2930 N   0  0  0  0  0  0  0  0  0  0  0  0
  2  1  1  6  0  0  0
  2  3  1  0  0  0  0
  2 25  1  0  0  0  0
  3 23  1  6  0  0  0
  4  9  1  0  0  0  0
  4  3  1  6  0  0  0
  5 10  1  6  0  0  0
  5  7  1  0  0  0  0
  5  6  1  0  0  0  0
  6  8  1  0  0  0  0
  7  4  1  0  0  0  0
  8 16  1  6  0  0  0
  8  9  1  0  0  0  0
  9 18  1  1  0  0  0
 10 11  1  0  0  0  0
 12 13  2  0  0  0  0
 12  5  1  0  0  0  0
 14 12  1  0  0  0  0
 15 14  1  0  0  0  0
 16 17  1  0  0  0  0
 18 19  1  0  0  0  0
 18 20  1  0  0  0  0
 19 21  1  0  0  0  0
 22 19  2  0  0  0  0
 24 23  1  0  0  0  0
 25 26  1  0  0  0  0
 27  1  1  0  0  0  0
 28 30  2  0  0  0  0
 28 27  1  0  0  0  0
 29 27  1  0  0  0  0
 31 28  1  0  0  0  0
 32 31  1  0  0  0  0
 33 32  1  0  0  0  0
 33 35  1  0  0  0  0
 34 36  1  0  0  0  0
 34 33  2  0  0  0  0
 36 37  1  0  0  0  0
 37 35  2  0  0  0  0
 38 40  1  1  0  0  0
 38 39  1  0  0  0  0
 38 36  1  0  0  0  0
 41 39  1  1  0  0  0
 41 44  1  0  0  0  0
 42 40  1  1  0  0  0
 42 45  1  0  0  0  0
 43 42  1  0  0  0  0
 43 41  1  0  0  0  0
 44 45  1  0  0  0  0
 46 43  1  0  0  0  0
 47 48  1  0  0  0  0
 49 48  1  0  0  0  0
 49 50  1  0  0  0  0
 50 51  1  0  0  0  0
 52 51  1  0  0  0  0
M  END
>  <REMARK>
 VINA RESULT:    -4.945      2.158      4.153
 INTER + INTRA:         -15.114
 INTER:                  -9.253
 INTRA:                  -5.861
 UNBOUND:                -6.555
 SMILES CC(=O)N[C@@H]1[C@@H](O)C[C@](O)(C(=O)O)O[C@H]1C(O)[C@H](O)CNC(=O)OCc1cn([C@H]2C[C@H]3CC[C@@H](C2)N3C)nn1
 SMILES IDX 20 1 18 2 16 3 15 4 9 5 8 6 14 7 6 8 5 9 10 10 11 12 12 13
 SMILES IDX 13 14 7 16 4 18 2 19 1 21 3 22 17 23 19 25 21 27 22 28 23 30
 SMILES IDX 24 31 25 32 26 33 27 34 39 35 28 36 38 37 29 38 35 39 30 40
 SMILES IDX 34 41 31 42 36 43 33 44 32 45 37 46
 H PARENT 10 11 13 15 7 17 4 20 17 24 19 26 21 29
 Flexibility Score: inf
  4 active torsions:
  status: ('A' for Active; 'I' for Inactive)
    1  A    between atoms: CA   and  CB  
    2  A    between atoms: CB   and  CG  
    3  A    between atoms: CG   and  CD  
    4  A    between atoms: CD   and  CE  

>  <TORSDO>
F 15

>  <BEGIN_>
RES LYS A 131

$$$$
ligand_86_pose_2_2HRL.pdbqt
 OpenBabel07062320523D

  6  5  0  0  0  0  0  0  0  0999 V2000
   33.1930   34.6630    9.2900 C   0  0  0  0  0  0  0  0  0  0  0  0
   32.0600   35.3600   10.0340 C   0  0  0  0  0  0  0  0  0  0  0  0
   30.9240   35.7860    9.1400 C   0  0  0  0  0  0  0  0  0  0  0  0
   30.3950   34.6030    8.3440 C   0  0  0  0  0  0  0  0  0  0  0  0
   28.9250   34.7920    8.0240 C   0  0  0  0  0  0  0  0  0  0  0  0
   28.7430   35.4580    6.7050 N   0  0  0  0  0  0  0  0  0  0  0  0
  1  2  1  0  0  0  0
  3  2  1  0  0  0  0
  4  3  1  0  0  0  0
  5  4  1  0  0  0  0
  6  5  1  0  0  0  0
M  END
>  <EGIN_R>
ES LYS A 135

>  <REMARK>
  4 active torsions:
  status: ('A' for Active; 'I' for Inactive)
    5  A    between atoms: CA   and  CB  
    6  A    between atoms: CB   and  CG  
    7  A    between atoms: CG   and  CD  
    8  A    between atoms: CD   and  CE  

$$$$
