ligand_33_pose_16_2HRL.pdbqt
 OpenBabel07062320523D

 52 52  0  0  1  0  0  0  0  0999 V2000
   18.3550   29.4070   11.1730 C   0  0  0  0  0  0  0  0  0  0  0  0
   17.5520   30.5540   11.4280 O   0  0  0  0  0  0  0  0  0  0  0  0
   17.2560   31.3920   10.3460 C   0  0  0  0  0  0  0  0  0  0  0  0
   17.6020   32.7690   10.4490 N   0  0  0  0  0  0  0  0  0  0  0  0
   18.0710   33.0900   11.3370 H   0  0  0  0  0  0  0  0  0  0  0  0
   16.6970   30.8870    9.3410 O   0  0  0  0  0  0  0  0  0  0  0  0
   17.3040   33.6440    9.3610 C   0  0  0  0  0  0  0  0  0  0  0  0
   18.1150   34.9180    9.3350 C   0  0  2  0  0  0  0  0  0  0  0  0
   19.2960   34.7070    8.4080 C   0  0  2  0  0  0  0  0  0  0  0  0
   19.6530   35.8920    7.5740 C   0  0  2  0  0  0  0  0  0  0  0  0
   21.6460   36.2910    8.7390 C   0  0  2  0  0  0  0  0  0  0  0  0
   20.8820   37.3870    9.4980 C   0  0  0  0  0  0  0  0  0  0  0  0
   21.0270   36.0170    7.5530 O   0  0  0  0  0  0  0  0  0  0  0  0
   20.1160   38.1390    8.4380 C   0  0  1  0  0  0  0  0  0  0  0  0
   19.0160   37.1870    7.9320 C   0  0  1  0  0  0  0  0  0  0  0  0
   21.8510   35.1920    9.5700 O   0  0  0  0  0  0  0  0  0  0  0  0
   22.8270   35.0870    9.8060 H   0  0  0  0  0  0  0  0  0  0  0  0
   22.9780   36.8690    8.4250 C   0  0  0  0  0  0  0  0  0  0  0  0
   23.8550   36.9650    9.3360 O   0  0  0  0  0  0  0  0  0  0  0  0
   23.2350   37.2930    7.1340 O   0  0  0  0  0  0  0  0  0  0  0  0
   24.1860   37.6470    6.9580 H   0  0  0  0  0  0  0  0  0  0  0  0
   19.5480   39.3120    8.9340 O   0  0  0  0  0  0  0  0  0  0  0  0
   19.7770   39.3530    9.8990 H   0  0  0  0  0  0  0  0  0  0  0  0
   18.3410   37.8020    6.7970 N   0  0  0  0  0  0  0  0  0  0  0  0
   17.1170   38.4880    6.9120 C   0  0  0  0  0  0  0  0  0  0  0  0
   18.7990   37.7290    5.8440 H   0  0  0  0  0  0  0  0  0  0  0  0
   16.4420   39.1120    5.7170 C   0  0  0  0  0  0  0  0  0  0  0  0
   16.5780   38.5750    8.0580 O   0  0  0  0  0  0  0  0  0  0  0  0
   18.8290   33.7280    7.4840 O   0  0  0  0  0  0  0  0  0  0  0  0
   18.1820   34.2000    6.9090 H   0  0  0  0  0  0  0  0  0  0  0  0
   18.4790   35.2220   10.6280 O   0  0  0  0  0  0  0  0  0  0  0  0
   18.0670   34.5990   11.2770 H   0  0  0  0  0  0  0  0  0  0  0  0
   19.3260   29.3280   12.2890 C   0  0  0  0  0  0  0  0  0  0  0  0
   20.6710   29.0700   12.1170 C   0  0  0  0  0  0  0  0  0  0  0  0
   19.1090   29.4820   13.5950 N   0  0  0  0  0  0  0  0  0  0  0  0
   21.2020   29.0820   13.3590 N   0  0  0  0  0  0  0  0  0  0  0  0
   20.2580   29.3300   14.2400 N   0  0  0  0  0  0  0  0  0  0  0  0
   22.6280   28.8400   13.5880 C   0  0  0  0  0  0  0  0  0  0  0  0
   23.4000   29.6940   12.6170 C   0  0  0  0  0  0  0  0  0  0  0  0
   24.0360   30.9010   13.2720 C   0  0  0  0  0  0  0  0  0  0  0  0
   23.0350   31.9070   13.7230 C   0  0  0  0  0  0  0  0  0  0  0  0
   22.4500   32.7310   12.6090 C   0  0  0  0  0  0  0  0  0  0  0  0
   20.9830   32.8230   12.6420 C   0  0  0  0  0  0  0  0  0  0  0  0
   20.3480   33.3320   11.7040 O   0  0  0  0  0  0  0  0  0  0  0  0
   20.2590   32.3330   13.7420 O   0  0  0  0  0  0  0  0  0  0  0  0
   20.1280   32.9200   14.5730 H   0  0  0  0  0  0  0  0  0  0  0  0
   29.8670   25.5550   16.9770 C   0  0  0  0  0  0  0  0  0  0  0  0
   28.3450   25.7220   17.0260 C   0  0  0  0  0  0  0  0  0  0  0  0
   27.6010   24.4020   16.8890 C   0  0  0  0  0  0  0  0  0  0  0  0
   26.1780   24.5020   17.3640 C   0  0  0  0  0  0  0  0  0  0  0  0
   25.8140   23.2460   18.1490 C   0  0  0  0  0  0  0  0  0  0  0  0
   25.4630   23.5910   19.5460 N   0  0  0  0  0  0  0  0  0  0  0  0
  1  2  1  0  0  0  0
  1 33  1  0  0  0  0
  3  4  1  0  0  0  0
  3  2  1  0  0  0  0
  4  5  1  0  0  0  0
  6  3  2  0  0  0  0
  7  4  1  0  0  0  0
  8  7  1  1  0  0  0
  8 31  1  0  0  0  0
  9 29  1  6  0  0  0
  9  8  1  0  0  0  0
 10 15  1  0  0  0  0
 10  9  1  1  0  0  0
 11 18  1  6  0  0  0
 11 12  1  0  0  0  0
 11 16  1  0  0  0  0
 13 10  1  0  0  0  0
 13 11  1  0  0  0  0
 14 22  1  1  0  0  0
 14 12  1  0  0  0  0
 15 24  1  6  0  0  0
 15 14  1  0  0  0  0
 16 17  1  0  0  0  0
 18 19  2  0  0  0  0
 20 18  1  0  0  0  0
 21 20  1  0  0  0  0
 22 23  1  0  0  0  0
 24 25  1  0  0  0  0
 25 28  2  0  0  0  0
 26 24  1  0  0  0  0
 27 25  1  0  0  0  0
 30 29  1  0  0  0  0
 31 32  1  0  0  0  0
 33 35  1  0  0  0  0
 34 33  2  0  0  0  0
 34 36  1  0  0  0  0
 35 37  2  0  0  0  0
 36 38  1  0  0  0  0
 36 37  1  0  0  0  0
 39 40  1  0  0  0  0
 39 38  1  0  0  0  0
 40 41  1  0  0  0  0
 42 43  1  0  0  0  0
 42 41  1  0  0  0  0
 43 45  1  0  0  0  0
 44 43  2  0  0  0  0
 45 46  1  0  0  0  0
 47 48  1  0  0  0  0
 49 48  1  0  0  0  0
 49 50  1  0  0  0  0
 50 51  1  0  0  0  0
 51 52  1  0  0  0  0
M  END
>  <REMARK>
 VINA RESULT:    -4.223      3.561      7.391
 INTER + INTRA:         -14.586
 INTER:                  -8.040
 INTRA:                  -6.546
 UNBOUND:                -5.918
 SMILES CC(=O)N[C@@H]1[C@@H](O)C[C@](O)(C(=O)O)O[C@H]1C(O)[C@H](O)CNC(=O)OCc1cn(CCCCCC(=O)O)nn1
 SMILES IDX 25 1 24 2 22 3 21 4 23 6 20 7 18 8 16 9 15 10 9 11 8 12
 SMILES IDX 14 13 6 14 5 15 10 16 11 18 12 19 13 20 7 22 4 24 2 25 1 27
 SMILES IDX 3 28 17 29 19 31 26 33 27 34 38 35 28 36 37 37 29 38 30 39
 SMILES IDX 31 40 32 41 33 42 34 43 35 44 36 45
 H PARENT 21 5 10 17 13 21 7 23 4 26 17 30 19 32 36 46
 Flexibility Score: inf
  4 active torsions:
  status: ('A' for Active; 'I' for Inactive)
    1  A    between atoms: CA   and  CB  
    2  A    between atoms: CB   and  CG  
    3  A    between atoms: CG   and  CD  
    4  A    between atoms: CD   and  CE  

>  <TORSDO>
F 21

>  <BEGIN_>
RES LYS A 131

$$$$
ligand_33_pose_16_2HRL.pdbqt
 OpenBabel07062320523D

  6  5  0  0  0  0  0  0  0  0999 V2000
   33.1930   34.6630    9.2900 C   0  0  0  0  0  0  0  0  0  0  0  0
   32.0600   35.3600   10.0340 C   0  0  0  0  0  0  0  0  0  0  0  0
   30.7250   34.6790    9.8740 C   0  0  0  0  0  0  0  0  0  0  0  0
   30.3750   34.5240    8.4020 C   0  0  0  0  0  0  0  0  0  0  0  0
   29.5440   35.7000    7.9260 C   0  0  0  0  0  0  0  0  0  0  0  0
   28.2600   35.2420    7.3260 N   0  0  0  0  0  0  0  0  0  0  0  0
  1  2  1  0  0  0  0
  3  2  1  0  0  0  0
  4  3  1  0  0  0  0
  5  4  1  0  0  0  0
  6  5  1  0  0  0  0
M  END
>  <EGIN_R>
ES LYS A 135

>  <REMARK>
  4 active torsions:
  status: ('A' for Active; 'I' for Inactive)
    5  A    between atoms: CA   and  CB  
    6  A    between atoms: CB   and  CG  
    7  A    between atoms: CG   and  CD  
    8  A    between atoms: CD   and  CE  

$$$$
