ligand_75_pose_0_2HRL.pdbqt
 OpenBabel07062320523D

 55 56  0  0  1  0  0  0  0  0999 V2000
   21.7580   41.5080    8.1110 N   0  0  0  0  0  0  0  0  0  0  0  0
   21.9020   42.0140    6.7990 C   0  0  0  0  0  0  0  0  0  0  0  0
   20.9440   42.4760    6.1460 O   0  0  0  0  0  0  0  0  0  0  0  0
   22.6600   41.1280    8.5630 H   0  0  0  0  0  0  0  0  0  0  0  0
   20.5440   41.4590    8.8740 C   0  0  0  0  0  0  0  0  0  0  0  0
   20.1540   40.0480    9.1780 C   0  0  2  0  0  0  0  0  0  0  0  0
   21.1270   39.3220   10.0880 C   0  0  2  0  0  0  0  0  0  0  0  0
   21.4640   37.9810    9.5470 C   0  0  2  0  0  0  0  0  0  0  0  0
   20.8320   35.8290    9.0000 C   0  0  2  0  0  0  0  0  0  0  0  0
   22.2320   35.7790    8.4550 C   0  0  0  0  0  0  0  0  0  0  0  0
   20.4470   37.0910    9.4100 O   0  0  0  0  0  0  0  0  0  0  0  0
   23.2760   36.3790    9.3230 C   0  0  1  0  0  0  0  0  0  0  0  0
   22.6350   37.3420   10.2920 C   0  0  1  0  0  0  0  0  0  0  0  0
   20.6910   34.8660    9.9990 O   0  0  0  0  0  0  0  0  0  0  0  0
   21.1640   34.0320    9.7880 H   0  0  0  0  0  0  0  0  0  0  0  0
   19.9180   35.4370    7.8910 C   0  0  0  0  0  0  0  0  0  0  0  0
   19.1190   36.3070    7.4030 O   0  0  0  0  0  0  0  0  0  0  0  0
   19.9000   34.1540    7.3630 O   0  0  0  0  0  0  0  0  0  0  0  0
   20.6880   33.5380    7.4020 H   0  0  0  0  0  0  0  0  0  0  0  0
   24.0660   35.4380    9.9770 O   0  0  0  0  0  0  0  0  0  0  0  0
   24.2410   35.7320   10.8850 H   0  0  0  0  0  0  0  0  0  0  0  0
   23.5540   38.3070   10.8100 N   0  0  0  0  0  0  0  0  0  0  0  0
   24.3130   38.0840   11.9880 C   0  0  0  0  0  0  0  0  0  0  0  0
   23.7080   39.2400   10.3250 H   0  0  0  0  0  0  0  0  0  0  0  0
   25.2510   39.1090   12.4840 C   0  0  0  0  0  0  0  0  0  0  0  0
   24.2000   37.0110   12.6310 O   0  0  0  0  0  0  0  0  0  0  0  0
   20.7140   39.3330   11.4160 O   0  0  0  0  0  0  0  0  0  0  0  0
   21.2440   40.0100   11.8910 H   0  0  0  0  0  0  0  0  0  0  0  0
   19.9880   39.2920    8.0160 O   0  0  0  0  0  0  0  0  0  0  0  0
   19.3840   38.5260    8.2220 H   0  0  0  0  0  0  0  0  0  0  0  0
   23.1580   42.0190    6.1580 O   0  0  0  0  0  0  0  0  0  0  0  0
   24.3080   42.1730    6.9290 C   0  0  0  0  0  0  0  0  0  0  0  0
   24.8760   40.8810    7.3820 C   0  0  0  0  0  0  0  0  0  0  0  0
   25.6400   39.9590    6.7070 C   0  0  0  0  0  0  0  0  0  0  0  0
   24.7190   40.3720    8.6160 N   0  0  0  0  0  0  0  0  0  0  0  0
   25.9320   38.9210    7.5310 N   0  0  0  0  0  0  0  0  0  0  0  0
   25.3560   39.2030    8.6850 N   0  0  0  0  0  0  0  0  0  0  0  0
   26.7090   37.7770    7.1710 C   0  0  0  0  0  0  0  0  0  0  0  0
   26.6990   36.6420    7.9390 C   0  0  0  0  0  0  0  0  0  0  0  0
   27.4890   37.7980    6.0390 C   0  0  0  0  0  0  0  0  0  0  0  0
   27.4710   35.4990    7.5890 C   0  0  0  0  0  0  0  0  0  0  0  0
   28.2510   36.7370    5.6490 C   0  0  0  0  0  0  0  0  0  0  0  0
   28.2260   35.5820    6.4500 C   0  0  0  0  0  0  0  0  0  0  0  0
   27.3860   34.3370    8.4030 C   0  0  0  0  0  0  0  0  0  0  0  0
   27.3910   34.0210    9.6390 C   0  0  0  0  0  0  0  0  0  0  0  0
   27.4840   34.7130   10.8630 C   0  0  0  0  0  0  0  0  0  0  0  0
   28.5740   34.5200   11.6040 O   0  0  0  0  0  0  0  0  0  0  0  0
   26.6400   35.5910   11.4930 O   0  0  0  0  0  0  0  0  0  0  0  0
   25.7260   35.8350   11.1440 H   0  0  0  0  0  0  0  0  0  0  0  0
   29.8670   25.5550   16.9770 C   0  0  0  0  0  0  0  0  0  0  0  0
   28.3450   25.7220   17.0260 C   0  0  0  0  0  0  0  0  0  0  0  0
   27.6010   24.4000   16.9070 C   0  0  0  0  0  0  0  0  0  0  0  0
   26.1560   24.5270   17.3000 C   0  0  0  0  0  0  0  0  0  0  0  0
   25.6660   23.2000   17.8710 C   0  0  0  0  0  0  0  0  0  0  0  0
   24.3960   22.7930   17.2230 N   0  0  0  0  0  0  0  0  0  0  0  0
  1  4  1  0  0  0  0
  1  5  1  0  0  0  0
  2  1  1  0  0  0  0
  3  2  2  0  0  0  0
  6  5  1  6  0  0  0
  6  7  1  0  0  0  0
  7 27  1  1  0  0  0
  8  7  1  1  0  0  0
  8 13  1  0  0  0  0
  9 16  1  6  0  0  0
  9 11  1  0  0  0  0
  9 14  1  0  0  0  0
 10  9  1  0  0  0  0
 10 12  1  0  0  0  0
 11  8  1  0  0  0  0
 12 20  1  1  0  0  0
 12 13  1  0  0  0  0
 13 22  1  6  0  0  0
 15 14  1  0  0  0  0
 17 16  2  0  0  0  0
 18 19  1  0  0  0  0
 18 16  1  0  0  0  0
 20 21  1  0  0  0  0
 22 23  1  0  0  0  0
 23 25  1  0  0  0  0
 23 26  2  0  0  0  0
 24 22  1  0  0  0  0
 27 28  1  0  0  0  0
 29 30  1  0  0  0  0
 29  6  1  0  0  0  0
 31  2  1  0  0  0  0
 31 32  1  0  0  0  0
 32 33  1  0  0  0  0
 33 35  1  0  0  0  0
 34 33  2  0  0  0  0
 34 36  1  0  0  0  0
 35 37  2  0  0  0  0
 36 37  1  0  0  0  0
 38 36  1  0  0  0  0
 38 39  2  0  0  0  0
 40 38  1  0  0  0  0
 41 39  1  0  0  0  0
 41 44  1  0  0  0  0
 42 40  2  0  0  0  0
 42 43  1  0  0  0  0
 43 41  2  0  0  0  0
 44 45  2  0  0  0  0
 45 46  1  0  0  0  0
 46 48  1  0  0  0  0
 46 47  2  0  0  0  0
 49 48  1  0  0  0  0
 50 51  1  0  0  0  0
 52 51  1  0  0  0  0
 52 53  1  0  0  0  0
 53 54  1  0  0  0  0
 55 54  1  0  0  0  0
M  END
>  <REMARK>
 VINA RESULT:    -5.721      0.000      0.000
 INTER + INTRA:         -17.056
 INTER:                 -10.510
 INTRA:                  -6.546
 UNBOUND:                -6.317
 SMILES CC(=O)N[C@@H]1[C@@H](O)C[C@](O)(C(=O)O)O[C@H]1C(O)[C@H](O)CNC(=O)OCc1cn(-c2cccc(C=CC(=O)O)c2)nn1
 SMILES IDX 21 1 22 2 23 3 20 5 18 6 16 7 15 8 9 9 8 10 14 11 6 12 5 13
 SMILES IDX 10 14 11 16 12 17 13 18 7 20 4 22 2 23 1 25 3 26 17 27 19 29
 SMILES IDX 24 31 25 32 26 33 27 34 41 35 28 36 40 37 29 38 39 39 30 40
 SMILES IDX 33 41 31 42 32 43 34 44 35 45 36 46 37 47 38 48
 H PARENT 21 4 10 15 13 19 7 21 4 24 17 28 19 30 38 49
 Flexibility Score: inf
  4 active torsions:
  status: ('A' for Active; 'I' for Inactive)
    1  A    between atoms: CA   and  CB  
    2  A    between atoms: CB   and  CG  
    3  A    between atoms: CG   and  CD  
    4  A    between atoms: CD   and  CE  

>  <TORSDO>
F 18

>  <BEGIN_>
RES LYS A 131

$$$$
ligand_75_pose_0_2HRL.pdbqt
 OpenBabel07062320523D

  6  5  0  0  0  0  0  0  0  0999 V2000
   33.1930   34.6630    9.2900 C   0  0  0  0  0  0  0  0  0  0  0  0
   32.0600   35.3600   10.0340 C   0  0  0  0  0  0  0  0  0  0  0  0
   30.8610   35.6520    9.1690 C   0  0  0  0  0  0  0  0  0  0  0  0
   30.1930   36.9490    9.5980 C   0  0  0  0  0  0  0  0  0  0  0  0
   30.9780   38.1450    9.0930 C   0  0  0  0  0  0  0  0  0  0  0  0
   30.3810   38.6900    7.8430 N   0  0  0  0  0  0  0  0  0  0  0  0
  1  2  1  0  0  0  0
  3  4  1  0  0  0  0
  3  2  1  0  0  0  0
  5  4  1  0  0  0  0
  6  5  1  0  0  0  0
M  END
>  <EGIN_R>
ES LYS A 135

>  <REMARK>
  4 active torsions:
  status: ('A' for Active; 'I' for Inactive)
    5  A    between atoms: CA   and  CB  
    6  A    between atoms: CB   and  CG  
    7  A    between atoms: CG   and  CD  
    8  A    between atoms: CD   and  CE  

$$$$
