ligand_66_pose_7_2HRL.pdbqt
 OpenBabel07062320523D

 52 53  0  0  1  0  0  0  0  0999 V2000
   29.4000   35.1300   15.5240 N   0  0  0  0  0  0  0  0  0  0  0  0
   28.7570   35.1890   14.2830 C   0  0  0  0  0  0  0  0  0  0  0  0
   29.3950   35.0170   13.2240 O   0  0  0  0  0  0  0  0  0  0  0  0
   28.7900   35.2830   16.3820 H   0  0  0  0  0  0  0  0  0  0  0  0
   30.8070   34.8780   15.6890 C   0  0  0  0  0  0  0  0  0  0  0  0
   31.1590   33.4200   15.5980 C   0  0  2  0  0  0  0  0  0  0  0  0
   31.1160   32.6650   16.8690 C   0  0  2  0  0  0  0  0  0  0  0  0
   29.8930   31.7490   17.0420 C   0  0  2  0  0  0  0  0  0  0  0  0
   27.7250   31.5240   16.3810 C   0  0  2  0  0  0  0  0  0  0  0  0
   27.2310   31.7020   17.8020 C   0  0  0  0  0  0  0  0  0  0  0  0
   28.9060   32.2100   16.2660 O   0  0  0  0  0  0  0  0  0  0  0  0
   28.2020   31.1210   18.7930 C   0  0  1  0  0  0  0  0  0  0  0  0
   29.6310   31.4430   18.4670 C   0  0  1  0  0  0  0  0  0  0  0  0
   26.7620   32.1080   15.5190 O   0  0  0  0  0  0  0  0  0  0  0  0
   27.2820   32.7860   14.9980 H   0  0  0  0  0  0  0  0  0  0  0  0
   27.7610   30.0960   16.0500 C   0  0  0  0  0  0  0  0  0  0  0  0
   26.8140   29.3240   16.3290 O   0  0  0  0  0  0  0  0  0  0  0  0
   28.8500   29.4800   15.4010 O   0  0  0  0  0  0  0  0  0  0  0  0
   29.7550   29.9290   15.5620 H   0  0  0  0  0  0  0  0  0  0  0  0
   27.8690   31.6210   20.0520 O   0  0  0  0  0  0  0  0  0  0  0  0
   26.9010   31.7140   20.1760 H   0  0  0  0  0  0  0  0  0  0  0  0
   30.4720   30.3570   18.9290 N   0  0  0  0  0  0  0  0  0  0  0  0
   31.0760   30.3490   20.2390 C   0  0  0  0  0  0  0  0  0  0  0  0
   30.7050   29.5060   18.3570 H   0  0  0  0  0  0  0  0  0  0  0  0
   31.9390   29.2050   20.6720 C   0  0  0  0  0  0  0  0  0  0  0  0
   30.8820   31.3000   21.0220 O   0  0  0  0  0  0  0  0  0  0  0  0
   31.1520   33.4850   17.9980 O   0  0  0  0  0  0  0  0  0  0  0  0
   31.6860   33.1010   18.7360 H   0  0  0  0  0  0  0  0  0  0  0  0
   32.3420   33.3080   14.8690 O   0  0  0  0  0  0  0  0  0  0  0  0
   32.9160   34.0770   15.1040 H   0  0  0  0  0  0  0  0  0  0  0  0
   27.3920   35.4430   14.1520 O   0  0  0  0  0  0  0  0  0  0  0  0
   26.8910   35.7920   12.8870 C   0  0  0  0  0  0  0  0  0  0  0  0
   25.5930   35.1190   12.6830 C   0  0  0  0  0  0  0  0  0  0  0  0
   24.8340   34.4340   13.6060 C   0  0  0  0  0  0  0  0  0  0  0  0
   24.9100   35.0590   11.5250 N   0  0  0  0  0  0  0  0  0  0  0  0
   23.7240   33.9850   12.9910 N   0  0  0  0  0  0  0  0  0  0  0  0
   23.8120   34.3870   11.7290 N   0  0  0  0  0  0  0  0  0  0  0  0
   22.6120   33.2300   13.5030 C   0  0  0  0  0  0  0  0  0  0  0  0
   22.7450   31.7790   13.1410 C   0  0  0  0  0  0  0  0  0  0  0  0
   23.9760   31.1650   13.2120 C   0  0  0  0  0  0  0  0  0  0  0  0
   21.6680   31.0340   12.7440 C   0  0  0  0  0  0  0  0  0  0  0  0
   24.1050   29.8110   12.8830 C   0  0  0  0  0  0  0  0  0  0  0  0
   21.7580   29.6980   12.4130 C   0  0  0  0  0  0  0  0  0  0  0  0
   22.9880   29.0850   12.4850 C   0  0  0  0  0  0  0  0  0  0  0  0
   20.6450   28.8970   11.9950 C   0  0  0  0  0  0  0  0  0  0  0  0
   19.7370   28.2560   11.6390 N   0  0  0  0  0  0  0  0  0  0  0  0
   29.8670   25.5550   16.9770 C   0  0  0  0  0  0  0  0  0  0  0  0
   28.3450   25.7220   17.0260 C   0  0  0  0  0  0  0  0  0  0  0  0
   27.6020   24.3990   16.9180 C   0  0  0  0  0  0  0  0  0  0  0  0
   26.1660   24.5200   17.3480 C   0  0  0  0  0  0  0  0  0  0  0  0
   25.9160   23.6100   18.5470 C   0  0  0  0  0  0  0  0  0  0  0  0
   24.6490   22.8610   18.3740 N   0  0  0  0  0  0  0  0  0  0  0  0
  1  5  1  0  0  0  0
  1  4  1  0  0  0  0
  2  1  1  0  0  0  0
  3  2  2  0  0  0  0
  6  5  1  1  0  0  0
  6  7  1  0  0  0  0
  7 27  1  1  0  0  0
  8  7  1  1  0  0  0
  8 13  1  0  0  0  0
  9 14  1  6  0  0  0
  9 10  1  0  0  0  0
 10 12  1  0  0  0  0
 11  9  1  0  0  0  0
 11  8  1  0  0  0  0
 12 20  1  1  0  0  0
 13 12  1  0  0  0  0
 13 22  1  6  0  0  0
 15 14  1  0  0  0  0
 16 17  2  0  0  0  0
 16  9  1  0  0  0  0
 18 19  1  0  0  0  0
 18 16  1  0  0  0  0
 20 21  1  0  0  0  0
 22 23  1  0  0  0  0
 23 25  1  0  0  0  0
 23 26  2  0  0  0  0
 24 22  1  0  0  0  0
 27 28  1  0  0  0  0
 29 30  1  0  0  0  0
 29  6  1  0  0  0  0
 31  2  1  0  0  0  0
 32 31  1  0  0  0  0
 33 32  1  0  0  0  0
 33 34  2  0  0  0  0
 35 37  2  0  0  0  0
 35 33  1  0  0  0  0
 36 38  1  0  0  0  0
 36 34  1  0  0  0  0
 37 36  1  0  0  0  0
 39 40  1  0  0  0  0
 39 38  1  0  0  0  0
 41 39  2  0  0  0  0
 42 40  2  0  0  0  0
 43 44  2  0  0  0  0
 43 41  1  0  0  0  0
 44 42  1  0  0  0  0
 45 43  1  0  0  0  0
 46 45  3  0  0  0  0
 47 48  1  0  0  0  0
 49 48  1  0  0  0  0
 49 50  1  0  0  0  0
 50 51  1  0  0  0  0
 52 51  1  0  0  0  0
M  END
>  <REMARK>
 VINA RESULT:    -5.153      2.136      4.490
 INTER + INTRA:         -14.732
 INTER:                  -9.841
 INTRA:                  -4.891
 UNBOUND:                -5.212
 SMILES CC(=O)N[C@@H]1[C@@H](O)C[C@](O)(C(=O)O)O[C@H]1C(O)[C@H](O)CNC(=O)OCc1cn(Cc2cccc(C#N)c2)nn1
 SMILES IDX 21 1 22 2 23 3 20 5 18 6 16 7 15 8 9 9 8 10 14 11 6 12 5 13
 SMILES IDX 10 14 11 16 12 17 13 18 7 20 4 22 2 23 1 25 3 26 17 27 19 29
 SMILES IDX 24 31 25 32 26 33 27 34 39 35 28 36 38 37 29 38 30 39 31 40
 SMILES IDX 37 41 32 42 34 43 33 44 35 45 36 46
 H PARENT 21 4 10 15 13 19 7 21 4 24 17 28 19 30
 Flexibility Score: inf
  4 active torsions:
  status: ('A' for Active; 'I' for Inactive)
    1  A    between atoms: CA   and  CB  
    2  A    between atoms: CB   and  CG  
    3  A    between atoms: CG   and  CD  
    4  A    between atoms: CD   and  CE  

>  <TORSDO>
F 17

>  <BEGIN_>
RES LYS A 131

$$$$
ligand_66_pose_7_2HRL.pdbqt
 OpenBabel07062320523D

  6  5  0  0  0  0  0  0  0  0999 V2000
   33.1930   34.6630    9.2900 C   0  0  0  0  0  0  0  0  0  0  0  0
   32.0600   35.3600   10.0340 C   0  0  0  0  0  0  0  0  0  0  0  0
   30.8340   35.5880    9.1880 C   0  0  0  0  0  0  0  0  0  0  0  0
   30.0160   34.3110    9.0750 C   0  0  0  0  0  0  0  0  0  0  0  0
   28.8310   34.3520   10.0200 C   0  0  0  0  0  0  0  0  0  0  0  0
   27.6210   33.7530    9.3900 N   0  0  0  0  0  0  0  0  0  0  0  0
  1  2  1  0  0  0  0
  3  2  1  0  0  0  0
  4  3  1  0  0  0  0
  4  5  1  0  0  0  0
  6  5  1  0  0  0  0
M  END
>  <EGIN_R>
ES LYS A 135

>  <REMARK>
  4 active torsions:
  status: ('A' for Active; 'I' for Inactive)
    5  A    between atoms: CA   and  CB  
    6  A    between atoms: CB   and  CG  
    7  A    between atoms: CG   and  CD  
    8  A    between atoms: CD   and  CE  

$$$$
