ligand_43_pose_3_2HRL.pdbqt
 OpenBabel07062320523D

 49 49  0  0  1  0  0  0  0  0999 V2000
   26.2220   34.8450   15.5990 O   0  0  0  0  0  0  0  0  0  0  0  0
   27.5280   34.6560   16.0060 C   0  0  0  0  0  0  0  0  0  0  0  0
   28.4280   34.0570   15.0630 N   0  0  0  0  0  0  0  0  0  0  0  0
   28.0620   33.7960   14.1280 H   0  0  0  0  0  0  0  0  0  0  0  0
   27.9260   34.9960   17.1670 O   0  0  0  0  0  0  0  0  0  0  0  0
   29.7950   33.8160   15.3790 C   0  0  0  0  0  0  0  0  0  0  0  0
   30.2260   32.3610   15.1840 C   0  0  2  0  0  0  0  0  0  0  0  0
   29.9660   31.6760   16.5020 C   0  0  2  0  0  0  0  0  0  0  0  0
   28.8040   30.7380   16.4810 C   0  0  2  0  0  0  0  0  0  0  0  0
   26.5110   30.9900   16.2260 C   0  0  2  0  0  0  0  0  0  0  0  0
   26.4570   29.5790   16.7710 C   0  0  0  0  0  0  0  0  0  0  0  0
   27.7790   31.2680   15.7450 O   0  0  0  0  0  0  0  0  0  0  0  0
   27.2430   29.5640   18.0630 C   0  0  1  0  0  0  0  0  0  0  0  0
   28.4010   30.5270   17.9480 C   0  0  1  0  0  0  0  0  0  0  0  0
   26.0910   31.9130   17.1790 O   0  0  0  0  0  0  0  0  0  0  0  0
   25.7440   31.4470   17.9730 H   0  0  0  0  0  0  0  0  0  0  0  0
   25.5430   31.0540   15.1020 C   0  0  0  0  0  0  0  0  0  0  0  0
   24.9070   30.0440   14.7040 O   0  0  0  0  0  0  0  0  0  0  0  0
   25.2780   32.2490   14.4130 O   0  0  0  0  0  0  0  0  0  0  0  0
   24.5640   32.2230   13.6900 H   0  0  0  0  0  0  0  0  0  0  0  0
   26.4290   30.0060   19.0890 O   0  0  0  0  0  0  0  0  0  0  0  0
   25.5880   30.3690   18.7150 H   0  0  0  0  0  0  0  0  0  0  0  0
   29.5720   30.0470   18.6590 N   0  0  0  0  0  0  0  0  0  0  0  0
   29.8070   30.3060   20.0390 C   0  0  0  0  0  0  0  0  0  0  0  0
   30.3200   29.4710   18.1780 H   0  0  0  0  0  0  0  0  0  0  0  0
   31.0160   29.8080   20.7610 C   0  0  0  0  0  0  0  0  0  0  0  0
   28.9340   30.9900   20.6430 O   0  0  0  0  0  0  0  0  0  0  0  0
   29.8140   32.7020   17.4490 O   0  0  0  0  0  0  0  0  0  0  0  0
   29.3910   32.3730   18.2810 H   0  0  0  0  0  0  0  0  0  0  0  0
   31.5320   32.2700   14.7520 O   0  0  0  0  0  0  0  0  0  0  0  0
   32.0980   33.0320   14.9610 H   0  0  0  0  0  0  0  0  0  0  0  0
   25.8510   36.0190   14.9250 C   0  0  0  0  0  0  0  0  0  0  0  0
   25.5030   35.6200   13.5220 C   0  0  0  0  0  0  0  0  0  0  0  0
   26.1240   36.1360   12.3960 C   0  0  0  0  0  0  0  0  0  0  0  0
   24.5950   34.7540   13.0720 N   0  0  0  0  0  0  0  0  0  0  0  0
   25.5770   35.5700   11.3130 N   0  0  0  0  0  0  0  0  0  0  0  0
   24.6530   34.7370   11.7520 N   0  0  0  0  0  0  0  0  0  0  0  0
   25.8810   35.7780    9.9050 C   0  0  0  0  0  0  0  0  0  0  0  0
   26.4420   34.5140    9.3100 C   0  0  0  0  0  0  0  0  0  0  0  0
   27.0220   34.7600    7.9390 C   0  0  0  0  0  0  0  0  0  0  0  0
   26.8950   36.1990    7.5130 C   0  0  0  0  0  0  0  0  0  0  0  0
   27.5260   36.3940    6.1880 C   0  0  0  0  0  0  0  0  0  0  0  0
   28.8170   36.5830    6.0340 C   0  0  0  0  0  0  0  0  0  0  0  0
   29.8670   25.5550   16.9770 C   0  0  0  0  0  0  0  0  0  0  0  0
   28.3450   25.7220   17.0260 C   0  0  0  0  0  0  0  0  0  0  0  0
   27.6020   24.4000   16.9120 C   0  0  0  0  0  0  0  0  0  0  0  0
   26.1720   24.5140   17.3630 C   0  0  0  0  0  0  0  0  0  0  0  0
   25.9900   25.8010   18.1610 C   0  0  0  0  0  0  0  0  0  0  0  0
   24.7630   26.5110   17.7290 N   0  0  0  0  0  0  0  0  0  0  0  0
  1  2  1  0  0  0  0
  2  5  2  0  0  0  0
  3  6  1  0  0  0  0
  3  2  1  0  0  0  0
  4  3  1  0  0  0  0
  7  6  1  1  0  0  0
  7  8  1  0  0  0  0
  8 28  1  1  0  0  0
  9  8  1  1  0  0  0
  9 14  1  0  0  0  0
 10 17  1  6  0  0  0
 10 11  1  0  0  0  0
 10 15  1  0  0  0  0
 11 13  1  0  0  0  0
 12 10  1  0  0  0  0
 12  9  1  0  0  0  0
 13 21  1  1  0  0  0
 14 13  1  0  0  0  0
 14 23  1  1  0  0  0
 15 16  1  0  0  0  0
 18 17  2  0  0  0  0
 19 17  1  0  0  0  0
 20 19  1  0  0  0  0
 22 21  1  0  0  0  0
 23 24  1  0  0  0  0
 24 27  2  0  0  0  0
 24 26  1  0  0  0  0
 25 23  1  0  0  0  0
 28 29  1  0  0  0  0
 30 31  1  0  0  0  0
 30  7  1  0  0  0  0
 32  1  1  0  0  0  0
 33 32  1  0  0  0  0
 34 33  2  0  0  0  0
 35 33  1  0  0  0  0
 36 37  1  0  0  0  0
 36 34  1  0  0  0  0
 37 35  2  0  0  0  0
 38 36  1  0  0  0  0
 39 38  1  0  0  0  0
 40 39  1  0  0  0  0
 41 40  1  0  0  0  0
 42 41  1  0  0  0  0
 43 42  2  0  0  0  0
 44 45  1  0  0  0  0
 46 45  1  0  0  0  0
 46 47  1  0  0  0  0
 47 48  1  0  0  0  0
 49 48  1  0  0  0  0
M  END
>  <REMARK>
 VINA RESULT:    -5.057      4.333      7.754
 INTER + INTRA:         -14.719
 INTER:                  -9.309
 INTRA:                  -5.410
 UNBOUND:                -4.785
 SMILES C=CCCCCn1cc(COC(=O)NC[C@@H](O)C(O)[C@@H]2O[C@@](O)(C(=O)O)C[C@H](O)[C@H]2NC(C)=O)nn1
 SMILES IDX 11 1 12 2 14 3 13 5 15 6 16 7 18 8 20 9 22 10 27 11 21 12
 SMILES IDX 28 13 30 14 23 15 24 17 25 18 26 19 29 21 31 23 32 24 33 26
 SMILES IDX 34 27 19 28 17 30 10 32 9 33 8 34 35 35 7 36 36 37 6 38 5 39
 SMILES IDX 4 40 3 41 2 42 1 43
 H PARENT 14 4 23 16 26 20 29 22 31 25 19 29 17 31
 Flexibility Score: inf
  4 active torsions:
  status: ('A' for Active; 'I' for Inactive)
    1  A    between atoms: CA   and  CB  
    2  A    between atoms: CB   and  CG  
    3  A    between atoms: CG   and  CD  
    4  A    between atoms: CD   and  CE  

>  <TORSDO>
F 19

>  <BEGIN_>
RES LYS A 131

$$$$
ligand_43_pose_3_2HRL.pdbqt
 OpenBabel07062320523D

  6  5  0  0  0  0  0  0  0  0999 V2000
   33.1930   34.6630    9.2900 C   0  0  0  0  0  0  0  0  0  0  0  0
   32.0600   35.3600   10.0340 C   0  0  0  0  0  0  0  0  0  0  0  0
   30.7540   35.3570    9.2820 C   0  0  0  0  0  0  0  0  0  0  0  0
   29.6140   35.7990   10.1860 C   0  0  0  0  0  0  0  0  0  0  0  0
   29.7970   35.2430   11.5850 C   0  0  0  0  0  0  0  0  0  0  0  0
   29.7260   36.3250   12.6060 N   0  0  0  0  0  0  0  0  0  0  0  0
  1  2  1  0  0  0  0
  3  2  1  0  0  0  0
  3  4  1  0  0  0  0
  4  5  1  0  0  0  0
  5  6  1  0  0  0  0
M  END
>  <EGIN_R>
ES LYS A 135

>  <REMARK>
  4 active torsions:
  status: ('A' for Active; 'I' for Inactive)
    5  A    between atoms: CA   and  CB  
    6  A    between atoms: CB   and  CG  
    7  A    between atoms: CG   and  CD  
    8  A    between atoms: CD   and  CE  

$$$$
