ligand_18_pose_14_2HRL.pdbqt
 OpenBabel07062320523D

 54 55  0  0  1  0  0  0  0  0999 V2000
   30.7150   32.7110   14.3660 N   0  0  0  0  0  0  0  0  0  0  0  0
   30.0670   33.8260   13.7950 C   0  0  0  0  0  0  0  0  0  0  0  0
   28.9420   34.1570   14.2420 O   0  0  0  0  0  0  0  0  0  0  0  0
   31.6490   32.4530   13.9780 H   0  0  0  0  0  0  0  0  0  0  0  0
   30.1850   31.9020   15.4450 C   0  0  0  0  0  0  0  0  0  0  0  0
   30.7120   32.3660   16.7740 C   0  0  2  0  0  0  0  0  0  0  0  0
   29.6630   32.6830   17.7850 C   0  0  1  0  0  0  0  0  0  0  0  0
   29.4100   31.6960   18.8620 C   0  0  2  0  0  0  0  0  0  0  0  0
   30.6830   30.2910   20.2320 C   0  0  2  0  0  0  0  0  0  0  0  0
   29.3390   30.1770   20.9290 C   0  0  0  0  0  0  0  0  0  0  0  0
   30.7090   31.2070   19.2230 O   0  0  0  0  0  0  0  0  0  0  0  0
   28.3220   29.8000   19.9080 C   0  0  1  0  0  0  0  0  0  0  0  0
   28.6220   30.4860   18.5600 C   0  0  1  0  0  0  0  0  0  0  0  0
   30.9800   28.9890   19.7860 O   0  0  0  0  0  0  0  0  0  0  0  0
   31.3730   29.0520   18.8720 H   0  0  0  0  0  0  0  0  0  0  0  0
   31.7380   30.6720   21.2060 C   0  0  0  0  0  0  0  0  0  0  0  0
   32.2080   29.7970   21.9630 O   0  0  0  0  0  0  0  0  0  0  0  0
   32.2200   31.9740   21.3010 O   0  0  0  0  0  0  0  0  0  0  0  0
   31.6550   32.6210   21.8530 H   0  0  0  0  0  0  0  0  0  0  0  0
   28.1710   28.4400   19.7420 O   0  0  0  0  0  0  0  0  0  0  0  0
   28.2620   28.1810   18.7910 H   0  0  0  0  0  0  0  0  0  0  0  0
   27.3690   30.6220   17.9180 N   0  0  0  0  0  0  0  0  0  0  0  0
   26.9330   29.6490   16.9940 C   0  0  0  0  0  0  0  0  0  0  0  0
   26.7470   31.4210   18.1030 H   0  0  0  0  0  0  0  0  0  0  0  0
   25.6180   29.7490   16.2900 C   0  0  0  0  0  0  0  0  0  0  0  0
   27.6340   28.6220   16.7010 O   0  0  0  0  0  0  0  0  0  0  0  0
   29.5690   34.0200   18.1440 O   0  0  0  0  0  0  0  0  0  0  0  0
   30.2990   34.5720   17.8380 H   0  0  0  0  0  0  0  0  0  0  0  0
   31.7050   33.3330   16.6890 O   0  0  0  0  0  0  0  0  0  0  0  0
   32.3870   33.1300   16.0080 H   0  0  0  0  0  0  0  0  0  0  0  0
   30.6330   34.5730   12.7530 O   0  0  0  0  0  0  0  0  0  0  0  0
   31.0270   35.9170   12.9610 C   0  0  0  0  0  0  0  0  0  0  0  0
   32.0110   35.9410   14.0800 C   0  0  0  0  0  0  0  0  0  0  0  0
   32.0870   36.8330   15.1290 C   0  0  0  0  0  0  0  0  0  0  0  0
   33.0270   35.0880   14.2850 N   0  0  0  0  0  0  0  0  0  0  0  0
   33.1220   36.4990   15.9150 N   0  0  0  0  0  0  0  0  0  0  0  0
   33.6770   35.4340   15.3790 N   0  0  0  0  0  0  0  0  0  0  0  0
   33.5120   37.2200   17.1380 C   0  0  0  0  0  0  0  0  0  0  0  0
   34.9930   37.2350   17.1660 C   0  0  0  0  0  0  0  0  0  0  0  0
   35.5880   38.3620   17.1150 O   0  0  0  0  0  0  0  0  0  0  0  0
   35.8190   36.0890   17.2450 N   0  0  0  0  0  0  0  0  0  0  0  0
   35.3350   35.1740   17.2860 H   0  0  0  0  0  0  0  0  0  0  0  0
   37.2620   36.1510   17.2710 C   0  0  0  0  0  0  0  0  0  0  0  0
   37.7330   34.8920   17.9730 C   0  0  0  0  0  0  0  0  0  0  0  0
   38.4650   33.8860   17.5090 C   0  0  0  0  0  0  0  0  0  0  0  0
   37.4030   34.4610   19.6180 S   0  0  0  0  0  0  0  0  0  0  0  0
   38.7800   32.8410   18.3030 C   0  0  0  0  0  0  0  0  0  0  0  0
   38.2870   32.9040   19.6150 C   0  0  0  0  0  0  0  0  0  0  0  0
   29.8670   25.5550   16.9770 C   0  0  0  0  0  0  0  0  0  0  0  0
   28.3450   25.7220   17.0260 C   0  0  0  0  0  0  0  0  0  0  0  0
   27.6020   24.3970   16.9430 C   0  0  0  0  0  0  0  0  0  0  0  0
   26.4460   24.3360   17.9020 C   0  0  0  0  0  0  0  0  0  0  0  0
   26.1170   25.7410   18.3940 C   0  0  0  0  0  0  0  0  0  0  0  0
   24.9240   26.2710   17.6910 N   0  0  0  0  0  0  0  0  0  0  0  0
  1  5  1  0  0  0  0
  2  3  2  0  0  0  0
  2  1  1  0  0  0  0
  4  1  1  0  0  0  0
  6  5  1  6  0  0  0
  6  7  1  0  0  0  0
  7 27  1  1  0  0  0
  8  7  1  6  0  0  0
  8 11  1  0  0  0  0
  9 14  1  6  0  0  0
  9 10  1  0  0  0  0
  9 16  1  0  0  0  0
 11  9  1  0  0  0  0
 12 20  1  6  0  0  0
 12 10  1  0  0  0  0
 13 22  1  1  0  0  0
 13  8  1  0  0  0  0
 13 12  1  0  0  0  0
 15 14  1  0  0  0  0
 16 18  1  0  0  0  0
 16 17  2  0  0  0  0
 18 19  1  0  0  0  0
 21 20  1  0  0  0  0
 22 24  1  0  0  0  0
 23 22  1  0  0  0  0
 25 23  1  0  0  0  0
 26 23  2  0  0  0  0
 28 27  1  0  0  0  0
 29  6  1  0  0  0  0
 30 29  1  0  0  0  0
 31 32  1  0  0  0  0
 31  2  1  0  0  0  0
 32 33  1  0  0  0  0
 33 35  1  0  0  0  0
 33 34  2  0  0  0  0
 34 36  1  0  0  0  0
 35 37  2  0  0  0  0
 36 38  1  0  0  0  0
 37 36  1  0  0  0  0
 38 39  1  0  0  0  0
 39 41  1  0  0  0  0
 40 39  2  0  0  0  0
 41 43  1  0  0  0  0
 41 42  1  0  0  0  0
 43 44  1  0  0  0  0
 44 46  1  0  0  0  0
 45 44  2  0  0  0  0
 45 47  1  0  0  0  0
 47 48  2  0  0  0  0
 48 46  1  0  0  0  0
 49 50  1  0  0  0  0
 51 50  1  0  0  0  0
 51 52  1  0  0  0  0
 52 53  1  0  0  0  0
 54 53  1  0  0  0  0
M  END
>  <REMARK>
 VINA RESULT:    -4.164      4.563      9.981
 INTER + INTRA:         -14.726
 INTER:                  -9.231
 INTRA:                  -5.495
 UNBOUND:                -6.788
 SMILES CC(=O)N[C@@H]1[C@@H](O)C[C@](O)(C(=O)O)O[C@H]1C(O)[C@H](O)CNC(=O)OCc1cn(CC(=O)NCc2cccs2)nn1
 SMILES IDX 21 1 22 2 23 3 20 5 18 6 16 7 15 8 9 9 8 10 14 11 6 12 5 13
 SMILES IDX 10 14 11 16 12 17 13 18 7 20 4 22 2 23 1 25 3 26 17 27 19 29
 SMILES IDX 24 31 25 32 26 33 27 34 40 35 28 36 39 37 29 38 30 39 31 40
 SMILES IDX 32 41 33 43 34 44 35 45 38 46 36 47 37 48
 H PARENT 21 4 10 15 13 19 7 21 4 24 17 28 19 30 32 42
 Flexibility Score: inf
  4 active torsions:
  status: ('A' for Active; 'I' for Inactive)
    1  A    between atoms: CA   and  CB  
    2  A    between atoms: CB   and  CG  
    3  A    between atoms: CG   and  CD  
    4  A    between atoms: CD   and  CE  

>  <TORSDO>
F 18

>  <BEGIN_>
RES LYS A 131

$$$$
ligand_18_pose_14_2HRL.pdbqt
 OpenBabel07062320523D

  6  5  0  0  0  0  0  0  0  0999 V2000
   33.1930   34.6630    9.2900 C   0  0  0  0  0  0  0  0  0  0  0  0
   32.0600   35.3600   10.0340 C   0  0  0  0  0  0  0  0  0  0  0  0
   30.8010   35.5010    9.2190 C   0  0  0  0  0  0  0  0  0  0  0  0
   30.0700   34.1700    9.1250 C   0  0  0  0  0  0  0  0  0  0  0  0
   28.6570   34.3730    8.6150 C   0  0  0  0  0  0  0  0  0  0  0  0
   27.6630   33.7260    9.5160 N   0  0  0  0  0  0  0  0  0  0  0  0
  1  2  1  0  0  0  0
  3  2  1  0  0  0  0
  4  3  1  0  0  0  0
  5  4  1  0  0  0  0
  5  6  1  0  0  0  0
M  END
>  <EGIN_R>
ES LYS A 135

>  <REMARK>
  4 active torsions:
  status: ('A' for Active; 'I' for Inactive)
    5  A    between atoms: CA   and  CB  
    6  A    between atoms: CB   and  CG  
    7  A    between atoms: CG   and  CD  
    8  A    between atoms: CD   and  CE  

$$$$
