ligand_26_pose_17_2HRL.pdbqt
 OpenBabel07062320523D

 54 55  0  0  1  0  0  0  0  0999 V2000
   26.1500   39.4050    6.1330 N   0  0  0  0  0  0  0  0  0  0  0  0
   25.3030   39.9910    7.1170 C   0  0  0  0  0  0  0  0  0  0  0  0
   25.8080   40.7480    7.9660 O   0  0  0  0  0  0  0  0  0  0  0  0
   25.6430   38.7730    5.4410 H   0  0  0  0  0  0  0  0  0  0  0  0
   27.5770   39.6260    6.0460 C   0  0  0  0  0  0  0  0  0  0  0  0
   28.3640   38.4430    6.5660 C   0  0  2  0  0  0  0  0  0  0  0  0
   28.7890   38.6370    8.0060 C   0  0  1  0  0  0  0  0  0  0  0  0
   29.4360   39.9660    8.2540 C   0  0  2  0  0  0  0  0  0  0  0  0
   31.7350   39.5750    8.1880 C   0  0  2  0  0  0  0  0  0  0  0  0
   31.8820   39.8080    9.6710 C   0  0  0  0  0  0  0  0  0  0  0  0
   30.6330   40.1300    7.6110 O   0  0  0  0  0  0  0  0  0  0  0  0
   30.6190   39.5460   10.4340 C   0  0  1  0  0  0  0  0  0  0  0  0
   29.5100   40.2970    9.7340 C   0  0  1  0  0  0  0  0  0  0  0  0
   31.8880   38.1970    7.9160 O   0  0  0  0  0  0  0  0  0  0  0  0
   31.2110   37.6540    8.3630 H   0  0  0  0  0  0  0  0  0  0  0  0
   32.9340   40.2390    7.5560 C   0  0  0  0  0  0  0  0  0  0  0  0
   32.8600   41.2380    6.8290 O   0  0  0  0  0  0  0  0  0  0  0  0
   34.1660   39.6330    7.8560 O   0  0  0  0  0  0  0  0  0  0  0  0
   34.3250   38.6580    7.6550 H   0  0  0  0  0  0  0  0  0  0  0  0
   30.3450   38.2070   10.5860 O   0  0  0  0  0  0  0  0  0  0  0  0
   29.5370   37.9690   10.0710 H   0  0  0  0  0  0  0  0  0  0  0  0
   29.8950   41.7170    9.8030 N   0  0  0  0  0  0  0  0  0  0  0  0
   29.2290   42.5690   10.7250 C   0  0  0  0  0  0  0  0  0  0  0  0
   30.6380   42.1170    9.1990 H   0  0  0  0  0  0  0  0  0  0  0  0
   29.6310   43.9980   10.7830 C   0  0  0  0  0  0  0  0  0  0  0  0
   28.3330   42.0880   11.4540 O   0  0  0  0  0  0  0  0  0  0  0  0
   27.6420   38.4760    8.7870 O   0  0  0  0  0  0  0  0  0  0  0  0
   26.8600   38.8710    8.2990 H   0  0  0  0  0  0  0  0  0  0  0  0
   29.4970   38.2590    5.7470 O   0  0  0  0  0  0  0  0  0  0  0  0
   29.7300   37.3020    5.6520 H   0  0  0  0  0  0  0  0  0  0  0  0
   23.9470   39.7570    7.1670 O   0  0  0  0  0  0  0  0  0  0  0  0
   23.3360   38.5480    7.5590 C   0  0  0  0  0  0  0  0  0  0  0  0
   24.2040   37.6400    8.3130 C   0  0  0  0  0  0  0  0  0  0  0  0
   24.1700   37.4370    9.6990 C   0  0  0  0  0  0  0  0  0  0  0  0
   25.1930   36.8240    7.8660 N   0  0  0  0  0  0  0  0  0  0  0  0
   25.0940   36.5490   10.0110 N   0  0  0  0  0  0  0  0  0  0  0  0
   25.6930   36.1950    8.9120 N   0  0  0  0  0  0  0  0  0  0  0  0
   25.3790   36.0550   11.3960 C   0  0  1  0  0  0  0  0  0  0  0  0
   24.3170   35.0150   11.6410 C   0  0  0  0  0  0  0  0  0  0  0  0
   26.7280   35.5090   11.3770 C   0  0  0  0  0  0  0  0  0  0  0  0
   27.8090   36.2060   12.0010 C   0  0  2  0  0  0  0  0  0  0  0  0
   27.8450   37.4980   11.6570 O   0  0  0  0  0  0  0  0  0  0  0  0
   28.8530   35.8310   12.9020 C   0  0  0  0  0  0  0  0  0  0  0  0
   29.0690   34.4530   13.1500 C   0  0  0  0  0  0  0  0  0  0  0  0
   29.6980   36.6980   13.5500 C   0  0  0  0  0  0  0  0  0  0  0  0
   30.0640   34.0230   13.9900 C   0  0  0  0  0  0  0  0  0  0  0  0
   30.6950   36.2270   14.3930 C   0  0  0  0  0  0  0  0  0  0  0  0
   30.8980   34.9070   14.6300 C   0  0  0  0  0  0  0  0  0  0  0  0
   29.8670   25.5550   16.9770 C   0  0  0  0  0  0  0  0  0  0  0  0
   28.3450   25.7220   17.0260 C   0  0  0  0  0  0  0  0  0  0  0  0
   27.6000   24.4150   16.8040 C   0  0  0  0  0  0  0  0  0  0  0  0
   26.6660   24.0960   17.9380 C   0  0  0  0  0  0  0  0  0  0  0  0
   26.1600   25.3930   18.5620 C   0  0  0  0  0  0  0  0  0  0  0  0
   24.7650   25.6620   18.1410 N   0  0  0  0  0  0  0  0  0  0  0  0
  1  2  1  0  0  0  0
  2 31  1  0  0  0  0
  2  3  2  0  0  0  0
  4  1  1  0  0  0  0
  5  1  1  0  0  0  0
  6  5  1  6  0  0  0
  6  7  1  0  0  0  0
  7 27  1  1  0  0  0
  8  7  1  1  0  0  0
  8 13  1  0  0  0  0
  9 16  1  6  0  0  0
  9 10  1  0  0  0  0
 10 12  1  0  0  0  0
 11  9  1  0  0  0  0
 11  8  1  0  0  0  0
 12 20  1  6  0  0  0
 13 22  1  6  0  0  0
 13 12  1  0  0  0  0
 14  9  1  0  0  0  0
 14 15  1  0  0  0  0
 16 18  1  0  0  0  0
 17 16  2  0  0  0  0
 19 18  1  0  0  0  0
 21 20  1  0  0  0  0
 22 23  1  0  0  0  0
 23 25  1  0  0  0  0
 23 26  2  0  0  0  0
 24 22  1  0  0  0  0
 28 27  1  0  0  0  0
 29  6  1  0  0  0  0
 30 29  1  0  0  0  0
 31 32  1  0  0  0  0
 32 33  1  0  0  0  0
 33 34  2  0  0  0  0
 34 36  1  0  0  0  0
 35 33  1  0  0  0  0
 35 37  2  0  0  0  0
 36 38  1  0  0  0  0
 37 36  1  0  0  0  0
 38 39  1  6  0  0  0
 40 38  1  0  0  0  0
 40 41  1  0  0  0  0
 41 42  1  6  0  0  0
 41 43  1  0  0  0  0
 43 44  2  0  0  0  0
 43 45  1  0  0  0  0
 44 46  1  0  0  0  0
 45 47  2  0  0  0  0
 46 48  2  0  0  0  0
 47 48  1  0  0  0  0
 49 50  1  0  0  0  0
 51 50  1  0  0  0  0
 51 52  1  0  0  0  0
 52 53  1  0  0  0  0
 54 53  1  0  0  0  0
M  END
>  <REMARK>
 VINA RESULT:    -4.538      7.197     12.439
 INTER + INTRA:         -15.584
 INTER:                  -8.017
 INTRA:                  -7.567
 UNBOUND:                -6.934
 SMILES CC(=O)N[C@@H]1[C@@H](O)C[C@](O)(C(=O)O)O[C@H]1C(O)[C@H](O)CNC(=O)OCc1cn(C(C)CC(=O)c2ccccc2)nn1
 SMILES IDX 21 1 22 2 23 3 20 5 18 6 16 7 15 8 9 9 8 10 14 11 6 12 5 13
 SMILES IDX 10 14 11 16 12 17 13 18 7 20 4 22 2 23 1 25 3 26 17 27 19 29
 SMILES IDX 24 31 25 32 26 33 27 34 41 35 28 36 40 37 29 38 30 39 31 40
 SMILES IDX 32 41 33 42 34 43 35 44 39 45 36 46 38 47 37 48
 H PARENT 21 4 10 15 13 19 7 21 4 24 17 28 19 30
 Flexibility Score: inf
  4 active torsions:
  status: ('A' for Active; 'I' for Inactive)
    1  A    between atoms: CA   and  CB  
    2  A    between atoms: CB   and  CG  
    3  A    between atoms: CG   and  CD  
    4  A    between atoms: CD   and  CE  

>  <TORSDO>
F 18

>  <BEGIN_>
RES LYS A 131

$$$$
ligand_26_pose_17_2HRL.pdbqt
 OpenBabel07062320523D

  6  5  0  0  0  0  0  0  0  0999 V2000
   33.1930   34.6630    9.2900 C   0  0  0  0  0  0  0  0  0  0  0  0
   32.0600   35.3600   10.0340 C   0  0  0  0  0  0  0  0  0  0  0  0
   30.7360   34.6510    9.9160 C   0  0  0  0  0  0  0  0  0  0  0  0
   30.3380   34.4970    8.4560 C   0  0  0  0  0  0  0  0  0  0  0  0
   28.8280   34.5210    8.3100 C   0  0  0  0  0  0  0  0  0  0  0  0
   28.4230   35.1800    7.0370 N   0  0  0  0  0  0  0  0  0  0  0  0
  1  2  1  0  0  0  0
  3  2  1  0  0  0  0
  4  3  1  0  0  0  0
  5  4  1  0  0  0  0
  6  5  1  0  0  0  0
M  END
>  <EGIN_R>
ES LYS A 135

>  <REMARK>
  4 active torsions:
  status: ('A' for Active; 'I' for Inactive)
    5  A    between atoms: CA   and  CB  
    6  A    between atoms: CB   and  CG  
    7  A    between atoms: CG   and  CD  
    8  A    between atoms: CD   and  CE  

$$$$
