ligand_79_pose_19_2HRL.pdbqt
 OpenBabel07062320523D

 58 60  0  0  1  0  0  0  0  0999 V2000
   21.3790   40.6110    9.0990 N   0  0  0  0  0  0  0  0  0  0  0  0
   22.4360   41.1370    8.3190 C   0  0  0  0  0  0  0  0  0  0  0  0
   22.3330   41.2450    7.0950 O   0  0  0  0  0  0  0  0  0  0  0  0
   21.5720   40.5680   10.1570 H   0  0  0  0  0  0  0  0  0  0  0  0
   20.1120   40.1460    8.6040 C   0  0  0  0  0  0  0  0  0  0  0  0
   19.8910   38.6800    8.6610 C   0  0  2  0  0  0  0  0  0  0  0  0
   21.1780   37.8690    8.6590 C   0  0  1  0  0  0  0  0  0  0  0  0
   21.3780   37.1390    9.9620 C   0  0  2  0  0  0  0  0  0  0  0  0
   23.4610   36.1700   10.2630 C   0  0  2  0  0  0  0  0  0  0  0  0
   22.9160   34.9130   10.9050 C   0  0  0  0  0  0  0  0  0  0  0  0
   22.6340   37.2650   10.4810 O   0  0  0  0  0  0  0  0  0  0  0  0
   21.4210   35.0060   11.1270 C   0  0  1  0  0  0  0  0  0  0  0  0
   20.8670   35.7160    9.8910 C   0  0  1  0  0  0  0  0  0  0  0  0
   23.7210   36.0060    8.9030 O   0  0  0  0  0  0  0  0  0  0  0  0
   24.2440   35.1690    8.7400 H   0  0  0  0  0  0  0  0  0  0  0  0
   24.7620   36.4660   10.9200 C   0  0  0  0  0  0  0  0  0  0  0  0
   24.8120   36.5710   12.1860 O   0  0  0  0  0  0  0  0  0  0  0  0
   25.9390   36.6370   10.2290 O   0  0  0  0  0  0  0  0  0  0  0  0
   26.3950   37.5340   10.1210 H   0  0  0  0  0  0  0  0  0  0  0  0
   20.8360   33.7740   11.3060 O   0  0  0  0  0  0  0  0  0  0  0  0
   19.9030   33.8170   10.9240 H   0  0  0  0  0  0  0  0  0  0  0  0
   19.4290   35.7150    9.8810 N   0  0  0  0  0  0  0  0  0  0  0  0
   18.6740   35.0520    8.8500 C   0  0  0  0  0  0  0  0  0  0  0  0
   18.8460   36.1910   10.6120 H   0  0  0  0  0  0  0  0  0  0  0  0
   17.2120   35.0270    8.8030 C   0  0  0  0  0  0  0  0  0  0  0  0
   19.3570   34.4660    7.9490 O   0  0  0  0  0  0  0  0  0  0  0  0
   21.0340   36.9440    7.6210 O   0  0  0  0  0  0  0  0  0  0  0  0
   21.5030   36.1050    7.7910 H   0  0  0  0  0  0  0  0  0  0  0  0
   19.1550   38.2490    7.5740 O   0  0  0  0  0  0  0  0  0  0  0  0
   19.7930   37.8950    6.9000 H   0  0  0  0  0  0  0  0  0  0  0  0
   23.6380   41.5560    8.8920 O   0  0  0  0  0  0  0  0  0  0  0  0
   24.4740   40.6510    9.5520 C   0  0  0  0  0  0  0  0  0  0  0  0
   25.2820   39.8810    8.5720 C   0  0  0  0  0  0  0  0  0  0  0  0
   26.3430   40.3700    7.8240 C   0  0  0  0  0  0  0  0  0  0  0  0
   25.1750   38.5880    8.2050 N   0  0  0  0  0  0  0  0  0  0  0  0
   26.8310   39.3830    7.0470 N   0  0  0  0  0  0  0  0  0  0  0  0
   26.0990   38.3130    7.3020 N   0  0  0  0  0  0  0  0  0  0  0  0
   27.9610   39.4980    6.1050 C   0  0  0  0  0  0  0  0  0  0  0  0
   27.4420   39.4500    4.7100 C   0  0  0  0  0  0  0  0  0  0  0  0
   28.5520   40.8850    6.4210 C   0  0  0  0  0  0  0  0  0  0  0  0
   28.9430   38.4810    6.4760 C   0  0  0  0  0  0  0  0  0  0  0  0
   28.8960   37.3050    5.9720 O   0  0  0  0  0  0  0  0  0  0  0  0
   30.0360   38.6760    7.4220 C   0  0  0  0  0  0  0  0  0  0  0  0
   31.3150   39.1150    7.0830 C   0  0  0  0  0  0  0  0  0  0  0  0
   29.9740   38.4310    8.7700 C   0  0  0  0  0  0  0  0  0  0  0  0
   32.0150   39.1330    8.2160 N   0  0  0  0  0  0  0  0  0  0  0  0
   31.2510   38.7310    9.2540 C   0  0  0  0  0  0  0  0  0  0  0  0
   28.9830   37.9990    9.6460 C   0  0  0  0  0  0  0  0  0  0  0  0
   33.0030   39.4130    8.3050 H   0  0  0  0  0  0  0  0  0  0  0  0
   31.4860   38.5810   10.6070 C   0  0  0  0  0  0  0  0  0  0  0  0
   29.2510   37.8620   10.9760 C   0  0  0  0  0  0  0  0  0  0  0  0
   30.4950   38.1510   11.4550 C   0  0  0  0  0  0  0  0  0  0  0  0
   29.8670   25.5550   16.9770 C   0  0  0  0  0  0  0  0  0  0  0  0
   28.3450   25.7220   17.0260 C   0  0  0  0  0  0  0  0  0  0  0  0
   27.5990   24.4230   16.7640 C   0  0  0  0  0  0  0  0  0  0  0  0
   26.8980   23.9140   17.9930 C   0  0  0  0  0  0  0  0  0  0  0  0
   25.5560   23.3070   17.5990 C   0  0  0  0  0  0  0  0  0  0  0  0
   24.7250   24.3060   16.8860 N   0  0  0  0  0  0  0  0  0  0  0  0
  1  4  1  0  0  0  0
  2 31  1  0  0  0  0
  2  1  1  0  0  0  0
  3  2  2  0  0  0  0
  5  1  1  0  0  0  0
  6  5  1  6  0  0  0
  7 27  1  6  0  0  0
  7  6  1  0  0  0  0
  8  7  1  6  0  0  0
  8 11  1  0  0  0  0
  9 14  1  6  0  0  0
  9 11  1  0  0  0  0
  9 10  1  0  0  0  0
  9 16  1  0  0  0  0
 10 12  1  0  0  0  0
 12 20  1  6  0  0  0
 13 22  1  1  0  0  0
 13  8  1  0  0  0  0
 13 12  1  0  0  0  0
 15 14  1  0  0  0  0
 16 17  2  0  0  0  0
 18 16  1  0  0  0  0
 19 18  1  0  0  0  0
 21 20  1  0  0  0  0
 22 24  1  0  0  0  0
 23 22  1  0  0  0  0
 25 23  1  0  0  0  0
 26 23  2  0  0  0  0
 27 28  1  0  0  0  0
 29  6  1  0  0  0  0
 30 29  1  0  0  0  0
 31 32  1  0  0  0  0
 33 32  1  0  0  0  0
 34 33  2  0  0  0  0
 35 33  1  0  0  0  0
 36 37  1  0  0  0  0
 36 34  1  0  0  0  0
 37 35  2  0  0  0  0
 38 40  1  0  0  0  0
 38 41  1  0  0  0  0
 38 36  1  0  0  0  0
 39 38  1  0  0  0  0
 41 43  1  0  0  0  0
 42 41  2  0  0  0  0
 43 45  1  0  0  0  0
 44 43  2  0  0  0  0
 44 46  1  0  0  0  0
 45 47  2  0  0  0  0
 45 48  1  0  0  0  0
 46 49  1  0  0  0  0
 46 47  1  0  0  0  0
 47 50  1  0  0  0  0
 48 51  2  0  0  0  0
 50 52  2  0  0  0  0
 51 52  1  0  0  0  0
 53 54  1  0  0  0  0
 55 54  1  0  0  0  0
 55 56  1  0  0  0  0
 57 56  1  0  0  0  0
 58 57  1  0  0  0  0
M  END
>  <REMARK>
 VINA RESULT:    -5.791      4.050      7.442
 INTER + INTRA:         -15.477
 INTER:                  -8.440
 INTRA:                  -7.037
 UNBOUND:                -4.777
 SMILES CC(=O)N[C@@H]1[C@@H](O)C[C@](O)(C(=O)O)O[C@H]1C(O)[C@H](O)CNC(=O)OCc1cn(C(C)(C)C(=O)c2c[nH]c3ccccc23)nn1
 SMILES IDX 21 1 22 2 23 3 20 5 18 6 16 7 15 8 9 9 8 10 14 11 6 12 5 13
 SMILES IDX 10 14 11 16 12 17 13 18 7 20 4 22 2 23 1 25 3 26 17 27 19 29
 SMILES IDX 24 31 25 32 26 33 27 34 44 35 28 36 43 37 29 38 30 39 31 40
 SMILES IDX 32 41 33 42 34 43 35 44 42 45 36 46 37 47 41 48 38 50 40 51
 SMILES IDX 39 52
 H PARENT 21 4 10 15 13 19 7 21 4 24 17 28 19 30 36 49
 Flexibility Score: inf
  4 active torsions:
  status: ('A' for Active; 'I' for Inactive)
    1  A    between atoms: CA   and  CB  
    2  A    between atoms: CB   and  CG  
    3  A    between atoms: CG   and  CD  
    4  A    between atoms: CD   and  CE  

>  <TORSDO>
F 17

>  <BEGIN_>
RES LYS A 131

$$$$
ligand_79_pose_19_2HRL.pdbqt
 OpenBabel07062320523D

  6  5  0  0  0  0  0  0  0  0999 V2000
   33.1930   34.6630    9.2900 C   0  0  0  0  0  0  0  0  0  0  0  0
   32.0600   35.3600   10.0340 C   0  0  0  0  0  0  0  0  0  0  0  0
   30.7260   34.6770    9.8770 C   0  0  0  0  0  0  0  0  0  0  0  0
   30.3320   34.5990    8.4100 C   0  0  0  0  0  0  0  0  0  0  0  0
   28.8230   34.6170    8.2620 C   0  0  0  0  0  0  0  0  0  0  0  0
   28.1660   33.8860    9.3810 N   0  0  0  0  0  0  0  0  0  0  0  0
  1  2  1  0  0  0  0
  3  2  1  0  0  0  0
  4  3  1  0  0  0  0
  5  4  1  0  0  0  0
  5  6  1  0  0  0  0
M  END
>  <EGIN_R>
ES LYS A 135

>  <REMARK>
  4 active torsions:
  status: ('A' for Active; 'I' for Inactive)
    5  A    between atoms: CA   and  CB  
    6  A    between atoms: CB   and  CG  
    7  A    between atoms: CG   and  CD  
    8  A    between atoms: CD   and  CE  

$$$$
