ligand_52_pose_15_2HRL.pdbqt
 OpenBabel07062320523D

 49 50  0  0  1  0  0  0  0  0999 V2000
   23.5900   30.0520   18.9200 C   0  0  0  0  0  0  0  0  0  0  0  0
   22.9550   30.9630   17.9350 C   0  0  2  0  0  0  0  0  0  0  0  0
   22.3090   30.2640   16.8000 C   0  0  2  0  0  0  0  0  0  0  0  0
   22.8270   30.5120   15.4270 C   0  0  2  0  0  0  0  0  0  0  0  0
   23.2400   32.0120   13.7780 C   0  0  2  0  0  0  0  0  0  0  0  0
   23.5400   30.9140   12.8210 C   0  0  0  0  0  0  0  0  0  0  0  0
   22.4490   31.6880   14.8640 O   0  0  0  0  0  0  0  0  0  0  0  0
   23.6410   29.5380   13.3810 C   0  0  1  0  0  0  0  0  0  0  0  0
   22.5670   29.3630   14.4930 C   0  0  1  0  0  0  0  0  0  0  0  0
   22.4720   32.9610   13.0300 O   0  0  0  0  0  0  0  0  0  0  0  0
   22.8330   33.8340   13.3090 H   0  0  0  0  0  0  0  0  0  0  0  0
   24.4500   32.7450   14.2160 C   0  0  0  0  0  0  0  0  0  0  0  0
   24.4800   33.9980   14.1370 O   0  0  0  0  0  0  0  0  0  0  0  0
   25.5950   32.1470   14.7270 O   0  0  0  0  0  0  0  0  0  0  0  0
   25.9260   31.3160   14.2240 H   0  0  0  0  0  0  0  0  0  0  0  0
   23.3170   28.5820   12.4170 O   0  0  0  0  0  0  0  0  0  0  0  0
   22.3360   28.4660   12.3860 H   0  0  0  0  0  0  0  0  0  0  0  0
   22.9150   28.1370   15.1590 N   0  0  0  0  0  0  0  0  0  0  0  0
   22.0630   27.0110   15.2360 C   0  0  0  0  0  0  0  0  0  0  0  0
   23.8600   28.0560   15.6190 H   0  0  0  0  0  0  0  0  0  0  0  0
   22.5140   25.7920   15.9450 C   0  0  0  0  0  0  0  0  0  0  0  0
   20.9320   27.0580   14.7030 O   0  0  0  0  0  0  0  0  0  0  0  0
   20.9350   30.1560   16.8980 O   0  0  0  0  0  0  0  0  0  0  0  0
   20.4710   30.8800   17.3470 H   0  0  0  0  0  0  0  0  0  0  0  0
   23.9390   31.8100   17.3670 O   0  0  0  0  0  0  0  0  0  0  0  0
   23.4700   32.4420   16.7860 H   0  0  0  0  0  0  0  0  0  0  0  0
   24.9690   29.7280   18.7070 N   0  0  0  0  0  0  0  0  0  0  0  0
   25.4610   28.6030   18.0570 C   0  0  0  0  0  0  0  0  0  0  0  0
   25.7000   30.4100   19.0800 H   0  0  0  0  0  0  0  0  0  0  0  0
   24.7050   27.7390   17.5920 O   0  0  0  0  0  0  0  0  0  0  0  0
   26.8340   28.3620   17.8800 O   0  0  0  0  0  0  0  0  0  0  0  0
   27.4640   28.6550   16.6530 C   0  0  0  0  0  0  0  0  0  0  0  0
   27.7870   30.0880   16.5320 C   0  0  0  0  0  0  0  0  0  0  0  0
   28.9220   30.5560   15.8890 C   0  0  0  0  0  0  0  0  0  0  0  0
   27.1450   31.1760   16.9600 N   0  0  0  0  0  0  0  0  0  0  0  0
   28.9280   31.8990   15.9500 N   0  0  0  0  0  0  0  0  0  0  0  0
   27.8500   32.2580   16.5980 N   0  0  0  0  0  0  0  0  0  0  0  0
   29.9160   32.7840   15.4120 C   0  0  0  0  0  0  0  0  0  0  0  0
   31.2010   32.8260   15.9240 C   0  0  0  0  0  0  0  0  0  0  0  0
   29.5940   33.6200   14.3620 C   0  0  0  0  0  0  0  0  0  0  0  0
   32.1310   33.7070   15.3670 C   0  0  0  0  0  0  0  0  0  0  0  0
   30.5200   34.4690   13.8380 N   0  0  0  0  0  0  0  0  0  0  0  0
   31.7760   34.5310   14.3140 C   0  0  0  0  0  0  0  0  0  0  0  0
   29.8670   25.5550   16.9770 C   0  0  0  0  0  0  0  0  0  0  0  0
   28.3450   25.7220   17.0260 C   0  0  0  0  0  0  0  0  0  0  0  0
   27.6020   24.3990   16.9260 C   0  0  0  0  0  0  0  0  0  0  0  0
   26.1510   24.5350   17.2960 C   0  0  0  0  0  0  0  0  0  0  0  0
   25.9280   23.9730   18.6970 C   0  0  0  0  0  0  0  0  0  0  0  0
   25.5270   25.0520   19.6310 N   0  0  0  0  0  0  0  0  0  0  0  0
  2  1  1  1  0  0  0
  3 23  1  6  0  0  0
  3  2  1  0  0  0  0
  4  3  1  1  0  0  0
  5 10  1  6  0  0  0
  5 12  1  0  0  0  0
  5  7  1  0  0  0  0
  6  8  1  0  0  0  0
  6  5  1  0  0  0  0
  7  4  1  0  0  0  0
  8 16  1  6  0  0  0
  8  9  1  0  0  0  0
  9 18  1  1  0  0  0
  9  4  1  0  0  0  0
 10 11  1  0  0  0  0
 12 14  1  0  0  0  0
 13 12  2  0  0  0  0
 15 14  1  0  0  0  0
 17 16  1  0  0  0  0
 18 19  1  0  0  0  0
 18 20  1  0  0  0  0
 19 21  1  0  0  0  0
 22 19  2  0  0  0  0
 23 24  1  0  0  0  0
 25  2  1  0  0  0  0
 26 25  1  0  0  0  0
 27  1  1  0  0  0  0
 27 29  1  0  0  0  0
 28 27  1  0  0  0  0
 30 28  2  0  0  0  0
 31 28  1  0  0  0  0
 32 31  1  0  0  0  0
 33 32  1  0  0  0  0
 33 35  1  0  0  0  0
 34 36  1  0  0  0  0
 34 33  2  0  0  0  0
 36 37  1  0  0  0  0
 37 35  2  0  0  0  0
 38 39  1  0  0  0  0
 38 36  1  0  0  0  0
 40 38  2  0  0  0  0
 41 39  2  0  0  0  0
 42 43  2  0  0  0  0
 42 40  1  0  0  0  0
 43 41  1  0  0  0  0
 44 45  1  0  0  0  0
 46 45  1  0  0  0  0
 46 47  1  0  0  0  0
 47 48  1  0  0  0  0
 48 49  1  0  0  0  0
M  END
>  <REMARK>
 VINA RESULT:    -4.814      4.450      7.535
 INTER + INTRA:         -13.496
 INTER:                  -7.060
 INTRA:                  -6.435
 UNBOUND:                -5.164
 SMILES CC(=O)N[C@@H]1[C@@H](O)C[C@](O)(C(=O)O)O[C@H]1C(O)[C@H](O)CNC(=O)OCc1cn(-c2cccnc2)nn1
 SMILES IDX 20 1 18 2 16 3 15 4 9 5 8 6 14 7 6 8 5 9 10 10 11 12 12 13
 SMILES IDX 13 14 7 16 4 18 2 19 1 21 3 22 17 23 19 25 21 27 22 28 23 30
 SMILES IDX 24 31 25 32 26 33 27 34 36 35 28 36 35 37 29 38 30 39 34 40
 SMILES IDX 31 41 33 42 32 43
 H PARENT 10 11 13 15 7 17 4 20 17 24 19 26 21 29
 Flexibility Score: inf
  4 active torsions:
  status: ('A' for Active; 'I' for Inactive)
    1  A    between atoms: CA   and  CB  
    2  A    between atoms: CB   and  CG  
    3  A    between atoms: CG   and  CD  
    4  A    between atoms: CD   and  CE  

>  <TORSDO>
F 15

>  <BEGIN_>
RES LYS A 131

$$$$
ligand_52_pose_15_2HRL.pdbqt
 OpenBabel07062320523D

  6  5  0  0  0  0  0  0  0  0999 V2000
   33.1930   34.6630    9.2900 C   0  0  0  0  0  0  0  0  0  0  0  0
   32.0600   35.3600   10.0340 C   0  0  0  0  0  0  0  0  0  0  0  0
   30.8200   35.5530    9.1990 C   0  0  0  0  0  0  0  0  0  0  0  0
   30.1010   34.2290    8.9930 C   0  0  0  0  0  0  0  0  0  0  0  0
   28.6630   34.4640    8.5700 C   0  0  0  0  0  0  0  0  0  0  0  0
   27.7180   33.7080    9.4390 N   0  0  0  0  0  0  0  0  0  0  0  0
  1  2  1  0  0  0  0
  3  2  1  0  0  0  0
  4  3  1  0  0  0  0
  5  4  1  0  0  0  0
  5  6  1  0  0  0  0
M  END
>  <EGIN_R>
ES LYS A 135

>  <REMARK>
  4 active torsions:
  status: ('A' for Active; 'I' for Inactive)
    5  A    between atoms: CA   and  CB  
    6  A    between atoms: CB   and  CG  
    7  A    between atoms: CG   and  CD  
    8  A    between atoms: CD   and  CE  

$$$$
