ligand_42_pose_6_2HRL.pdbqt
 OpenBabel07062320523D

 52 54  0  0  1  0  0  0  0  0999 V2000
   24.4620   36.1930   10.5860 C   0  0  0  0  0  0  0  0  0  0  0  0
   25.8010   36.0510    9.9420 C   0  0  2  0  0  0  0  0  0  0  0  0
   25.9330   36.9920    8.7330 C   0  0  1  0  0  0  0  0  0  0  0  0
   27.0830   36.5130    7.9240 C   0  0  2  0  0  0  0  0  0  0  0  0
   29.2530   35.8150    7.9590 C   0  0  2  0  0  0  0  0  0  0  0  0
   28.9150   35.5820    6.5020 C   0  0  0  0  0  0  0  0  0  0  0  0
   28.1790   36.2000    8.7220 O   0  0  0  0  0  0  0  0  0  0  0  0
   28.2940   36.8060    5.8550 C   0  0  1  0  0  0  0  0  0  0  0  0
   27.5730   37.5580    6.9220 C   0  0  1  0  0  0  0  0  0  0  0  0
   30.2910   36.7480    7.9750 O   0  0  0  0  0  0  0  0  0  0  0  0
   31.1100   36.2380    8.2190 H   0  0  0  0  0  0  0  0  0  0  0  0
   29.7390   34.5220    8.4950 C   0  0  0  0  0  0  0  0  0  0  0  0
   28.9310   33.7520    9.0660 O   0  0  0  0  0  0  0  0  0  0  0  0
   31.0590   34.1180    8.3940 O   0  0  0  0  0  0  0  0  0  0  0  0
   31.6250   33.8460    9.1900 H   0  0  0  0  0  0  0  0  0  0  0  0
   29.3740   37.5480    5.3290 O   0  0  0  0  0  0  0  0  0  0  0  0
   29.2370   37.7390    4.3830 H   0  0  0  0  0  0  0  0  0  0  0  0
   26.5540   38.4370    6.4780 N   0  0  0  0  0  0  0  0  0  0  0  0
   26.7190   39.7790    6.0410 C   0  0  0  0  0  0  0  0  0  0  0  0
   25.5760   38.0740    6.4650 H   0  0  0  0  0  0  0  0  0  0  0  0
   25.5720   40.6230    5.5910 C   0  0  0  0  0  0  0  0  0  0  0  0
   27.8810   40.2430    6.0460 O   0  0  0  0  0  0  0  0  0  0  0  0
   24.7500   36.9530    8.0470 O   0  0  0  0  0  0  0  0  0  0  0  0
   23.9600   37.3080    8.4680 H   0  0  0  0  0  0  0  0  0  0  0  0
   26.0280   34.7730    9.5070 O   0  0  0  0  0  0  0  0  0  0  0  0
   26.5620   34.1950   10.0930 H   0  0  0  0  0  0  0  0  0  0  0  0
   24.2250   35.1880   11.5620 N   0  0  0  0  0  0  0  0  0  0  0  0
   24.5600   35.3280   12.9190 C   0  0  0  0  0  0  0  0  0  0  0  0
   23.7710   34.2650   11.2860 H   0  0  0  0  0  0  0  0  0  0  0  0
   25.1060   36.3220   13.4240 O   0  0  0  0  0  0  0  0  0  0  0  0
   24.2660   34.2710   13.7990 O   0  0  0  0  0  0  0  0  0  0  0  0
   25.0860   33.1420   13.8110 C   0  0  0  0  0  0  0  0  0  0  0  0
   24.2890   31.9580   13.3990 C   0  0  0  0  0  0  0  0  0  0  0  0
   22.9350   31.9440   13.0820 C   0  0  0  0  0  0  0  0  0  0  0  0
   24.6950   30.6850   13.2470 N   0  0  0  0  0  0  0  0  0  0  0  0
   22.5620   30.6940   12.7550 N   0  0  0  0  0  0  0  0  0  0  0  0
   23.6570   29.9640   12.8670 N   0  0  0  0  0  0  0  0  0  0  0  0
   21.2550   30.2840   12.3720 C   0  0  0  0  0  0  0  0  0  0  0  0
   20.2310   31.2040   12.2750 C   0  0  0  0  0  0  0  0  0  0  0  0
   20.9420   28.9710   12.0840 C   0  0  0  0  0  0  0  0  0  0  0  0
   18.9430   30.8230   11.9020 C   0  0  0  0  0  0  0  0  0  0  0  0
   19.6620   28.5670   11.7090 C   0  0  0  0  0  0  0  0  0  0  0  0
   18.6570   29.5050   11.6190 C   0  0  0  0  0  0  0  0  0  0  0  0
   19.1060   27.3350   11.3740 O   0  0  0  0  0  0  0  0  0  0  0  0
   17.4980   28.8140   11.2260 O   0  0  0  0  0  0  0  0  0  0  0  0
   17.6970   27.4200   11.4880 C   0  0  0  0  0  0  0  0  0  0  0  0
   29.8670   25.5550   16.9770 C   0  0  0  0  0  0  0  0  0  0  0  0
   28.3450   25.7220   17.0260 C   0  0  0  0  0  0  0  0  0  0  0  0
   27.6020   24.4000   16.9150 C   0  0  0  0  0  0  0  0  0  0  0  0
   26.1890   24.5000   17.4190 C   0  0  0  0  0  0  0  0  0  0  0  0
   25.8780   23.3000   18.3070 C   0  0  0  0  0  0  0  0  0  0  0  0
   25.4220   23.7470   19.6440 N   0  0  0  0  0  0  0  0  0  0  0  0
  1 27  1  0  0  0  0
  2  1  1  6  0  0  0
  3 23  1  6  0  0  0
  3  2  1  0  0  0  0
  4  7  1  0  0  0  0
  4  3  1  1  0  0  0
  5 10  1  1  0  0  0
  5 12  1  0  0  0  0
  5  7  1  0  0  0  0
  6  5  1  0  0  0  0
  8 16  1  1  0  0  0
  8  6  1  0  0  0  0
  8  9  1  0  0  0  0
  9 18  1  6  0  0  0
  9  4  1  0  0  0  0
 10 11  1  0  0  0  0
 12 13  2  0  0  0  0
 14 12  1  0  0  0  0
 14 15  1  0  0  0  0
 17 16  1  0  0  0  0
 19 22  2  0  0  0  0
 19 18  1  0  0  0  0
 20 18  1  0  0  0  0
 21 19  1  0  0  0  0
 23 24  1  0  0  0  0
 25  2  1  0  0  0  0
 25 26  1  0  0  0  0
 27 28  1  0  0  0  0
 28 30  2  0  0  0  0
 28 31  1  0  0  0  0
 29 27  1  0  0  0  0
 31 32  1  0  0  0  0
 33 32  1  0  0  0  0
 34 33  2  0  0  0  0
 35 33  1  0  0  0  0
 36 37  1  0  0  0  0
 36 34  1  0  0  0  0
 37 35  2  0  0  0  0
 38 36  1  0  0  0  0
 39 38  1  0  0  0  0
 40 38  2  0  0  0  0
 41 39  2  0  0  0  0
 42 40  1  0  0  0  0
 43 42  2  0  0  0  0
 43 41  1  0  0  0  0
 44 46  1  0  0  0  0
 44 42  1  0  0  0  0
 45 46  1  0  0  0  0
 45 43  1  0  0  0  0
 47 48  1  0  0  0  0
 49 48  1  0  0  0  0
 49 50  1  0  0  0  0
 50 51  1  0  0  0  0
 51 52  1  0  0  0  0
M  END
>  <REMARK>
 VINA RESULT:    -5.714      8.355     13.287
 INTER + INTRA:         -14.438
 INTER:                 -10.863
 INTRA:                  -3.574
 UNBOUND:                -4.548
 SMILES CC(=O)N[C@@H]1[C@@H](O)C[C@](O)(C(=O)O)O[C@H]1C(O)[C@H](O)CNC(=O)OCc1cn(-c2ccc3c(c2)OCO3)nn1
 SMILES IDX 20 1 18 2 16 3 15 4 9 5 8 6 14 7 6 8 5 9 10 10 11 12 12 13
 SMILES IDX 13 14 7 16 4 18 2 19 1 21 3 22 17 23 19 25 21 27 22 28 23 30
 SMILES IDX 24 31 25 32 26 33 27 34 39 35 28 36 38 37 29 38 30 39 34 40
 SMILES IDX 31 41 33 42 32 43 35 44 37 45 36 46
 H PARENT 10 11 13 15 7 17 4 20 17 24 19 26 21 29
 Flexibility Score: inf
  4 active torsions:
  status: ('A' for Active; 'I' for Inactive)
    1  A    between atoms: CA   and  CB  
    2  A    between atoms: CB   and  CG  
    3  A    between atoms: CG   and  CD  
    4  A    between atoms: CD   and  CE  

>  <TORSDO>
F 15

>  <BEGIN_>
RES LYS A 131

$$$$
ligand_42_pose_6_2HRL.pdbqt
 OpenBabel07062320523D

  6  5  0  0  0  0  0  0  0  0999 V2000
   33.1930   34.6630    9.2900 C   0  0  0  0  0  0  0  0  0  0  0  0
   32.0600   35.3600   10.0340 C   0  0  0  0  0  0  0  0  0  0  0  0
   32.5190   36.1350   11.2420 C   0  0  0  0  0  0  0  0  0  0  0  0
   31.5190   35.9990   12.3790 C   0  0  0  0  0  0  0  0  0  0  0  0
   30.1450   35.6500   11.8410 C   0  0  0  0  0  0  0  0  0  0  0  0
   29.2180   36.8120   11.9430 N   0  0  0  0  0  0  0  0  0  0  0  0
  1  2  1  0  0  0  0
  2  3  1  0  0  0  0
  3  4  1  0  0  0  0
  5  6  1  0  0  0  0
  5  4  1  0  0  0  0
M  END
>  <EGIN_R>
ES LYS A 135

>  <REMARK>
  4 active torsions:
  status: ('A' for Active; 'I' for Inactive)
    5  A    between atoms: CA   and  CB  
    6  A    between atoms: CB   and  CG  
    7  A    between atoms: CG   and  CD  
    8  A    between atoms: CD   and  CE  

$$$$
