ligand_37_pose_2_2HRL.pdbqt
 OpenBabel07062320523D

 55 56  0  0  1  0  0  0  0  0999 V2000
   27.7740   37.8030   12.7220 O   0  0  0  0  0  0  0  0  0  0  0  0
   26.5800   37.2030   13.1870 C   0  0  0  0  0  0  0  0  0  0  0  0
   25.5170   36.9440   12.2960 N   0  0  0  0  0  0  0  0  0  0  0  0
   25.6840   37.2450   11.2840 H   0  0  0  0  0  0  0  0  0  0  0  0
   26.5520   36.9340   14.4020 O   0  0  0  0  0  0  0  0  0  0  0  0
   24.2910   36.3260   12.6900 C   0  0  0  0  0  0  0  0  0  0  0  0
   23.4220   35.9970   11.5230 C   0  0  2  0  0  0  0  0  0  0  0  0
   22.1800   36.8850   11.5280 C   0  0  2  0  0  0  0  0  0  0  0  0
   21.9950   37.6600   10.2610 C   0  0  2  0  0  0  0  0  0  0  0  0
   21.1580   35.9290    8.9220 C   0  0  2  0  0  0  0  0  0  0  0  0
   22.5070   35.8010    8.2900 C   0  0  0  0  0  0  0  0  0  0  0  0
   20.9230   37.1480    9.5100 O   0  0  0  0  0  0  0  0  0  0  0  0
   23.0710   37.1870    8.0510 C   0  0  1  0  0  0  0  0  0  0  0  0
   23.2160   37.8360    9.4190 C   0  0  1  0  0  0  0  0  0  0  0  0
   20.9410   34.8940    9.8030 O   0  0  0  0  0  0  0  0  0  0  0  0
   21.6940   34.7630   10.4430 H   0  0  0  0  0  0  0  0  0  0  0  0
   20.1230   35.8030    7.8320 C   0  0  0  0  0  0  0  0  0  0  0  0
   19.4670   36.8060    7.4500 O   0  0  0  0  0  0  0  0  0  0  0  0
   19.8520   34.5920    7.2120 O   0  0  0  0  0  0  0  0  0  0  0  0
   20.1390   33.6920    7.6280 H   0  0  0  0  0  0  0  0  0  0  0  0
   24.2760   37.1170    7.3810 O   0  0  0  0  0  0  0  0  0  0  0  0
   24.2000   36.7030    6.4850 H   0  0  0  0  0  0  0  0  0  0  0  0
   23.5870   39.2440    9.2420 N   0  0  0  0  0  0  0  0  0  0  0  0
   24.2790   39.9880   10.2430 C   0  0  0  0  0  0  0  0  0  0  0  0
   23.3480   39.7580    8.3540 H   0  0  0  0  0  0  0  0  0  0  0  0
   24.6300   41.4210   10.0040 C   0  0  0  0  0  0  0  0  0  0  0  0
   24.5910   39.4310   11.3220 O   0  0  0  0  0  0  0  0  0  0  0  0
   22.2840   37.7930   12.5880 O   0  0  0  0  0  0  0  0  0  0  0  0
   22.9560   37.4550   13.2390 H   0  0  0  0  0  0  0  0  0  0  0  0
   23.0370   34.6580   11.5850 O   0  0  0  0  0  0  0  0  0  0  0  0
   22.5210   34.3740   10.7750 H   0  0  0  0  0  0  0  0  0  0  0  0
   28.5810   37.0860   11.8110 C   0  0  0  0  0  0  0  0  0  0  0  0
   28.5660   37.6870   10.4640 C   0  0  0  0  0  0  0  0  0  0  0  0
   27.4900   38.0880    9.7080 C   0  0  0  0  0  0  0  0  0  0  0  0
   29.6500   37.9570    9.7190 N   0  0  0  0  0  0  0  0  0  0  0  0
   27.9390   38.5860    8.5320 N   0  0  0  0  0  0  0  0  0  0  0  0
   29.2400   38.4950    8.5660 N   0  0  0  0  0  0  0  0  0  0  0  0
   27.1170   39.1070    7.4720 C   0  0  1  0  0  0  0  0  0  0  0  0
   27.3650   40.5900    7.3020 C   0  0  0  0  0  0  0  0  0  0  0  0
   27.3640   38.3430    6.2410 C   0  0  0  0  0  0  0  0  0  0  0  0
   27.8240   38.9360    5.2200 O   0  0  0  0  0  0  0  0  0  0  0  0
   27.1140   36.9910    6.1420 O   0  0  0  0  0  0  0  0  0  0  0  0
   28.0600   35.9770    6.0120 C   0  0  0  0  0  0  0  0  0  0  0  0
   28.1630   35.2380    7.3010 C   0  0  0  0  0  0  0  0  0  0  0  0
   27.0280   34.9060    8.0060 C   0  0  0  0  0  0  0  0  0  0  0  0
   29.3910   34.8820    7.7900 C   0  0  0  0  0  0  0  0  0  0  0  0
   27.1180   34.2210    9.1940 C   0  0  0  0  0  0  0  0  0  0  0  0
   29.5110   34.2010    8.9690 C   0  0  0  0  0  0  0  0  0  0  0  0
   28.3750   33.8720    9.6690 C   0  0  0  0  0  0  0  0  0  0  0  0
   29.8670   25.5550   16.9770 C   0  0  0  0  0  0  0  0  0  0  0  0
   28.3450   25.7220   17.0260 C   0  0  0  0  0  0  0  0  0  0  0  0
   27.6020   24.4000   16.9150 C   0  0  0  0  0  0  0  0  0  0  0  0
   26.5960   24.2210   18.0190 C   0  0  0  0  0  0  0  0  0  0  0  0
   25.6300   25.4010   18.0230 C   0  0  0  0  0  0  0  0  0  0  0  0
   24.8180   25.4020   19.2630 N   0  0  0  0  0  0  0  0  0  0  0  0
  1  2  1  0  0  0  0
  2  5  2  0  0  0  0
  3  6  1  0  0  0  0
  3  2  1  0  0  0  0
  4  3  1  0  0  0  0
  7  8  1  0  0  0  0
  7 30  1  0  0  0  0
  7  6  1  1  0  0  0
  8 28  1  1  0  0  0
  9  8  1  1  0  0  0
 10 17  1  6  0  0  0
 10 12  1  0  0  0  0
 10 15  1  0  0  0  0
 11 10  1  0  0  0  0
 12  9  1  0  0  0  0
 13 21  1  1  0  0  0
 13 11  1  0  0  0  0
 13 14  1  0  0  0  0
 14 23  1  6  0  0  0
 14  9  1  0  0  0  0
 15 16  1  0  0  0  0
 18 17  2  0  0  0  0
 19 20  1  0  0  0  0
 19 17  1  0  0  0  0
 22 21  1  0  0  0  0
 23 24  1  0  0  0  0
 24 27  2  0  0  0  0
 25 23  1  0  0  0  0
 26 24  1  0  0  0  0
 28 29  1  0  0  0  0
 31 30  1  0  0  0  0
 32  1  1  0  0  0  0
 33 32  1  0  0  0  0
 34 33  2  0  0  0  0
 35 33  1  0  0  0  0
 36 37  1  0  0  0  0
 36 34  1  0  0  0  0
 37 35  2  0  0  0  0
 38 39  1  6  0  0  0
 38 36  1  0  0  0  0
 40 38  1  0  0  0  0
 41 40  2  0  0  0  0
 42 40  1  0  0  0  0
 43 42  1  0  0  0  0
 43 44  1  0  0  0  0
 44 46  2  0  0  0  0
 44 45  1  0  0  0  0
 45 47  2  0  0  0  0
 46 48  1  0  0  0  0
 47 49  1  0  0  0  0
 48 49  2  0  0  0  0
 50 51  1  0  0  0  0
 52 51  1  0  0  0  0
 52 53  1  0  0  0  0
 53 54  1  0  0  0  0
 54 55  1  0  0  0  0
M  END
>  <REMARK>
 VINA RESULT:    -5.841      1.800      2.963
 INTER + INTRA:         -16.586
 INTER:                 -10.593
 INTRA:                  -5.993
 UNBOUND:                -5.110
 SMILES CC(=O)N[C@@H]1[C@@H](O)C[C@](O)(C(=O)O)O[C@H]1C(O)[C@H](O)CNC(=O)OCc1cn([C@@H](C)C(=O)OCc2ccccc2)nn1
 SMILES IDX 24 1 22 2 21 3 23 5 20 6 18 7 16 8 15 9 9 10 8 11 14 12 6 13
 SMILES IDX 5 14 10 15 11 17 12 18 13 19 7 21 4 23 2 24 1 26 3 27 17 28
 SMILES IDX 19 30 25 32 26 33 27 34 42 35 28 36 41 37 29 38 30 39 31 40
 SMILES IDX 32 41 33 42 34 43 35 44 36 45 40 46 37 47 39 48 38 49
 H PARENT 21 4 10 16 13 20 7 22 4 25 17 29 19 31
 Flexibility Score: inf
  4 active torsions:
  status: ('A' for Active; 'I' for Inactive)
    1  A    between atoms: CA   and  CB  
    2  A    between atoms: CB   and  CG  
    3  A    between atoms: CG   and  CD  
    4  A    between atoms: CD   and  CE  

>  <TORSDO>
F 19

>  <BEGIN_>
RES LYS A 131

$$$$
ligand_37_pose_2_2HRL.pdbqt
 OpenBabel07062320523D

  6  5  0  0  0  0  0  0  0  0999 V2000
   33.1930   34.6630    9.2900 C   0  0  0  0  0  0  0  0  0  0  0  0
   32.0600   35.3600   10.0340 C   0  0  0  0  0  0  0  0  0  0  0  0
   32.5070   36.0650   11.2880 C   0  0  0  0  0  0  0  0  0  0  0  0
   31.8750   35.4280   12.5160 C   0  0  0  0  0  0  0  0  0  0  0  0
   32.8940   35.2970   13.6320 C   0  0  0  0  0  0  0  0  0  0  0  0
   32.3000   34.6340   14.8260 N   0  0  0  0  0  0  0  0  0  0  0  0
  1  2  1  0  0  0  0
  2  3  1  0  0  0  0
  3  4  1  0  0  0  0
  4  5  1  0  0  0  0
  5  6  1  0  0  0  0
M  END
>  <EGIN_R>
ES LYS A 135

>  <REMARK>
  4 active torsions:
  status: ('A' for Active; 'I' for Inactive)
    5  A    between atoms: CA   and  CB  
    6  A    between atoms: CB   and  CG  
    7  A    between atoms: CG   and  CD  
    8  A    between atoms: CD   and  CE  

$$$$
