ligand_26_pose_6_2HRL.pdbqt
 OpenBabel07062320523D

 54 55  0  0  1  0  0  0  0  0999 V2000
   30.4030   34.4350   19.2170 N   0  0  0  0  0  0  0  0  0  0  0  0
   30.9140   35.7650   19.2070 C   0  0  0  0  0  0  0  0  0  0  0  0
   30.2290   36.6720   19.7140 O   0  0  0  0  0  0  0  0  0  0  0  0
   31.0480   33.7160   18.7670 H   0  0  0  0  0  0  0  0  0  0  0  0
   29.1260   34.0540   19.7780 C   0  0  0  0  0  0  0  0  0  0  0  0
   28.0290   34.0490   18.7370 C   0  0  2  0  0  0  0  0  0  0  0  0
   28.3900   33.1910   17.5430 C   0  0  1  0  0  0  0  0  0  0  0  0
   27.2940   32.2480   17.1440 C   0  0  2  0  0  0  0  0  0  0  0  0
   28.0290   30.1220   17.7680 C   0  0  2  0  0  0  0  0  0  0  0  0
   28.2130   29.6950   16.3330 C   0  0  0  0  0  0  0  0  0  0  0  0
   27.1700   31.1610   17.9670 O   0  0  0  0  0  0  0  0  0  0  0  0
   28.4520   30.8470   15.4040 C   0  0  1  0  0  0  0  0  0  0  0  0
   27.3730   31.8710   15.6760 C   0  0  1  0  0  0  0  0  0  0  0  0
   29.2960   30.3070   18.3650 O   0  0  0  0  0  0  0  0  0  0  0  0
   29.9680   30.6070   17.7220 H   0  0  0  0  0  0  0  0  0  0  0  0
   27.4320   28.9270   18.4700 C   0  0  0  0  0  0  0  0  0  0  0  0
   26.9730   28.9670   19.6190 O   0  0  0  0  0  0  0  0  0  0  0  0
   27.4300   27.7430   17.7140 O   0  0  0  0  0  0  0  0  0  0  0  0
   28.2640   27.4300   17.2420 H   0  0  0  0  0  0  0  0  0  0  0  0
   29.7200   31.3680   15.5010 O   0  0  0  0  0  0  0  0  0  0  0  0
   30.3820   30.6370   15.5410 H   0  0  0  0  0  0  0  0  0  0  0  0
   26.1020   31.1900   15.3740 N   0  0  0  0  0  0  0  0  0  0  0  0
   25.1110   31.8790   14.6230 C   0  0  0  0  0  0  0  0  0  0  0  0
   25.9060   30.2220   15.6930 H   0  0  0  0  0  0  0  0  0  0  0  0
   23.8360   31.1770   14.3260 C   0  0  0  0  0  0  0  0  0  0  0  0
   25.3470   33.0450   14.2390 O   0  0  0  0  0  0  0  0  0  0  0  0
   28.7110   34.0660   16.5020 O   0  0  0  0  0  0  0  0  0  0  0  0
   28.3440   33.6970   15.6450 H   0  0  0  0  0  0  0  0  0  0  0  0
   27.7900   35.3760   18.3250 O   0  0  0  0  0  0  0  0  0  0  0  0
   28.0710   36.0300   19.0120 H   0  0  0  0  0  0  0  0  0  0  0  0
   32.1360   36.0890   18.6610 O   0  0  0  0  0  0  0  0  0  0  0  0
   32.9020   35.2640   17.8120 C   0  0  0  0  0  0  0  0  0  0  0  0
   32.2450   34.9060   16.5520 C   0  0  0  0  0  0  0  0  0  0  0  0
   32.0040   35.7740   15.4790 C   0  0  0  0  0  0  0  0  0  0  0  0
   31.7450   33.7090   16.1520 N   0  0  0  0  0  0  0  0  0  0  0  0
   31.3990   35.0940   14.5240 N   0  0  0  0  0  0  0  0  0  0  0  0
   31.2520   33.8690   14.9390 N   0  0  0  0  0  0  0  0  0  0  0  0
   30.9700   35.6600   13.2060 C   0  0  1  0  0  0  0  0  0  0  0  0
   32.2650   35.9900   12.5090 C   0  0  0  0  0  0  0  0  0  0  0  0
   30.2020   34.6210   12.5330 C   0  0  0  0  0  0  0  0  0  0  0  0
   28.7860   34.7400   12.3830 C   0  0  2  0  0  0  0  0  0  0  0  0
   28.1480   34.7220   13.5570 O   0  0  0  0  0  0  0  0  0  0  0  0
   27.9070   34.8710   11.2630 C   0  0  0  0  0  0  0  0  0  0  0  0
   28.1150   34.0330   10.1400 C   0  0  0  0  0  0  0  0  0  0  0  0
   26.8450   35.7370   11.1790 C   0  0  0  0  0  0  0  0  0  0  0  0
   27.2990   34.0940    9.0390 C   0  0  0  0  0  0  0  0  0  0  0  0
   26.0400   35.7710   10.0480 C   0  0  0  0  0  0  0  0  0  0  0  0
   26.2430   34.9690    8.9740 C   0  0  0  0  0  0  0  0  0  0  0  0
   29.8670   25.5550   16.9770 C   0  0  0  0  0  0  0  0  0  0  0  0
   28.3450   25.7220   17.0260 C   0  0  0  0  0  0  0  0  0  0  0  0
   27.5990   24.4770   16.5700 C   0  0  0  0  0  0  0  0  0  0  0  0
   26.9990   23.7220   17.7230 C   0  0  0  0  0  0  0  0  0  0  0  0
   25.8860   24.5550   18.3530 C   0  0  0  0  0  0  0  0  0  0  0  0
   24.8270   24.8430   17.3570 N   0  0  0  0  0  0  0  0  0  0  0  0
  1  5  1  0  0  0  0
  2  1  1  0  0  0  0
  2  3  2  0  0  0  0
  4  1  1  0  0  0  0
  6  5  1  1  0  0  0
  7 27  1  6  0  0  0
  7  6  1  0  0  0  0
  8  7  1  1  0  0  0
  8 11  1  0  0  0  0
  9 11  1  0  0  0  0
  9 14  1  1  0  0  0
  9 16  1  0  0  0  0
 10  9  1  0  0  0  0
 12 20  1  1  0  0  0
 12 13  1  0  0  0  0
 12 10  1  0  0  0  0
 13 22  1  1  0  0  0
 13  8  1  0  0  0  0
 15 14  1  0  0  0  0
 16 17  2  0  0  0  0
 18 16  1  0  0  0  0
 19 18  1  0  0  0  0
 20 21  1  0  0  0  0
 22 24  1  0  0  0  0
 23 22  1  0  0  0  0
 25 23  1  0  0  0  0
 26 23  2  0  0  0  0
 28 27  1  0  0  0  0
 29  6  1  0  0  0  0
 29 30  1  0  0  0  0
 31  2  1  0  0  0  0
 32 31  1  0  0  0  0
 33 32  1  0  0  0  0
 34 33  2  0  0  0  0
 35 33  1  0  0  0  0
 36 37  1  0  0  0  0
 36 34  1  0  0  0  0
 37 35  2  0  0  0  0
 38 39  1  6  0  0  0
 38 36  1  0  0  0  0
 40 38  1  0  0  0  0
 41 40  1  0  0  0  0
 41 42  1  6  0  0  0
 43 41  1  0  0  0  0
 44 43  2  0  0  0  0
 45 43  1  0  0  0  0
 46 44  1  0  0  0  0
 47 45  2  0  0  0  0
 48 46  2  0  0  0  0
 48 47  1  0  0  0  0
 49 50  1  0  0  0  0
 51 50  1  0  0  0  0
 51 52  1  0  0  0  0
 52 53  1  0  0  0  0
 54 53  1  0  0  0  0
M  END
>  <REMARK>
 VINA RESULT:    -4.771      3.046      6.942
 INTER + INTRA:         -16.028
 INTER:                  -9.751
 INTRA:                  -6.277
 UNBOUND:                -6.934
 SMILES CC(=O)N[C@@H]1[C@@H](O)C[C@](O)(C(=O)O)O[C@H]1C(O)[C@H](O)CNC(=O)OCc1cn(C(C)CC(=O)c2ccccc2)nn1
 SMILES IDX 21 1 22 2 23 3 20 5 18 6 16 7 15 8 9 9 8 10 14 11 6 12 5 13
 SMILES IDX 10 14 11 16 12 17 13 18 7 20 4 22 2 23 1 25 3 26 17 27 19 29
 SMILES IDX 24 31 25 32 26 33 27 34 41 35 28 36 40 37 29 38 30 39 31 40
 SMILES IDX 32 41 33 42 34 43 35 44 39 45 36 46 38 47 37 48
 H PARENT 21 4 10 15 13 19 7 21 4 24 17 28 19 30
 Flexibility Score: inf
  4 active torsions:
  status: ('A' for Active; 'I' for Inactive)
    1  A    between atoms: CA   and  CB  
    2  A    between atoms: CB   and  CG  
    3  A    between atoms: CG   and  CD  
    4  A    between atoms: CD   and  CE  

>  <TORSDO>
F 18

>  <BEGIN_>
RES LYS A 131

$$$$
ligand_26_pose_6_2HRL.pdbqt
 OpenBabel07062320523D

  6  5  0  0  0  0  0  0  0  0999 V2000
   33.1930   34.6630    9.2900 C   0  0  0  0  0  0  0  0  0  0  0  0
   32.0600   35.3600   10.0340 C   0  0  0  0  0  0  0  0  0  0  0  0
   30.8970   35.7300    9.1500 C   0  0  0  0  0  0  0  0  0  0  0  0
   30.4570   37.1620    9.4130 C   0  0  0  0  0  0  0  0  0  0  0  0
   29.1270   37.4420    8.7400 C   0  0  0  0  0  0  0  0  0  0  0  0
   29.0660   36.8170    7.3900 N   0  0  0  0  0  0  0  0  0  0  0  0
  1  2  1  0  0  0  0
  3  4  1  0  0  0  0
  3  2  1  0  0  0  0
  5  4  1  0  0  0  0
  6  5  1  0  0  0  0
M  END
>  <EGIN_R>
ES LYS A 135

>  <REMARK>
  4 active torsions:
  status: ('A' for Active; 'I' for Inactive)
    5  A    between atoms: CA   and  CB  
    6  A    between atoms: CB   and  CG  
    7  A    between atoms: CG   and  CD  
    8  A    between atoms: CD   and  CE  

$$$$
