ligand_25_pose_9_2HRL.pdbqt
 OpenBabel07062320523D

 56 59  0  0  1  0  0  0  0  0999 V2000
   24.9590   35.8140   12.3810 C   0  0  0  0  0  0  0  0  0  0  0  0
   24.8870   35.9570   10.9060 C   0  0  2  0  0  0  0  0  0  0  0  0
   26.2020   36.2750   10.2700 C   0  0  1  0  0  0  0  0  0  0  0  0
   26.3530   35.8690    8.8310 C   0  0  2  0  0  0  0  0  0  0  0  0
   28.6060   35.6120    8.2440 C   0  0  2  0  0  0  0  0  0  0  0  0
   28.3870   35.8260    6.7610 C   0  0  0  0  0  0  0  0  0  0  0  0
   27.4890   35.0580    8.7840 O   0  0  0  0  0  0  0  0  0  0  0  0
   27.1030   36.5430    6.5580 C   0  0  1  0  0  0  0  0  0  0  0  0
   26.4560   37.0210    7.8680 C   0  0  1  0  0  0  0  0  0  0  0  0
   29.0370   36.8010    8.7680 O   0  0  0  0  0  0  0  0  0  0  0  0
   28.7050   36.9490    9.6810 H   0  0  0  0  0  0  0  0  0  0  0  0
   29.7030   34.6020    8.3560 C   0  0  0  0  0  0  0  0  0  0  0  0
   29.5630   33.6260    9.1280 O   0  0  0  0  0  0  0  0  0  0  0  0
   30.8850   34.7000    7.6350 O   0  0  0  0  0  0  0  0  0  0  0  0
   31.0920   34.0310    6.8800 H   0  0  0  0  0  0  0  0  0  0  0  0
   27.1990   37.6480    5.7270 O   0  0  0  0  0  0  0  0  0  0  0  0
   27.9640   38.2310    5.9340 H   0  0  0  0  0  0  0  0  0  0  0  0
   25.1330   37.4440    7.4680 N   0  0  0  0  0  0  0  0  0  0  0  0
   24.4830   38.6190    7.9280 C   0  0  0  0  0  0  0  0  0  0  0  0
   24.6180   36.8440    6.7910 H   0  0  0  0  0  0  0  0  0  0  0  0
   23.1070   38.9900    7.4650 C   0  0  0  0  0  0  0  0  0  0  0  0
   25.1060   39.3470    8.7430 O   0  0  0  0  0  0  0  0  0  0  0  0
   26.6370   37.5810   10.4610 O   0  0  0  0  0  0  0  0  0  0  0  0
   26.9380   38.0380    9.6590 H   0  0  0  0  0  0  0  0  0  0  0  0
   24.0190   36.9960   10.5800 O   0  0  0  0  0  0  0  0  0  0  0  0
   24.4460   37.8740   10.5960 H   0  0  0  0  0  0  0  0  0  0  0  0
   24.7460   34.5120   12.8930 N   0  0  0  0  0  0  0  0  0  0  0  0
   25.6630   33.8210   13.7050 C   0  0  0  0  0  0  0  0  0  0  0  0
   23.8330   34.0010   12.6600 H   0  0  0  0  0  0  0  0  0  0  0  0
   26.7360   34.3080   14.0470 O   0  0  0  0  0  0  0  0  0  0  0  0
   25.3890   32.5220   14.1670 O   0  0  0  0  0  0  0  0  0  0  0  0
   25.4390   32.1600   15.5140 C   0  0  0  0  0  0  0  0  0  0  0  0
   26.7120   31.5100   15.9110 C   0  0  0  0  0  0  0  0  0  0  0  0
   27.8270   32.0600   16.4960 C   0  0  0  0  0  0  0  0  0  0  0  0
   26.9570   30.2100   15.7400 N   0  0  0  0  0  0  0  0  0  0  0  0
   28.7050   31.0760   16.6570 N   0  0  0  0  0  0  0  0  0  0  0  0
   28.1640   29.9680   16.1960 N   0  0  0  0  0  0  0  0  0  0  0  0
   30.0370   31.1680   17.2360 C   0  0  0  0  0  0  0  0  0  0  0  0
   29.9860   31.3420   18.6990 C   0  0  0  0  0  0  0  0  0  0  0  0
   30.7970   32.2980   16.7250 C   0  0  0  0  0  0  0  0  0  0  0  0
   29.3810   30.5440   19.6860 C   0  0  0  0  0  0  0  0  0  0  0  0
   30.6660   32.4860   19.0060 C   0  0  0  0  0  0  0  0  0  0  0  0
   31.1760   33.0890   17.7760 C   0  0  0  0  0  0  0  0  0  0  0  0
   31.1830   32.6890   15.4270 C   0  0  0  0  0  0  0  0  0  0  0  0
   29.4870   30.9420   20.9950 C   0  0  0  0  0  0  0  0  0  0  0  0
   30.7500   32.8570   20.3480 C   0  0  0  0  0  0  0  0  0  0  0  0
   31.9250   34.2610   17.6220 C   0  0  0  0  0  0  0  0  0  0  0  0
   31.9160   33.8330   15.2520 C   0  0  0  0  0  0  0  0  0  0  0  0
   30.1680   32.0930   21.3350 C   0  0  0  0  0  0  0  0  0  0  0  0
   32.2810   34.6090   16.3390 C   0  0  0  0  0  0  0  0  0  0  0  0
   29.8670   25.5550   16.9770 C   0  0  0  0  0  0  0  0  0  0  0  0
   28.3450   25.7220   17.0260 C   0  0  0  0  0  0  0  0  0  0  0  0
   27.6020   24.4000   16.9160 C   0  0  0  0  0  0  0  0  0  0  0  0
   26.4120   24.3410   17.8340 C   0  0  0  0  0  0  0  0  0  0  0  0
   26.3190   25.6380   18.6300 C   0  0  0  0  0  0  0  0  0  0  0  0
   25.5770   25.4180   19.8940 N   0  0  0  0  0  0  0  0  0  0  0  0
  1 27  1  0  0  0  0
  2  1  1  1  0  0  0
  3 23  1  6  0  0  0
  3  2  1  0  0  0  0
  4  3  1  1  0  0  0
  5 12  1  1  0  0  0
  5 10  1  0  0  0  0
  5  7  1  0  0  0  0
  6  5  1  0  0  0  0
  7  4  1  0  0  0  0
  8 16  1  6  0  0  0
  8  6  1  0  0  0  0
  8  9  1  0  0  0  0
  9 18  1  6  0  0  0
  9  4  1  0  0  0  0
 10 11  1  0  0  0  0
 12 13  2  0  0  0  0
 14 12  1  0  0  0  0
 15 14  1  0  0  0  0
 16 17  1  0  0  0  0
 18 19  1  0  0  0  0
 19 22  2  0  0  0  0
 20 18  1  0  0  0  0
 21 19  1  0  0  0  0
 24 23  1  0  0  0  0
 25 26  1  0  0  0  0
 25  2  1  0  0  0  0
 27 28  1  0  0  0  0
 28 30  2  0  0  0  0
 28 31  1  0  0  0  0
 29 27  1  0  0  0  0
 31 32  1  0  0  0  0
 32 33  1  0  0  0  0
 33 34  2  0  0  0  0
 34 36  1  0  0  0  0
 35 33  1  0  0  0  0
 35 37  2  0  0  0  0
 36 38  1  0  0  0  0
 37 36  1  0  0  0  0
 38 39  1  0  0  0  0
 39 42  2  0  0  0  0
 39 41  1  0  0  0  0
 40 38  1  0  0  0  0
 40 43  2  0  0  0  0
 41 45  2  0  0  0  0
 42 46  1  0  0  0  0
 43 42  1  0  0  0  0
 44 40  1  0  0  0  0
 45 49  1  0  0  0  0
 46 49  2  0  0  0  0
 47 43  1  0  0  0  0
 48 44  2  0  0  0  0
 48 50  1  0  0  0  0
 50 47  2  0  0  0  0
 51 52  1  0  0  0  0
 53 52  1  0  0  0  0
 53 54  1  0  0  0  0
 54 55  1  0  0  0  0
 55 56  1  0  0  0  0
M  END
>  <REMARK>
 VINA RESULT:    -6.560      3.287      8.448
 INTER + INTRA:         -15.931
 INTER:                 -12.077
 INTRA:                  -3.855
 UNBOUND:                -4.578
 SMILES CC(=O)N[C@@H]1[C@@H](O)C[C@](O)(C(=O)O)O[C@H]1C(O)[C@H](O)CNC(=O)OCc1cn(C2c3ccccc3-c3ccccc32)nn1
 SMILES IDX 20 1 18 2 16 3 15 4 9 5 8 6 14 7 6 8 5 9 10 10 11 12 12 13
 SMILES IDX 13 14 7 16 4 18 2 19 1 21 3 22 17 23 19 25 21 27 22 28 23 30
 SMILES IDX 24 31 25 32 26 33 27 34 43 35 28 36 42 37 29 38 30 39 41 40
 SMILES IDX 31 41 35 42 36 43 40 44 32 45 34 46 37 47 39 48 33 49 38 50
 H PARENT 10 11 13 15 7 17 4 20 17 24 19 26 21 29
 Flexibility Score: inf
  4 active torsions:
  status: ('A' for Active; 'I' for Inactive)
    1  A    between atoms: CA   and  CB  
    2  A    between atoms: CB   and  CG  
    3  A    between atoms: CG   and  CD  
    4  A    between atoms: CD   and  CE  

>  <TORSDO>
F 15

>  <BEGIN_>
RES LYS A 131

$$$$
ligand_25_pose_9_2HRL.pdbqt
 OpenBabel07062320523D

  6  5  0  0  0  0  0  0  0  0999 V2000
   33.1930   34.6630    9.2900 C   0  0  0  0  0  0  0  0  0  0  0  0
   32.0600   35.3600   10.0340 C   0  0  0  0  0  0  0  0  0  0  0  0
   32.5280   36.2000   11.1950 C   0  0  0  0  0  0  0  0  0  0  0  0
   31.7130   35.8930   12.4420 C   0  0  0  0  0  0  0  0  0  0  0  0
   30.4760   35.0910   12.0860 C   0  0  0  0  0  0  0  0  0  0  0  0
   29.2540   35.9400   12.1310 N   0  0  0  0  0  0  0  0  0  0  0  0
  1  2  1  0  0  0  0
  2  3  1  0  0  0  0
  3  4  1  0  0  0  0
  5  6  1  0  0  0  0
  5  4  1  0  0  0  0
M  END
>  <EGIN_R>
ES LYS A 135

>  <REMARK>
  4 active torsions:
  status: ('A' for Active; 'I' for Inactive)
    5  A    between atoms: CA   and  CB  
    6  A    between atoms: CB   and  CG  
    7  A    between atoms: CG   and  CD  
    8  A    between atoms: CD   and  CE  

$$$$
