ligand_32_pose_15_2HRL.pdbqt
 OpenBabel07062320523D

 49 49  0  0  1  0  0  0  0  0999 V2000
   29.6540   31.8590   17.7730 N   0  0  0  0  0  0  0  0  0  0  0  0
   29.6450   30.8600   18.7790 C   0  0  0  0  0  0  0  0  0  0  0  0
   30.7160   30.4860   19.3430 O   0  0  0  0  0  0  0  0  0  0  0  0
   28.7550   32.1400   17.3350 H   0  0  0  0  0  0  0  0  0  0  0  0
   30.8770   32.4920   17.3410 C   0  0  0  0  0  0  0  0  0  0  0  0
   30.8710   32.8990   15.8930 C   0  0  2  0  0  0  0  0  0  0  0  0
   29.4410   33.0420   15.3710 C   0  0  1  0  0  0  0  0  0  0  0  0
   29.4340   33.8930   14.1130 C   0  0  2  0  0  0  0  0  0  0  0  0
   30.6280   35.7570   13.3670 C   0  0  2  0  0  0  0  0  0  0  0  0
   29.5470   36.0430   12.3620 C   0  0  0  0  0  0  0  0  0  0  0  0
   30.6340   34.4600   13.8310 O   0  0  0  0  0  0  0  0  0  0  0  0
   28.2410   35.3870   12.6360 C   0  0  1  0  0  0  0  0  0  0  0  0
   28.2850   34.8660   14.0820 C   0  0  1  0  0  0  0  0  0  0  0  0
   30.5370   36.6940   14.3890 O   0  0  0  0  0  0  0  0  0  0  0  0
   30.8210   37.5610   13.9870 H   0  0  0  0  0  0  0  0  0  0  0  0
   31.9180   35.9710   12.6720 C   0  0  0  0  0  0  0  0  0  0  0  0
   32.2760   37.0710   12.1990 O   0  0  0  0  0  0  0  0  0  0  0  0
   32.7900   34.9060   12.5270 O   0  0  0  0  0  0  0  0  0  0  0  0
   33.2160   34.6490   11.6450 H   0  0  0  0  0  0  0  0  0  0  0  0
   27.1520   36.2340   12.4570 O   0  0  0  0  0  0  0  0  0  0  0  0
   26.3160   35.8610   12.8520 H   0  0  0  0  0  0  0  0  0  0  0  0
   27.0300   34.2270   14.4240 N   0  0  0  0  0  0  0  0  0  0  0  0
   25.9940   34.9660   15.0620 C   0  0  0  0  0  0  0  0  0  0  0  0
   26.8420   33.2170   14.2210 H   0  0  0  0  0  0  0  0  0  0  0  0
   24.6780   34.3460   15.4350 C   0  0  0  0  0  0  0  0  0  0  0  0
   26.1650   36.1970   15.3360 O   0  0  0  0  0  0  0  0  0  0  0  0
   28.9680   31.7700   15.0610 O   0  0  0  0  0  0  0  0  0  0  0  0
   28.4180   31.7610   14.2310 H   0  0  0  0  0  0  0  0  0  0  0  0
   31.5500   31.9060   15.1840 O   0  0  0  0  0  0  0  0  0  0  0  0
   31.0730   31.0470   15.3050 H   0  0  0  0  0  0  0  0  0  0  0  0
   28.4480   30.2910   19.1480 O   0  0  0  0  0  0  0  0  0  0  0  0
   27.2180   30.9940   19.1560 C   0  0  0  0  0  0  0  0  0  0  0  0
   26.5540   30.8900   17.8130 C   0  0  0  0  0  0  0  0  0  0  0  0
   25.6760   29.9240   17.3980 C   0  0  0  0  0  0  0  0  0  0  0  0
   26.7360   31.7480   16.7890 N   0  0  0  0  0  0  0  0  0  0  0  0
   25.3370   30.2180   16.1190 N   0  0  0  0  0  0  0  0  0  0  0  0
   25.9920   31.3210   15.7820 N   0  0  0  0  0  0  0  0  0  0  0  0
   24.4200   29.4320   15.3220 C   0  0  0  0  0  0  0  0  0  0  0  0
   23.3710   30.3820   14.7500 C   0  0  0  0  0  0  0  0  0  0  0  0
   23.7210   30.5860   13.3110 C   0  0  0  0  0  0  0  0  0  0  0  0
   23.2980   29.8590   12.4020 O   0  0  0  0  0  0  0  0  0  0  0  0
   24.5660   31.6570   13.0230 O   0  0  0  0  0  0  0  0  0  0  0  0
   25.3690   31.8400   13.6230 H   0  0  0  0  0  0  0  0  0  0  0  0
   29.8670   25.5550   16.9770 C   0  0  0  0  0  0  0  0  0  0  0  0
   28.3450   25.7220   17.0260 C   0  0  0  0  0  0  0  0  0  0  0  0
   27.6020   24.3980   16.9390 C   0  0  0  0  0  0  0  0  0  0  0  0
   26.6410   24.2110   18.0810 C   0  0  0  0  0  0  0  0  0  0  0  0
   26.4410   25.5420   18.7990 C   0  0  0  0  0  0  0  0  0  0  0  0
   25.3530   25.4320   19.8000 N   0  0  0  0  0  0  0  0  0  0  0  0
  1  2  1  0  0  0  0
  2 31  1  0  0  0  0
  2  3  2  0  0  0  0
  4  1  1  0  0  0  0
  5  1  1  0  0  0  0
  6  5  1  1  0  0  0
  7 27  1  6  0  0  0
  7  6  1  0  0  0  0
  8  7  1  1  0  0  0
  9 16  1  6  0  0  0
  9 11  1  0  0  0  0
  9 14  1  0  0  0  0
 10 12  1  0  0  0  0
 10  9  1  0  0  0  0
 11  8  1  0  0  0  0
 12 20  1  1  0  0  0
 12 13  1  0  0  0  0
 13  8  1  0  0  0  0
 13 22  1  6  0  0  0
 15 14  1  0  0  0  0
 17 16  2  0  0  0  0
 18 16  1  0  0  0  0
 19 18  1  0  0  0  0
 20 21  1  0  0  0  0
 22 23  1  0  0  0  0
 23 26  2  0  0  0  0
 23 25  1  0  0  0  0
 24 22  1  0  0  0  0
 28 27  1  0  0  0  0
 29 30  1  0  0  0  0
 29  6  1  0  0  0  0
 31 32  1  0  0  0  0
 33 32  1  0  0  0  0
 34 33  2  0  0  0  0
 35 33  1  0  0  0  0
 36 34  1  0  0  0  0
 37 36  1  0  0  0  0
 37 35  2  0  0  0  0
 38 36  1  0  0  0  0
 39 38  1  0  0  0  0
 40 39  1  0  0  0  0
 41 40  2  0  0  0  0
 42 40  1  0  0  0  0
 42 43  1  0  0  0  0
 44 45  1  0  0  0  0
 46 45  1  0  0  0  0
 46 47  1  0  0  0  0
 47 48  1  0  0  0  0
 48 49  1  0  0  0  0
M  END
>  <REMARK>
 VINA RESULT:    -4.198      3.543      7.836
 INTER + INTRA:         -13.522
 INTER:                  -7.544
 INTRA:                  -5.978
 UNBOUND:                -5.644
 SMILES CC(=O)N[C@@H]1[C@@H](O)C[C@](O)(C(=O)O)O[C@H]1C(O)[C@H](O)CNC(=O)OCc1cn(CCC(=O)O)nn1
 SMILES IDX 21 1 22 2 23 3 20 5 18 6 16 7 15 8 9 9 8 10 14 11 6 12 5 13
 SMILES IDX 10 14 11 16 12 17 13 18 7 20 4 22 2 23 1 25 3 26 17 27 19 29
 SMILES IDX 24 31 25 32 26 33 27 34 35 35 28 36 34 37 29 38 30 39 31 40
 SMILES IDX 32 41 33 42
 H PARENT 21 4 10 15 13 19 7 21 4 24 17 28 19 30 33 43
 Flexibility Score: inf
  4 active torsions:
  status: ('A' for Active; 'I' for Inactive)
    1  A    between atoms: CA   and  CB  
    2  A    between atoms: CB   and  CG  
    3  A    between atoms: CG   and  CD  
    4  A    between atoms: CD   and  CE  

>  <TORSDO>
F 18

>  <BEGIN_>
RES LYS A 131

$$$$
ligand_32_pose_15_2HRL.pdbqt
 OpenBabel07062320523D

  6  5  0  0  0  0  0  0  0  0999 V2000
   33.1930   34.6630    9.2900 C   0  0  0  0  0  0  0  0  0  0  0  0
   32.0600   35.3600   10.0340 C   0  0  0  0  0  0  0  0  0  0  0  0
   30.9090   35.7550    9.1450 C   0  0  0  0  0  0  0  0  0  0  0  0
   30.3300   34.5360    8.4430 C   0  0  0  0  0  0  0  0  0  0  0  0
   29.3130   33.8440    9.3310 C   0  0  0  0  0  0  0  0  0  0  0  0
   27.9380   34.3520    9.0690 N   0  0  0  0  0  0  0  0  0  0  0  0
  1  2  1  0  0  0  0
  3  2  1  0  0  0  0
  4  3  1  0  0  0  0
  4  5  1  0  0  0  0
  6  5  1  0  0  0  0
M  END
>  <EGIN_R>
ES LYS A 135

>  <REMARK>
  4 active torsions:
  status: ('A' for Active; 'I' for Inactive)
    5  A    between atoms: CA   and  CB  
    6  A    between atoms: CB   and  CG  
    7  A    between atoms: CG   and  CD  
    8  A    between atoms: CD   and  CE  

$$$$
