ligand_22_pose_12_2HRL.pdbqt
 OpenBabel07062320523D

 50 50  0  0  1  0  0  0  0  0999 V2000
   25.5690   38.9880    6.8310 N   0  0  0  0  0  0  0  0  0  0  0  0
   24.6330   38.4890    7.7670 C   0  0  0  0  0  0  0  0  0  0  0  0
   23.8090   39.2770    8.3480 O   0  0  0  0  0  0  0  0  0  0  0  0
   26.2310   38.3410    6.3630 H   0  0  0  0  0  0  0  0  0  0  0  0
   25.5620   40.4020    6.5560 C   0  0  0  0  0  0  0  0  0  0  0  0
   26.7630   41.1470    7.0180 C   0  0  2  0  0  0  0  0  0  0  0  0
   27.9210   41.0850    6.0530 C   0  0  1  0  0  0  0  0  0  0  0  0
   29.0720   40.3490    6.7490 C   0  0  2  0  0  0  0  0  0  0  0  0
   31.0480   40.8760    7.8560 C   0  0  2  0  0  0  0  0  0  0  0  0
   31.8060   39.8360    7.0610 C   0  0  0  0  0  0  0  0  0  0  0  0
   29.9230   41.3420    7.2210 O   0  0  0  0  0  0  0  0  0  0  0  0
   31.2450   39.7420    5.6720 C   0  0  1  0  0  0  0  0  0  0  0  0
   29.7620   39.4360    5.7580 C   0  0  1  0  0  0  0  0  0  0  0  0
   31.9140   41.9740    7.9820 O   0  0  0  0  0  0  0  0  0  0  0  0
   31.9190   42.2910    8.9040 H   0  0  0  0  0  0  0  0  0  0  0  0
   30.7480   40.3760    9.2160 C   0  0  0  0  0  0  0  0  0  0  0  0
   30.3820   41.1680   10.1070 O   0  0  0  0  0  0  0  0  0  0  0  0
   30.8590   39.0330    9.5460 O   0  0  0  0  0  0  0  0  0  0  0  0
   31.2580   38.7230   10.4210 H   0  0  0  0  0  0  0  0  0  0  0  0
   31.5110   40.8470    4.9010 O   0  0  0  0  0  0  0  0  0  0  0  0
   31.5510   40.6760    3.9350 H   0  0  0  0  0  0  0  0  0  0  0  0
   29.6490   38.0390    6.1700 N   0  0  0  0  0  0  0  0  0  0  0  0
   28.6030   37.2070    5.6830 C   0  0  0  0  0  0  0  0  0  0  0  0
   30.3400   37.6330    6.8340 H   0  0  0  0  0  0  0  0  0  0  0  0
   28.4720   35.7780    6.0950 C   0  0  0  0  0  0  0  0  0  0  0  0
   27.7850   37.7510    4.8760 O   0  0  0  0  0  0  0  0  0  0  0  0
   27.6350   40.5330    4.8360 O   0  0  0  0  0  0  0  0  0  0  0  0
   26.8580   39.9450    4.8910 H   0  0  0  0  0  0  0  0  0  0  0  0
   27.1560   40.5350    8.2360 O   0  0  0  0  0  0  0  0  0  0  0  0
   26.5740   39.7340    8.3840 H   0  0  0  0  0  0  0  0  0  0  0  0
   24.5340   37.1590    8.1200 O   0  0  0  0  0  0  0  0  0  0  0  0
   25.7060   36.3500    8.3300 C   0  0  0  0  0  0  0  0  0  0  0  0
   26.6070   37.0960    9.2460 C   0  0  0  0  0  0  0  0  0  0  0  0
   26.4030   37.2780   10.6040 C   0  0  0  0  0  0  0  0  0  0  0  0
   27.7640   37.7340    8.9850 N   0  0  0  0  0  0  0  0  0  0  0  0
   27.4200   38.0040   11.1210 N   0  0  0  0  0  0  0  0  0  0  0  0
   28.2270   38.2630   10.1090 N   0  0  0  0  0  0  0  0  0  0  0  0
   27.5610   38.3980   12.5080 C   0  0  0  0  0  0  0  0  0  0  0  0
   26.2510   38.9500   13.0300 C   0  0  0  0  0  0  0  0  0  0  0  0
   27.9740   37.1950   13.3310 C   0  0  0  0  0  0  0  0  0  0  0  0
   28.5780   39.4800   12.6550 C   0  0  0  0  0  0  0  0  0  0  0  0
   28.1660   40.6160   13.0010 O   0  0  0  0  0  0  0  0  0  0  0  0
   29.9230   39.2660   12.4280 O   0  0  0  0  0  0  0  0  0  0  0  0
   30.5690   39.9830   12.7440 H   0  0  0  0  0  0  0  0  0  0  0  0
   29.8670   25.5550   16.9770 C   0  0  0  0  0  0  0  0  0  0  0  0
   28.3450   25.7220   17.0260 C   0  0  0  0  0  0  0  0  0  0  0  0
   27.6020   24.4000   16.9150 C   0  0  0  0  0  0  0  0  0  0  0  0
   26.4100   24.3420   17.8300 C   0  0  0  0  0  0  0  0  0  0  0  0
   26.3670   25.6000   18.6910 C   0  0  0  0  0  0  0  0  0  0  0  0
   25.5890   25.3550   19.9290 N   0  0  0  0  0  0  0  0  0  0  0  0
  1  2  1  0  0  0  0
  2 31  1  0  0  0  0
  2  3  2  0  0  0  0
  4  1  1  0  0  0  0
  5  1  1  0  0  0  0
  6  5  1  6  0  0  0
  6 29  1  0  0  0  0
  7 27  1  6  0  0  0
  7  6  1  0  0  0  0
  8  7  1  6  0  0  0
  8 11  1  0  0  0  0
  9 14  1  1  0  0  0
  9 16  1  0  0  0  0
 10  9  1  0  0  0  0
 11  9  1  0  0  0  0
 12 20  1  1  0  0  0
 12 13  1  0  0  0  0
 12 10  1  0  0  0  0
 13 22  1  1  0  0  0
 13  8  1  0  0  0  0
 14 15  1  0  0  0  0
 16 18  1  0  0  0  0
 16 17  2  0  0  0  0
 18 19  1  0  0  0  0
 21 20  1  0  0  0  0
 22 24  1  0  0  0  0
 23 25  1  0  0  0  0
 23 22  1  0  0  0  0
 26 23  2  0  0  0  0
 27 28  1  0  0  0  0
 29 30  1  0  0  0  0
 31 32  1  0  0  0  0
 32 33  1  0  0  0  0
 33 34  2  0  0  0  0
 34 36  1  0  0  0  0
 35 33  1  0  0  0  0
 35 37  2  0  0  0  0
 36 38  1  0  0  0  0
 37 36  1  0  0  0  0
 38 41  1  0  0  0  0
 38 39  1  0  0  0  0
 38 40  1  0  0  0  0
 41 42  2  0  0  0  0
 43 41  1  0  0  0  0
 43 44  1  0  0  0  0
 45 46  1  0  0  0  0
 47 46  1  0  0  0  0
 47 48  1  0  0  0  0
 48 49  1  0  0  0  0
 49 50  1  0  0  0  0
M  END
>  <REMARK>
 VINA RESULT:    -4.853      4.216      6.694
 INTER + INTRA:         -14.403
 INTER:                  -6.624
 INTRA:                  -7.779
 UNBOUND:                -5.578
 SMILES CC(=O)N[C@@H]1[C@@H](O)C[C@](O)(C(=O)O)O[C@H]1C(O)[C@H](O)CNC(=O)OCc1cn(C(C)(C)C(=O)O)nn1
 SMILES IDX 21 1 22 2 23 3 20 5 18 6 16 7 15 8 9 9 8 10 14 11 6 12 5 13
 SMILES IDX 10 14 11 16 12 17 13 18 7 20 4 22 2 23 1 25 3 26 17 27 19 29
 SMILES IDX 24 31 25 32 26 33 27 34 36 35 28 36 35 37 29 38 30 39 31 40
 SMILES IDX 32 41 33 42 34 43
 H PARENT 21 4 10 15 13 19 7 21 4 24 17 28 19 30 34 44
 Flexibility Score: inf
  4 active torsions:
  status: ('A' for Active; 'I' for Inactive)
    1  A    between atoms: CA   and  CB  
    2  A    between atoms: CB   and  CG  
    3  A    between atoms: CG   and  CD  
    4  A    between atoms: CD   and  CE  

>  <TORSDO>
F 17

>  <BEGIN_>
RES LYS A 131

$$$$
ligand_22_pose_12_2HRL.pdbqt
 OpenBabel07062320523D

  6  5  0  0  0  0  0  0  0  0999 V2000
   33.1930   34.6630    9.2900 C   0  0  0  0  0  0  0  0  0  0  0  0
   32.0600   35.3600   10.0340 C   0  0  0  0  0  0  0  0  0  0  0  0
   30.7940   35.4810    9.2260 C   0  0  0  0  0  0  0  0  0  0  0  0
   30.1770   34.1120    8.9860 C   0  0  0  0  0  0  0  0  0  0  0  0
   28.7290   34.0940    9.4350 C   0  0  0  0  0  0  0  0  0  0  0  0
   28.6050   34.4900   10.8650 N   0  0  0  0  0  0  0  0  0  0  0  0
  1  2  1  0  0  0  0
  3  2  1  0  0  0  0
  4  3  1  0  0  0  0
  4  5  1  0  0  0  0
  5  6  1  0  0  0  0
M  END
>  <EGIN_R>
ES LYS A 135

>  <REMARK>
  4 active torsions:
  status: ('A' for Active; 'I' for Inactive)
    5  A    between atoms: CA   and  CB  
    6  A    between atoms: CB   and  CG  
    7  A    between atoms: CG   and  CD  
    8  A    between atoms: CD   and  CE  

$$$$
