ligand_60_pose_17_2HRL.pdbqt
 OpenBabel07062320523D

 55 56  0  0  1  0  0  0  0  0999 V2000
   23.6170   37.5250    8.4050 N   0  0  0  0  0  0  0  0  0  0  0  0
   22.7140   36.4770    8.6350 C   0  0  0  0  0  0  0  0  0  0  0  0
   21.5290   36.5650    8.2730 O   0  0  0  0  0  0  0  0  0  0  0  0
   24.6110   37.3870    8.7350 H   0  0  0  0  0  0  0  0  0  0  0  0
   23.2370   38.7310    7.7580 C   0  0  0  0  0  0  0  0  0  0  0  0
   24.3320   39.7910    7.7750 C   0  0  2  0  0  0  0  0  0  0  0  0
   25.5540   39.2000    8.4160 C   0  0  1  0  0  0  0  0  0  0  0  0
   26.7840   39.2780    7.5960 C   0  0  2  0  0  0  0  0  0  0  0  0
   27.4260   39.2070    5.3570 C   0  0  2  0  0  0  0  0  0  0  0  0
   28.6960   39.7050    6.0020 C   0  0  0  0  0  0  0  0  0  0  0  0
   26.4210   38.9800    6.2550 O   0  0  0  0  0  0  0  0  0  0  0  0
   29.1260   38.8800    7.1760 C   0  0  1  0  0  0  0  0  0  0  0  0
   27.9130   38.3700    7.9130 C   0  0  1  0  0  0  0  0  0  0  0  0
   27.6790   38.0740    4.5470 O   0  0  0  0  0  0  0  0  0  0  0  0
   27.6150   37.2410    5.0800 H   0  0  0  0  0  0  0  0  0  0  0  0
   26.9720   40.2680    4.4190 C   0  0  0  0  0  0  0  0  0  0  0  0
   27.8470   40.9200    3.7950 O   0  0  0  0  0  0  0  0  0  0  0  0
   25.6460   40.5830    4.1900 O   0  0  0  0  0  0  0  0  0  0  0  0
   25.2790   40.6420    3.2440 H   0  0  0  0  0  0  0  0  0  0  0  0
   29.9490   37.8590    6.7150 O   0  0  0  0  0  0  0  0  0  0  0  0
   30.1390   37.2800    7.4960 H   0  0  0  0  0  0  0  0  0  0  0  0
   28.1590   38.0510    9.2680 N   0  0  0  0  0  0  0  0  0  0  0  0
   28.9240   38.8810   10.1200 C   0  0  0  0  0  0  0  0  0  0  0  0
   27.7570   37.1890    9.6860 H   0  0  0  0  0  0  0  0  0  0  0  0
   29.1770   38.5260   11.5590 C   0  0  0  0  0  0  0  0  0  0  0  0
   29.3920   39.9300    9.6420 O   0  0  0  0  0  0  0  0  0  0  0  0
   25.6770   39.3980    9.7660 O   0  0  0  0  0  0  0  0  0  0  0  0
   25.7490   38.5270   10.2150 H   0  0  0  0  0  0  0  0  0  0  0  0
   23.8410   40.9260    8.3630 O   0  0  0  0  0  0  0  0  0  0  0  0
   24.2500   41.7360    7.9490 H   0  0  0  0  0  0  0  0  0  0  0  0
   23.0900   35.2880    9.2780 O   0  0  0  0  0  0  0  0  0  0  0  0
   23.3170   35.2530   10.6520 C   0  0  0  0  0  0  0  0  0  0  0  0
   24.7520   35.3890   10.9850 C   0  0  0  0  0  0  0  0  0  0  0  0
   25.5010   34.7580   11.9490 C   0  0  0  0  0  0  0  0  0  0  0  0
   25.6140   36.2160   10.3400 N   0  0  0  0  0  0  0  0  0  0  0  0
   26.7720   35.1940   11.8840 N   0  0  0  0  0  0  0  0  0  0  0  0
   26.8010   36.0730   10.9020 N   0  0  0  0  0  0  0  0  0  0  0  0
   27.8860   34.8160   12.6870 C   0  0  0  0  0  0  0  0  0  0  0  0
   27.7310   34.3900   13.9880 C   0  0  0  0  0  0  0  0  0  0  0  0
   29.1760   34.8630   12.1900 C   0  0  0  0  0  0  0  0  0  0  0  0
   28.7980   34.0210   14.7770 C   0  0  0  0  0  0  0  0  0  0  0  0
   30.2460   34.4950   12.9770 C   0  0  0  0  0  0  0  0  0  0  0  0
   30.1050   34.0670   14.2800 C   0  0  0  0  0  0  0  0  0  0  0  0
   31.4570   33.5990   15.2860 S   0  0  0  0  0  0  0  0  0  0  0  0
   31.2520   34.2380   16.6310 O   0  0  0  0  0  0  0  0  0  0  0  0
   31.3990   32.1050   15.5040 O   0  0  0  0  0  0  0  0  0  0  0  0
   32.9680   34.0620   14.6260 N   0  0  0  0  0  0  0  0  0  0  0  0
   32.9160   34.6740   13.8040 H   0  0  0  0  0  0  0  0  0  0  0  0
   33.6240   34.4240   15.3540 H   0  0  0  0  0  0  0  0  0  0  0  0
   29.8670   25.5550   16.9770 C   0  0  0  0  0  0  0  0  0  0  0  0
   28.3450   25.7220   17.0260 C   0  0  0  0  0  0  0  0  0  0  0  0
   27.6020   24.3990   16.9240 C   0  0  0  0  0  0  0  0  0  0  0  0
   26.6380   24.2010   18.0610 C   0  0  0  0  0  0  0  0  0  0  0  0
   26.3940   25.5360   18.7590 C   0  0  0  0  0  0  0  0  0  0  0  0
   25.5350   25.3480   19.9520 N   0  0  0  0  0  0  0  0  0  0  0  0
  1  2  1  0  0  0  0
  1  4  1  0  0  0  0
  2 31  1  0  0  0  0
  3  2  2  0  0  0  0
  5  1  1  0  0  0  0
  6  5  1  1  0  0  0
  6 29  1  0  0  0  0
  6  7  1  0  0  0  0
  7 27  1  1  0  0  0
  8 13  1  0  0  0  0
  8  7  1  1  0  0  0
  9 16  1  6  0  0  0
  9 10  1  0  0  0  0
  9 11  1  0  0  0  0
 10 12  1  0  0  0  0
 11  8  1  0  0  0  0
 12 20  1  6  0  0  0
 12 13  1  0  0  0  0
 13 22  1  1  0  0  0
 14 15  1  0  0  0  0
 14  9  1  0  0  0  0
 17 16  2  0  0  0  0
 18 16  1  0  0  0  0
 19 18  1  0  0  0  0
 20 21  1  0  0  0  0
 22 24  1  0  0  0  0
 22 23  1  0  0  0  0
 23 25  1  0  0  0  0
 26 23  2  0  0  0  0
 27 28  1  0  0  0  0
 30 29  1  0  0  0  0
 31 32  1  0  0  0  0
 32 33  1  0  0  0  0
 33 34  2  0  0  0  0
 35 37  2  0  0  0  0
 35 33  1  0  0  0  0
 36 34  1  0  0  0  0
 36 38  1  0  0  0  0
 37 36  1  0  0  0  0
 38 39  1  0  0  0  0
 39 41  2  0  0  0  0
 40 38  2  0  0  0  0
 40 42  1  0  0  0  0
 42 43  2  0  0  0  0
 43 41  1  0  0  0  0
 43 44  1  0  0  0  0
 44 46  2  0  0  0  0
 44 45  2  0  0  0  0
 47 44  1  0  0  0  0
 47 49  1  0  0  0  0
 48 47  1  0  0  0  0
 50 51  1  0  0  0  0
 52 51  1  0  0  0  0
 52 53  1  0  0  0  0
 53 54  1  0  0  0  0
 54 55  1  0  0  0  0
M  END
>  <REMARK>
 VINA RESULT:    -4.724      5.789     13.358
 INTER + INTRA:         -14.555
 INTER:                  -9.118
 INTRA:                  -5.437
 UNBOUND:                -5.964
 SMILES CC(=O)N[C@@H]1[C@@H](O)C[C@](O)(C(=O)O)O[C@H]1C(O)[C@H](O)CNC(=O)OCc1cn(-c2ccc(S(N)(=O)=O)cc2)nn1
 SMILES IDX 21 1 22 2 23 3 20 5 18 6 16 7 15 8 9 9 8 10 14 11 6 12 5 13
 SMILES IDX 10 14 11 16 12 17 13 18 7 20 4 22 2 23 1 25 3 26 17 27 19 29
 SMILES IDX 24 31 25 32 26 33 27 34 40 35 28 36 39 37 29 38 30 39 38 40
 SMILES IDX 31 41 37 42 32 43 33 44 35 45 36 46 34 47
 H PARENT 21 4 10 15 13 19 7 21 4 24 17 28 19 30 34 48 34 49
 Flexibility Score: inf
  4 active torsions:
  status: ('A' for Active; 'I' for Inactive)
    1  A    between atoms: CA   and  CB  
    2  A    between atoms: CB   and  CG  
    3  A    between atoms: CG   and  CD  
    4  A    between atoms: CD   and  CE  

>  <TORSDO>
F 17

>  <BEGIN_>
RES LYS A 131

$$$$
ligand_60_pose_17_2HRL.pdbqt
 OpenBabel07062320523D

  6  5  0  0  0  0  0  0  0  0999 V2000
   33.1930   34.6630    9.2900 C   0  0  0  0  0  0  0  0  0  0  0  0
   32.0600   35.3600   10.0340 C   0  0  0  0  0  0  0  0  0  0  0  0
   30.8090   35.5250    9.2100 C   0  0  0  0  0  0  0  0  0  0  0  0
   30.3180   34.1770    8.7050 C   0  0  0  0  0  0  0  0  0  0  0  0
   28.8020   34.1370    8.6830 C   0  0  0  0  0  0  0  0  0  0  0  0
   28.2590   34.9690    7.5740 N   0  0  0  0  0  0  0  0  0  0  0  0
  1  2  1  0  0  0  0
  3  2  1  0  0  0  0
  4  3  1  0  0  0  0
  5  4  1  0  0  0  0
  6  5  1  0  0  0  0
M  END
>  <EGIN_R>
ES LYS A 135

>  <REMARK>
  4 active torsions:
  status: ('A' for Active; 'I' for Inactive)
    5  A    between atoms: CA   and  CB  
    6  A    between atoms: CB   and  CG  
    7  A    between atoms: CG   and  CD  
    8  A    between atoms: CD   and  CE  

$$$$
