ligand_88_pose_4_2HRL.pdbqt
 OpenBabel07062320523D

 54 55  0  0  1  0  0  0  0  0999 V2000
   28.1050   37.1080   11.3370 N   0  0  0  0  0  0  0  0  0  0  0  0
   27.0610   37.7670   10.6280 C   0  0  0  0  0  0  0  0  0  0  0  0
   26.5500   38.7990   11.1210 O   0  0  0  0  0  0  0  0  0  0  0  0
   28.5090   36.2570   10.9080 H   0  0  0  0  0  0  0  0  0  0  0  0
   28.5910   37.5880   12.6020 C   0  0  0  0  0  0  0  0  0  0  0  0
   28.3530   36.5820   13.6910 C   0  0  2  0  0  0  0  0  0  0  0  0
   29.2750   35.3880   13.5760 C   0  0  1  0  0  0  0  0  0  0  0  0
   29.8250   35.0340   14.9700 C   0  0  2  0  0  0  0  0  0  0  0  0
   32.0920   34.6310   15.4570 C   0  0  2  0  0  0  0  0  0  0  0  0
   31.5690   33.6670   16.5340 C   0  0  0  0  0  0  0  0  0  0  0  0
   31.1010   35.4350   15.0060 O   0  0  0  0  0  0  0  0  0  0  0  0
   30.6080   32.7720   15.7670 C   0  0  1  0  0  0  0  0  0  0  0  0
   29.4760   33.6500   15.3190 C   0  0  1  0  0  0  0  0  0  0  0  0
   32.6800   33.8320   14.4980 O   0  0  0  0  0  0  0  0  0  0  0  0
   32.1360   33.0460   14.2430 H   0  0  0  0  0  0  0  0  0  0  0  0
   33.1420   35.4930   16.0550 C   0  0  0  0  0  0  0  0  0  0  0  0
   34.2880   35.4950   15.5390 O   0  0  0  0  0  0  0  0  0  0  0  0
   32.9020   36.2980   17.1640 O   0  0  0  0  0  0  0  0  0  0  0  0
   33.2550   37.2630   17.0920 H   0  0  0  0  0  0  0  0  0  0  0  0
   31.2540   32.1530   14.6990 O   0  0  0  0  0  0  0  0  0  0  0  0
   30.9000   31.2420   14.6280 H   0  0  0  0  0  0  0  0  0  0  0  0
   28.4390   33.5600   16.3460 N   0  0  0  0  0  0  0  0  0  0  0  0
   27.0620   33.4100   16.0500 C   0  0  0  0  0  0  0  0  0  0  0  0
   28.6880   33.6030   17.3740 H   0  0  0  0  0  0  0  0  0  0  0  0
   26.0360   33.3220   17.1330 C   0  0  0  0  0  0  0  0  0  0  0  0
   26.6890   33.3500   14.8500 O   0  0  0  0  0  0  0  0  0  0  0  0
   28.7150   34.3050   12.9450 O   0  0  0  0  0  0  0  0  0  0  0  0
   27.7600   34.4250   12.7600 H   0  0  0  0  0  0  0  0  0  0  0  0
   27.0160   36.2570   13.7570 O   0  0  0  0  0  0  0  0  0  0  0  0
   26.8300   35.3000   13.7270 H   0  0  0  0  0  0  0  0  0  0  0  0
   26.6160   37.2840    9.4220 O   0  0  0  0  0  0  0  0  0  0  0  0
   25.4100   36.5500    9.3060 C   0  0  0  0  0  0  0  0  0  0  0  0
   25.2910   35.6410   10.4760 C   0  0  0  0  0  0  0  0  0  0  0  0
   24.2090   35.5330   11.3410 C   0  0  0  0  0  0  0  0  0  0  0  0
   26.1760   34.7450   10.9490 N   0  0  0  0  0  0  0  0  0  0  0  0
   24.4760   34.6050   12.2710 N   0  0  0  0  0  0  0  0  0  0  0  0
   25.7040   34.1280   12.0090 N   0  0  0  0  0  0  0  0  0  0  0  0
   23.6370   34.1740   13.3550 C   0  0  0  0  0  0  0  0  0  0  0  0
   22.8440   32.9610   13.0290 C   0  0  0  0  0  0  0  0  0  0  0  0
   21.5190   33.1240   12.6750 C   0  0  0  0  0  0  0  0  0  0  0  0
   23.3620   31.6880   13.0620 C   0  0  0  0  0  0  0  0  0  0  0  0
   20.6920   32.0700   12.3550 C   0  0  0  0  0  0  0  0  0  0  0  0
   22.5440   30.6000   12.7420 C   0  0  0  0  0  0  0  0  0  0  0  0
   18.8720   32.3250   11.8710 Br  0  0  0  0  0  0  0  0  0  0  0  0
   21.2290   30.7900   12.3940 C   0  0  0  0  0  0  0  0  0  0  0  0
   23.3480   28.8590   12.8150 Br  0  0  0  0  0  0  0  0  0  0  0  0
   24.6850   31.4910   13.4110 O   0  0  0  0  0  0  0  0  0  0  0  0
   25.3740   32.1830   13.1480 H   0  0  0  0  0  0  0  0  0  0  0  0
   29.8670   25.5550   16.9770 C   0  0  0  0  0  0  0  0  0  0  0  0
   28.3450   25.7220   17.0260 C   0  0  0  0  0  0  0  0  0  0  0  0
   27.6030   24.3950   16.9810 C   0  0  0  0  0  0  0  0  0  0  0  0
   26.1420   24.5520   17.2970 C   0  0  0  0  0  0  0  0  0  0  0  0
   25.9840   25.1620   18.6860 C   0  0  0  0  0  0  0  0  0  0  0  0
   24.5720   25.0860   19.1290 N   0  0  0  0  0  0  0  0  0  0  0  0
  1  5  1  0  0  0  0
  2  3  2  0  0  0  0
  2  1  1  0  0  0  0
  4  1  1  0  0  0  0
  6  5  1  6  0  0  0
  6 29  1  0  0  0  0
  7 27  1  1  0  0  0
  7  6  1  0  0  0  0
  8  7  1  6  0  0  0
  8 11  1  0  0  0  0
  8 13  1  0  0  0  0
  9 14  1  6  0  0  0
  9 16  1  0  0  0  0
  9 10  1  0  0  0  0
 11  9  1  0  0  0  0
 12 20  1  6  0  0  0
 12 10  1  0  0  0  0
 13 12  1  0  0  0  0
 13 22  1  1  0  0  0
 15 14  1  0  0  0  0
 16 18  1  0  0  0  0
 17 16  2  0  0  0  0
 19 18  1  0  0  0  0
 21 20  1  0  0  0  0
 22 24  1  0  0  0  0
 23 22  1  0  0  0  0
 23 25  1  0  0  0  0
 26 23  2  0  0  0  0
 28 27  1  0  0  0  0
 30 29  1  0  0  0  0
 31  2  1  0  0  0  0
 32 31  1  0  0  0  0
 32 33  1  0  0  0  0
 33 35  1  0  0  0  0
 33 34  2  0  0  0  0
 34 36  1  0  0  0  0
 35 37  2  0  0  0  0
 36 38  1  0  0  0  0
 37 36  1  0  0  0  0
 39 41  1  0  0  0  0
 39 38  1  0  0  0  0
 40 39  2  0  0  0  0
 41 47  1  0  0  0  0
 42 45  2  0  0  0  0
 42 40  1  0  0  0  0
 43 46  1  0  0  0  0
 43 41  2  0  0  0  0
 44 42  1  0  0  0  0
 45 43  1  0  0  0  0
 48 47  1  0  0  0  0
 49 50  1  0  0  0  0
 51 50  1  0  0  0  0
 51 52  1  0  0  0  0
 52 53  1  0  0  0  0
 53 54  1  0  0  0  0
M  END
>  <REMARK>
 VINA RESULT:    -5.241      5.232      8.705
 INTER + INTRA:         -15.325
 INTER:                  -8.793
 INTRA:                  -6.532
 UNBOUND:                -5.794
 SMILES CC(=O)N[C@@H]1[C@@H](O)C[C@](O)(C(=O)O)O[C@H]1C(O)[C@H](O)CNC(=O)OCc1cn(Cc2cc(Br)cc(Br)c2O)nn1
 SMILES IDX 21 1 22 2 23 3 20 5 18 6 16 7 15 8 9 9 8 10 14 11 6 12 5 13
 SMILES IDX 10 14 11 16 12 17 13 18 7 20 4 22 2 23 1 25 3 26 17 27 19 29
 SMILES IDX 24 31 25 32 26 33 27 34 40 35 28 36 39 37 29 38 30 39 31 40
 SMILES IDX 37 41 32 42 35 43 33 44 34 45 36 46 38 47
 H PARENT 21 4 10 15 13 19 7 21 4 24 17 28 19 30 38 48
 Flexibility Score: inf
  4 active torsions:
  status: ('A' for Active; 'I' for Inactive)
    1  A    between atoms: CA   and  CB  
    2  A    between atoms: CB   and  CG  
    3  A    between atoms: CG   and  CD  
    4  A    between atoms: CD   and  CE  

>  <TORSDO>
F 17

>  <BEGIN_>
RES LYS A 131

$$$$
ligand_88_pose_4_2HRL.pdbqt
 OpenBabel07062320523D

  6  5  0  0  0  0  0  0  0  0999 V2000
   33.1930   34.6630    9.2900 C   0  0  0  0  0  0  0  0  0  0  0  0
   32.0600   35.3600   10.0340 C   0  0  0  0  0  0  0  0  0  0  0  0
   30.7690   34.5820   10.0310 C   0  0  0  0  0  0  0  0  0  0  0  0
   30.3830   34.1900    8.6140 C   0  0  0  0  0  0  0  0  0  0  0  0
   29.5940   35.3010    7.9490 C   0  0  0  0  0  0  0  0  0  0  0  0
   28.1710   34.9060    7.7530 N   0  0  0  0  0  0  0  0  0  0  0  0
  1  2  1  0  0  0  0
  3  2  1  0  0  0  0
  4  3  1  0  0  0  0
  5  4  1  0  0  0  0
  6  5  1  0  0  0  0
M  END
>  <EGIN_R>
ES LYS A 135

>  <REMARK>
  4 active torsions:
  status: ('A' for Active; 'I' for Inactive)
    5  A    between atoms: CA   and  CB  
    6  A    between atoms: CB   and  CG  
    7  A    between atoms: CG   and  CD  
    8  A    between atoms: CD   and  CE  

$$$$
