ligand_75_pose_6_2HRL.pdbqt
 OpenBabel07062320523D

 55 56  0  0  1  0  0  0  0  0999 V2000
   29.2180   33.1460   19.4410 N   0  0  0  0  0  0  0  0  0  0  0  0
   28.6640   32.4130   20.5160 C   0  0  0  0  0  0  0  0  0  0  0  0
   28.1770   32.9610   21.5260 O   0  0  0  0  0  0  0  0  0  0  0  0
   29.6140   32.5540   18.6320 H   0  0  0  0  0  0  0  0  0  0  0  0
   29.2930   34.5750   19.3380 C   0  0  0  0  0  0  0  0  0  0  0  0
   30.6950   35.0240   19.0750 C   0  0  2  0  0  0  0  0  0  0  0  0
   30.9400   35.4760   17.6480 C   0  0  2  0  0  0  0  0  0  0  0  0
   30.4440   34.4680   16.6770 C   0  0  2  0  0  0  0  0  0  0  0  0
   30.5420   32.3460   15.7720 C   0  0  2  0  0  0  0  0  0  0  0  0
   29.3450   32.8420   15.0100 C   0  0  0  0  0  0  0  0  0  0  0  0
   30.9610   33.2140   16.7620 O   0  0  0  0  0  0  0  0  0  0  0  0
   29.4590   34.2210   14.4710 C   0  0  1  0  0  0  0  0  0  0  0  0
   30.5150   34.9770   15.2390 C   0  0  1  0  0  0  0  0  0  0  0  0
   31.5550   32.0140   14.8740 O   0  0  0  0  0  0  0  0  0  0  0  0
   32.3060   31.5520   15.3050 H   0  0  0  0  0  0  0  0  0  0  0  0
   30.1340   31.0830   16.4490 C   0  0  0  0  0  0  0  0  0  0  0  0
   30.3830   30.9330   17.6930 O   0  0  0  0  0  0  0  0  0  0  0  0
   29.4900   30.0550   15.7750 O   0  0  0  0  0  0  0  0  0  0  0  0
   28.5170   29.8530   15.8930 H   0  0  0  0  0  0  0  0  0  0  0  0
   29.6860   34.2660   13.0990 O   0  0  0  0  0  0  0  0  0  0  0  0
   30.2410   33.5150   12.8330 H   0  0  0  0  0  0  0  0  0  0  0  0
   30.3630   36.3960   15.1450 N   0  0  0  0  0  0  0  0  0  0  0  0
   31.2030   37.2040   14.3350 C   0  0  0  0  0  0  0  0  0  0  0  0
   29.6040   36.9070   15.6870 H   0  0  0  0  0  0  0  0  0  0  0  0
   31.0070   38.6640   14.2700 C   0  0  0  0  0  0  0  0  0  0  0  0
   32.1280   36.6900   13.6580 O   0  0  0  0  0  0  0  0  0  0  0  0
   32.2520   35.8900   17.4460 O   0  0  0  0  0  0  0  0  0  0  0  0
   32.7930   35.5570   18.1950 H   0  0  0  0  0  0  0  0  0  0  0  0
   31.6260   34.0330   19.3920 O   0  0  0  0  0  0  0  0  0  0  0  0
   32.4980   34.2760   18.9760 H   0  0  0  0  0  0  0  0  0  0  0  0
   28.6370   31.0030   20.4930 O   0  0  0  0  0  0  0  0  0  0  0  0
   27.4200   30.3550   20.2980 C   0  0  0  0  0  0  0  0  0  0  0  0
   27.0810   30.1810   18.8650 C   0  0  0  0  0  0  0  0  0  0  0  0
   26.4030   31.0090   18.0040 C   0  0  0  0  0  0  0  0  0  0  0  0
   27.4100   29.1030   18.1330 N   0  0  0  0  0  0  0  0  0  0  0  0
   26.3320   30.4300   16.7790 N   0  0  0  0  0  0  0  0  0  0  0  0
   26.9550   29.2710   16.8900 N   0  0  0  0  0  0  0  0  0  0  0  0
   25.6990   31.0010   15.6320 C   0  0  0  0  0  0  0  0  0  0  0  0
   25.0240   30.2210   14.7310 C   0  0  0  0  0  0  0  0  0  0  0  0
   25.7610   32.3580   15.4120 C   0  0  0  0  0  0  0  0  0  0  0  0
   24.3920   30.7820   13.5860 C   0  0  0  0  0  0  0  0  0  0  0  0
   25.1780   32.9560   14.3350 C   0  0  0  0  0  0  0  0  0  0  0  0
   24.4890   32.1380   13.4220 C   0  0  0  0  0  0  0  0  0  0  0  0
   23.6710   29.9260   12.7100 C   0  0  0  0  0  0  0  0  0  0  0  0
   22.7420   29.0520   12.7620 C   0  0  0  0  0  0  0  0  0  0  0  0
   21.9350   28.4870   13.7690 C   0  0  0  0  0  0  0  0  0  0  0  0
   22.5110   27.6500   14.6310 O   0  0  0  0  0  0  0  0  0  0  0  0
   20.6030   28.6210   14.0680 O   0  0  0  0  0  0  0  0  0  0  0  0
   20.2080   29.4390   14.5050 H   0  0  0  0  0  0  0  0  0  0  0  0
   29.8670   25.5550   16.9770 C   0  0  0  0  0  0  0  0  0  0  0  0
   28.3450   25.7220   17.0260 C   0  0  0  0  0  0  0  0  0  0  0  0
   27.6020   24.3990   16.9270 C   0  0  0  0  0  0  0  0  0  0  0  0
   26.6320   24.2080   18.0600 C   0  0  0  0  0  0  0  0  0  0  0  0
   26.1780   25.5690   18.5760 C   0  0  0  0  0  0  0  0  0  0  0  0
   24.9030   25.9690   17.9340 N   0  0  0  0  0  0  0  0  0  0  0  0
  1  2  1  0  0  0  0
  2  3  2  0  0  0  0
  4  1  1  0  0  0  0
  5  1  1  0  0  0  0
  6  5  1  6  0  0  0
  6 29  1  0  0  0  0
  7 27  1  1  0  0  0
  7  6  1  0  0  0  0
  8 11  1  0  0  0  0
  8  7  1  1  0  0  0
  9 14  1  6  0  0  0
  9 16  1  0  0  0  0
  9 11  1  0  0  0  0
 10  9  1  0  0  0  0
 12 20  1  6  0  0  0
 12 10  1  0  0  0  0
 12 13  1  0  0  0  0
 13 22  1  1  0  0  0
 13  8  1  0  0  0  0
 14 15  1  0  0  0  0
 16 17  2  0  0  0  0
 18 19  1  0  0  0  0
 18 16  1  0  0  0  0
 21 20  1  0  0  0  0
 22 24  1  0  0  0  0
 23 22  1  0  0  0  0
 25 23  1  0  0  0  0
 26 23  2  0  0  0  0
 27 28  1  0  0  0  0
 30 29  1  0  0  0  0
 31  2  1  0  0  0  0
 32 31  1  0  0  0  0
 33 32  1  0  0  0  0
 34 33  2  0  0  0  0
 35 33  1  0  0  0  0
 36 37  1  0  0  0  0
 36 34  1  0  0  0  0
 37 35  2  0  0  0  0
 38 36  1  0  0  0  0
 39 38  2  0  0  0  0
 40 38  1  0  0  0  0
 41 39  1  0  0  0  0
 42 40  2  0  0  0  0
 43 41  2  0  0  0  0
 43 42  1  0  0  0  0
 44 45  2  0  0  0  0
 44 41  1  0  0  0  0
 45 46  1  0  0  0  0
 46 48  1  0  0  0  0
 46 47  2  0  0  0  0
 48 49  1  0  0  0  0
 50 51  1  0  0  0  0
 52 51  1  0  0  0  0
 52 53  1  0  0  0  0
 53 54  1  0  0  0  0
 55 54  1  0  0  0  0
M  END
>  <REMARK>
 VINA RESULT:    -5.060      6.938     11.578
 INTER + INTRA:         -15.815
 INTER:                  -8.971
 INTRA:                  -6.844
 UNBOUND:                -6.317
 SMILES CC(=O)N[C@@H]1[C@@H](O)C[C@](O)(C(=O)O)O[C@H]1C(O)[C@H](O)CNC(=O)OCc1cn(-c2cccc(C=CC(=O)O)c2)nn1
 SMILES IDX 21 1 22 2 23 3 20 5 18 6 16 7 15 8 9 9 8 10 14 11 6 12 5 13
 SMILES IDX 10 14 11 16 12 17 13 18 7 20 4 22 2 23 1 25 3 26 17 27 19 29
 SMILES IDX 24 31 25 32 26 33 27 34 41 35 28 36 40 37 29 38 39 39 30 40
 SMILES IDX 33 41 31 42 32 43 34 44 35 45 36 46 37 47 38 48
 H PARENT 21 4 10 15 13 19 7 21 4 24 17 28 19 30 38 49
 Flexibility Score: inf
  4 active torsions:
  status: ('A' for Active; 'I' for Inactive)
    1  A    between atoms: CA   and  CB  
    2  A    between atoms: CB   and  CG  
    3  A    between atoms: CG   and  CD  
    4  A    between atoms: CD   and  CE  

>  <TORSDO>
F 18

>  <BEGIN_>
RES LYS A 131

$$$$
ligand_75_pose_6_2HRL.pdbqt
 OpenBabel07062320523D

  6  5  0  0  0  0  0  0  0  0999 V2000
   33.1930   34.6630    9.2900 C   0  0  0  0  0  0  0  0  0  0  0  0
   32.0600   35.3600   10.0340 C   0  0  0  0  0  0  0  0  0  0  0  0
   30.7870   35.4620    9.2340 C   0  0  0  0  0  0  0  0  0  0  0  0
   30.2210   34.0800    8.9470 C   0  0  0  0  0  0  0  0  0  0  0  0
   28.7180   34.0680    9.1480 C   0  0  0  0  0  0  0  0  0  0  0  0
   28.0230   34.7880    8.0450 N   0  0  0  0  0  0  0  0  0  0  0  0
  1  2  1  0  0  0  0
  3  2  1  0  0  0  0
  4  5  1  0  0  0  0
  4  3  1  0  0  0  0
  6  5  1  0  0  0  0
M  END
>  <EGIN_R>
ES LYS A 135

>  <REMARK>
  4 active torsions:
  status: ('A' for Active; 'I' for Inactive)
    5  A    between atoms: CA   and  CB  
    6  A    between atoms: CB   and  CG  
    7  A    between atoms: CG   and  CD  
    8  A    between atoms: CD   and  CE  

$$$$
