ligand_35_pose_1_2HRL.pdbqt
 OpenBabel07062320523D

 49 49  0  0  1  0  0  0  0  0999 V2000
   25.5730   36.9650    9.2340 N   0  0  0  0  0  0  0  0  0  0  0  0
   26.8240   37.6140    9.3400 C   0  0  0  0  0  0  0  0  0  0  0  0
   27.3240   38.2480    8.3770 O   0  0  0  0  0  0  0  0  0  0  0  0
   25.2040   36.4540   10.0580 H   0  0  0  0  0  0  0  0  0  0  0  0
   24.8020   36.9920    8.0250 C   0  0  0  0  0  0  0  0  0  0  0  0
   23.6990   38.0550    8.0460 C   0  0  2  0  0  0  0  0  0  0  0  0
   22.4060   37.3550    7.8110 C   0  0  2  0  0  0  0  0  0  0  0  0
   22.1360   36.1520    8.6500 C   0  0  2  0  0  0  0  0  0  0  0  0
   19.9120   35.7810    8.0420 C   0  0  2  0  0  0  0  0  0  0  0  0
   19.5550   36.7970    9.0520 C   0  0  0  0  0  0  0  0  0  0  0  0
   21.2160   35.3690    7.9690 O   0  0  0  0  0  0  0  0  0  0  0  0
   20.3800   36.8520   10.2890 C   0  0  1  0  0  0  0  0  0  0  0  0
   21.7870   36.3710   10.0720 C   0  0  1  0  0  0  0  0  0  0  0  0
   19.6380   36.3690    6.7780 O   0  0  0  0  0  0  0  0  0  0  0  0
   20.1540   37.2010    6.7320 H   0  0  0  0  0  0  0  0  0  0  0  0
   18.9890   34.6200    8.1620 C   0  0  0  0  0  0  0  0  0  0  0  0
   18.7310   34.0850    9.2740 O   0  0  0  0  0  0  0  0  0  0  0  0
   18.3740   34.0830    7.0440 O   0  0  0  0  0  0  0  0  0  0  0  0
   17.8640   34.6370    6.3650 H   0  0  0  0  0  0  0  0  0  0  0  0
   20.3550   38.1820   10.7500 O   0  0  0  0  0  0  0  0  0  0  0  0
   19.4130   38.4740   10.6860 H   0  0  0  0  0  0  0  0  0  0  0  0
   21.9370   35.0620   10.7410 N   0  0  0  0  0  0  0  0  0  0  0  0
   23.0460   34.7880   11.5710 C   0  0  0  0  0  0  0  0  0  0  0  0
   21.2410   34.3030   10.6260 H   0  0  0  0  0  0  0  0  0  0  0  0
   23.2380   33.4970   12.2580 C   0  0  0  0  0  0  0  0  0  0  0  0
   23.9380   35.6820   11.7520 O   0  0  0  0  0  0  0  0  0  0  0  0
   22.5010   36.8460    6.4750 O   0  0  0  0  0  0  0  0  0  0  0  0
   21.6270   36.4060    6.3210 H   0  0  0  0  0  0  0  0  0  0  0  0
   24.0140   38.9230    7.0080 O   0  0  0  0  0  0  0  0  0  0  0  0
   24.9520   39.2120    7.1420 H   0  0  0  0  0  0  0  0  0  0  0  0
   27.5610   37.5740   10.5400 O   0  0  0  0  0  0  0  0  0  0  0  0
   27.3260   36.5580   11.4980 C   0  0  0  0  0  0  0  0  0  0  0  0
   28.5990   36.0660   12.0820 C   0  0  0  0  0  0  0  0  0  0  0  0
   29.6390   36.8560   12.5780 C   0  0  0  0  0  0  0  0  0  0  0  0
   29.0230   34.7960   12.2610 N   0  0  0  0  0  0  0  0  0  0  0  0
   30.6150   36.0590   13.0200 N   0  0  0  0  0  0  0  0  0  0  0  0
   30.2380   34.8200   12.8270 N   0  0  0  0  0  0  0  0  0  0  0  0
   31.8880   36.4740   13.6190 C   0  0  1  0  0  0  0  0  0  0  0  0
   31.6410   37.0490   15.0040 C   0  0  0  0  0  0  0  0  0  0  0  0
   32.8470   35.3730   13.6850 C   0  0  0  0  0  0  0  0  0  0  0  0
   33.1780   34.8970   14.7940 O   0  0  0  0  0  0  0  0  0  0  0  0
   33.4410   34.7950   12.5640 O   0  0  0  0  0  0  0  0  0  0  0  0
   33.5520   35.3180   11.7020 H   0  0  0  0  0  0  0  0  0  0  0  0
   29.8670   25.5550   16.9770 C   0  0  0  0  0  0  0  0  0  0  0  0
   28.3450   25.7220   17.0260 C   0  0  0  0  0  0  0  0  0  0  0  0
   27.6020   24.4000   16.9160 C   0  0  0  0  0  0  0  0  0  0  0  0
   26.6400   24.1940   18.0530 C   0  0  0  0  0  0  0  0  0  0  0  0
   25.9020   25.4980   18.3380 C   0  0  0  0  0  0  0  0  0  0  0  0
   25.9060   25.7900   19.7910 N   0  0  0  0  0  0  0  0  0  0  0  0
  1  2  1  0  0  0  0
  1  4  1  0  0  0  0
  2 31  1  0  0  0  0
  3  2  2  0  0  0  0
  5  1  1  0  0  0  0
  6  5  1  6  0  0  0
  7 27  1  6  0  0  0
  7  6  1  0  0  0  0
  8  7  1  6  0  0  0
  8 13  1  0  0  0  0
  9 14  1  6  0  0  0
  9 16  1  0  0  0  0
  9 10  1  0  0  0  0
 10 12  1  0  0  0  0
 11  9  1  0  0  0  0
 11  8  1  0  0  0  0
 12 20  1  6  0  0  0
 13 12  1  0  0  0  0
 13 22  1  1  0  0  0
 15 14  1  0  0  0  0
 16 17  2  0  0  0  0
 18 16  1  0  0  0  0
 19 18  1  0  0  0  0
 21 20  1  0  0  0  0
 22 23  1  0  0  0  0
 23 26  2  0  0  0  0
 23 25  1  0  0  0  0
 24 22  1  0  0  0  0
 28 27  1  0  0  0  0
 29 30  1  0  0  0  0
 29  6  1  0  0  0  0
 31 32  1  0  0  0  0
 32 33  1  0  0  0  0
 33 35  1  0  0  0  0
 33 34  2  0  0  0  0
 34 36  1  0  0  0  0
 35 37  2  0  0  0  0
 36 38  1  0  0  0  0
 37 36  1  0  0  0  0
 38 40  1  0  0  0  0
 38 39  1  1  0  0  0
 40 41  2  0  0  0  0
 42 40  1  0  0  0  0
 43 42  1  0  0  0  0
 44 45  1  0  0  0  0
 46 45  1  0  0  0  0
 46 47  1  0  0  0  0
 47 48  1  0  0  0  0
 48 49  1  0  0  0  0
M  END
>  <REMARK>
 VINA RESULT:    -5.230      5.585     10.273
 INTER + INTRA:         -14.234
 INTER:                  -9.498
 INTRA:                  -4.736
 UNBOUND:                -4.724
 SMILES CC(=O)N[C@@H]1[C@@H](O)C[C@](O)(C(=O)O)O[C@H]1C(O)[C@H](O)CNC(=O)OCc1cn([C@@H](C)C(=O)O)nn1
 SMILES IDX 21 1 22 2 23 3 20 5 18 6 16 7 15 8 9 9 8 10 14 11 6 12 5 13
 SMILES IDX 10 14 11 16 12 17 13 18 7 20 4 22 2 23 1 25 3 26 17 27 19 29
 SMILES IDX 24 31 25 32 26 33 27 34 35 35 28 36 34 37 29 38 30 39 31 40
 SMILES IDX 32 41 33 42
 H PARENT 21 4 10 15 13 19 7 21 4 24 17 28 19 30 33 43
 Flexibility Score: inf
  4 active torsions:
  status: ('A' for Active; 'I' for Inactive)
    1  A    between atoms: CA   and  CB  
    2  A    between atoms: CB   and  CG  
    3  A    between atoms: CG   and  CD  
    4  A    between atoms: CD   and  CE  

>  <TORSDO>
F 17

>  <BEGIN_>
RES LYS A 131

$$$$
ligand_35_pose_1_2HRL.pdbqt
 OpenBabel07062320523D

  6  5  0  0  0  0  0  0  0  0999 V2000
   33.1930   34.6630    9.2900 C   0  0  0  0  0  0  0  0  0  0  0  0
   32.0600   35.3600   10.0340 C   0  0  0  0  0  0  0  0  0  0  0  0
   30.8340   35.5880    9.1880 C   0  0  0  0  0  0  0  0  0  0  0  0
   30.1580   34.2670    8.8550 C   0  0  0  0  0  0  0  0  0  0  0  0
   28.7070   34.4930    8.4750 C   0  0  0  0  0  0  0  0  0  0  0  0
   28.5990   35.2640    7.2050 N   0  0  0  0  0  0  0  0  0  0  0  0
  1  2  1  0  0  0  0
  3  2  1  0  0  0  0
  4  3  1  0  0  0  0
  5  4  1  0  0  0  0
  6  5  1  0  0  0  0
M  END
>  <EGIN_R>
ES LYS A 135

>  <REMARK>
  4 active torsions:
  status: ('A' for Active; 'I' for Inactive)
    5  A    between atoms: CA   and  CB  
    6  A    between atoms: CB   and  CG  
    7  A    between atoms: CG   and  CD  
    8  A    between atoms: CD   and  CE  

$$$$
