ligand_83_pose_3_2HRL.pdbqt
 OpenBabel07062320523D

 56 57  0  0  1  0  0  0  0  0999 V2000
   27.6660   31.0490   16.2560 O   0  0  0  0  0  0  0  0  0  0  0  0
   27.1220   29.9210   16.8940 C   0  0  0  0  0  0  0  0  0  0  0  0
   27.8870   29.0340   17.6570 N   0  0  0  0  0  0  0  0  0  0  0  0
   28.9280   29.2380   17.7440 H   0  0  0  0  0  0  0  0  0  0  0  0
   25.9040   29.7460   16.7470 O   0  0  0  0  0  0  0  0  0  0  0  0
   27.3670   27.8670   18.3300 C   0  0  0  0  0  0  0  0  0  0  0  0
   26.9960   28.2580   19.7350 C   0  0  2  0  0  0  0  0  0  0  0  0
   28.1470   27.8940   20.6430 C   0  0  2  0  0  0  0  0  0  0  0  0
   28.9190   29.1350   21.0710 C   0  0  2  0  0  0  0  0  0  0  0  0
   28.8550   31.4380   20.7300 C   0  0  2  0  0  0  0  0  0  0  0  0
   30.3680   31.3530   20.7830 C   0  0  0  0  0  0  0  0  0  0  0  0
   28.3320   30.2000   20.4450 O   0  0  0  0  0  0  0  0  0  0  0  0
   30.8350   30.1760   19.9560 C   0  0  1  0  0  0  0  0  0  0  0  0
   30.3750   28.9250   20.6960 C   0  0  1  0  0  0  0  0  0  0  0  0
   28.4520   32.2990   19.6900 O   0  0  0  0  0  0  0  0  0  0  0  0
   27.8590   32.9720   20.0960 H   0  0  0  0  0  0  0  0  0  0  0  0
   28.2790   31.9310   21.9870 C   0  0  0  0  0  0  0  0  0  0  0  0
   29.0130   32.2570   22.9340 O   0  0  0  0  0  0  0  0  0  0  0  0
   26.9080   32.0390   22.1300 O   0  0  0  0  0  0  0  0  0  0  0  0
   26.4100   31.4560   22.7770 H   0  0  0  0  0  0  0  0  0  0  0  0
   30.2520   30.1250   18.6990 O   0  0  0  0  0  0  0  0  0  0  0  0
   29.8350   29.2530   18.5510 H   0  0  0  0  0  0  0  0  0  0  0  0
   31.2080   28.7340   21.8480 N   0  0  0  0  0  0  0  0  0  0  0  0
   31.8850   27.5150   22.0550 C   0  0  0  0  0  0  0  0  0  0  0  0
   31.3540   29.4740   22.5860 H   0  0  0  0  0  0  0  0  0  0  0  0
   32.7510   27.3220   23.2580 C   0  0  0  0  0  0  0  0  0  0  0  0
   31.7760   26.5680   21.2340 O   0  0  0  0  0  0  0  0  0  0  0  0
   29.0290   27.1040   19.9320 O   0  0  0  0  0  0  0  0  0  0  0  0
   28.5820   26.5360   19.2610 H   0  0  0  0  0  0  0  0  0  0  0  0
   25.8020   27.6760   20.1480 O   0  0  0  0  0  0  0  0  0  0  0  0
   26.0340   26.7900   20.5240 H   0  0  0  0  0  0  0  0  0  0  0  0
   28.8900   30.9170   15.5160 C   0  0  0  0  0  0  0  0  0  0  0  0
   29.8410   31.9700   15.8570 C   0  0  0  0  0  0  0  0  0  0  0  0
   30.8470   32.4430   15.0520 C   0  0  0  0  0  0  0  0  0  0  0  0
   29.8810   32.6430   17.0170 N   0  0  0  0  0  0  0  0  0  0  0  0
   31.4740   33.3980   15.7530 N   0  0  0  0  0  0  0  0  0  0  0  0
   30.8830   33.5010   16.9190 N   0  0  0  0  0  0  0  0  0  0  0  0
   32.6240   34.1690   15.2510 C   0  0  0  0  0  0  0  0  0  0  0  0
   32.2330   34.9220   13.9990 C   0  0  2  0  0  0  0  0  0  0  0  0
   33.3160   34.7530   13.1080 O   0  0  0  0  0  0  0  0  0  0  0  0
   33.2810   33.9000   12.6370 H   0  0  0  0  0  0  0  0  0  0  0  0
   32.0290   36.3650   14.3330 C   0  0  0  0  0  0  0  0  0  0  0  0
   31.1000   36.9330   13.3520 N   0  0  0  0  0  0  0  0  0  0  0  0
   31.3830   37.9010   12.4500 C   0  0  0  0  0  0  0  0  0  0  0  0
   29.8420   36.5560   13.2110 C   0  0  0  0  0  0  0  0  0  0  0  0
   30.2560   38.1270   11.7280 C   0  0  0  0  0  0  0  0  0  0  0  0
   29.3210   37.3030   12.1980 N   0  0  0  0  0  0  0  0  0  0  0  0
   29.1180   35.5620   13.9570 N   0  0  0  0  0  0  0  0  0  0  0  0
   28.6980   34.5090   13.4520 O   0  0  0  0  0  0  0  0  0  0  0  0
   28.8760   35.7790   15.2970 O   0  0  0  0  0  0  0  0  0  0  0  0
   29.8670   25.5550   16.9770 C   0  0  0  0  0  0  0  0  0  0  0  0
   28.3450   25.7220   17.0260 C   0  0  0  0  0  0  0  0  0  0  0  0
   27.6020   24.4000   16.9140 C   0  0  0  0  0  0  0  0  0  0  0  0
   26.1640   24.5210   17.3370 C   0  0  0  0  0  0  0  0  0  0  0  0
   25.8230   23.3960   18.3090 C   0  0  0  0  0  0  0  0  0  0  0  0
   25.0150   22.3530   17.6330 N   0  0  0  0  0  0  0  0  0  0  0  0
  1  2  1  0  0  0  0
  2  3  1  0  0  0  0
  3  4  1  0  0  0  0
  3  6  1  0  0  0  0
  5  2  2  0  0  0  0
  7  6  1  6  0  0  0
  7 30  1  0  0  0  0
  7  8  1  0  0  0  0
  8 28  1  6  0  0  0
  9  8  1  6  0  0  0
 10 15  1  6  0  0  0
 10 11  1  0  0  0  0
 10 17  1  0  0  0  0
 12 10  1  0  0  0  0
 12  9  1  0  0  0  0
 13 21  1  6  0  0  0
 13 14  1  0  0  0  0
 13 11  1  0  0  0  0
 14  9  1  0  0  0  0
 14 23  1  1  0  0  0
 15 16  1  0  0  0  0
 17 19  1  0  0  0  0
 17 18  2  0  0  0  0
 19 20  1  0  0  0  0
 22 21  1  0  0  0  0
 23 24  1  0  0  0  0
 23 25  1  0  0  0  0
 24 26  1  0  0  0  0
 27 24  2  0  0  0  0
 29 28  1  0  0  0  0
 30 31  1  0  0  0  0
 32 33  1  0  0  0  0
 32  1  1  0  0  0  0
 33 35  1  0  0  0  0
 34 36  1  0  0  0  0
 34 33  2  0  0  0  0
 36 37  1  0  0  0  0
 37 35  2  0  0  0  0
 38 36  1  0  0  0  0
 39 42  1  1  0  0  0
 39 38  1  0  0  0  0
 40 39  1  0  0  0  0
 41 40  1  0  0  0  0
 43 42  1  0  0  0  0
 44 43  1  0  0  0  0
 45 43  1  0  0  0  0
 45 48  1  0  0  0  0
 46 47  1  0  0  0  0
 46 44  2  0  0  0  0
 47 45  2  0  0  0  0
 48 50  2  0  0  0  0
 49 48  2  0  0  0  0
 51 52  1  0  0  0  0
 53 52  1  0  0  0  0
 53 54  1  0  0  0  0
 54 55  1  0  0  0  0
 56 55  1  0  0  0  0
M  END
>  <REMARK>
 VINA RESULT:    -3.845      2.532      4.874
 INTER + INTRA:         -16.113
 INTER:                  -8.880
 INTRA:                  -7.232
 UNBOUND:                -8.446
 SMILES CC(=O)N[C@@H]1[C@@H](O)C[C@](O)(C(=O)O)O[C@H]1C(O)[C@H](O)CNC(=O)OCc1cn(CC(O)Cn2ccnc2[N+](=O)[O-])nn1
 SMILES IDX 24 1 22 2 21 3 23 5 20 6 18 7 16 8 15 9 9 10 8 11 14 12 6 13
 SMILES IDX 5 14 10 15 11 17 12 18 13 19 7 21 4 23 2 24 1 26 3 27 17 28
 SMILES IDX 19 30 25 32 26 33 27 34 42 35 28 36 41 37 29 38 30 39 31 40
 SMILES IDX 32 42 33 43 34 44 37 45 35 46 36 47 38 48 39 49 40 50
 H PARENT 21 4 10 16 13 20 7 22 4 25 17 29 19 31 31 41
 Flexibility Score: inf
  4 active torsions:
  status: ('A' for Active; 'I' for Inactive)
    1  A    between atoms: CA   and  CB  
    2  A    between atoms: CB   and  CG  
    3  A    between atoms: CG   and  CD  
    4  A    between atoms: CD   and  CE  

>  <TORSDO>
F 20

>  <BEGIN_>
RES LYS A 131

$$$$
ligand_83_pose_3_2HRL.pdbqt
 OpenBabel07062320523D

  6  5  0  0  0  0  0  0  0  0999 V2000
   33.1930   34.6630    9.2900 C   0  0  0  0  0  0  0  0  0  0  0  0
   32.0600   35.3600   10.0340 C   0  0  0  0  0  0  0  0  0  0  0  0
   30.8020   35.5030    9.2180 C   0  0  0  0  0  0  0  0  0  0  0  0
   30.1260   34.1540    9.0300 C   0  0  0  0  0  0  0  0  0  0  0  0
   28.6670   34.3350    8.6610 C   0  0  0  0  0  0  0  0  0  0  0  0
   27.7750   33.6930    9.6670 N   0  0  0  0  0  0  0  0  0  0  0  0
  1  2  1  0  0  0  0
  3  2  1  0  0  0  0
  4  3  1  0  0  0  0
  5  4  1  0  0  0  0
  5  6  1  0  0  0  0
M  END
>  <EGIN_R>
ES LYS A 135

>  <REMARK>
  4 active torsions:
  status: ('A' for Active; 'I' for Inactive)
    5  A    between atoms: CA   and  CB  
    6  A    between atoms: CB   and  CG  
    7  A    between atoms: CG   and  CD  
    8  A    between atoms: CD   and  CE  

$$$$
