ligand_71_pose_13_2HRL.pdbqt
 OpenBabel07062320523D

 54 55  0  0  1  0  0  0  0  0999 V2000
   26.7250   31.3900   21.5190 N   0  0  0  0  0  0  0  0  0  0  0  0
   25.6290   31.8890   20.7330 C   0  0  0  0  0  0  0  0  0  0  0  0
   25.7500   32.9320   20.0440 O   0  0  0  0  0  0  0  0  0  0  0  0
   26.6070   30.5290   22.0780 H   0  0  0  0  0  0  0  0  0  0  0  0
   27.9580   32.1260   21.4880 C   0  0  0  0  0  0  0  0  0  0  0  0
   29.0780   31.4510   22.2410 C   0  0  2  0  0  0  0  0  0  0  0  0
   29.9450   30.7510   21.2230 C   0  0  1  0  0  0  0  0  0  0  0  0
   30.6320   29.5260   21.8310 C   0  0  2  0  0  0  0  0  0  0  0  0
   32.6290   28.7250   22.5130 C   0  0  2  0  0  0  0  0  0  0  0  0
   32.1600   27.3440   22.2330 C   0  0  0  0  0  0  0  0  0  0  0  0
   31.9970   29.6450   21.7280 O   0  0  0  0  0  0  0  0  0  0  0  0
   31.1840   27.2030   21.0890 C   0  0  1  0  0  0  0  0  0  0  0  0
   30.1590   28.3010   21.0650 C   0  0  1  0  0  0  0  0  0  0  0  0
   34.0120   28.8220   22.1370 O   0  0  0  0  0  0  0  0  0  0  0  0
   34.1710   28.2070   21.3690 H   0  0  0  0  0  0  0  0  0  0  0  0
   32.6190   29.0420   23.9700 C   0  0  0  0  0  0  0  0  0  0  0  0
   32.2350   28.2130   24.7970 O   0  0  0  0  0  0  0  0  0  0  0  0
   33.0420   30.2830   24.4520 O   0  0  0  0  0  0  0  0  0  0  0  0
   32.4530   31.0970   24.4220 H   0  0  0  0  0  0  0  0  0  0  0  0
   31.9400   27.1860   19.9150 O   0  0  0  0  0  0  0  0  0  0  0  0
   32.1680   26.2540   19.6370 H   0  0  0  0  0  0  0  0  0  0  0  0
   28.8690   27.9330   21.5360 N   0  0  0  0  0  0  0  0  0  0  0  0
   27.8770   27.2780   20.7620 C   0  0  0  0  0  0  0  0  0  0  0  0
   28.6020   28.1500   22.5270 H   0  0  0  0  0  0  0  0  0  0  0  0
   26.5370   26.9240   21.3230 C   0  0  0  0  0  0  0  0  0  0  0  0
   28.1550   27.0030   19.5820 O   0  0  0  0  0  0  0  0  0  0  0  0
   29.2350   30.4010   20.0900 O   0  0  0  0  0  0  0  0  0  0  0  0
   29.8790   30.3660   19.3180 H   0  0  0  0  0  0  0  0  0  0  0  0
   28.5040   30.5490   23.1350 O   0  0  0  0  0  0  0  0  0  0  0  0
   29.2510   30.0850   23.5990 H   0  0  0  0  0  0  0  0  0  0  0  0
   24.4150   31.2420   20.7090 O   0  0  0  0  0  0  0  0  0  0  0  0
   24.1920   29.9160   20.3300 C   0  0  0  0  0  0  0  0  0  0  0  0
   24.7570   29.6660   18.9870 C   0  0  0  0  0  0  0  0  0  0  0  0
   26.0740   29.4730   18.6260 C   0  0  0  0  0  0  0  0  0  0  0  0
   24.0320   29.5770   17.8610 N   0  0  0  0  0  0  0  0  0  0  0  0
   26.0970   29.2760   17.3090 N   0  0  0  0  0  0  0  0  0  0  0  0
   24.8510   29.3460   16.8780 N   0  0  0  0  0  0  0  0  0  0  0  0
   27.3130   29.0210   16.5290 C   0  0  0  0  0  0  0  0  0  0  0  0
   28.0850   30.2890   16.3690 C   0  0  0  0  0  0  0  0  0  0  0  0
   27.6690   31.2890   15.7620 O   0  0  0  0  0  0  0  0  0  0  0  0
   29.3910   30.3520   16.9550 N   0  0  0  0  0  0  0  0  0  0  0  0
   29.7680   29.5250   17.4700 H   0  0  0  0  0  0  0  0  0  0  0  0
   30.1960   31.5110   16.8620 C   0  0  0  0  0  0  0  0  0  0  0  0
   30.3640   32.3820   17.8760 N   0  0  0  0  0  0  0  0  0  0  0  0
   30.8460   31.7910   15.7160 N   0  0  0  0  0  0  0  0  0  0  0  0
   31.1390   33.4780   17.7600 C   0  0  0  0  0  0  0  0  0  0  0  0
   31.6250   32.8540   15.5380 C   0  0  0  0  0  0  0  0  0  0  0  0
   31.7970   33.7470   16.5770 C   0  0  0  0  0  0  0  0  0  0  0  0
   29.8670   25.5550   16.9770 C   0  0  0  0  0  0  0  0  0  0  0  0
   28.3450   25.7220   17.0260 C   0  0  0  0  0  0  0  0  0  0  0  0
   27.6020   24.3990   16.9180 C   0  0  0  0  0  0  0  0  0  0  0  0
   26.5580   24.2470   17.9890 C   0  0  0  0  0  0  0  0  0  0  0  0
   25.2250   24.7880   17.4820 C   0  0  0  0  0  0  0  0  0  0  0  0
   24.8540   26.0220   18.2140 N   0  0  0  0  0  0  0  0  0  0  0  0
  1  4  1  0  0  0  0
  2  1  1  0  0  0  0
  3  2  2  0  0  0  0
  5  1  1  0  0  0  0
  6  5  1  6  0  0  0
  6 29  1  0  0  0  0
  7 27  1  6  0  0  0
  7  6  1  0  0  0  0
  8  7  1  6  0  0  0
  9 14  1  6  0  0  0
  9 16  1  0  0  0  0
 10  9  1  0  0  0  0
 11  8  1  0  0  0  0
 11  9  1  0  0  0  0
 12 20  1  6  0  0  0
 12 10  1  0  0  0  0
 13 12  1  0  0  0  0
 13 22  1  1  0  0  0
 13  8  1  0  0  0  0
 15 14  1  0  0  0  0
 16 18  1  0  0  0  0
 16 17  2  0  0  0  0
 19 18  1  0  0  0  0
 21 20  1  0  0  0  0
 22 24  1  0  0  0  0
 23 25  1  0  0  0  0
 23 22  1  0  0  0  0
 26 23  2  0  0  0  0
 28 27  1  0  0  0  0
 29 30  1  0  0  0  0
 31  2  1  0  0  0  0
 32 31  1  0  0  0  0
 33 32  1  0  0  0  0
 34 33  2  0  0  0  0
 35 33  1  0  0  0  0
 36 34  1  0  0  0  0
 37 36  1  0  0  0  0
 37 35  2  0  0  0  0
 38 36  1  0  0  0  0
 39 38  1  0  0  0  0
 39 41  1  0  0  0  0
 40 39  2  0  0  0  0
 41 42  1  0  0  0  0
 43 41  1  0  0  0  0
 43 44  2  0  0  0  0
 45 43  1  0  0  0  0
 46 44  1  0  0  0  0
 47 45  2  0  0  0  0
 47 48  1  0  0  0  0
 48 46  2  0  0  0  0
 49 50  1  0  0  0  0
 51 50  1  0  0  0  0
 51 52  1  0  0  0  0
 53 52  1  0  0  0  0
 53 54  1  0  0  0  0
M  END
>  <REMARK>
 VINA RESULT:    -3.860      3.708      7.860
 INTER + INTRA:         -14.697
 INTER:                  -8.280
 INTRA:                  -6.417
 UNBOUND:                -7.565
 SMILES CC(=O)N[C@@H]1[C@@H](O)C[C@](O)(C(=O)O)O[C@H]1C(O)[C@H](O)CNC(=O)OCc1cn(CC(=O)Nc2ncccn2)nn1
 SMILES IDX 21 1 22 2 23 3 20 5 18 6 16 7 15 8 9 9 8 10 14 11 6 12 5 13
 SMILES IDX 10 14 11 16 12 17 13 18 7 20 4 22 2 23 1 25 3 26 17 27 19 29
 SMILES IDX 24 31 25 32 26 33 27 34 40 35 28 36 39 37 29 38 30 39 31 40
 SMILES IDX 32 41 33 43 34 44 38 45 35 46 37 47 36 48
 H PARENT 21 4 10 15 13 19 7 21 4 24 17 28 19 30 32 42
 Flexibility Score: inf
  4 active torsions:
  status: ('A' for Active; 'I' for Inactive)
    1  A    between atoms: CA   and  CB  
    2  A    between atoms: CB   and  CG  
    3  A    between atoms: CG   and  CD  
    4  A    between atoms: CD   and  CE  

>  <TORSDO>
F 17

>  <BEGIN_>
RES LYS A 131

$$$$
ligand_71_pose_13_2HRL.pdbqt
 OpenBabel07062320523D

  6  5  0  0  0  0  0  0  0  0999 V2000
   33.1930   34.6630    9.2900 C   0  0  0  0  0  0  0  0  0  0  0  0
   32.0600   35.3600   10.0340 C   0  0  0  0  0  0  0  0  0  0  0  0
   30.7320   34.6600    9.9030 C   0  0  0  0  0  0  0  0  0  0  0  0
   30.3330   34.5370    8.4400 C   0  0  0  0  0  0  0  0  0  0  0  0
   28.8240   34.5780    8.2950 C   0  0  0  0  0  0  0  0  0  0  0  0
   28.1570   33.8580    9.4150 N   0  0  0  0  0  0  0  0  0  0  0  0
  1  2  1  0  0  0  0
  3  2  1  0  0  0  0
  4  3  1  0  0  0  0
  5  4  1  0  0  0  0
  5  6  1  0  0  0  0
M  END
>  <EGIN_R>
ES LYS A 135

>  <REMARK>
  4 active torsions:
  status: ('A' for Active; 'I' for Inactive)
    5  A    between atoms: CA   and  CB  
    6  A    between atoms: CB   and  CG  
    7  A    between atoms: CG   and  CD  
    8  A    between atoms: CD   and  CE  

$$$$
