ligand_13_pose_14_2HRL.pdbqt
 OpenBabel07062320523D

 49 49  0  0  1  0  0  0  0  0999 V2000
   32.8660   29.1060   21.6120 N   0  0  0  0  0  0  0  0  0  0  0  0
   33.6920   29.9330   22.4050 C   0  0  0  0  0  0  0  0  0  0  0  0
   33.9160   29.7020   23.5980 O   0  0  0  0  0  0  0  0  0  0  0  0
   32.7780   29.4390   20.5950 H   0  0  0  0  0  0  0  0  0  0  0  0
   32.1790   27.9310   22.0400 C   0  0  0  0  0  0  0  0  0  0  0  0
   31.2070   27.3250   21.0870 C   0  0  2  0  0  0  0  0  0  0  0  0
   30.0630   28.2060   20.7310 C   0  0  1  0  0  0  0  0  0  0  0  0
   28.7050   27.5600   20.7280 C   0  0  2  0  0  0  0  0  0  0  0  0
   27.2080   28.7290   19.3660 C   0  0  2  0  0  0  0  0  0  0  0  0
   25.9650   28.2390   20.0780 C   0  0  0  0  0  0  0  0  0  0  0  0
   28.1770   27.7810   19.4590 O   0  0  0  0  0  0  0  0  0  0  0  0
   26.3290   27.7500   21.4300 C   0  0  1  0  0  0  0  0  0  0  0  0
   27.7880   28.0510   21.8130 C   0  0  1  0  0  0  0  0  0  0  0  0
   27.5080   29.9710   19.8950 O   0  0  0  0  0  0  0  0  0  0  0  0
   28.4500   30.1680   19.6840 H   0  0  0  0  0  0  0  0  0  0  0  0
   26.8400   28.8840   17.9400 C   0  0  0  0  0  0  0  0  0  0  0  0
   26.1960   27.9690   17.3850 O   0  0  0  0  0  0  0  0  0  0  0  0
   27.1870   30.0000   17.2220 O   0  0  0  0  0  0  0  0  0  0  0  0
   27.7900   30.7280   17.6050 H   0  0  0  0  0  0  0  0  0  0  0  0
   25.5010   28.2290   22.4410 O   0  0  0  0  0  0  0  0  0  0  0  0
   25.2040   27.5420   23.0700 H   0  0  0  0  0  0  0  0  0  0  0  0
   27.9800   27.3220   23.0480 N   0  0  0  0  0  0  0  0  0  0  0  0
   28.6610   27.8030   24.1800 C   0  0  0  0  0  0  0  0  0  0  0  0
   27.5780   26.3600   23.0980 H   0  0  0  0  0  0  0  0  0  0  0  0
   28.8460   27.0390   25.4380 C   0  0  0  0  0  0  0  0  0  0  0  0
   29.1450   28.9750   24.1070 O   0  0  0  0  0  0  0  0  0  0  0  0
   30.0940   29.3830   21.4400 O   0  0  0  0  0  0  0  0  0  0  0  0
   29.5150   30.0980   21.0740 H   0  0  0  0  0  0  0  0  0  0  0  0
   30.6450   26.1900   21.7070 O   0  0  0  0  0  0  0  0  0  0  0  0
   29.9350   26.4670   22.3580 H   0  0  0  0  0  0  0  0  0  0  0  0
   34.3080   31.0790   21.8520 O   0  0  0  0  0  0  0  0  0  0  0  0
   33.8460   32.3780   22.1690 C   0  0  0  0  0  0  0  0  0  0  0  0
   32.5050   32.5220   21.5420 C   0  0  0  0  0  0  0  0  0  0  0  0
   32.1800   33.1650   20.3710 C   0  0  0  0  0  0  0  0  0  0  0  0
   31.3210   32.0390   22.0100 N   0  0  0  0  0  0  0  0  0  0  0  0
   30.8360   33.0400   20.1930 N   0  0  0  0  0  0  0  0  0  0  0  0
   30.3450   32.3500   21.2070 N   0  0  0  0  0  0  0  0  0  0  0  0
   30.0390   33.5530   19.1030 C   0  0  0  0  0  0  0  0  0  0  0  0
   29.5330   32.4600   18.2580 C   0  0  0  0  0  0  0  0  0  0  0  0
   28.3000   32.3280   18.1030 O   0  0  0  0  0  0  0  0  0  0  0  0
   30.4570   31.6040   17.6570 O   0  0  0  0  0  0  0  0  0  0  0  0
   30.2970   31.4130   16.2480 C   0  0  0  0  0  0  0  0  0  0  0  0
   31.2570   32.3390   15.5460 C   0  0  0  0  0  0  0  0  0  0  0  0
   29.8670   25.5550   16.9770 C   0  0  0  0  0  0  0  0  0  0  0  0
   28.3450   25.7220   17.0260 C   0  0  0  0  0  0  0  0  0  0  0  0
   27.6010   24.4060   16.8600 C   0  0  0  0  0  0  0  0  0  0  0  0
   26.1650   24.5090   17.2950 C   0  0  0  0  0  0  0  0  0  0  0  0
   26.1030   24.6920   18.8080 C   0  0  0  0  0  0  0  0  0  0  0  0
   25.5800   23.4670   19.4580 N   0  0  0  0  0  0  0  0  0  0  0  0
  1  5  1  0  0  0  0
  1  2  1  0  0  0  0
  2  3  2  0  0  0  0
  4  1  1  0  0  0  0
  6 29  1  0  0  0  0
  6  5  1  1  0  0  0
  7  6  1  0  0  0  0
  7 27  1  1  0  0  0
  8  7  1  6  0  0  0
  8 13  1  0  0  0  0
  9 16  1  6  0  0  0
  9 11  1  0  0  0  0
  9 14  1  0  0  0  0
  9 10  1  0  0  0  0
 10 12  1  0  0  0  0
 11  8  1  0  0  0  0
 12 13  1  0  0  0  0
 12 20  1  1  0  0  0
 13 22  1  1  0  0  0
 15 14  1  0  0  0  0
 17 16  2  0  0  0  0
 18 19  1  0  0  0  0
 18 16  1  0  0  0  0
 20 21  1  0  0  0  0
 22 24  1  0  0  0  0
 22 23  1  0  0  0  0
 23 25  1  0  0  0  0
 26 23  2  0  0  0  0
 28 27  1  0  0  0  0
 29 30  1  0  0  0  0
 31 32  1  0  0  0  0
 31  2  1  0  0  0  0
 33 35  1  0  0  0  0
 33 32  1  0  0  0  0
 34 33  2  0  0  0  0
 36 34  1  0  0  0  0
 36 37  1  0  0  0  0
 37 35  2  0  0  0  0
 38 36  1  0  0  0  0
 39 38  1  0  0  0  0
 40 39  2  0  0  0  0
 41 39  1  0  0  0  0
 42 41  1  0  0  0  0
 43 42  1  0  0  0  0
 44 45  1  0  0  0  0
 46 45  1  0  0  0  0
 46 47  1  0  0  0  0
 47 48  1  0  0  0  0
 48 49  1  0  0  0  0
M  END
>  <REMARK>
 VINA RESULT:    -4.079      2.404      6.739
 INTER + INTRA:         -13.725
 INTER:                  -6.427
 INTRA:                  -7.298
 UNBOUND:                -5.949
 SMILES CCOC(=O)Cn1cc(COC(=O)NC[C@@H](O)C(O)[C@@H]2O[C@@](O)(C(=O)O)C[C@H](O)[C@H]2NC(C)=O)nn1
 SMILES IDX 14 1 12 2 13 3 15 5 16 6 18 7 20 8 22 9 27 10 21 11 28 12
 SMILES IDX 30 13 23 14 24 16 25 17 26 18 29 20 31 22 32 23 33 25 34 26
 SMILES IDX 19 27 17 29 11 31 10 32 9 33 8 34 35 35 7 36 36 37 6 38 4 39
 SMILES IDX 5 40 3 41 2 42 1 43
 H PARENT 14 4 23 15 26 19 29 21 31 24 19 28 17 30
 Flexibility Score: inf
  4 active torsions:
  status: ('A' for Active; 'I' for Inactive)
    1  A    between atoms: CA   and  CB  
    2  A    between atoms: CB   and  CG  
    3  A    between atoms: CG   and  CD  
    4  A    between atoms: CD   and  CE  

>  <TORSDO>
F 18

>  <BEGIN_>
RES LYS A 131

$$$$
ligand_13_pose_14_2HRL.pdbqt
 OpenBabel07062320523D

  6  5  0  0  0  0  0  0  0  0999 V2000
   33.1930   34.6630    9.2900 C   0  0  0  0  0  0  0  0  0  0  0  0
   32.0600   35.3600   10.0340 C   0  0  0  0  0  0  0  0  0  0  0  0
   30.6970   34.8050    9.7120 C   0  0  0  0  0  0  0  0  0  0  0  0
   30.5720   34.5150    8.2250 C   0  0  0  0  0  0  0  0  0  0  0  0
   29.1980   34.9090    7.7190 C   0  0  0  0  0  0  0  0  0  0  0  0
   28.1310   34.4480    8.6500 N   0  0  0  0  0  0  0  0  0  0  0  0
  1  2  1  0  0  0  0
  3  2  1  0  0  0  0
  4  3  1  0  0  0  0
  5  4  1  0  0  0  0
  5  6  1  0  0  0  0
M  END
>  <EGIN_R>
ES LYS A 135

>  <REMARK>
  4 active torsions:
  status: ('A' for Active; 'I' for Inactive)
    5  A    between atoms: CA   and  CB  
    6  A    between atoms: CB   and  CG  
    7  A    between atoms: CG   and  CD  
    8  A    between atoms: CD   and  CE  

$$$$
