ligand_57_pose_7_2HRL.pdbqt
 OpenBabel07062320523D

 50 51  0  0  1  0  0  0  0  0999 V2000
   30.0750   31.1090   15.9970 C   0  0  0  0  0  0  0  0  0  0  0  0
   30.5620   32.4750   15.6460 C   0  0  2  0  0  0  0  0  0  0  0  0
   29.5050   33.3090   14.9530 C   0  0  2  0  0  0  0  0  0  0  0  0
   30.1680   34.4200   14.1670 C   0  0  2  0  0  0  0  0  0  0  0  0
   31.8220   36.0660   14.2530 C   0  0  2  0  0  0  0  0  0  0  0  0
   30.8900   37.0690   13.6460 C   0  0  0  0  0  0  0  0  0  0  0  0
   31.2390   34.9630   14.8030 O   0  0  0  0  0  0  0  0  0  0  0  0
   29.8170   36.4020   12.8270 C   0  0  1  0  0  0  0  0  0  0  0  0
   29.1210   35.4010   13.7460 C   0  0  1  0  0  0  0  0  0  0  0  0
   32.6180   36.7510   15.2130 O   0  0  0  0  0  0  0  0  0  0  0  0
   33.5630   36.4670   15.1590 H   0  0  0  0  0  0  0  0  0  0  0  0
   32.7490   35.5930   13.1920 C   0  0  0  0  0  0  0  0  0  0  0  0
   32.9000   36.2720   12.1460 O   0  0  0  0  0  0  0  0  0  0  0  0
   33.4880   34.4220   13.2640 O   0  0  0  0  0  0  0  0  0  0  0  0
   33.8540   34.0560   14.1430 H   0  0  0  0  0  0  0  0  0  0  0  0
   28.8810   37.3250   12.3530 O   0  0  0  0  0  0  0  0  0  0  0  0
   28.8700   38.1530   12.8810 H   0  0  0  0  0  0  0  0  0  0  0  0
   28.1310   34.7370   12.8870 N   0  0  0  0  0  0  0  0  0  0  0  0
   26.7560   35.0340   12.9580 C   0  0  0  0  0  0  0  0  0  0  0  0
   28.4930   34.0400   12.2230 H   0  0  0  0  0  0  0  0  0  0  0  0
   25.7550   34.3440   12.0700 C   0  0  0  0  0  0  0  0  0  0  0  0
   26.3720   35.8970   13.7890 O   0  0  0  0  0  0  0  0  0  0  0  0
   28.6220   33.7800   15.8970 O   0  0  0  0  0  0  0  0  0  0  0  0
   28.0680   34.5130   15.5270 H   0  0  0  0  0  0  0  0  0  0  0  0
   31.6480   32.3360   14.7500 O   0  0  0  0  0  0  0  0  0  0  0  0
   31.5090   32.8930   13.9390 H   0  0  0  0  0  0  0  0  0  0  0  0
   29.9900   31.0030   17.4380 N   0  0  0  0  0  0  0  0  0  0  0  0
   28.8030   31.2130   18.1900 C   0  0  0  0  0  0  0  0  0  0  0  0
   30.8390   30.7540   18.0310 H   0  0  0  0  0  0  0  0  0  0  0  0
   27.7540   31.5050   17.5970 O   0  0  0  0  0  0  0  0  0  0  0  0
   28.7720   31.1010   19.5740 O   0  0  0  0  0  0  0  0  0  0  0  0
   28.6170   29.8390   20.1910 C   0  0  0  0  0  0  0  0  0  0  0  0
   29.9230   29.3300   20.6830 C   0  0  0  0  0  0  0  0  0  0  0  0
   30.1590   28.3370   21.5900 C   0  0  0  0  0  0  0  0  0  0  0  0
   31.1360   29.7770   20.3070 N   0  0  0  0  0  0  0  0  0  0  0  0
   31.4860   28.1970   21.7510 N   0  0  0  0  0  0  0  0  0  0  0  0
   32.0540   29.0980   20.9450 N   0  0  0  0  0  0  0  0  0  0  0  0
   32.1440   27.2520   22.6240 C   0  0  0  0  0  0  0  0  0  0  0  0
   31.2190   26.7740   23.7210 C   0  0  0  0  0  0  0  0  0  0  0  0
   33.4320   27.8020   23.1590 C   0  0  0  0  0  0  0  0  0  0  0  0
   31.1780   27.7210   24.8970 C   0  0  0  0  0  0  0  0  0  0  0  0
   33.2620   28.7550   24.3010 C   0  0  0  0  0  0  0  0  0  0  0  0
   32.4820   28.1320   25.3260 N   0  0  0  0  0  0  0  0  0  0  0  0
   33.2360   27.0760   25.9390 C   0  0  0  0  0  0  0  0  0  0  0  0
   29.8670   25.5550   16.9770 C   0  0  0  0  0  0  0  0  0  0  0  0
   28.3450   25.7220   17.0260 C   0  0  0  0  0  0  0  0  0  0  0  0
   27.5990   24.4420   16.6810 C   0  0  0  0  0  0  0  0  0  0  0  0
   26.9080   23.8490   17.8780 C   0  0  0  0  0  0  0  0  0  0  0  0
   25.4520   23.5560   17.5310 C   0  0  0  0  0  0  0  0  0  0  0  0
   24.7410   24.8060   17.1740 N   0  0  0  0  0  0  0  0  0  0  0  0
  1 27  1  0  0  0  0
  2  1  1  6  0  0  0
  3  2  1  0  0  0  0
  3 23  1  1  0  0  0
  4  7  1  0  0  0  0
  4  3  1  1  0  0  0
  5 12  1  6  0  0  0
  5  7  1  0  0  0  0
  5 10  1  0  0  0  0
  6  5  1  0  0  0  0
  8 16  1  1  0  0  0
  8  6  1  0  0  0  0
  8  9  1  0  0  0  0
  9 18  1  6  0  0  0
  9  4  1  0  0  0  0
 11 10  1  0  0  0  0
 12 14  1  0  0  0  0
 13 12  2  0  0  0  0
 14 15  1  0  0  0  0
 16 17  1  0  0  0  0
 18 19  1  0  0  0  0
 19 22  2  0  0  0  0
 20 18  1  0  0  0  0
 21 19  1  0  0  0  0
 24 23  1  0  0  0  0
 25  2  1  0  0  0  0
 26 25  1  0  0  0  0
 27 29  1  0  0  0  0
 27 28  1  0  0  0  0
 28 31  1  0  0  0  0
 30 28  2  0  0  0  0
 31 32  1  0  0  0  0
 32 33  1  0  0  0  0
 33 34  2  0  0  0  0
 34 36  1  0  0  0  0
 35 33  1  0  0  0  0
 35 37  2  0  0  0  0
 36 38  1  0  0  0  0
 37 36  1  0  0  0  0
 38 40  1  0  0  0  0
 38 39  1  0  0  0  0
 39 41  1  0  0  0  0
 40 42  1  0  0  0  0
 41 43  1  0  0  0  0
 42 43  1  0  0  0  0
 43 44  1  0  0  0  0
 45 46  1  0  0  0  0
 47 46  1  0  0  0  0
 47 48  1  0  0  0  0
 49 48  1  0  0  0  0
 50 49  1  0  0  0  0
M  END
>  <REMARK>
 VINA RESULT:    -4.507      3.723      9.240
 INTER + INTRA:         -13.586
 INTER:                  -8.278
 INTRA:                  -5.308
 UNBOUND:                -5.786
 SMILES CC(=O)N[C@@H]1[C@@H](O)C[C@](O)(C(=O)O)O[C@H]1C(O)[C@H](O)CNC(=O)OCc1cn(C2CCN(C)CC2)nn1
 SMILES IDX 20 1 18 2 16 3 15 4 9 5 8 6 14 7 6 8 5 9 10 10 11 12 12 13
 SMILES IDX 13 14 7 16 4 18 2 19 1 21 3 22 17 23 19 25 21 27 22 28 23 30
 SMILES IDX 24 31 25 32 26 33 27 34 37 35 28 36 36 37 29 38 30 39 35 40
 SMILES IDX 31 41 34 42 32 43 33 44
 H PARENT 10 11 13 15 7 17 4 20 17 24 19 26 21 29
 Flexibility Score: inf
  4 active torsions:
  status: ('A' for Active; 'I' for Inactive)
    1  A    between atoms: CA   and  CB  
    2  A    between atoms: CB   and  CG  
    3  A    between atoms: CG   and  CD  
    4  A    between atoms: CD   and  CE  

>  <TORSDO>
F 15

>  <BEGIN_>
RES LYS A 131

$$$$
ligand_57_pose_7_2HRL.pdbqt
 OpenBabel07062320523D

  6  5  0  0  0  0  0  0  0  0999 V2000
   33.1930   34.6630    9.2900 C   0  0  0  0  0  0  0  0  0  0  0  0
   32.0600   35.3600   10.0340 C   0  0  0  0  0  0  0  0  0  0  0  0
   30.7310   34.6630    9.8980 C   0  0  0  0  0  0  0  0  0  0  0  0
   30.4010   34.4190    8.4330 C   0  0  0  0  0  0  0  0  0  0  0  0
   28.9230   34.6440    8.1760 C   0  0  0  0  0  0  0  0  0  0  0  0
   28.0900   33.9590    9.2030 N   0  0  0  0  0  0  0  0  0  0  0  0
  1  2  1  0  0  0  0
  3  2  1  0  0  0  0
  4  3  1  0  0  0  0
  5  4  1  0  0  0  0
  5  6  1  0  0  0  0
M  END
>  <EGIN_R>
ES LYS A 135

>  <REMARK>
  4 active torsions:
  status: ('A' for Active; 'I' for Inactive)
    5  A    between atoms: CA   and  CB  
    6  A    between atoms: CB   and  CG  
    7  A    between atoms: CG   and  CD  
    8  A    between atoms: CD   and  CE  

$$$$
