ligand_29_pose_14_2HRL.pdbqt
 OpenBabel07062320523D

 54 55  0  0  1  0  0  0  0  0999 V2000
   29.7030   30.4870   19.2190 N   0  0  0  0  0  0  0  0  0  0  0  0
   30.1240   29.5810   20.2020 C   0  0  0  0  0  0  0  0  0  0  0  0
   31.3350   29.4200   20.4640 O   0  0  0  0  0  0  0  0  0  0  0  0
   28.6530   30.5560   19.0500 H   0  0  0  0  0  0  0  0  0  0  0  0
   30.5650   31.3350   18.4150 C   0  0  0  0  0  0  0  0  0  0  0  0
   30.3750   31.0650   16.9660 C   0  0  2  0  0  0  0  0  0  0  0  0
   30.5100   32.2800   16.0810 C   0  0  2  0  0  0  0  0  0  0  0  0
   29.2400   32.7360   15.4460 C   0  0  2  0  0  0  0  0  0  0  0  0
   29.7820   34.6450   14.2200 C   0  0  2  0  0  0  0  0  0  0  0  0
   28.4200   35.3050   14.3780 C   0  0  0  0  0  0  0  0  0  0  0  0
   29.5720   33.2930   14.1940 O   0  0  0  0  0  0  0  0  0  0  0  0
   27.5040   34.3700   15.1140 C   0  0  1  0  0  0  0  0  0  0  0  0
   28.3020   33.5690   16.2070 C   0  0  1  0  0  0  0  0  0  0  0  0
   30.6720   35.0860   15.1930 O   0  0  0  0  0  0  0  0  0  0  0  0
   31.5870   35.2300   14.8370 H   0  0  0  0  0  0  0  0  0  0  0  0
   30.3620   35.0430   12.9050 C   0  0  0  0  0  0  0  0  0  0  0  0
   29.8300   35.9820   12.2680 O   0  0  0  0  0  0  0  0  0  0  0  0
   31.4690   34.4140   12.3540 O   0  0  0  0  0  0  0  0  0  0  0  0
   32.0590   33.7710   12.8970 H   0  0  0  0  0  0  0  0  0  0  0  0
   26.4580   35.0380   15.7410 O   0  0  0  0  0  0  0  0  0  0  0  0
   26.5330   34.9900   16.7170 H   0  0  0  0  0  0  0  0  0  0  0  0
   27.2410   32.7650   16.8330 N   0  0  0  0  0  0  0  0  0  0  0  0
   27.0800   32.6170   18.2310 C   0  0  0  0  0  0  0  0  0  0  0  0
   26.5340   32.2530   16.2280 H   0  0  0  0  0  0  0  0  0  0  0  0
   26.0000   31.7960   18.8340 C   0  0  0  0  0  0  0  0  0  0  0  0
   27.8770   33.1980   19.0100 O   0  0  0  0  0  0  0  0  0  0  0  0
   31.3560   31.8850   14.9670 O   0  0  0  0  0  0  0  0  0  0  0  0
   31.7150   30.9930   15.1860 H   0  0  0  0  0  0  0  0  0  0  0  0
   29.3480   30.2210   16.6350 O   0  0  0  0  0  0  0  0  0  0  0  0
   28.9090   30.4320   15.7890 H   0  0  0  0  0  0  0  0  0  0  0  0
   29.1880   28.8160   20.9310 O   0  0  0  0  0  0  0  0  0  0  0  0
   28.7580   27.5710   20.3600 C   0  0  0  0  0  0  0  0  0  0  0  0
   27.3820   27.6520   19.8750 C   0  0  0  0  0  0  0  0  0  0  0  0
   26.9540   27.4420   18.5890 C   0  0  0  0  0  0  0  0  0  0  0  0
   26.3020   27.9370   20.6180 N   0  0  0  0  0  0  0  0  0  0  0  0
   25.6350   27.6040   18.5710 N   0  0  0  0  0  0  0  0  0  0  0  0
   25.2590   27.9010   19.7970 N   0  0  0  0  0  0  0  0  0  0  0  0
   24.7460   27.4890   17.4220 C   0  0  0  0  0  0  0  0  0  0  0  0
   24.2320   28.8540   17.0890 C   0  0  0  0  0  0  0  0  0  0  0  0
   24.8750   29.6020   16.1040 C   0  0  0  0  0  0  0  0  0  0  0  0
   23.1350   29.4080   17.7130 C   0  0  0  0  0  0  0  0  0  0  0  0
   24.4300   30.8560   15.7630 C   0  0  0  0  0  0  0  0  0  0  0  0
   22.6640   30.6660   17.3920 C   0  0  0  0  0  0  0  0  0  0  0  0
   23.3250   31.3720   16.4150 C   0  0  0  0  0  0  0  0  0  0  0  0
   25.0620   31.6160   14.7820 O   0  0  0  0  0  0  0  0  0  0  0  0
   24.5810   31.5310   13.4520 C   0  0  0  0  0  0  0  0  0  0  0  0
   22.8850   32.6380   16.0630 O   0  0  0  0  0  0  0  0  0  0  0  0
   21.5310   32.8990   15.7420 C   0  0  0  0  0  0  0  0  0  0  0  0
   29.8670   25.5550   16.9770 C   0  0  0  0  0  0  0  0  0  0  0  0
   28.3450   25.7220   17.0260 C   0  0  0  0  0  0  0  0  0  0  0  0
   27.5990   24.4570   16.6310 C   0  0  0  0  0  0  0  0  0  0  0  0
   27.1790   23.6500   17.8280 C   0  0  0  0  0  0  0  0  0  0  0  0
   25.7130   23.9290   18.1410 C   0  0  0  0  0  0  0  0  0  0  0  0
   25.5400   24.2410   19.5800 N   0  0  0  0  0  0  0  0  0  0  0  0
  1  2  1  0  0  0  0
  2  3  2  0  0  0  0
  2 31  1  0  0  0  0
  4  1  1  0  0  0  0
  5  1  1  0  0  0  0
  6  5  1  1  0  0  0
  7 27  1  6  0  0  0
  7  6  1  0  0  0  0
  8  7  1  1  0  0  0
  8 13  1  0  0  0  0
  9 16  1  6  0  0  0
  9 10  1  0  0  0  0
  9 14  1  0  0  0  0
 10 12  1  0  0  0  0
 11  9  1  0  0  0  0
 11  8  1  0  0  0  0
 12 20  1  1  0  0  0
 12 13  1  0  0  0  0
 13 22  1  6  0  0  0
 15 14  1  0  0  0  0
 17 16  2  0  0  0  0
 18 19  1  0  0  0  0
 18 16  1  0  0  0  0
 20 21  1  0  0  0  0
 22 23  1  0  0  0  0
 23 25  1  0  0  0  0
 23 26  2  0  0  0  0
 24 22  1  0  0  0  0
 27 28  1  0  0  0  0
 29  6  1  0  0  0  0
 30 29  1  0  0  0  0
 32 31  1  0  0  0  0
 33 32  1  0  0  0  0
 33 35  1  0  0  0  0
 34 33  2  0  0  0  0
 36 34  1  0  0  0  0
 36 37  1  0  0  0  0
 37 35  2  0  0  0  0
 38 36  1  0  0  0  0
 39 38  1  0  0  0  0
 39 41  2  0  0  0  0
 40 39  1  0  0  0  0
 42 40  2  0  0  0  0
 42 44  1  0  0  0  0
 43 41  1  0  0  0  0
 44 43  2  0  0  0  0
 45 42  1  0  0  0  0
 46 45  1  0  0  0  0
 47 44  1  0  0  0  0
 48 47  1  0  0  0  0
 49 50  1  0  0  0  0
 51 50  1  0  0  0  0
 51 52  1  0  0  0  0
 52 53  1  0  0  0  0
 53 54  1  0  0  0  0
M  END
>  <REMARK>
 VINA RESULT:    -4.949      2.289      6.292
 INTER + INTRA:         -14.552
 INTER:                  -8.230
 INTRA:                  -6.322
 UNBOUND:                -5.118
 SMILES COc1ccc(Cn2cc(COC(=O)NC[C@@H](O)C(O)[C@@H]3O[C@@](O)(C(=O)O)C[C@H](O)[C@H]3NC(C)=O)nn2)cc1OC
 SMILES IDX 15 1 13 2 14 3 16 5 17 6 19 7 21 8 23 9 28 10 22 11 29 12
 SMILES IDX 31 13 24 14 25 16 26 17 27 18 30 20 32 22 33 23 34 25 35 26
 SMILES IDX 20 27 18 29 12 31 11 32 10 33 9 34 36 35 8 36 37 37 7 38
 SMILES IDX 6 39 38 40 5 41 39 42 4 43 3 44 40 45 41 46 2 47 1 48
 H PARENT 15 4 24 15 27 19 30 21 32 24 20 28 18 30
 Flexibility Score: inf
  4 active torsions:
  status: ('A' for Active; 'I' for Inactive)
    1  A    between atoms: CA   and  CB  
    2  A    between atoms: CB   and  CG  
    3  A    between atoms: CG   and  CD  
    4  A    between atoms: CD   and  CE  

>  <TORSDO>
F 18

>  <BEGIN_>
RES LYS A 131

$$$$
ligand_29_pose_14_2HRL.pdbqt
 OpenBabel07062320523D

  6  5  0  0  0  0  0  0  0  0999 V2000
   33.1930   34.6630    9.2900 C   0  0  0  0  0  0  0  0  0  0  0  0
   32.0600   35.3600   10.0340 C   0  0  0  0  0  0  0  0  0  0  0  0
   30.7960   35.4870    9.2240 C   0  0  0  0  0  0  0  0  0  0  0  0
   30.2040   34.1170    8.9340 C   0  0  0  0  0  0  0  0  0  0  0  0
   28.7240   34.0940    9.2670 C   0  0  0  0  0  0  0  0  0  0  0  0
   27.9240   34.7600    8.2020 N   0  0  0  0  0  0  0  0  0  0  0  0
  1  2  1  0  0  0  0
  3  2  1  0  0  0  0
  4  3  1  0  0  0  0
  4  5  1  0  0  0  0
  6  5  1  0  0  0  0
M  END
>  <EGIN_R>
ES LYS A 135

>  <REMARK>
  4 active torsions:
  status: ('A' for Active; 'I' for Inactive)
    5  A    between atoms: CA   and  CB  
    6  A    between atoms: CB   and  CG  
    7  A    between atoms: CG   and  CD  
    8  A    between atoms: CD   and  CE  

$$$$
