ligand_75_pose_4_2HRL.pdbqt
 OpenBabel07062320523D

 55 56  0  0  1  0  0  0  0  0999 V2000
   25.3160   36.2230   15.0270 N   0  0  0  0  0  0  0  0  0  0  0  0
   25.3060   37.2580   14.0640 C   0  0  0  0  0  0  0  0  0  0  0  0
   26.2690   38.0360   13.8990 O   0  0  0  0  0  0  0  0  0  0  0  0
   24.4190   35.6270   15.0770 H   0  0  0  0  0  0  0  0  0  0  0  0
   26.3920   35.9060   15.9210 C   0  0  0  0  0  0  0  0  0  0  0  0
   26.5340   34.4280   16.0910 C   0  0  2  0  0  0  0  0  0  0  0  0
   27.4710   33.7800   15.0900 C   0  0  2  0  0  0  0  0  0  0  0  0
   28.7320   33.3450   15.7430 C   0  0  2  0  0  0  0  0  0  0  0  0
   31.0270   33.1020   15.6950 C   0  0  2  0  0  0  0  0  0  0  0  0
   30.8000   32.6480   17.1100 C   0  0  0  0  0  0  0  0  0  0  0  0
   29.8950   33.6160   15.0950 O   0  0  0  0  0  0  0  0  0  0  0  0
   29.6490   31.7320   17.3090 C   0  0  1  0  0  0  0  0  0  0  0  0
   28.6840   31.8760   16.1580 C   0  0  1  0  0  0  0  0  0  0  0  0
   31.6060   32.0630   14.9660 O   0  0  0  0  0  0  0  0  0  0  0  0
   30.9410   31.5110   14.5030 H   0  0  0  0  0  0  0  0  0  0  0  0
   32.0290   34.2030   15.7460 C   0  0  0  0  0  0  0  0  0  0  0  0
   32.9890   34.2130   14.9040 O   0  0  0  0  0  0  0  0  0  0  0  0
   31.9580   35.2270   16.6810 O   0  0  0  0  0  0  0  0  0  0  0  0
   32.2400   35.1140   17.6340 H   0  0  0  0  0  0  0  0  0  0  0  0
   30.0210   30.4050   17.5070 O   0  0  0  0  0  0  0  0  0  0  0  0
   29.7500   29.8710   16.7430 H   0  0  0  0  0  0  0  0  0  0  0  0
   27.3620   31.4350   16.4810 N   0  0  0  0  0  0  0  0  0  0  0  0
   26.9710   30.0730   16.4050 C   0  0  0  0  0  0  0  0  0  0  0  0
   26.6120   32.1190   16.7940 H   0  0  0  0  0  0  0  0  0  0  0  0
   25.5960   29.6640   16.7480 C   0  0  0  0  0  0  0  0  0  0  0  0
   27.7880   29.1900   16.0430 O   0  0  0  0  0  0  0  0  0  0  0  0
   27.6380   34.5550   13.9480 O   0  0  0  0  0  0  0  0  0  0  0  0
   27.0070   35.3060   13.9970 H   0  0  0  0  0  0  0  0  0  0  0  0
   25.3010   33.7760   16.0290 O   0  0  0  0  0  0  0  0  0  0  0  0
   25.2350   33.3090   15.1510 H   0  0  0  0  0  0  0  0  0  0  0  0
   24.1860   37.4610   13.2300 O   0  0  0  0  0  0  0  0  0  0  0  0
   23.7310   36.4070   12.4430 C   0  0  0  0  0  0  0  0  0  0  0  0
   24.8320   35.6380   11.8160 C   0  0  0  0  0  0  0  0  0  0  0  0
   25.6540   35.9590   10.7610 C   0  0  0  0  0  0  0  0  0  0  0  0
   25.2270   34.4160   12.2100 N   0  0  0  0  0  0  0  0  0  0  0  0
   26.5220   34.9410   10.5360 N   0  0  0  0  0  0  0  0  0  0  0  0
   26.2370   34.0170   11.4340 N   0  0  0  0  0  0  0  0  0  0  0  0
   27.5240   34.9230    9.5180 C   0  0  0  0  0  0  0  0  0  0  0  0
   27.2990   35.4870    8.2890 C   0  0  0  0  0  0  0  0  0  0  0  0
   28.7430   34.3310    9.7560 C   0  0  0  0  0  0  0  0  0  0  0  0
   28.2910   35.4720    7.2690 C   0  0  0  0  0  0  0  0  0  0  0  0
   29.7340   34.2830    8.8220 C   0  0  0  0  0  0  0  0  0  0  0  0
   29.4840   34.8680    7.5680 C   0  0  0  0  0  0  0  0  0  0  0  0
   28.0130   36.1100    6.0300 C   0  0  0  0  0  0  0  0  0  0  0  0
   28.2730   37.2050    5.4290 C   0  0  0  0  0  0  0  0  0  0  0  0
   29.0060   38.3730    5.7170 C   0  0  0  0  0  0  0  0  0  0  0  0
   28.4760   39.5430    5.3660 O   0  0  0  0  0  0  0  0  0  0  0  0
   30.2250   38.5730    6.3150 O   0  0  0  0  0  0  0  0  0  0  0  0
   30.5370   38.0650    7.1280 H   0  0  0  0  0  0  0  0  0  0  0  0
   29.8670   25.5550   16.9770 C   0  0  0  0  0  0  0  0  0  0  0  0
   28.3450   25.7220   17.0260 C   0  0  0  0  0  0  0  0  0  0  0  0
   27.6020   24.3980   16.9310 C   0  0  0  0  0  0  0  0  0  0  0  0
   26.1470   24.5390   17.2810 C   0  0  0  0  0  0  0  0  0  0  0  0
   25.5920   23.1840   17.7090 C   0  0  0  0  0  0  0  0  0  0  0  0
   25.4470   23.1250   19.1820 N   0  0  0  0  0  0  0  0  0  0  0  0
  1  4  1  0  0  0  0
  1  5  1  0  0  0  0
  2  1  1  0  0  0  0
  3  2  2  0  0  0  0
  6  5  1  6  0  0  0
  7 27  1  6  0  0  0
  7  6  1  0  0  0  0
  8  7  1  6  0  0  0
  8 13  1  0  0  0  0
  9 14  1  6  0  0  0
  9 16  1  0  0  0  0
  9 10  1  0  0  0  0
 10 12  1  0  0  0  0
 11  9  1  0  0  0  0
 11  8  1  0  0  0  0
 12 20  1  6  0  0  0
 13 22  1  1  0  0  0
 13 12  1  0  0  0  0
 15 14  1  0  0  0  0
 16 18  1  0  0  0  0
 17 16  2  0  0  0  0
 18 19  1  0  0  0  0
 21 20  1  0  0  0  0
 22 24  1  0  0  0  0
 23 22  1  0  0  0  0
 23 25  1  0  0  0  0
 26 23  2  0  0  0  0
 27 28  1  0  0  0  0
 29  6  1  0  0  0  0
 30 29  1  0  0  0  0
 31  2  1  0  0  0  0
 32 31  1  0  0  0  0
 33 35  1  0  0  0  0
 33 32  1  0  0  0  0
 34 33  2  0  0  0  0
 36 34  1  0  0  0  0
 36 37  1  0  0  0  0
 37 35  2  0  0  0  0
 38 40  1  0  0  0  0
 38 36  1  0  0  0  0
 39 38  2  0  0  0  0
 41 43  2  0  0  0  0
 41 39  1  0  0  0  0
 42 40  2  0  0  0  0
 43 42  1  0  0  0  0
 44 41  1  0  0  0  0
 45 46  1  0  0  0  0
 45 44  2  0  0  0  0
 46 48  1  0  0  0  0
 47 46  2  0  0  0  0
 48 49  1  0  0  0  0
 50 51  1  0  0  0  0
 52 51  1  0  0  0  0
 52 53  1  0  0  0  0
 53 54  1  0  0  0  0
 54 55  1  0  0  0  0
M  END
>  <REMARK>
 VINA RESULT:    -5.082      4.522      8.582
 INTER + INTRA:         -15.855
 INTER:                 -11.622
 INTRA:                  -4.233
 UNBOUND:                -6.317
 SMILES CC(=O)N[C@@H]1[C@@H](O)C[C@](O)(C(=O)O)O[C@H]1C(O)[C@H](O)CNC(=O)OCc1cn(-c2cccc(C=CC(=O)O)c2)nn1
 SMILES IDX 21 1 22 2 23 3 20 5 18 6 16 7 15 8 9 9 8 10 14 11 6 12 5 13
 SMILES IDX 10 14 11 16 12 17 13 18 7 20 4 22 2 23 1 25 3 26 17 27 19 29
 SMILES IDX 24 31 25 32 26 33 27 34 41 35 28 36 40 37 29 38 39 39 30 40
 SMILES IDX 33 41 31 42 32 43 34 44 35 45 36 46 37 47 38 48
 H PARENT 21 4 10 15 13 19 7 21 4 24 17 28 19 30 38 49
 Flexibility Score: inf
  4 active torsions:
  status: ('A' for Active; 'I' for Inactive)
    1  A    between atoms: CA   and  CB  
    2  A    between atoms: CB   and  CG  
    3  A    between atoms: CG   and  CD  
    4  A    between atoms: CD   and  CE  

>  <TORSDO>
F 18

>  <BEGIN_>
RES LYS A 131

$$$$
ligand_75_pose_4_2HRL.pdbqt
 OpenBabel07062320523D

  6  5  0  0  0  0  0  0  0  0999 V2000
   33.1930   34.6630    9.2900 C   0  0  0  0  0  0  0  0  0  0  0  0
   32.0600   35.3600   10.0340 C   0  0  0  0  0  0  0  0  0  0  0  0
   32.3680   35.6290   11.4840 C   0  0  0  0  0  0  0  0  0  0  0  0
   31.1630   35.3100   12.3570 C   0  0  0  0  0  0  0  0  0  0  0  0
   30.6060   36.5760   12.9790 C   0  0  0  0  0  0  0  0  0  0  0  0
   31.6470   37.2860   13.7730 N   0  0  0  0  0  0  0  0  0  0  0  0
  1  2  1  0  0  0  0
  2  3  1  0  0  0  0
  3  4  1  0  0  0  0
  4  5  1  0  0  0  0
  5  6  1  0  0  0  0
M  END
>  <EGIN_R>
ES LYS A 135

>  <REMARK>
  4 active torsions:
  status: ('A' for Active; 'I' for Inactive)
    5  A    between atoms: CA   and  CB  
    6  A    between atoms: CB   and  CG  
    7  A    between atoms: CG   and  CD  
    8  A    between atoms: CD   and  CE  

$$$$
