ligand_3_pose_19_2HRL.pdbqt
 OpenBabel07062320523D

 49 50  0  0  1  0  0  0  0  0999 V2000
   26.3680   34.6930   16.2670 C   0  0  0  0  0  0  0  0  0  0  0  0
   26.8030   33.6290   15.2800 C   0  0  2  0  0  0  0  0  0  0  0  0
   27.8310   32.6940   15.8770 C   0  0  1  0  0  0  0  0  0  0  0  0
   28.9350   33.4180   16.5730 C   0  0  2  0  0  0  0  0  0  0  0  0
   30.6970   33.7080   15.0470 C   0  0  2  0  0  0  0  0  0  0  0  0
   31.4530   32.5380   15.5700 C   0  0  0  0  0  0  0  0  0  0  0  0
   29.7040   34.2070   15.8020 O   0  0  0  0  0  0  0  0  0  0  0  0
   30.7220   31.7200   16.5940 C   0  0  1  0  0  0  0  0  0  0  0  0
   29.7850   32.5290   17.4340 C   0  0  1  0  0  0  0  0  0  0  0  0
   30.1480   33.3070   13.8100 O   0  0  0  0  0  0  0  0  0  0  0  0
   29.3430   32.7540   14.0180 H   0  0  0  0  0  0  0  0  0  0  0  0
   31.6390   34.8120   14.7200 C   0  0  0  0  0  0  0  0  0  0  0  0
   32.0300   35.0420   13.5550 O   0  0  0  0  0  0  0  0  0  0  0  0
   32.1110   35.6270   15.7250 O   0  0  0  0  0  0  0  0  0  0  0  0
   31.6680   36.4890   16.0190 H   0  0  0  0  0  0  0  0  0  0  0  0
   30.0220   30.6740   15.9690 O   0  0  0  0  0  0  0  0  0  0  0  0
   29.1960   30.4440   16.4370 H   0  0  0  0  0  0  0  0  0  0  0  0
   30.6000   33.4010   18.2840 N   0  0  0  0  0  0  0  0  0  0  0  0
   31.0290   32.9950   19.5770 C   0  0  0  0  0  0  0  0  0  0  0  0
   30.8900   34.3490   17.9630 H   0  0  0  0  0  0  0  0  0  0  0  0
   31.8560   33.8650   20.4550 C   0  0  0  0  0  0  0  0  0  0  0  0
   30.7170   31.8610   20.0340 O   0  0  0  0  0  0  0  0  0  0  0  0
   27.1150   31.8840   16.7750 O   0  0  0  0  0  0  0  0  0  0  0  0
   27.6860   31.8570   17.6000 H   0  0  0  0  0  0  0  0  0  0  0  0
   27.1930   34.1840   14.0740 O   0  0  0  0  0  0  0  0  0  0  0  0
   26.4460   34.5460   13.5550 H   0  0  0  0  0  0  0  0  0  0  0  0
   26.1980   35.9850   15.6800 N   0  0  0  0  0  0  0  0  0  0  0  0
   26.8590   37.1550   16.1430 C   0  0  0  0  0  0  0  0  0  0  0  0
   25.5590   36.1120   14.8600 H   0  0  0  0  0  0  0  0  0  0  0  0
   27.6380   37.1170   17.1040 O   0  0  0  0  0  0  0  0  0  0  0  0
   26.6570   38.3890   15.5350 O   0  0  0  0  0  0  0  0  0  0  0  0
   27.6010   38.8790   14.5950 C   0  0  0  0  0  0  0  0  0  0  0  0
   27.8870   37.7810   13.6440 C   0  0  0  0  0  0  0  0  0  0  0  0
   27.2000   37.4770   12.4900 C   0  0  0  0  0  0  0  0  0  0  0  0
   28.8870   36.8840   13.7590 N   0  0  0  0  0  0  0  0  0  0  0  0
   27.8160   36.4090   11.9580 N   0  0  0  0  0  0  0  0  0  0  0  0
   28.8260   36.0640   12.7290 N   0  0  0  0  0  0  0  0  0  0  0  0
   27.4250   35.7650   10.7510 C   0  0  0  0  0  0  0  0  0  0  0  0
   26.6720   36.4630    9.8240 C   0  0  0  0  0  0  0  0  0  0  0  0
   27.7900   34.4550   10.5010 C   0  0  0  0  0  0  0  0  0  0  0  0
   26.3090   35.8060    8.6620 C   0  0  0  0  0  0  0  0  0  0  0  0
   27.4220   33.8190    9.3420 C   0  0  0  0  0  0  0  0  0  0  0  0
   26.6720   34.5080    8.4150 C   0  0  0  0  0  0  0  0  0  0  0  0
   29.8670   25.5550   16.9770 C   0  0  0  0  0  0  0  0  0  0  0  0
   28.3450   25.7220   17.0260 C   0  0  0  0  0  0  0  0  0  0  0  0
   27.6010   24.4030   16.8870 C   0  0  0  0  0  0  0  0  0  0  0  0
   26.5700   24.2170   17.9660 C   0  0  0  0  0  0  0  0  0  0  0  0
   25.2380   23.8250   17.3360 C   0  0  0  0  0  0  0  0  0  0  0  0
   24.9530   22.3910   17.5770 N   0  0  0  0  0  0  0  0  0  0  0  0
  2  3  1  0  0  0  0
  2  1  1  1  0  0  0
  3 23  1  1  0  0  0
  4  3  1  6  0  0  0
  4  9  1  0  0  0  0
  5 10  1  6  0  0  0
  5  6  1  0  0  0  0
  5  7  1  0  0  0  0
  6  8  1  0  0  0  0
  7  4  1  0  0  0  0
  8 16  1  6  0  0  0
  8  9  1  0  0  0  0
  9 18  1  1  0  0  0
 10 11  1  0  0  0  0
 12  5  1  0  0  0  0
 12 14  1  0  0  0  0
 13 12  2  0  0  0  0
 14 15  1  0  0  0  0
 16 17  1  0  0  0  0
 18 19  1  0  0  0  0
 19 22  2  0  0  0  0
 19 21  1  0  0  0  0
 20 18  1  0  0  0  0
 23 24  1  0  0  0  0
 25  2  1  0  0  0  0
 26 25  1  0  0  0  0
 27 28  1  0  0  0  0
 27  1  1  0  0  0  0
 28 30  2  0  0  0  0
 29 27  1  0  0  0  0
 31 28  1  0  0  0  0
 32 31  1  0  0  0  0
 33 35  1  0  0  0  0
 33 32  1  0  0  0  0
 34 33  2  0  0  0  0
 36 34  1  0  0  0  0
 36 37  1  0  0  0  0
 37 35  2  0  0  0  0
 38 36  1  0  0  0  0
 39 38  2  0  0  0  0
 40 38  1  0  0  0  0
 41 39  1  0  0  0  0
 42 40  2  0  0  0  0
 43 41  2  0  0  0  0
 43 42  1  0  0  0  0
 44 45  1  0  0  0  0
 46 45  1  0  0  0  0
 46 47  1  0  0  0  0
 48 49  1  0  0  0  0
 48 47  1  0  0  0  0
M  END
>  <REMARK>
 VINA RESULT:    -5.047      6.980     10.697
 INTER + INTRA:         -13.221
 INTER:                  -7.867
 INTRA:                  -5.354
 UNBOUND:                -4.485
 SMILES CC(=O)N[C@@H]1[C@@H](O)C[C@](O)(C(=O)O)O[C@H]1C(O)[C@H](O)CNC(=O)OCc1cn(-c2ccccc2)nn1
 SMILES IDX 20 1 18 2 16 3 15 4 9 5 8 6 14 7 6 8 5 9 10 10 11 12 12 13
 SMILES IDX 13 14 7 16 4 18 2 19 1 21 3 22 17 23 19 25 21 27 22 28 23 30
 SMILES IDX 24 31 25 32 26 33 27 34 36 35 28 36 35 37 29 38 30 39 34 40
 SMILES IDX 31 41 33 42 32 43
 H PARENT 10 11 13 15 7 17 4 20 17 24 19 26 21 29
 Flexibility Score: inf
  4 active torsions:
  status: ('A' for Active; 'I' for Inactive)
    1  A    between atoms: CA   and  CB  
    2  A    between atoms: CB   and  CG  
    3  A    between atoms: CG   and  CD  
    4  A    between atoms: CD   and  CE  

>  <TORSDO>
F 15

>  <BEGIN_>
RES LYS A 131

$$$$
ligand_3_pose_19_2HRL.pdbqt
 OpenBabel07062320523D

  6  5  0  0  0  0  0  0  0  0999 V2000
   33.1930   34.6630    9.2900 C   0  0  0  0  0  0  0  0  0  0  0  0
   32.0600   35.3600   10.0340 C   0  0  0  0  0  0  0  0  0  0  0  0
   30.8110   35.5300    9.2070 C   0  0  0  0  0  0  0  0  0  0  0  0
   30.3770   36.9880    9.1860 C   0  0  0  0  0  0  0  0  0  0  0  0
   29.6210   37.2990    7.9080 C   0  0  0  0  0  0  0  0  0  0  0  0
   29.7930   38.7260    7.5180 N   0  0  0  0  0  0  0  0  0  0  0  0
  1  2  1  0  0  0  0
  3  2  1  0  0  0  0
  4  3  1  0  0  0  0
  5  4  1  0  0  0  0
  6  5  1  0  0  0  0
M  END
>  <EGIN_R>
ES LYS A 135

>  <REMARK>
  4 active torsions:
  status: ('A' for Active; 'I' for Inactive)
    5  A    between atoms: CA   and  CB  
    6  A    between atoms: CB   and  CG  
    7  A    between atoms: CG   and  CD  
    8  A    between atoms: CD   and  CE  

$$$$
