ligand_47_pose_10_2HRL.pdbqt
 OpenBabel07062320523D

 62 64  0  0  1  0  0  0  0  0999 V2000
   18.8600   39.7380    8.1640 N   0  0  0  0  0  0  0  0  0  0  0  0
   19.4460   40.5370    9.1790 C   0  0  0  0  0  0  0  0  0  0  0  0
   19.0590   40.4110   10.3780 O   0  0  0  0  0  0  0  0  0  0  0  0
   19.2400   39.9050    7.1860 H   0  0  0  0  0  0  0  0  0  0  0  0
   17.8250   38.7650    8.4150 C   0  0  0  0  0  0  0  0  0  0  0  0
   17.7870   37.6630    7.3540 C   0  0  2  0  0  0  0  0  0  0  0  0
   18.7880   36.6340    7.7830 C   0  0  2  0  0  0  0  0  0  0  0  0
   18.5240   36.0750    9.1520 C   0  0  2  0  0  0  0  0  0  0  0  0
   19.6840   35.3320   11.0160 C   0  0  2  0  0  0  0  0  0  0  0  0
   18.3360   34.9250   11.5530 C   0  0  0  0  0  0  0  0  0  0  0  0
   19.6450   36.1610    9.9290 O   0  0  0  0  0  0  0  0  0  0  0  0
   17.4190   34.3920   10.5070 C   0  0  1  0  0  0  0  0  0  0  0  0
   18.0250   34.6500    9.1280 C   0  0  1  0  0  0  0  0  0  0  0  0
   20.3970   34.1620   10.7330 O   0  0  0  0  0  0  0  0  0  0  0  0
   21.0400   33.9510   11.4630 H   0  0  0  0  0  0  0  0  0  0  0  0
   20.3920   36.0390   12.1110 C   0  0  0  0  0  0  0  0  0  0  0  0
   20.0760   37.2230   12.3820 O   0  0  0  0  0  0  0  0  0  0  0  0
   21.3900   35.4330   12.8430 O   0  0  0  0  0  0  0  0  0  0  0  0
   21.6650   35.8270   13.7530 H   0  0  0  0  0  0  0  0  0  0  0  0
   17.0370   33.0850   10.6770 O   0  0  0  0  0  0  0  0  0  0  0  0
   16.0480   33.0020   10.6880 H   0  0  0  0  0  0  0  0  0  0  0  0
   17.0090   34.4650    8.1010 N   0  0  0  0  0  0  0  0  0  0  0  0
   16.9290   33.2120    7.4490 C   0  0  0  0  0  0  0  0  0  0  0  0
   16.3760   35.2470    7.8760 H   0  0  0  0  0  0  0  0  0  0  0  0
   15.9170   32.9680    6.3980 C   0  0  0  0  0  0  0  0  0  0  0  0
   17.7190   32.2840    7.7510 O   0  0  0  0  0  0  0  0  0  0  0  0
   20.0730   37.1090    7.6170 O   0  0  0  0  0  0  0  0  0  0  0  0
   20.4200   37.5840    8.4260 H   0  0  0  0  0  0  0  0  0  0  0  0
   18.1780   38.2770    6.1510 O   0  0  0  0  0  0  0  0  0  0  0  0
   18.8100   39.0020    6.4380 H   0  0  0  0  0  0  0  0  0  0  0  0
   20.4350   41.4560    8.8900 O   0  0  0  0  0  0  0  0  0  0  0  0
   21.7590   41.3230    9.4230 C   0  0  0  0  0  0  0  0  0  0  0  0
   22.5520   40.3630    8.6230 C   0  0  0  0  0  0  0  0  0  0  0  0
   22.8310   39.0380    8.9930 C   0  0  0  0  0  0  0  0  0  0  0  0
   23.1550   40.5080    7.4380 N   0  0  0  0  0  0  0  0  0  0  0  0
   23.5660   38.4450    8.0520 N   0  0  0  0  0  0  0  0  0  0  0  0
   23.7540   39.3810    7.0940 N   0  0  0  0  0  0  0  0  0  0  0  0
   24.1040   37.1220    7.9090 C   0  0  0  0  0  0  0  0  0  0  0  0
   24.4690   36.4090    9.1670 C   0  0  1  0  0  0  0  0  0  0  0  0
   23.3940   35.5210    9.6110 C   0  0  0  0  0  0  0  0  0  0  0  0
   23.3290   34.9420   10.7090 O   0  0  0  0  0  0  0  0  0  0  0  0
   22.3060   35.2670    8.7470 O   0  0  0  0  0  0  0  0  0  0  0  0
   22.0260   34.2970    8.5840 H   0  0  0  0  0  0  0  0  0  0  0  0
   25.7990   35.6850    9.0440 C   0  0  0  0  0  0  0  0  0  0  0  0
   26.5570   35.7180   10.3160 C   0  0  0  0  0  0  0  0  0  0  0  0
   27.2660   34.6000   10.7710 C   0  0  0  0  0  0  0  0  0  0  0  0
   26.6040   36.8470   11.1120 C   0  0  0  0  0  0  0  0  0  0  0  0
   27.9720   34.6300   11.9530 C   0  0  0  0  0  0  0  0  0  0  0  0
   27.3020   36.8930   12.2910 C   0  0  0  0  0  0  0  0  0  0  0  0
   27.9930   35.7920   12.7280 C   0  0  0  0  0  0  0  0  0  0  0  0
   26.6570   36.2000    7.9710 C   0  0  0  0  0  0  0  0  0  0  0  0
   27.3270   35.2650    7.1720 C   0  0  0  0  0  0  0  0  0  0  0  0
   26.8380   37.5410    7.7090 C   0  0  0  0  0  0  0  0  0  0  0  0
   28.1390   35.7090    6.1550 C   0  0  0  0  0  0  0  0  0  0  0  0
   27.6510   37.9870    6.6910 C   0  0  0  0  0  0  0  0  0  0  0  0
   28.3200   37.0660    5.8920 C   0  0  0  0  0  0  0  0  0  0  0  0
   29.8670   25.5550   16.9770 C   0  0  0  0  0  0  0  0  0  0  0  0
   28.3450   25.7220   17.0260 C   0  0  0  0  0  0  0  0  0  0  0  0
   27.6000   24.4180   16.7870 C   0  0  0  0  0  0  0  0  0  0  0  0
   26.6630   24.0860   17.9160 C   0  0  0  0  0  0  0  0  0  0  0  0
   26.3410   25.3550   18.7000 C   0  0  0  0  0  0  0  0  0  0  0  0
   24.9590   25.8050   18.4140 N   0  0  0  0  0  0  0  0  0  0  0  0
  1  5  1  0  0  0  0
  1  2  1  0  0  0  0
  2  3  2  0  0  0  0
  4  1  1  0  0  0  0
  6  7  1  0  0  0  0
  6  5  1  1  0  0  0
  7 27  1  1  0  0  0
  8  7  1  6  0  0  0
  8 11  1  0  0  0  0
  9 14  1  6  0  0  0
  9 10  1  0  0  0  0
  9 16  1  0  0  0  0
 11  9  1  0  0  0  0
 12 20  1  1  0  0  0
 12 10  1  0  0  0  0
 13 22  1  6  0  0  0
 13  8  1  0  0  0  0
 13 12  1  0  0  0  0
 14 15  1  0  0  0  0
 16 17  2  0  0  0  0
 16 18  1  0  0  0  0
 18 19  1  0  0  0  0
 20 21  1  0  0  0  0
 23 26  2  0  0  0  0
 23 22  1  0  0  0  0
 24 22  1  0  0  0  0
 25 23  1  0  0  0  0
 27 28  1  0  0  0  0
 29 30  1  0  0  0  0
 29  6  1  0  0  0  0
 31  2  1  0  0  0  0
 31 32  1  0  0  0  0
 33 34  2  0  0  0  0
 33 32  1  0  0  0  0
 35 33  1  0  0  0  0
 36 34  1  0  0  0  0
 37 35  2  0  0  0  0
 37 36  1  0  0  0  0
 38 36  1  0  0  0  0
 39 38  1  6  0  0  0
 39 40  1  0  0  0  0
 40 41  2  0  0  0  0
 42 40  1  0  0  0  0
 43 42  1  0  0  0  0
 44 39  1  0  0  0  0
 44 45  1  0  0  0  0
 45 46  2  0  0  0  0
 45 47  1  0  0  0  0
 46 48  1  0  0  0  0
 47 49  2  0  0  0  0
 48 50  2  0  0  0  0
 49 50  1  0  0  0  0
 51 44  1  0  0  0  0
 52 51  2  0  0  0  0
 53 51  1  0  0  0  0
 54 52  1  0  0  0  0
 55 53  2  0  0  0  0
 56 54  2  0  0  0  0
 56 55  1  0  0  0  0
 57 58  1  0  0  0  0
 59 58  1  0  0  0  0
 59 60  1  0  0  0  0
 60 61  1  0  0  0  0
 62 61  1  0  0  0  0
M  END
>  <REMARK>
 VINA RESULT:    -5.403      5.557     10.161
 INTER + INTRA:         -17.387
 INTER:                 -11.147
 INTRA:                  -6.240
 UNBOUND:                -6.299
 SMILES CC(=O)N[C@@H]1[C@@H](O)C[C@](O)(C(=O)O)O[C@H]1C(O)[C@H](O)CNC(=O)OCc1cn(C[C@@H](C(=O)O)C(c2ccccc2)c2ccccc2)nn1
 SMILES IDX 21 1 22 2 23 3 20 5 18 6 16 7 15 8 9 9 8 10 14 11 6 12 5 13
 SMILES IDX 10 14 11 16 12 17 13 18 7 20 4 22 2 23 1 25 3 26 17 27 19 29
 SMILES IDX 24 31 25 32 26 33 27 34 48 35 28 36 47 37 29 38 30 39 31 40
 SMILES IDX 32 41 33 42 34 44 35 45 36 46 40 47 37 48 39 49 38 50 41 51
 SMILES IDX 42 52 46 53 43 54 45 55 44 56
 H PARENT 21 4 10 15 13 19 7 21 4 24 17 28 19 30 33 43
 Flexibility Score: inf
  4 active torsions:
  status: ('A' for Active; 'I' for Inactive)
    1  A    between atoms: CA   and  CB  
    2  A    between atoms: CB   and  CG  
    3  A    between atoms: CG   and  CD  
    4  A    between atoms: CD   and  CE  

>  <TORSDO>
F 21

>  <BEGIN_>
RES LYS A 131

$$$$
ligand_47_pose_10_2HRL.pdbqt
 OpenBabel07062320523D

  6  5  0  0  0  0  0  0  0  0999 V2000
   33.1930   34.6630    9.2900 C   0  0  0  0  0  0  0  0  0  0  0  0
   32.0600   35.3600   10.0340 C   0  0  0  0  0  0  0  0  0  0  0  0
   30.7600   35.3780    9.2720 C   0  0  0  0  0  0  0  0  0  0  0  0
   30.0440   36.7060    9.4630 C   0  0  0  0  0  0  0  0  0  0  0  0
   30.7990   37.8230    8.7680 C   0  0  0  0  0  0  0  0  0  0  0  0
   31.3500   38.7940    9.7540 N   0  0  0  0  0  0  0  0  0  0  0  0
  1  2  1  0  0  0  0
  3  4  1  0  0  0  0
  3  2  1  0  0  0  0
  5  4  1  0  0  0  0
  5  6  1  0  0  0  0
M  END
>  <EGIN_R>
ES LYS A 135

>  <REMARK>
  4 active torsions:
  status: ('A' for Active; 'I' for Inactive)
    5  A    between atoms: CA   and  CB  
    6  A    between atoms: CB   and  CG  
    7  A    between atoms: CG   and  CD  
    8  A    between atoms: CD   and  CE  

$$$$
