ligand_51_pose_4_2HRL.pdbqt
 OpenBabel07062320523D

 53 56  0  0  1  0  0  0  0  0999 V2000
   28.7020   32.5250   20.1880 C   0  0  0  0  0  0  0  0  0  0  0  0
   30.1480   32.4460   19.7710 C   0  0  2  0  0  0  0  0  0  0  0  0
   30.6340   31.0200   19.6130 C   0  0  1  0  0  0  0  0  0  0  0  0
   30.2900   30.2040   20.8650 C   0  0  2  0  0  0  0  0  0  0  0  0
   32.1260   29.8950   22.2900 C   0  0  2  0  0  0  0  0  0  0  0  0
   32.5770   28.8300   21.3240 C   0  0  0  0  0  0  0  0  0  0  0  0
   31.0060   30.5760   21.9570 O   0  0  0  0  0  0  0  0  0  0  0  0
   31.4270   27.9510   20.9760 C   0  0  1  0  0  0  0  0  0  0  0  0
   30.2070   28.7470   20.5970 C   0  0  1  0  0  0  0  0  0  0  0  0
   33.1880   30.8300   22.3220 O   0  0  0  0  0  0  0  0  0  0  0  0
   33.3330   31.0620   23.2770 H   0  0  0  0  0  0  0  0  0  0  0  0
   32.0710   29.2670   23.6340 C   0  0  0  0  0  0  0  0  0  0  0  0
   31.0400   29.3190   24.3590 O   0  0  0  0  0  0  0  0  0  0  0  0
   33.1720   28.6000   24.1250 O   0  0  0  0  0  0  0  0  0  0  0  0
   33.2560   28.3180   25.1030 H   0  0  0  0  0  0  0  0  0  0  0  0
   31.8470   27.0990   19.9280 O   0  0  0  0  0  0  0  0  0  0  0  0
   32.4890   27.5680   19.3540 H   0  0  0  0  0  0  0  0  0  0  0  0
   29.0430   28.2140   21.2920 N   0  0  0  0  0  0  0  0  0  0  0  0
   27.9810   27.5650   20.6080 C   0  0  0  0  0  0  0  0  0  0  0  0
   28.9740   28.3080   22.3470 H   0  0  0  0  0  0  0  0  0  0  0  0
   26.8440   27.0570   21.3890 C   0  0  0  0  0  0  0  0  0  0  0  0
   28.0600   27.4520   19.3480 O   0  0  0  0  0  0  0  0  0  0  0  0
   30.2080   30.4250   18.4660 O   0  0  0  0  0  0  0  0  0  0  0  0
   29.5020   30.8680   17.9720 H   0  0  0  0  0  0  0  0  0  0  0  0
   30.8970   33.1510   20.7100 O   0  0  0  0  0  0  0  0  0  0  0  0
   31.5740   32.5190   21.1130 H   0  0  0  0  0  0  0  0  0  0  0  0
   27.9260   32.7820   18.9880 N   0  0  0  0  0  0  0  0  0  0  0  0
   27.1560   31.7530   18.3460 C   0  0  0  0  0  0  0  0  0  0  0  0
   27.8820   33.7200   18.5230 H   0  0  0  0  0  0  0  0  0  0  0  0
   27.1750   30.6090   18.8630 O   0  0  0  0  0  0  0  0  0  0  0  0
   26.4180   31.9810   17.2100 O   0  0  0  0  0  0  0  0  0  0  0  0
   26.8150   31.3810   15.9980 C   0  0  0  0  0  0  0  0  0  0  0  0
   28.2520   31.7400   15.7740 C   0  0  0  0  0  0  0  0  0  0  0  0
   28.6870   33.0010   15.4130 C   0  0  0  0  0  0  0  0  0  0  0  0
   29.3500   30.9950   15.8590 N   0  0  0  0  0  0  0  0  0  0  0  0
   30.0070   32.9620   15.2970 N   0  0  0  0  0  0  0  0  0  0  0  0
   30.3990   31.7360   15.5710 N   0  0  0  0  0  0  0  0  0  0  0  0
   30.8420   34.1080   14.9270 C   0  0  2  0  0  0  0  0  0  0  0  0
   30.4490   35.2420   15.8630 C   0  0  0  0  0  0  0  0  0  0  0  0
   30.6070   34.5020   13.5010 C   0  0  0  0  0  0  0  0  0  0  0  0
   32.2950   33.7440   15.1030 C   0  0  0  0  0  0  0  0  0  0  0  0
   31.2980   36.4600   15.5520 C   0  0  1  0  0  0  0  0  0  0  0  0
   31.4120   35.7500   13.2160 C   0  0  1  0  0  0  0  0  0  0  0  0
   33.1420   34.9630   14.8080 C   0  0  2  0  0  0  0  0  0  0  0  0
   32.7400   36.0920   15.7400 C   0  0  0  0  0  0  0  0  0  0  0  0
   31.0070   36.8680   14.1290 C   0  0  0  0  0  0  0  0  0  0  0  0
   32.8710   35.3920   13.3860 C   0  0  0  0  0  0  0  0  0  0  0  0
   29.8670   25.5550   16.9770 C   0  0  0  0  0  0  0  0  0  0  0  0
   28.3450   25.7220   17.0260 C   0  0  0  0  0  0  0  0  0  0  0  0
   27.6010   24.4010   16.8980 C   0  0  0  0  0  0  0  0  0  0  0  0
   26.5630   24.2300   17.9720 C   0  0  0  0  0  0  0  0  0  0  0  0
   25.6390   23.0730   17.6070 C   0  0  0  0  0  0  0  0  0  0  0  0
   24.3700   23.5830   17.0340 N   0  0  0  0  0  0  0  0  0  0  0  0
  2  1  1  1  0  0  0
  2 25  1  0  0  0  0
  3 23  1  6  0  0  0
  3  2  1  0  0  0  0
  4  3  1  6  0  0  0
  4  7  1  0  0  0  0
  5 10  1  1  0  0  0
  5 12  1  0  0  0  0
  6  5  1  0  0  0  0
  7  5  1  0  0  0  0
  8 16  1  6  0  0  0
  8  6  1  0  0  0  0
  9  4  1  0  0  0  0
  9  8  1  0  0  0  0
  9 18  1  1  0  0  0
 10 11  1  0  0  0  0
 12 14  1  0  0  0  0
 12 13  2  0  0  0  0
 14 15  1  0  0  0  0
 17 16  1  0  0  0  0
 18 20  1  0  0  0  0
 19 18  1  0  0  0  0
 19 21  1  0  0  0  0
 22 19  2  0  0  0  0
 24 23  1  0  0  0  0
 25 26  1  0  0  0  0
 27  1  1  0  0  0  0
 28 30  2  0  0  0  0
 28 27  1  0  0  0  0
 29 27  1  0  0  0  0
 31 28  1  0  0  0  0
 32 31  1  0  0  0  0
 33 35  1  0  0  0  0
 33 32  1  0  0  0  0
 34 33  2  0  0  0  0
 36 34  1  0  0  0  0
 36 37  1  0  0  0  0
 37 35  2  0  0  0  0
 38 40  1  6  0  0  0
 38 41  1  0  0  0  0
 38 36  1  0  0  0  0
 38 39  1  0  0  0  0
 42 46  1  6  0  0  0
 42 45  1  0  0  0  0
 42 39  1  0  0  0  0
 43 47  1  1  0  0  0
 43 40  1  0  0  0  0
 43 46  1  0  0  0  0
 44 47  1  6  0  0  0
 44 41  1  0  0  0  0
 44 45  1  0  0  0  0
 48 49  1  0  0  0  0
 50 49  1  0  0  0  0
 50 51  1  0  0  0  0
 52 51  1  0  0  0  0
 53 52  1  0  0  0  0
M  END
>  <REMARK>
 VINA RESULT:    -5.034      1.871      2.651
 INTER + INTRA:         -15.268
 INTER:                  -8.891
 INTRA:                  -6.377
 UNBOUND:                -6.554
 SMILES CC(=O)N[C@@H]1[C@@H](O)C[C@](O)(C(=O)O)O[C@H]1C(O)[C@H](O)CNC(=O)OCc1cn(C23CC4CC(CC(C4)C2)C3)nn1
 SMILES IDX 20 1 18 2 16 3 15 4 9 5 8 6 14 7 6 8 5 9 10 10 11 12 12 13
 SMILES IDX 13 14 7 16 4 18 2 19 1 21 3 22 17 23 19 25 21 27 22 28 23 30
 SMILES IDX 24 31 25 32 26 33 27 34 40 35 28 36 39 37 29 38 38 39 37 40
 SMILES IDX 30 41 33 42 35 43 31 44 32 45 34 46 36 47
 H PARENT 10 11 13 15 7 17 4 20 17 24 19 26 21 29
 Flexibility Score: inf
  4 active torsions:
  status: ('A' for Active; 'I' for Inactive)
    1  A    between atoms: CA   and  CB  
    2  A    between atoms: CB   and  CG  
    3  A    between atoms: CG   and  CD  
    4  A    between atoms: CD   and  CE  

>  <TORSDO>
F 15

>  <BEGIN_>
RES LYS A 131

$$$$
ligand_51_pose_4_2HRL.pdbqt
 OpenBabel07062320523D

  6  5  0  0  0  0  0  0  0  0999 V2000
   33.1930   34.6630    9.2900 C   0  0  0  0  0  0  0  0  0  0  0  0
   32.0600   35.3600   10.0340 C   0  0  0  0  0  0  0  0  0  0  0  0
   30.7060   34.7520    9.7760 C   0  0  0  0  0  0  0  0  0  0  0  0
   30.4940   34.5260    8.2870 C   0  0  0  0  0  0  0  0  0  0  0  0
   29.0760   34.8930    7.8890 C   0  0  0  0  0  0  0  0  0  0  0  0
   28.0860   34.3040    8.8330 N   0  0  0  0  0  0  0  0  0  0  0  0
  1  2  1  0  0  0  0
  3  2  1  0  0  0  0
  4  3  1  0  0  0  0
  5  4  1  0  0  0  0
  5  6  1  0  0  0  0
M  END
>  <EGIN_R>
ES LYS A 135

>  <REMARK>
  4 active torsions:
  status: ('A' for Active; 'I' for Inactive)
    5  A    between atoms: CA   and  CB  
    6  A    between atoms: CB   and  CG  
    7  A    between atoms: CG   and  CD  
    8  A    between atoms: CD   and  CE  

$$$$
