ligand_61_pose_18_2HRL.pdbqt
 OpenBabel07062320523D

 49 50  0  0  1  0  0  0  0  0999 V2000
   24.1430   38.5210    7.1690 N   0  0  0  0  0  0  0  0  0  0  0  0
   23.0730   38.0740    7.9780 C   0  0  0  0  0  0  0  0  0  0  0  0
   22.3110   38.9180    8.5010 O   0  0  0  0  0  0  0  0  0  0  0  0
   24.7580   37.7560    6.7470 H   0  0  0  0  0  0  0  0  0  0  0  0
   24.4390   39.9090    6.8910 C   0  0  0  0  0  0  0  0  0  0  0  0
   25.9180   40.0730    6.7550 C   0  0  2  0  0  0  0  0  0  0  0  0
   26.7090   38.8150    7.0480 C   0  0  2  0  0  0  0  0  0  0  0  0
   28.1200   39.1880    7.3570 C   0  0  2  0  0  0  0  0  0  0  0  0
   30.0860   40.0040    6.4560 C   0  0  2  0  0  0  0  0  0  0  0  0
   30.6130   39.7270    7.8430 C   0  0  0  0  0  0  0  0  0  0  0  0
   28.7060   39.9860    6.3950 O   0  0  0  0  0  0  0  0  0  0  0  0
   30.1740   38.4080    8.3880 C   0  0  1  0  0  0  0  0  0  0  0  0
   28.9740   37.9340    7.5950 C   0  0  1  0  0  0  0  0  0  0  0  0
   30.6860   39.1880    5.4960 O   0  0  0  0  0  0  0  0  0  0  0  0
   31.2920   39.7230    4.9350 H   0  0  0  0  0  0  0  0  0  0  0  0
   30.5050   41.4140    6.1270 C   0  0  0  0  0  0  0  0  0  0  0  0
   29.8270   42.1760    5.4260 O   0  0  0  0  0  0  0  0  0  0  0  0
   31.7140   41.8900    6.6330 O   0  0  0  0  0  0  0  0  0  0  0  0
   32.3600   42.4470    6.0870 H   0  0  0  0  0  0  0  0  0  0  0  0
   31.1740   37.4630    8.4530 O   0  0  0  0  0  0  0  0  0  0  0  0
   32.0800   37.8860    8.5750 H   0  0  0  0  0  0  0  0  0  0  0  0
   28.2030   36.9390    8.2920 N   0  0  0  0  0  0  0  0  0  0  0  0
   27.9440   35.6610    7.6980 C   0  0  0  0  0  0  0  0  0  0  0  0
   27.8070   37.1050    9.2430 H   0  0  0  0  0  0  0  0  0  0  0  0
   27.1700   34.5980    8.3420 C   0  0  0  0  0  0  0  0  0  0  0  0
   28.4190   35.4350    6.5350 O   0  0  0  0  0  0  0  0  0  0  0  0
   26.6600   38.0410    5.8880 O   0  0  0  0  0  0  0  0  0  0  0  0
   26.0860   37.2520    6.0420 H   0  0  0  0  0  0  0  0  0  0  0  0
   26.3240   41.0240    7.7050 O   0  0  0  0  0  0  0  0  0  0  0  0
   25.5960   41.2970    8.3040 H   0  0  0  0  0  0  0  0  0  0  0  0
   22.8840   36.6920    8.1800 O   0  0  0  0  0  0  0  0  0  0  0  0
   23.8050   36.0810    9.0730 C   0  0  0  0  0  0  0  0  0  0  0  0
   23.0400   35.4590   10.1630 C   0  0  0  0  0  0  0  0  0  0  0  0
   23.5290   34.8610   11.3130 C   0  0  0  0  0  0  0  0  0  0  0  0
   21.6950   35.3640   10.2300 N   0  0  0  0  0  0  0  0  0  0  0  0
   22.4610   34.4410   12.0050 N   0  0  0  0  0  0  0  0  0  0  0  0
   21.3510   34.7410   11.3570 N   0  0  0  0  0  0  0  0  0  0  0  0
   22.5130   33.7610   13.2690 C   0  0  0  0  0  0  0  0  0  0  0  0
   22.7180   32.2600   13.0630 C   0  0  0  0  0  0  0  0  0  0  0  0
   21.7290   31.4630   12.6750 C   0  0  0  0  0  0  0  0  0  0  0  0
   23.9730   31.7450   13.2920 C   0  0  0  0  0  0  0  0  0  0  0  0
   21.9590   30.1250   12.5020 C   0  0  0  0  0  0  0  0  0  0  0  0
   23.7080   29.9740   12.9190 S   0  0  0  0  0  0  0  0  0  0  0  0
   29.8670   25.5550   16.9770 C   0  0  0  0  0  0  0  0  0  0  0  0
   28.3450   25.7220   17.0260 C   0  0  0  0  0  0  0  0  0  0  0  0
   27.6010   24.4020   16.8930 C   0  0  0  0  0  0  0  0  0  0  0  0
   26.6180   24.1910   18.0110 C   0  0  0  0  0  0  0  0  0  0  0  0
   25.3710   25.0320   17.7580 C   0  0  0  0  0  0  0  0  0  0  0  0
   24.4430   24.3220   16.8460 N   0  0  0  0  0  0  0  0  0  0  0  0
  1  2  1  0  0  0  0
  2 31  1  0  0  0  0
  2  3  2  0  0  0  0
  4  1  1  0  0  0  0
  5  1  1  0  0  0  0
  6  5  1  1  0  0  0
  6  7  1  0  0  0  0
  6 29  1  0  0  0  0
  7 27  1  6  0  0  0
  8  7  1  6  0  0  0
  8 13  1  0  0  0  0
  9 14  1  6  0  0  0
  9 10  1  0  0  0  0
 10 12  1  0  0  0  0
 11  9  1  0  0  0  0
 11  8  1  0  0  0  0
 12 20  1  6  0  0  0
 13 22  1  1  0  0  0
 13 12  1  0  0  0  0
 15 14  1  0  0  0  0
 16  9  1  0  0  0  0
 16 18  1  0  0  0  0
 17 16  2  0  0  0  0
 19 18  1  0  0  0  0
 20 21  1  0  0  0  0
 22 24  1  0  0  0  0
 23 22  1  0  0  0  0
 23 25  1  0  0  0  0
 26 23  2  0  0  0  0
 27 28  1  0  0  0  0
 29 30  1  0  0  0  0
 31 32  1  0  0  0  0
 32 33  1  0  0  0  0
 33 35  1  0  0  0  0
 33 34  2  0  0  0  0
 34 36  1  0  0  0  0
 35 37  2  0  0  0  0
 36 38  1  0  0  0  0
 37 36  1  0  0  0  0
 39 38  1  0  0  0  0
 39 41  2  0  0  0  0
 40 39  1  0  0  0  0
 42 40  2  0  0  0  0
 42 43  1  0  0  0  0
 43 41  1  0  0  0  0
 44 45  1  0  0  0  0
 46 45  1  0  0  0  0
 46 47  1  0  0  0  0
 48 47  1  0  0  0  0
 49 48  1  0  0  0  0
M  END
>  <REMARK>
 VINA RESULT:    -4.004      3.449      6.111
 INTER + INTRA:         -13.301
 INTER:                  -9.073
 INTRA:                  -4.228
 UNBOUND:                -6.136
 SMILES CC(=O)N[C@@H]1[C@@H](O)C[C@](O)(C(=O)O)O[C@H]1C(O)[C@H](O)CNC(=O)OCc1cn(Cc2ccsc2)nn1
 SMILES IDX 21 1 22 2 23 3 20 5 18 6 16 7 15 8 9 9 8 10 14 11 6 12 5 13
 SMILES IDX 10 14 11 16 12 17 13 18 7 20 4 22 2 23 1 25 3 26 17 27 19 29
 SMILES IDX 24 31 25 32 26 33 27 34 36 35 28 36 35 37 29 38 30 39 31 40
 SMILES IDX 34 41 32 42 33 43
 H PARENT 21 4 10 15 13 19 7 21 4 24 17 28 19 30
 Flexibility Score: inf
  4 active torsions:
  status: ('A' for Active; 'I' for Inactive)
    1  A    between atoms: CA   and  CB  
    2  A    between atoms: CB   and  CG  
    3  A    between atoms: CG   and  CD  
    4  A    between atoms: CD   and  CE  

>  <TORSDO>
F 16

>  <BEGIN_>
RES LYS A 131

$$$$
ligand_61_pose_18_2HRL.pdbqt
 OpenBabel07062320523D

  6  5  0  0  0  0  0  0  0  0999 V2000
   33.1930   34.6630    9.2900 C   0  0  0  0  0  0  0  0  0  0  0  0
   32.0600   35.3600   10.0340 C   0  0  0  0  0  0  0  0  0  0  0  0
   30.7290   34.6680    9.8890 C   0  0  0  0  0  0  0  0  0  0  0  0
   29.8430   34.9520   11.0920 C   0  0  0  0  0  0  0  0  0  0  0  0
   30.6440   34.8600   12.3770 C   0  0  0  0  0  0  0  0  0  0  0  0
   29.8350   35.3040   13.5460 N   0  0  0  0  0  0  0  0  0  0  0  0
  1  2  1  0  0  0  0
  3  2  1  0  0  0  0
  3  4  1  0  0  0  0
  4  5  1  0  0  0  0
  5  6  1  0  0  0  0
M  END
>  <EGIN_R>
ES LYS A 135

>  <REMARK>
  4 active torsions:
  status: ('A' for Active; 'I' for Inactive)
    5  A    between atoms: CA   and  CB  
    6  A    between atoms: CB   and  CG  
    7  A    between atoms: CG   and  CD  
    8  A    between atoms: CD   and  CE  

$$$$
